Measured thermophysical data. Investigations to explore interactions in (polyhydroxy solute + L-ascorbic acid + H2O) solutions at different temperatures: Calorimetric and viscometric approach
Source: J. Chem. Thermodyn., 2016, 10.1016/j.jct.2016.07.020
Compound 1: L-ascorbic acid, C6H8O6, purity 99%
Compound 2: D-(+)-xylose, C5H10O5, purity 99%
Compound 3: xylitol, C5H12O5, purity 99%
Compound 4: D-(+)-galactose, C6H12O6, purity 98%
Compound 5: galactitol, C6H14O6, purity 99%
Compound 6: D(+)-glucose, C6H12O6, purity 99%
Compound 7: 2-deoxy-D-glucose, C6H12O5, purity 99%
Compound 8: methyl-.alpha.-D-glucopyranoside, C7H14O6, purity 99%
Compound 9: D-(+)-maltose, C12H22O11, purity 99%
Compound 10: water, H2O

System: D-(+)-xylose + water; phases: Liquid
Fixed: Pressure, kPa = 101.3
Property: Molar enthalpy of dilution, kJ/mol (Liquid); method: Isoperibol calorimetry
Temperature, K	Initial molality of solute, mol/kg	Final molality of solute, mol/kg	Molar enthalpy of dilution, kJ/mol	uncertainty
288.15	.25	.0048705	-.07567	
298.15	.25	.0048705	-.07248	
308.15	.25	.0048705	-.06595	
318.15	.25	.0048705	-.06211	

System: D-(+)-xylose + water; phases: Liquid
Property: Viscosity, Pa*s (Liquid); method: Capillary tube (Ostwald; Ubbelohde) method
Temperature, K	Molality, mol/kg of D-(+)-xylose	Pressure, kPa	Viscosity, Pa*s	uncertainty
288.15	.0399	101.3	.001155	
288.15	.0601	101.3	.001163	
288.15	.0797	101.3	.001173	
288.15	.0993	101.3	.001181	
288.15	.1195	101.3	.001188	
288.15	.1391	101.3	.001197	
288.15	.1583	101.3	.001206	
288.15	.1783	101.3	.001214	
298.15	.0399	101.3	.000901	
298.15	.0601	101.3	.000909	
298.15	.0797	101.3	.000914	
298.15	.0993	101.3	.00092	
298.15	.1195	101.3	.000927	
298.15	.1391	101.3	.000932	
298.15	.1583	101.3	.000937	
298.15	.1783	101.3	.000944	
308.15	.0399	101.3	.000727	
308.15	.0601	101.3	.000733	
308.15	.0797	101.3	.000739	
308.15	.0993	101.3	.000742	
308.15	.1195	101.3	.000747	
308.15	.1391	101.3	.000751	
308.15	.1583	101.3	.000756	
308.15	.1783	101.3	.000762	
318.15	.0399	101.3	.000603	
318.15	.0601	101.3	.000607	
318.15	.0797	101.3	.00061	
318.15	.0993	101.3	.000614	
318.15	.1195	101.3	.000618	
318.15	.1391	101.3	.000623	
318.15	.1583	101.3	.000626	
318.15	.1783	101.3	.00063	

System: xylitol + water; phases: Liquid
Fixed: Pressure, kPa = 101.3
Property: Molar enthalpy of dilution, kJ/mol (Liquid); method: Isoperibol calorimetry
Temperature, K	Initial molality of solute, mol/kg	Final molality of solute, mol/kg	Molar enthalpy of dilution, kJ/mol	uncertainty
288.15	.25	.0048705	-.01207	
298.15	.25	.0048705	-.02123	
308.15	.25	.0048705	-.0299	
318.15	.25	.0048705	-.04118	

System: xylitol + water; phases: Liquid
Property: Viscosity, Pa*s (Liquid); method: Capillary tube (Ostwald; Ubbelohde) method
Temperature, K	Molality, mol/kg of xylitol	Pressure, kPa	Viscosity, Pa*s	uncertainty
288.15	.0399	101.3	.00116	
288.15	.0599	101.3	.00117	
288.15	.08	101.3	.001179	
288.15	.0999	101.3	.001188	
288.15	.1196	101.3	.001197	
288.15	.1396	101.3	.001206	
288.15	.1593	101.3	.001214	
288.15	.1801	101.3	.001223	
298.15	.0399	101.3	.000905	
298.15	.0599	101.3	.000913	
298.15	.08	101.3	.000919	
298.15	.0999	101.3	.000926	
298.15	.1196	101.3	.000933	
298.15	.1396	101.3	.000939	
298.15	.1593	101.3	.000947	
298.15	.1801	101.3	.000954	
308.15	.0399	101.3	.00073	
308.15	.0599	101.3	.000736	
308.15	.08	101.3	.000742	
308.15	.0999	101.3	.000746	
308.15	.1196	101.3	.000751	
308.15	.1396	101.3	.000757	
308.15	.1593	101.3	.000762	
308.15	.1801	101.3	.000766	
318.15	.0399	101.3	.000604	
318.15	.0599	101.3	.000608	
318.15	.08	101.3	.000612	
318.15	.0999	101.3	.000616	
318.15	.1196	101.3	.000621	
318.15	.1396	101.3	.000625	
318.15	.1593	101.3	.00063	
318.15	.1801	101.3	.000634	

System: D(+)-glucose + water; phases: Liquid
Fixed: Pressure, kPa = 101.3
Property: Molar enthalpy of dilution, kJ/mol (Liquid); method: Isoperibol calorimetry
Temperature, K	Initial molality of solute, mol/kg	Final molality of solute, mol/kg	Molar enthalpy of dilution, kJ/mol	uncertainty
288.15	.25	.0048705	-.06954	
298.15	.25	.0048705	-.07565	
308.15	.25	.0048705	-.07854	
318.15	.25	.0048705	-.08539	

System: D(+)-glucose + water; phases: Liquid
Property: Viscosity, Pa*s (Liquid); method: Capillary tube (Ostwald; Ubbelohde) method
Temperature, K	Molality, mol/kg of D(+)-glucose	Pressure, kPa	Viscosity, Pa*s	uncertainty
288.15	.04	101.3	.001161	
288.15	.0599	101.3	.001171	
288.15	.0797	101.3	.001181	
288.15	.0999	101.3	.001193	
288.15	.1197	101.3	.001204	
288.15	.14	101.3	.001216	
288.15	.1598	101.3	.001227	
288.15	.1797	101.3	.001241	
298.15	.04	101.3	.000907	
298.15	.0599	101.3	.000915	
298.15	.0797	101.3	.000924	
298.15	.0999	101.3	.000932	
298.15	.1197	101.3	.00094	
298.15	.14	101.3	.000947	
298.15	.1598	101.3	.000954	
298.15	.1797	101.3	.000961	
308.15	.04	101.3	.000733	
308.15	.0599	101.3	.000737	
308.15	.0797	101.3	.000744	
308.15	.0999	101.3	.000751	
308.15	.1197	101.3	.000756	
308.15	.14	101.3	.000762	
308.15	.1598	101.3	.000768	
308.15	.1797	101.3	.000774	
318.15	.04	101.3	.000606	
318.15	.0599	101.3	.00061	
318.15	.0797	101.3	.000614	
318.15	.0999	101.3	.00062	
318.15	.1197	101.3	.000624	
318.15	.14	101.3	.000629	
318.15	.1598	101.3	.000636	
318.15	.1797	101.3	.00064	

System: 2-deoxy-D-glucose + water; phases: Liquid
Fixed: Pressure, kPa = 101.3
Property: Molar enthalpy of dilution, kJ/mol (Liquid); method: Isoperibol calorimetry
Temperature, K	Initial molality of solute, mol/kg	Final molality of solute, mol/kg	Molar enthalpy of dilution, kJ/mol	uncertainty
288.15	.25	.0048705	-.15623	
298.15	.25	.0048705	-.14176	
308.15	.25	.0048705	-.11924	
318.15	.25	.0048705	-.10147	

System: 2-deoxy-D-glucose + water; phases: Liquid
Property: Viscosity, Pa*s (Liquid); method: Capillary tube (Ostwald; Ubbelohde) method
Temperature, K	Molality, mol/kg of 2-deoxy-D-glucose	Pressure, kPa	Viscosity, Pa*s	uncertainty
288.15	.04	101.3	.001161	
288.15	.06	101.3	.001171	
288.15	.0797	101.3	.00118	
288.15	.1001	101.3	.001191	
288.15	.1201	101.3	.001201	
288.15	.1399	101.3	.001213	
298.15	.04	101.3	.000907	
298.15	.06	101.3	.000913	
298.15	.0797	101.3	.000919	
298.15	.1001	101.3	.000928	
298.15	.1201	101.3	.000936	
298.15	.1399	101.3	.000945	
308.15	.04	101.3	.00073	
308.15	.06	101.3	.000736	
308.15	.0797	101.3	.000742	
308.15	.1001	101.3	.000749	
308.15	.1201	101.3	.000754	
308.15	.1399	101.3	.000761	
318.15	.04	101.3	.000605	
318.15	.06	101.3	.000609	
318.15	.0797	101.3	.000615	
318.15	.1001	101.3	.000619	
318.15	.1201	101.3	.000624	
318.15	.1399	101.3	.000629	

System: methyl-.alpha.-D-glucopyranoside + water; phases: Liquid
Fixed: Pressure, kPa = 101.3
Property: Molar enthalpy of dilution, kJ/mol (Liquid); method: Isoperibol calorimetry
Temperature, K	Initial molality of solute, mol/kg	Final molality of solute, mol/kg	Molar enthalpy of dilution, kJ/mol	uncertainty
288.15	.25	.0048705	-.24949	
298.15	.25	.0048705	-.24176	
308.15	.25	.0048705	-.21732	
318.15	.25	.0048705	-.20009	

System: methyl-.alpha.-D-glucopyranoside + water; phases: Liquid
Property: Viscosity, Pa*s (Liquid); method: Capillary tube (Ostwald; Ubbelohde) method
Temperature, K	Molality, mol/kg of methyl-.alpha.-D-glucopyranoside	Pressure, kPa	Viscosity, Pa*s	uncertainty
288.15	.0397	101.3	.001159	
288.15	.06	101.3	.001172	
288.15	.08	101.3	.001183	
288.15	.0999	101.3	.001194	
288.15	.1191	101.3	.001206	
288.15	.1402	101.3	.001218	
288.15	.1599	101.3	.00123	
288.15	.1801	101.3	.001241	
298.15	.0397	101.3	.000906	
298.15	.06	101.3	.000916	
298.15	.08	101.3	.000925	
298.15	.0999	101.3	.000931	
298.15	.1191	101.3	.00094	
298.15	.1402	101.3	.000948	
298.15	.1599	101.3	.000956	
298.15	.1801	101.3	.000964	
308.15	.0397	101.3	.000732	
308.15	.06	101.3	.000739	
308.15	.08	101.3	.000745	
308.15	.0999	101.3	.000751	
308.15	.1191	101.3	.000757	
308.15	.1402	101.3	.000764	
308.15	.1599	101.3	.00077	
308.15	.1801	101.3	.000777	
318.15	.0397	101.3	.000606	
318.15	.06	101.3	.000611	
318.15	.08	101.3	.000616	
318.15	.0999	101.3	.000621	
318.15	.1191	101.3	.000625	
318.15	.1402	101.3	.000631	
318.15	.1599	101.3	.000636	
318.15	.1801	101.3	.00064	

System: D-(+)-maltose + water; phases: Liquid
Fixed: Pressure, kPa = 101.3
Property: Molar enthalpy of dilution, kJ/mol (Liquid); method: Isoperibol calorimetry
Temperature, K	Initial molality of solute, mol/kg	Final molality of solute, mol/kg	Molar enthalpy of dilution, kJ/mol	uncertainty
288.15	.25	.0048705	-.07373	
298.15	.25	.0048705	-.11099	
308.15	.25	.0048705	-.13249	
318.15	.25	.0048705	-.14325	

System: D-(+)-maltose + water; phases: Liquid
Property: Viscosity, Pa*s (Liquid); method: Capillary tube (Ostwald; Ubbelohde) method
Temperature, K	Molality, mol/kg of D-(+)-maltose	Pressure, kPa	Viscosity, Pa*s	uncertainty
288.15	.0402	101.3	.00119	
288.15	.0597	101.3	.001214	
288.15	.0793	101.3	.001239	
288.15	.0995	101.3	.001264	
288.15	.1194	101.3	.001286	
288.15	.1392	101.3	.001308	
288.15	.1587	101.3	.001332	
288.15	.1769	101.3	.001355	
298.15	.0402	101.3	.000929	
298.15	.0597	101.3	.000948	
298.15	.0793	101.3	.000964	
298.15	.0995	101.3	.000984	
298.15	.1194	101.3	.001002	
298.15	.1392	101.3	.001019	
298.15	.1587	101.3	.001037	
298.15	.1769	101.3	.001053	
308.15	.0402	101.3	.000751	
308.15	.0597	101.3	.000766	
308.15	.0793	101.3	.000779	
308.15	.0995	101.3	.000794	
308.15	.1194	101.3	.000809	
308.15	.1392	101.3	.000819	
308.15	.1587	101.3	.000836	
308.15	.1769	101.3	.000848	
318.15	.0402	101.3	.000621	
318.15	.0597	101.3	.000633	
318.15	.0793	101.3	.000643	
318.15	.0995	101.3	.000655	
318.15	.1194	101.3	.000666	
318.15	.1392	101.3	.000678	
318.15	.1587	101.3	.000688	
318.15	.1769	101.3	.000698	

System: L-ascorbic acid + D-(+)-xylose + water; phases: Liquid
Fixed: Pressure, kPa = 101.3
Property: Viscosity, Pa*s (Liquid); method: Capillary tube (Ostwald; Ubbelohde) method
Temperature, K	Solvent: Molality, mol/kg of L-ascorbic acid	Molality, mol/kg of D-(+)-xylose	Viscosity, Pa*s	uncertainty
288.15	0	.0399	.001155	
288.15	0	.0601	.001163	
288.15	0	.0797	.001173	
288.15	0	.0993	.001181	
288.15	0	.1195	.001188	
288.15	0	.1391	.001197	
288.15	0	.1583	.001206	
288.15	0	.1783	.001214	
298.15	0	.0399	.000901	
298.15	0	.0601	.000909	
298.15	0	.0797	.000914	
298.15	0	.0993	.00092	
298.15	0	.1195	.000927	
298.15	0	.1391	.000932	
298.15	0	.1583	.000937	
298.15	0	.1783	.000944	
308.15	0	.0399	.000727	
308.15	0	.0601	.000733	
308.15	0	.0797	.000739	
308.15	0	.0993	.000742	
308.15	0	.1195	.000747	
308.15	0	.1391	.000751	
308.15	0	.1583	.000756	
308.15	0	.1783	.000762	
318.15	0	.0399	.000603	
318.15	0	.0601	.000607	
318.15	0	.0797	.00061	
318.15	0	.0993	.000614	
318.15	0	.1195	.000618	
318.15	0	.1391	.000623	
318.15	0	.1583	.000626	
318.15	0	.1783	.00063	
288.15	.05	0	.001163	
288.15	.05	.0409	.001185	
288.15	.05	.0605	.001194	
288.15	.05	.0803	.001202	
288.15	.05	.1011	.001211	
288.15	.05	.1194	.001222	
288.15	.05	.1401	.00123	
288.15	.05	.1597	.00124	
288.15	.05	.1797	.00125	
298.15	.05	0	.00091	
298.15	.05	.0409	.000925	
298.15	.05	.0605	.000933	
298.15	.05	.0803	.000939	
298.15	.05	.1011	.000945	
298.15	.05	.1194	.000952	
298.15	.05	.1401	.00096	
298.15	.05	.1597	.000966	
298.15	.05	.1797	.000973	
308.15	.05	0	.000732	
308.15	.05	.0409	.000744	
308.15	.05	.0605	.000749	
308.15	.05	.0803	.000755	
308.15	.05	.1011	.000761	
308.15	.05	.1194	.000765	
308.15	.05	.1401	.000773	
308.15	.05	.1597	.000778	
308.15	.05	.1797	.000783	
318.15	.05	0	.000605	
318.15	.05	.0409	.000615	
318.15	.05	.0605	.00062	
318.15	.05	.0803	.000624	
318.15	.05	.1011	.000628	
318.15	.05	.1194	.000633	
318.15	.05	.1401	.000637	
318.15	.05	.1597	.000641	
318.15	.05	.1797	.000645	
288.15	.15	0	.00121	
288.15	.15	.0404	.001233	
288.15	.15	.0603	.001244	
288.15	.15	.0799	.001254	
288.15	.15	.101	.001264	
288.15	.15	.1199	.001273	
288.15	.15	.14	.001284	
288.15	.15	.1601	.00129	
288.15	.15	.18	.001301	
298.15	.15	0	.000944	
298.15	.15	.0404	.000961	
298.15	.15	.0603	.000968	
298.15	.15	.0799	.000975	
298.15	.15	.101	.000983	
298.15	.15	.1199	.000989	
298.15	.15	.14	.000996	
298.15	.15	.1601	.001004	
298.15	.15	.18	.001011	
308.15	.15	0	.000759	
308.15	.15	.0404	.000773	
308.15	.15	.0603	.000778	
308.15	.15	.0799	.000784	
308.15	.15	.101	.00079	
308.15	.15	.1199	.000796	
308.15	.15	.14	.000802	
308.15	.15	.1601	.000805	
308.15	.15	.18	.000813	
318.15	.15	0	.000625	
318.15	.15	.0404	.000636	
318.15	.15	.0603	.00064	
318.15	.15	.0799	.000645	
318.15	.15	.101	.00065	
318.15	.15	.1199	.000654	
318.15	.15	.14	.00066	
318.15	.15	.1601	.000665	
318.15	.15	.18	.000668	
288.15	.25	0	.001257	
288.15	.25	.0408	.00128	
288.15	.25	.06	.00129	
288.15	.25	.0793	.001301	
288.15	.25	.1003	.001312	
288.15	.25	.1199	.001323	
288.15	.25	.1391	.001333	
288.15	.25	.1591	.001347	
288.15	.25	.181	.001357	
298.15	.25	0	.000979	
298.15	.25	.0408	.000997	
298.15	.25	.06	.001003	
298.15	.25	.0793	.001011	
298.15	.25	.1003	.001019	
298.15	.25	.1199	.001027	
298.15	.25	.1391	.001035	
298.15	.25	.1591	.001044	
298.15	.25	.181	.00105	
308.15	.25	0	.000787	
308.15	.25	.0408	.0008	
308.15	.25	.06	.000806	
308.15	.25	.0793	.000811	
308.15	.25	.1003	.000818	
308.15	.25	.1199	.000825	
308.15	.25	.1391	.000832	
308.15	.25	.1591	.000837	
308.15	.25	.181	.000844	
318.15	.25	0	.000646	
318.15	.25	.0408	.000657	
318.15	.25	.06	.000661	
318.15	.25	.0793	.000666	
318.15	.25	.1003	.000672	
318.15	.25	.1199	.000678	
318.15	.25	.1391	.000681	
318.15	.25	.1591	.000687	
318.15	.25	.181	.000693	
288.15	.35	0	.001305	
288.15	.35	.0404	.001328	
288.15	.35	.0598	.001341	
288.15	.35	.0797	.001352	
288.15	.35	.0995	.001362	
288.15	.35	.1193	.001376	
288.15	.35	.1395	.001386	
288.15	.35	.1598	.001399	
288.15	.35	.1797	.00141	
298.15	.35	0	.001017	
298.15	.35	.0404	.001034	
298.15	.35	.0598	.001043	
298.15	.35	.0797	.001051	
298.15	.35	.0995	.001058	
298.15	.35	.1193	.001067	
298.15	.35	.1395	.001075	
298.15	.35	.1598	.001084	
298.15	.35	.1797	.001093	
308.15	.35	0	.000813	
308.15	.35	.0404	.000826	
308.15	.35	.0598	.000832	
308.15	.35	.0797	.000839	
308.15	.35	.0995	.000846	
308.15	.35	.1193	.000851	
308.15	.35	.1395	.00086	
308.15	.35	.1598	.000866	
308.15	.35	.1797	.000873	
318.15	.35	0	.000669	
318.15	.35	.0404	.00068	
318.15	.35	.0598	.000684	
318.15	.35	.0797	.00069	
318.15	.35	.0995	.000695	
318.15	.35	.1193	.0007	
318.15	.35	.1395	.000707	
318.15	.35	.1598	.000713	
318.15	.35	.1797	.000717	

System: L-ascorbic acid + xylitol + water; phases: Liquid
Fixed: Pressure, kPa = 101.3
Property: Viscosity, Pa*s (Liquid); method: Capillary tube (Ostwald; Ubbelohde) method
Temperature, K	Solvent: Molality, mol/kg of L-ascorbic acid	Molality, mol/kg of xylitol	Viscosity, Pa*s	uncertainty
288.15	0	.0399	.00116	
288.15	0	.0599	.00117	
288.15	0	.08	.001179	
288.15	0	.0999	.001188	
288.15	0	.1196	.001197	
288.15	0	.1396	.001206	
288.15	0	.1593	.001214	
288.15	0	.1801	.001223	
298.15	0	.0399	.000905	
298.15	0	.0599	.000913	
298.15	0	.08	.000919	
298.15	0	.0999	.000926	
298.15	0	.1196	.000933	
298.15	0	.1396	.000939	
298.15	0	.1593	.000947	
298.15	0	.1801	.000954	
308.15	0	.0399	.00073	
308.15	0	.0599	.000736	
308.15	0	.08	.000742	
308.15	0	.0999	.000746	
308.15	0	.1196	.000751	
308.15	0	.1396	.000757	
308.15	0	.1593	.000762	
308.15	0	.1801	.000766	
318.15	0	.0399	.000604	
318.15	0	.0599	.000608	
318.15	0	.08	.000612	
318.15	0	.0999	.000616	
318.15	0	.1196	.000621	
318.15	0	.1396	.000625	
318.15	0	.1593	.00063	
318.15	0	.1801	.000634	
288.15	.05	.0398	.001185	
288.15	.05	.0599	.001195	
288.15	.05	.0798	.001207	
288.15	.05	.0998	.001217	
288.15	.05	.119	.001227	
288.15	.05	.1391	.001239	
288.15	.05	.16	.001251	
288.15	.05	.1796	.001259	
298.15	.05	.0398	.000928	
298.15	.05	.0599	.000936	
298.15	.05	.0798	.000943	
298.15	.05	.0998	.000951	
298.15	.05	.119	.000958	
298.15	.05	.1391	.000966	
298.15	.05	.16	.000975	
298.15	.05	.1796	.000983	
308.15	.05	.0398	.000745	
308.15	.05	.0599	.000751	
308.15	.05	.0798	.000757	
308.15	.05	.0998	.000764	
308.15	.05	.119	.000769	
308.15	.05	.1391	.000776	
308.15	.05	.16	.000782	
308.15	.05	.1796	.000788	
318.15	.05	.0398	.000616	
318.15	.05	.0599	.00062	
318.15	.05	.0798	.000625	
318.15	.05	.0998	.000629	
318.15	.05	.119	.000634	
318.15	.05	.1391	.000639	
318.15	.05	.16	.000644	
318.15	.05	.1796	.000649	
288.15	.15	.0406	.001232	
288.15	.15	.0598	.001243	
288.15	.15	.0803	.001255	
288.15	.15	.0996	.001265	
288.15	.15	.1201	.001277	
288.15	.15	.1391	.001287	
288.15	.15	.1589	.001297	
288.15	.15	.1794	.00131	
298.15	.15	.0406	.000961	
298.15	.15	.0598	.000969	
298.15	.15	.0803	.000978	
298.15	.15	.0996	.000986	
298.15	.15	.1201	.000994	
298.15	.15	.1391	.001002	
298.15	.15	.1589	.00101	
298.15	.15	.1794	.001019	
308.15	.15	.0406	.000772	
308.15	.15	.0598	.000779	
308.15	.15	.0803	.000785	
308.15	.15	.0996	.000792	
308.15	.15	.1201	.000798	
308.15	.15	.1391	.000804	
308.15	.15	.1589	.00081	
308.15	.15	.1794	.000816	
318.15	.15	.0406	.000636	
318.15	.15	.0598	.000641	
318.15	.15	.0803	.000646	
318.15	.15	.0996	.000651	
318.15	.15	.1201	.000656	
318.15	.15	.1391	.000661	
318.15	.15	.1589	.000666	
318.15	.15	.1794	.00067	
288.15	.25	.0407	.001281	
288.15	.25	.0599	.001293	
288.15	.25	.08	.001304	
288.15	.25	.0996	.001315	
288.15	.25	.1201	.001327	
288.15	.25	.1395	.001336	
288.15	.25	.1589	.001347	
288.15	.25	.1795	.001359	
298.15	.25	.0407	.000998	
298.15	.25	.0599	.001006	
298.15	.25	.08	.001015	
298.15	.25	.0996	.001023	
298.15	.25	.1201	.00103	
298.15	.25	.1395	.001038	
298.15	.25	.1589	.001048	
298.15	.25	.1795	.001056	
308.15	.25	.0407	.000801	
308.15	.25	.0599	.000808	
308.15	.25	.08	.000813	
308.15	.25	.0996	.00082	
308.15	.25	.1201	.000826	
308.15	.25	.1395	.000831	
308.15	.25	.1589	.000839	
308.15	.25	.1795	.000846	
318.15	.25	.0407	.000657	
318.15	.25	.0599	.000662	
318.15	.25	.08	.000668	
318.15	.25	.0996	.000673	
318.15	.25	.1201	.000678	
318.15	.25	.1395	.000683	
318.15	.25	.1589	.000688	
318.15	.25	.1795	.000693	
288.15	.35	.0403	.001331	
288.15	.35	.0601	.001341	
288.15	.35	.0794	.001353	
288.15	.35	.0999	.001364	
288.15	.35	.12	.001376	
288.15	.35	.1377	.001388	
288.15	.35	.1599	.001398	
288.15	.35	.1804	.001409	
298.15	.35	.0403	.001036	
298.15	.35	.0601	.001045	
298.15	.35	.0794	.001053	
298.15	.35	.0999	.001061	
298.15	.35	.12	.001071	
298.15	.35	.1377	.001077	
298.15	.35	.1599	.001086	
298.15	.35	.1804	.001094	
308.15	.35	.0403	.000827	
308.15	.35	.0601	.000834	
308.15	.35	.0794	.00084	
308.15	.35	.0999	.000847	
308.15	.35	.12	.000854	
308.15	.35	.1377	.000859	
308.15	.35	.1599	.000866	
308.15	.35	.1804	.000872	
318.15	.35	.0403	.000679	
318.15	.35	.0601	.000684	
318.15	.35	.0794	.000691	
318.15	.35	.0999	.000695	
318.15	.35	.12	.000701	
318.15	.35	.1377	.000705	
318.15	.35	.1599	.000712	
318.15	.35	.1804	.000717	
288.15	.05	0	.001163	
298.15	.05	0	.00091	
308.15	.05	0	.000732	
318.15	.05	0	.000605	
288.15	.15	0	.00121	
298.15	.15	0	.000944	
308.15	.15	0	.000759	
318.15	.15	0	.000625	
288.15	.25	0	.001257	
298.15	.25	0	.000979	
308.15	.25	0	.000787	
318.15	.25	0	.000646	
288.15	.35	0	.001305	
298.15	.35	0	.001017	
308.15	.35	0	.000813	
318.15	.35	0	.000669	

System: L-ascorbic acid + D-(+)-galactose + water; phases: Liquid
Fixed: Pressure, kPa = 101.3
Property: Viscosity, Pa*s (Liquid); method: Capillary tube (Ostwald; Ubbelohde) method
Temperature, K	Solvent: Molality, mol/kg of L-ascorbic acid	Molality, mol/kg of D-(+)-galactose	Viscosity, Pa*s	uncertainty
288.15	0	.0402	.001158	
288.15	0	.0601	.001168	
288.15	0	.0792	.001179	
288.15	0	.0992	.00119	
288.15	0	.1199	.001203	
288.15	0	.139	.001214	
288.15	0	.1594	.001224	
288.15	0	.1793	.001237	
298.15	0	.0402	.000905	
298.15	0	.0601	.000913	
298.15	0	.0792	.00092	
298.15	0	.0992	.000929	
298.15	0	.1199	.000938	
298.15	0	.139	.000945	
298.15	0	.1594	.000953	
298.15	0	.1793	.000961	
308.15	0	.0402	.000731	
308.15	0	.0601	.000737	
308.15	0	.0792	.000743	
308.15	0	.0992	.000749	
308.15	0	.1199	.000755	
308.15	0	.139	.00076	
308.15	0	.1594	.000766	
308.15	0	.1793	.000773	
318.15	0	.0402	.000606	
318.15	0	.0601	.000611	
318.15	0	.0792	.000615	
318.15	0	.0992	.000618	
318.15	0	.1199	.000624	
318.15	0	.139	.000626	
318.15	0	.1594	.000631	
318.15	0	.1793	.000635	
288.15	.05	.0399	.001188	
288.15	.05	.0599	.0012	
288.15	.05	.0795	.001213	
288.15	.05	.0994	.001224	
288.15	.05	.1199	.001236	
288.15	.05	.1392	.001247	
288.15	.05	.159	.001257	
288.15	.05	.1794	.001268	
298.15	.05	.0399	.000928	
298.15	.05	.0599	.000936	
298.15	.05	.0795	.000946	
298.15	.05	.0994	.000955	
298.15	.05	.1199	.000963	
298.15	.05	.1392	.000973	
298.15	.05	.159	.00098	
298.15	.05	.1794	.000989	
308.15	.05	.0399	.000747	
308.15	.05	.0599	.000754	
308.15	.05	.0795	.000761	
308.15	.05	.0994	.000766	
308.15	.05	.1199	.000773	
308.15	.05	.1392	.000779	
308.15	.05	.159	.000786	
308.15	.05	.1794	.000792	
318.15	.05	.0399	.000615	
318.15	.05	.0599	.00062	
318.15	.05	.0795	.000625	
318.15	.05	.0994	.000631	
318.15	.05	.1199	.000637	
318.15	.05	.1392	.000642	
318.15	.05	.159	.000647	
318.15	.05	.1794	.000652	
288.15	.15	.0406	.001236	
288.15	.15	.0599	.001247	
288.15	.15	.0797	.001261	
288.15	.15	.0999	.001273	
288.15	.15	.1202	.001286	
288.15	.15	.1389	.001298	
288.15	.15	.1591	.001311	
288.15	.15	.1797	.001324	
298.15	.15	.0406	.000964	
298.15	.15	.0599	.000972	
298.15	.15	.0797	.000981	
298.15	.15	.0999	.000992	
298.15	.15	.1202	.001001	
298.15	.15	.1389	.001008	
298.15	.15	.1591	.001019	
298.15	.15	.1797	.001028	
308.15	.15	.0406	.000775	
308.15	.15	.0599	.000783	
308.15	.15	.0797	.000789	
308.15	.15	.0999	.000795	
308.15	.15	.1202	.000802	
308.15	.15	.1389	.000809	
308.15	.15	.1591	.000816	
308.15	.15	.1797	.000824	
318.15	.15	.0406	.000637	
318.15	.15	.0599	.000642	
318.15	.15	.0797	.000648	
318.15	.15	.0999	.000653	
318.15	.15	.1202	.000659	
318.15	.15	.1389	.000664	
318.15	.15	.1591	.00067	
318.15	.15	.1797	.000675	
288.15	.25	.04	.001288	
288.15	.25	.0599	.0013	
288.15	.25	.0794	.001313	
288.15	.25	.0997	.001328	
288.15	.25	.1198	.001341	
288.15	.25	.139	.001353	
288.15	.25	.16	.00137	
288.15	.25	.18	.001381	
298.15	.25	.04	.001	
298.15	.25	.0599	.00101	
298.15	.25	.0794	.001021	
298.15	.25	.0997	.001032	
298.15	.25	.1198	.00104	
298.15	.25	.139	.00105	
298.15	.25	.16	.001062	
298.15	.25	.18	.00107	
308.15	.25	.04	.000803	
308.15	.25	.0599	.000811	
308.15	.25	.0794	.000817	
308.15	.25	.0997	.000826	
308.15	.25	.1198	.000833	
308.15	.25	.139	.000842	
308.15	.25	.16	.000851	
308.15	.25	.18	.000858	
318.15	.25	.04	.000659	
318.15	.25	.0599	.000665	
318.15	.25	.0794	.000671	
318.15	.25	.0997	.000677	
318.15	.25	.1198	.000682	
318.15	.25	.139	.000688	
318.15	.25	.16	.000694	
318.15	.25	.18	.000701	
288.15	.35	.0399	.001331	
288.15	.35	.0598	.001345	
288.15	.35	.0797	.001357	
288.15	.35	.0999	.001369	
288.15	.35	.1193	.001381	
288.15	.35	.1393	.001395	
288.15	.35	.1594	.001406	
288.15	.35	.1792	.001417	
298.15	.35	.0399	.001036	
298.15	.35	.0598	.001045	
298.15	.35	.0797	.001054	
298.15	.35	.0999	.001062	
298.15	.35	.1193	.001073	
298.15	.35	.1393	.001082	
298.15	.35	.1594	.001092	
298.15	.35	.1792	.0011	
308.15	.35	.0399	.000826	
308.15	.35	.0598	.000834	
308.15	.35	.0797	.000841	
308.15	.35	.0999	.000849	
308.15	.35	.1193	.000855	
308.15	.35	.1393	.000863	
308.15	.35	.1594	.000872	
308.15	.35	.1792	.000877	
318.15	.35	.0399	.000681	
318.15	.35	.0598	.000685	
318.15	.35	.0797	.000691	
318.15	.35	.0999	.000696	
318.15	.35	.1193	.000702	
318.15	.35	.1393	.000708	
318.15	.35	.1594	.000713	
318.15	.35	.1792	.000718	
288.15	.05	0	.001163	
298.15	.05	0	.00091	
308.15	.05	0	.000732	
318.15	.05	0	.000605	
288.15	.15	0	.00121	
298.15	.15	0	.000944	
308.15	.15	0	.000759	
318.15	.15	0	.000625	
288.15	.25	0	.001257	
298.15	.25	0	.000979	
308.15	.25	0	.000787	
318.15	.25	0	.000646	
288.15	.35	0	.001305	
298.15	.35	0	.001017	
308.15	.35	0	.000813	
318.15	.35	0	.000669	

System: L-ascorbic acid + galactitol + water; phases: Liquid
Fixed: Pressure, kPa = 101.3
Property: Viscosity, Pa*s (Liquid); method: Capillary tube (Ostwald; Ubbelohde) method
Temperature, K	Solvent: Molality, mol/kg of L-ascorbic acid	Molality, mol/kg of galactitol	Viscosity, Pa*s	uncertainty
288.15	0	.04	.001161	
288.15	0	.0603	.001172	
288.15	0	.0797	.001183	
288.15	0	.1002	.001191	
288.15	0	.1196	.001202	
288.15	0	.14	.001213	
288.15	0	.1597	.001221	
288.15	0	.1795	.001229	
298.15	0	.04	.000904	
298.15	0	.0603	.000912	
298.15	0	.0797	.000919	
298.15	0	.1002	.000926	
298.15	0	.1196	.000933	
298.15	0	.14	.000939	
298.15	0	.1597	.000948	
298.15	0	.1795	.000953	
308.15	0	.04	.00073	
308.15	0	.0603	.000736	
308.15	0	.0797	.000741	
308.15	0	.1002	.000746	
308.15	0	.1196	.000751	
308.15	0	.14	.000756	
308.15	0	.1597	.000761	
308.15	0	.1795	.000766	
318.15	0	.04	.000602	
318.15	0	.0603	.000607	
318.15	0	.0797	.00061	
318.15	0	.1002	.000614	
318.15	0	.1196	.000617	
318.15	0	.14	.000623	
318.15	0	.1597	.000626	
318.15	0	.1795	.000628	
288.15	.05	.0398	.001183	
288.15	.05	.0601	.001196	
288.15	.05	.0796	.001207	
288.15	.05	.1006	.001219	
288.15	.05	.1191	.001231	
288.15	.05	.1395	.001244	
288.15	.05	.1597	.001256	
288.15	.05	.1798	.001267	
298.15	.05	.0398	.000925	
298.15	.05	.0601	.000933	
298.15	.05	.0796	.000942	
298.15	.05	.1006	.00095	
298.15	.05	.1191	.000959	
298.15	.05	.1395	.000966	
298.15	.05	.1597	.000974	
298.15	.05	.1798	.000982	
308.15	.05	.0398	.000743	
308.15	.05	.0601	.000749	
308.15	.05	.0796	.000756	
308.15	.05	.1006	.000762	
308.15	.05	.1191	.000768	
308.15	.05	.1395	.000775	
308.15	.05	.1597	.000781	
308.15	.05	.1798	.000786	
318.15	.05	.0398	.000613	
318.15	.05	.0601	.000617	
318.15	.05	.0796	.000622	
318.15	.05	.1006	.000626	
318.15	.05	.1191	.000631	
318.15	.05	.1395	.000635	
318.15	.05	.1597	.000639	
318.15	.05	.1798	.000644	
288.15	.15	.0399	.001235	
288.15	.15	.0597	.001246	
288.15	.15	.0796	.001259	
288.15	.15	.1002	.001272	
288.15	.15	.1196	.001282	
288.15	.15	.1389	.001295	
288.15	.15	.1599	.001306	
288.15	.15	.1801	.001318	
298.15	.15	.0399	.00096	
298.15	.15	.0597	.000969	
298.15	.15	.0796	.000978	
298.15	.15	.1002	.000987	
298.15	.15	.1196	.000995	
298.15	.15	.1389	.001003	
298.15	.15	.1599	.00101	
298.15	.15	.1801	.001018	
308.15	.15	.0399	.000771	
308.15	.15	.0597	.000777	
308.15	.15	.0796	.000784	
308.15	.15	.1002	.000791	
308.15	.15	.1196	.000796	
308.15	.15	.1389	.000803	
308.15	.15	.1599	.00081	
308.15	.15	.1801	.000816	
318.15	.15	.0399	.000635	
318.15	.15	.0597	.00064	
318.15	.15	.0796	.000643	
318.15	.15	.1002	.000648	
318.15	.15	.1196	.000652	
318.15	.15	.1389	.000656	
318.15	.15	.1599	.000661	
318.15	.15	.1801	.000666	
288.15	.25	.0396	.001281	
288.15	.25	.0601	.001295	
288.15	.25	.0799	.001309	
288.15	.25	.1	.001322	
288.15	.25	.1199	.001335	
288.15	.25	.14	.001348	
288.15	.25	.16	.00136	
288.15	.25	.1799	.001371	
298.15	.25	.0396	.000997	
298.15	.25	.0601	.001005	
298.15	.25	.0799	.001015	
298.15	.25	.1	.001022	
298.15	.25	.1199	.001033	
298.15	.25	.14	.001041	
298.15	.25	.16	.001051	
298.15	.25	.1799	.00106	
308.15	.25	.0396	.0008	
308.15	.25	.0601	.000808	
308.15	.25	.0799	.000814	
308.15	.25	.1	.000821	
308.15	.25	.1199	.000828	
308.15	.25	.14	.000833	
308.15	.25	.16	.00084	
308.15	.25	.1799	.000847	
318.15	.25	.0396	.000656	
318.15	.25	.0601	.000661	
318.15	.25	.0799	.000665	
318.15	.25	.1	.00067	
318.15	.25	.1199	.000675	
318.15	.25	.14	.000681	
318.15	.25	.16	.000685	
318.15	.25	.1799	.000689	
288.15	.35	.0402	.00133	
288.15	.35	.0599	.001342	
288.15	.35	.0798	.001357	
288.15	.35	.0995	.00137	
288.15	.35	.1197	.001385	
288.15	.35	.1397	.001396	
288.15	.35	.1596	.00141	
288.15	.35	.1797	.001423	
298.15	.35	.0402	.001034	
298.15	.35	.0599	.001044	
298.15	.35	.0798	.001053	
298.15	.35	.0995	.001062	
298.15	.35	.1197	.00107	
298.15	.35	.1397	.001079	
298.15	.35	.1596	.001089	
298.15	.35	.1797	.001097	
308.15	.35	.0402	.000827	
308.15	.35	.0599	.000833	
308.15	.35	.0798	.000839	
308.15	.35	.0995	.000846	
308.15	.35	.1197	.000854	
308.15	.35	.1397	.00086	
308.15	.35	.1596	.000868	
308.15	.35	.1797	.000873	
318.15	.35	.0402	.000679	
318.15	.35	.0599	.000683	
318.15	.35	.0798	.000688	
318.15	.35	.0995	.000694	
318.15	.35	.1197	.000699	
318.15	.35	.1397	.000702	
318.15	.35	.1596	.000708	
318.15	.35	.1797	.000713	
288.15	.05	0	.001163	
298.15	.05	0	.00091	
308.15	.05	0	.000732	
318.15	.05	0	.000605	
288.15	.15	0	.00121	
298.15	.15	0	.000944	
308.15	.15	0	.000759	
318.15	.15	0	.000625	
288.15	.25	0	.001257	
298.15	.25	0	.000979	
308.15	.25	0	.000787	
318.15	.25	0	.000646	
288.15	.35	0	.001305	
298.15	.35	0	.001017	
308.15	.35	0	.000813	
318.15	.35	0	.000669	

System: L-ascorbic acid + D(+)-glucose + water; phases: Liquid
Fixed: Pressure, kPa = 101.3
Property: Viscosity, Pa*s (Liquid); method: Capillary tube (Ostwald; Ubbelohde) method
Temperature, K	Solvent: Molality, mol/kg of L-ascorbic acid	Molality, mol/kg of D(+)-glucose	Viscosity, Pa*s	uncertainty
288.15	0	.04	.001161	
288.15	0	.0599	.001171	
288.15	0	.0797	.001181	
288.15	0	.0999	.001193	
288.15	0	.1197	.001204	
288.15	0	.14	.001216	
288.15	0	.1598	.001227	
288.15	0	.1797	.001241	
298.15	0	.04	.000907	
298.15	0	.0599	.000915	
298.15	0	.0797	.000924	
298.15	0	.0999	.000932	
298.15	0	.1197	.00094	
298.15	0	.14	.000947	
298.15	0	.1598	.000954	
298.15	0	.1797	.000961	
308.15	0	.04	.000733	
308.15	0	.0599	.000737	
308.15	0	.0797	.000744	
308.15	0	.0999	.000751	
308.15	0	.1197	.000756	
308.15	0	.14	.000762	
308.15	0	.1598	.000768	
308.15	0	.1797	.000774	
318.15	0	.04	.000606	
318.15	0	.0599	.00061	
318.15	0	.0797	.000614	
318.15	0	.0999	.00062	
318.15	0	.1197	.000624	
318.15	0	.14	.000629	
318.15	0	.1598	.000636	
318.15	0	.1797	.00064	
288.15	.05	.0401	.001189	
288.15	.05	.06	.001201	
288.15	.05	.0795	.001211	
288.15	.05	.0996	.001223	
288.15	.05	.1195	.001236	
288.15	.05	.1395	.001247	
288.15	.05	.1597	.001261	
288.15	.05	.1791	.001271	
298.15	.05	.0401	.000929	
298.15	.05	.06	.000938	
298.15	.05	.0795	.000948	
298.15	.05	.0996	.000955	
298.15	.05	.1195	.000965	
298.15	.05	.1395	.000974	
298.15	.05	.1597	.000982	
298.15	.05	.1791	.00099	
308.15	.05	.0401	.000747	
308.15	.05	.06	.000754	
308.15	.05	.0795	.000761	
308.15	.05	.0996	.000767	
308.15	.05	.1195	.000775	
308.15	.05	.1395	.000782	
308.15	.05	.1597	.000788	
308.15	.05	.1791	.000794	
318.15	.05	.0401	.000616	
318.15	.05	.06	.000622	
318.15	.05	.0795	.000627	
318.15	.05	.0996	.000633	
318.15	.05	.1195	.000638	
318.15	.05	.1395	.000643	
318.15	.05	.1597	.000649	
318.15	.05	.1791	.000655	
288.15	.15	.0398	.00124	
288.15	.15	.0596	.00125	
288.15	.15	.0796	.001264	
288.15	.15	.0996	.001277	
288.15	.15	.1194	.001291	
288.15	.15	.1392	.001304	
288.15	.15	.159	.001318	
288.15	.15	.1798	.001332	
298.15	.15	.0398	.000966	
298.15	.15	.0596	.000975	
298.15	.15	.0796	.000985	
298.15	.15	.0996	.000993	
298.15	.15	.1194	.001004	
298.15	.15	.1392	.001014	
298.15	.15	.159	.001023	
298.15	.15	.1798	.001033	
308.15	.15	.0398	.000776	
308.15	.15	.0596	.000782	
308.15	.15	.0796	.000789	
308.15	.15	.0996	.000798	
308.15	.15	.1194	.000805	
308.15	.15	.1392	.000813	
308.15	.15	.159	.000823	
308.15	.15	.1798	.000829	
318.15	.15	.0398	.000638	
318.15	.15	.0596	.000643	
318.15	.15	.0796	.000649	
318.15	.15	.0996	.000656	
318.15	.15	.1194	.000661	
318.15	.15	.1392	.000669	
318.15	.15	.159	.000675	
318.15	.15	.1798	.00068	
288.15	.25	.0399	.001286	
288.15	.25	.06	.0013	
288.15	.25	.0794	.001315	
288.15	.25	.0992	.001329	
288.15	.25	.1195	.001346	
288.15	.25	.1391	.001359	
288.15	.25	.1591	.001372	
288.15	.25	.1789	.001385	
298.15	.25	.0399	.001001	
298.15	.25	.06	.00101	
298.15	.25	.0794	.001022	
298.15	.25	.0992	.001032	
298.15	.25	.1195	.001045	
298.15	.25	.1391	.001054	
298.15	.25	.1591	.001064	
298.15	.25	.1789	.001074	
308.15	.25	.0399	.000804	
308.15	.25	.06	.000811	
308.15	.25	.0794	.000821	
308.15	.25	.0992	.000828	
308.15	.25	.1195	.000838	
308.15	.25	.1391	.000845	
308.15	.25	.1591	.000853	
308.15	.25	.1789	.000861	
318.15	.25	.0399	.00066	
318.15	.25	.06	.000667	
318.15	.25	.0794	.000674	
318.15	.25	.0992	.00068	
318.15	.25	.1195	.000686	
318.15	.25	.1391	.000692	
318.15	.25	.1591	.000699	
318.15	.25	.1789	.000705	
288.15	.35	.0401	.00134	
288.15	.35	.06	.001356	
288.15	.35	.0792	.00137	
288.15	.35	.0994	.001386	
288.15	.35	.1199	.001402	
288.15	.35	.1395	.001419	
288.15	.35	.1597	.001431	
288.15	.35	.1791	.001447	
298.15	.35	.0401	.00104	
298.15	.35	.06	.001053	
298.15	.35	.0792	.001064	
298.15	.35	.0994	.001076	
298.15	.35	.1199	.001088	
298.15	.35	.1395	.0011	
298.15	.35	.1597	.001112	
298.15	.35	.1791	.001123	
308.15	.35	.0401	.00083	
308.15	.35	.06	.00084	
308.15	.35	.0792	.000849	
308.15	.35	.0994	.000858	
308.15	.35	.1199	.000868	
308.15	.35	.1395	.000876	
308.15	.35	.1597	.000888	
308.15	.35	.1791	.000896	
318.15	.35	.0401	.000685	
318.15	.35	.06	.000692	
318.15	.35	.0792	.000699	
318.15	.35	.0994	.000706	
318.15	.35	.1199	.000713	
318.15	.35	.1395	.00072	
318.15	.35	.1597	.000727	
318.15	.35	.1791	.000733	
288.15	.05	0	.001163	
298.15	.05	0	.00091	
308.15	.05	0	.000732	
318.15	.05	0	.000605	
288.15	.15	0	.00121	
298.15	.15	0	.000944	
308.15	.15	0	.000759	
318.15	.15	0	.000625	
288.15	.25	0	.001257	
298.15	.25	0	.000979	
308.15	.25	0	.000787	
318.15	.25	0	.000646	
288.15	.35	0	.001305	
298.15	.35	0	.001017	
308.15	.35	0	.000813	
318.15	.35	0	.000669	

System: L-ascorbic acid + 2-deoxy-D-glucose + water; phases: Liquid
Fixed: Pressure, kPa = 101.3
Property: Viscosity, Pa*s (Liquid); method: Capillary tube (Ostwald; Ubbelohde) method
Temperature, K	Solvent: Molality, mol/kg of L-ascorbic acid	Molality, mol/kg of 2-deoxy-D-glucose	Viscosity, Pa*s	uncertainty
288.15	0	.04	.001161	
288.15	0	.06	.001171	
288.15	0	.0797	.00118	
288.15	0	.1001	.001191	
288.15	0	.1201	.001201	
288.15	0	.1399	.001213	
298.15	0	.04	.000907	
298.15	0	.06	.000913	
298.15	0	.0797	.000919	
298.15	0	.1001	.000928	
298.15	0	.1201	.000936	
298.15	0	.1399	.000945	
308.15	0	.04	.00073	
308.15	0	.06	.000736	
308.15	0	.0797	.000742	
308.15	0	.1001	.000749	
308.15	0	.1201	.000754	
308.15	0	.1399	.000761	
318.15	0	.04	.000605	
318.15	0	.06	.000609	
318.15	0	.0797	.000615	
318.15	0	.1001	.000619	
318.15	0	.1201	.000624	
318.15	0	.1399	.000629	
288.15	.05	.0399	.001184	
288.15	.05	.0598	.001195	
288.15	.05	.0794	.001206	
288.15	.05	.0993	.001218	
288.15	.05	.1199	.00123	
288.15	.05	.1398	.001241	
298.15	.05	.0399	.000926	
298.15	.05	.0598	.000934	
298.15	.05	.0794	.000942	
298.15	.05	.0993	.00095	
298.15	.05	.1199	.000959	
298.15	.05	.1398	.000967	
308.15	.05	.0399	.000745	
308.15	.05	.0598	.000752	
308.15	.05	.0794	.000757	
308.15	.05	.0993	.000764	
308.15	.05	.1199	.000769	
308.15	.05	.1398	.000776	
318.15	.05	.0399	.000615	
318.15	.05	.0598	.00062	
318.15	.05	.0794	.000625	
318.15	.05	.0993	.00063	
318.15	.05	.1199	.000635	
318.15	.05	.1398	.00064	
288.15	.15	.0399	.001235	
288.15	.15	.0601	.001248	
288.15	.15	.0795	.001262	
288.15	.15	.1	.001275	
288.15	.15	.1198	.001287	
288.15	.15	.1399	.0013	
298.15	.15	.0399	.000963	
298.15	.15	.0601	.000972	
298.15	.15	.0795	.000981	
298.15	.15	.1	.000992	
298.15	.15	.1198	.001001	
298.15	.15	.1399	.001011	
308.15	.15	.0399	.000774	
308.15	.15	.0601	.000781	
308.15	.15	.0795	.00079	
308.15	.15	.1	.000797	
308.15	.15	.1198	.000804	
308.15	.15	.1399	.000811	
318.15	.15	.0399	.000637	
318.15	.15	.0601	.000644	
318.15	.15	.0795	.00065	
318.15	.15	.1	.000655	
318.15	.15	.1198	.00066	
318.15	.15	.1399	.000667	
288.15	.25	.0398	.001286	
288.15	.25	.0603	.001302	
288.15	.25	.0804	.001314	
288.15	.25	.1	.001327	
288.15	.25	.12	.001341	
288.15	.25	.1398	.001355	
298.15	.25	.0398	.001	
298.15	.25	.0603	.00101	
298.15	.25	.0804	.00102	
298.15	.25	.1	.001031	
298.15	.25	.12	.001042	
298.15	.25	.1398	.001052	
308.15	.25	.0398	.000804	
308.15	.25	.0603	.000811	
308.15	.25	.0804	.00082	
308.15	.25	.1	.000828	
308.15	.25	.12	.000836	
308.15	.25	.1398	.000843	
318.15	.25	.0398	.000659	
318.15	.25	.0603	.000667	
318.15	.25	.0804	.000672	
318.15	.25	.1	.000679	
318.15	.25	.12	.000686	
318.15	.25	.1398	.000693	
288.15	.35	.0406	.001337	
288.15	.35	.0599	.001352	
288.15	.35	.0797	.001367	
288.15	.35	.1001	.001383	
288.15	.35	.1199	.001398	
288.15	.35	.1398	.001412	
298.15	.35	.0406	.00104	
298.15	.35	.0599	.001051	
298.15	.35	.0797	.001063	
298.15	.35	.1001	.001075	
298.15	.35	.1199	.001087	
298.15	.35	.1398	.001097	
308.15	.35	.0406	.000832	
308.15	.35	.0599	.00084	
308.15	.35	.0797	.000848	
308.15	.35	.1001	.000858	
308.15	.35	.1199	.000867	
308.15	.35	.1398	.000876	
318.15	.35	.0406	.000684	
318.15	.35	.0599	.000691	
318.15	.35	.0797	.000698	
318.15	.35	.1001	.000705	
318.15	.35	.1199	.000713	
318.15	.35	.1398	.00072	
288.15	.05	0	.001163	
298.15	.05	0	.00091	
308.15	.05	0	.000732	
318.15	.05	0	.000605	
288.15	.15	0	.00121	
298.15	.15	0	.000944	
308.15	.15	0	.000759	
318.15	.15	0	.000625	
288.15	.25	0	.001257	
298.15	.25	0	.000979	
308.15	.25	0	.000787	
318.15	.25	0	.000646	
288.15	.35	0	.001305	
298.15	.35	0	.001017	
308.15	.35	0	.000813	
318.15	.35	0	.000669	

System: L-ascorbic acid + methyl-.alpha.-D-glucopyranoside + water; phases: Liquid
Fixed: Pressure, kPa = 101.3
Property: Viscosity, Pa*s (Liquid); method: Capillary tube (Ostwald; Ubbelohde) method
Temperature, K	Solvent: Molality, mol/kg of L-ascorbic acid	Molality, mol/kg of methyl-.alpha.-D-glucopyranoside	Viscosity, Pa*s	uncertainty
288.15	0	.0397	.001159	
288.15	0	.06	.001172	
288.15	0	.08	.001183	
288.15	0	.0999	.001194	
288.15	0	.1191	.001206	
288.15	0	.1402	.001218	
288.15	0	.1599	.00123	
288.15	0	.1801	.001241	
298.15	0	.0397	.000906	
298.15	0	.06	.000916	
298.15	0	.08	.000925	
298.15	0	.0999	.000931	
298.15	0	.1191	.00094	
298.15	0	.1402	.000948	
298.15	0	.1599	.000956	
298.15	0	.1801	.000964	
308.15	0	.0397	.000732	
308.15	0	.06	.000739	
308.15	0	.08	.000745	
308.15	0	.0999	.000751	
308.15	0	.1191	.000757	
308.15	0	.1402	.000764	
308.15	0	.1599	.00077	
308.15	0	.1801	.000777	
318.15	0	.0397	.000606	
318.15	0	.06	.000611	
318.15	0	.08	.000616	
318.15	0	.0999	.000621	
318.15	0	.1191	.000625	
318.15	0	.1402	.000631	
318.15	0	.1599	.000636	
318.15	0	.1801	.00064	
288.15	.05	.04	.001186	
288.15	.05	.0598	.001199	
288.15	.05	.0802	.001212	
288.15	.05	.0995	.001223	
288.15	.05	.119	.001237	
288.15	.05	.1397	.00125	
288.15	.05	.1586	.001262	
288.15	.05	.179	.001274	
298.15	.05	.04	.000927	
298.15	.05	.0598	.000937	
298.15	.05	.0802	.000946	
298.15	.05	.0995	.000955	
298.15	.05	.119	.000963	
298.15	.05	.1397	.000974	
298.15	.05	.1586	.000982	
298.15	.05	.179	.000991	
308.15	.05	.04	.000747	
308.15	.05	.0598	.000754	
308.15	.05	.0802	.000761	
308.15	.05	.0995	.000767	
308.15	.05	.119	.000775	
308.15	.05	.1397	.000782	
308.15	.05	.1586	.000789	
308.15	.05	.179	.000796	
318.15	.05	.04	.000616	
318.15	.05	.0598	.000621	
318.15	.05	.0802	.000627	
318.15	.05	.0995	.000632	
318.15	.05	.119	.000638	
318.15	.05	.1397	.000644	
318.15	.05	.1586	.000649	
318.15	.05	.179	.000655	
288.15	.15	.0402	.001235	
288.15	.15	.06	.00125	
288.15	.15	.0799	.001264	
288.15	.15	.1004	.001276	
288.15	.15	.12	.001291	
288.15	.15	.1399	.001305	
288.15	.15	.1586	.001315	
288.15	.15	.1792	.001327	
298.15	.15	.0402	.000963	
298.15	.15	.06	.000973	
298.15	.15	.0799	.000983	
298.15	.15	.1004	.000994	
298.15	.15	.12	.001004	
298.15	.15	.1399	.001013	
298.15	.15	.1586	.001023	
298.15	.15	.1792	.001031	
308.15	.15	.0402	.000775	
308.15	.15	.06	.000782	
308.15	.15	.0799	.000789	
308.15	.15	.1004	.000798	
308.15	.15	.12	.000806	
308.15	.15	.1399	.000814	
308.15	.15	.1586	.000822	
308.15	.15	.1792	.000828	
318.15	.15	.0402	.000638	
318.15	.15	.06	.000644	
318.15	.15	.0799	.000649	
318.15	.15	.1004	.000656	
318.15	.15	.12	.000662	
318.15	.15	.1399	.000667	
318.15	.15	.1586	.000673	
318.15	.15	.1792	.000679	
288.15	.25	.0402	.001288	
288.15	.25	.06	.001298	
288.15	.25	.0799	.001314	
288.15	.25	.0996	.00133	
288.15	.25	.1199	.001344	
288.15	.25	.1399	.001358	
288.15	.25	.1587	.001372	
288.15	.25	.1783	.001385	
298.15	.25	.0402	.001	
298.15	.25	.06	.001011	
298.15	.25	.0799	.001022	
298.15	.25	.0996	.001033	
298.15	.25	.1199	.001043	
298.15	.25	.1399	.001054	
298.15	.25	.1587	.001065	
298.15	.25	.1783	.001074	
308.15	.25	.0402	.000805	
308.15	.25	.06	.000813	
308.15	.25	.0799	.000822	
308.15	.25	.0996	.00083	
308.15	.25	.1199	.000838	
308.15	.25	.1399	.000845	
308.15	.25	.1587	.000853	
308.15	.25	.1783	.000861	
318.15	.25	.0402	.00066	
318.15	.25	.06	.000667	
318.15	.25	.0799	.000673	
318.15	.25	.0996	.000679	
318.15	.25	.1199	.000687	
318.15	.25	.1399	.000693	
318.15	.25	.1587	.000699	
318.15	.25	.1783	.000705	
288.15	.35	.0401	.001336	
288.15	.35	.0599	.001351	
288.15	.35	.0798	.001368	
288.15	.35	.0992	.001384	
288.15	.35	.1196	.001397	
288.15	.35	.1392	.001414	
288.15	.35	.1587	.00143	
288.15	.35	.1796	.001447	
298.15	.35	.0401	.00104	
298.15	.35	.0599	.001051	
298.15	.35	.0798	.001063	
298.15	.35	.0992	.001073	
298.15	.35	.1196	.001088	
298.15	.35	.1392	.001096	
298.15	.35	.1587	.001109	
298.15	.35	.1796	.001122	
308.15	.35	.0401	.000832	
308.15	.35	.0599	.00084	
308.15	.35	.0798	.000851	
308.15	.35	.0992	.000859	
308.15	.35	.1196	.000867	
308.15	.35	.1392	.000876	
308.15	.35	.1587	.000885	
308.15	.35	.1796	.000894	
318.15	.35	.0401	.000684	
318.15	.35	.0599	.000691	
318.15	.35	.0798	.000698	
318.15	.35	.0992	.000704	
318.15	.35	.1196	.000712	
318.15	.35	.1392	.000718	
318.15	.35	.1587	.000725	
318.15	.35	.1796	.000733	
288.15	.05	0	.001163	
298.15	.05	0	.00091	
308.15	.05	0	.000732	
318.15	.05	0	.000605	
288.15	.15	0	.00121	
298.15	.15	0	.000944	
308.15	.15	0	.000759	
318.15	.15	0	.000625	
288.15	.25	0	.001257	
298.15	.25	0	.000979	
308.15	.25	0	.000787	
318.15	.25	0	.000646	
288.15	.35	0	.001305	
298.15	.35	0	.001017	
308.15	.35	0	.000813	
318.15	.35	0	.000669	

System: L-ascorbic acid + D-(+)-maltose + water; phases: Liquid
Fixed: Pressure, kPa = 101.3
Property: Viscosity, Pa*s (Liquid); method: Capillary tube (Ostwald; Ubbelohde) method
Temperature, K	Solvent: Molality, mol/kg of L-ascorbic acid	Molality, mol/kg of D-(+)-maltose	Viscosity, Pa*s	uncertainty
288.15	0	.0402	.00119	
288.15	0	.0597	.001214	
288.15	0	.0793	.001239	
288.15	0	.0995	.001264	
288.15	0	.1194	.001286	
288.15	0	.1392	.001308	
288.15	0	.1587	.001332	
288.15	0	.1769	.001355	
298.15	0	.0402	.000929	
298.15	0	.0597	.000948	
298.15	0	.0793	.000964	
298.15	0	.0995	.000984	
298.15	0	.1194	.001002	
298.15	0	.1392	.001019	
298.15	0	.1587	.001037	
298.15	0	.1769	.001053	
308.15	0	.0402	.000751	
308.15	0	.0597	.000766	
308.15	0	.0793	.000779	
308.15	0	.0995	.000794	
308.15	0	.1194	.000809	
308.15	0	.1392	.000819	
308.15	0	.1587	.000836	
308.15	0	.1769	.000848	
318.15	0	.0402	.000621	
318.15	0	.0597	.000633	
318.15	0	.0793	.000643	
318.15	0	.0995	.000655	
318.15	0	.1194	.000666	
318.15	0	.1392	.000678	
318.15	0	.1587	.000688	
318.15	0	.1769	.000698	
288.15	.05	.0403	.00122	
288.15	.05	.0596	.001244	
288.15	.0499	.0796	.001273	
288.15	.0499	.0994	.001295	
288.15	.0499	.1197	.001324	
288.15	.0499	.1386	.001347	
288.15	.0499	.1594	.001372	
288.15	.0498	.1782	.001396	
298.15	.05	.0403	.000951	
298.15	.05	.0596	.000972	
298.15	.0499	.0796	.000992	
298.15	.0499	.0994	.001013	
298.15	.0499	.1197	.001031	
298.15	.0499	.1386	.001051	
298.15	.0499	.1594	.001069	
298.15	.0498	.1782	.001087	
308.15	.05	.0403	.000766	
308.15	.05	.0596	.00078	
308.15	.0499	.0796	.000797	
308.15	.0499	.0994	.000812	
308.15	.0499	.1197	.000827	
308.15	.0499	.1386	.000846	
308.15	.0499	.1594	.000859	
308.15	.0498	.1782	.000874	
318.15	.05	.0403	.000631	
318.15	.05	.0596	.000645	
318.15	.0499	.0796	.000658	
318.15	.0499	.0994	.00067	
318.15	.0499	.1197	.000683	
318.15	.0499	.1386	.000694	
318.15	.0499	.1594	.000705	
318.15	.0498	.1782	.000715	
288.15	.1499	.0403	.00127	
288.15	.1498	.0586	.001295	
288.15	.1498	.0801	.001326	
288.15	.1497	.0997	.001353	
288.15	.1497	.1166	.001373	
288.15	.1496	.139	.001404	
288.15	.1496	.1557	.001426	
288.15	.1495	.1753	.001455	
298.15	.1499	.0403	.000988	
298.15	.1498	.0586	.001006	
298.15	.1498	.0801	.001031	
298.15	.1497	.0997	.001051	
298.15	.1497	.1166	.001071	
298.15	.1496	.139	.001093	
298.15	.1496	.1557	.001107	
298.15	.1495	.1753	.001127	
308.15	.1499	.0403	.000794	
308.15	.1498	.0586	.000812	
308.15	.1498	.0801	.000828	
308.15	.1497	.0997	.000842	
308.15	.1497	.1166	.000858	
308.15	.1496	.139	.000877	
308.15	.1496	.1557	.000892	
308.15	.1495	.1753	.000907	
318.15	.1499	.0403	.000654	
318.15	.1498	.0586	.000666	
318.15	.1498	.0801	.000681	
318.15	.1497	.0997	.000694	
318.15	.1497	.1166	.000704	
318.15	.1496	.139	.000719	
318.15	.1496	.1557	.00073	
318.15	.1495	.1753	.000741	
288.15	.2498	.0398	.001318	
288.15	.2497	.0593	.00135	
288.15	.2496	.0796	.001378	
288.15	.2495	.0992	.001406	
288.15	.2494	.1189	.001433	
288.15	.2494	.1376	.001464	
288.15	.2493	.1577	.001494	
288.15	.2492	.1772	.001517	
298.15	.2498	.0398	.001027	
298.15	.2497	.0593	.001049	
298.15	.2496	.0796	.001072	
298.15	.2495	.0992	.001094	
298.15	.2494	.1189	.001115	
298.15	.2494	.1376	.001133	
298.15	.2493	.1577	.001156	
298.15	.2492	.1772	.001175	
308.15	.2498	.0398	.000825	
308.15	.2497	.0593	.000842	
308.15	.2496	.0796	.00086	
308.15	.2495	.0992	.000877	
308.15	.2494	.1189	.000895	
308.15	.2494	.1376	.00091	
308.15	.2493	.1577	.000927	
308.15	.2492	.1772	.000943	
318.15	.2498	.0398	.000676	
318.15	.2497	.0593	.00069	
318.15	.2496	.0796	.000703	
318.15	.2495	.0992	.000718	
318.15	.2494	.1189	.000732	
318.15	.2494	.1376	.000745	
318.15	.2493	.1577	.000758	
318.15	.2492	.1772	.000771	
288.15	.3497	.0401	.001372	
288.15	.3496	.06	.001402	
288.15	.3495	.0792	.001432	
288.15	.3493	.0995	.001462	
288.15	.3492	.1186	.001496	
288.15	.3491	.139	.001531	
288.15	.3489	.1591	.001562	
288.15	.3488	.1784	.001585	
298.15	.3497	.0401	.001066	
298.15	.3496	.06	.001089	
298.15	.3495	.0792	.001113	
298.15	.3493	.0995	.001138	
298.15	.3492	.1186	.001161	
298.15	.3491	.139	.001187	
298.15	.3489	.1591	.001207	
298.15	.3488	.1784	.00123	
308.15	.3497	.0401	.000854	
308.15	.3496	.06	.000872	
308.15	.3495	.0792	.000891	
308.15	.3493	.0995	.000909	
308.15	.3492	.1186	.000927	
308.15	.3491	.139	.000947	
308.15	.3489	.1591	.000964	
308.15	.3488	.1784	.000982	
318.15	.3497	.0401	.0007	
318.15	.3496	.06	.000716	
318.15	.3495	.0792	.000729	
318.15	.3493	.0995	.000746	
318.15	.3492	.1186	.00076	
318.15	.3491	.139	.000776	
318.15	.3489	.1591	.000789	
318.15	.3488	.1784	.000805	
288.15	.05	0	.001163	
298.15	.05	0	.00091	
308.15	.05	0	.000732	
318.15	.05	0	.000605	
288.15	.15	0	.00121	
298.15	.15	0	.000944	
308.15	.15	0	.000759	
318.15	.15	0	.000625	
288.15	.25	0	.001257	
298.15	.25	0	.000979	
308.15	.25	0	.000787	
318.15	.25	0	.000646	
288.15	.35	0	.001305	
298.15	.35	0	.001017	
308.15	.35	0	.000813	
318.15	.35	0	.000669	

System: L-ascorbic acid + water; phases: Liquid
Property: Viscosity, Pa*s (Liquid); method: Capillary tube (Ostwald; Ubbelohde) method
Temperature, K	Molality, mol/kg of L-ascorbic acid	Pressure, kPa	Viscosity, Pa*s	uncertainty
288.15	.05	101.3	.001163	
298.15	.05	101.3	.00091	
308.15	.05	101.3	.000732	
318.15	.05	101.3	.000605	
288.15	.15	101.3	.00121	
298.15	.15	101.3	.000944	
308.15	.15	101.3	.000759	
318.15	.15	101.3	.000625	
288.15	.25	101.3	.001257	
298.15	.25	101.3	.000979	
308.15	.25	101.3	.000787	
318.15	.25	101.3	.000646	
288.15	.35	101.3	.001305	
298.15	.35	101.3	.001017	
308.15	.35	101.3	.000813	
318.15	.35	101.3	.000669	

System: D-(+)-galactose + water; phases: Liquid
Property: Viscosity, Pa*s (Liquid); method: Capillary tube (Ostwald; Ubbelohde) method
Temperature, K	Molality, mol/kg of D-(+)-galactose	Pressure, kPa	Viscosity, Pa*s	uncertainty
288.15	.0402	101.3	.001158	
288.15	.0601	101.3	.001168	
288.15	.0792	101.3	.001179	
288.15	.0992	101.3	.00119	
288.15	.1199	101.3	.001203	
288.15	.139	101.3	.001214	
288.15	.1594	101.3	.001224	
288.15	.1793	101.3	.001237	
298.15	.0402	101.3	.000905	
298.15	.0601	101.3	.000913	
298.15	.0792	101.3	.00092	
298.15	.0992	101.3	.000929	
298.15	.1199	101.3	.000938	
298.15	.139	101.3	.000945	
298.15	.1594	101.3	.000953	
298.15	.1793	101.3	.000961	
308.15	.0402	101.3	.000731	
308.15	.0601	101.3	.000737	
308.15	.0792	101.3	.000743	
308.15	.0992	101.3	.000749	
308.15	.1199	101.3	.000755	
308.15	.139	101.3	.00076	
308.15	.1594	101.3	.000766	
308.15	.1793	101.3	.000773	
318.15	.0402	101.3	.000606	
318.15	.0601	101.3	.000611	
318.15	.0792	101.3	.000615	
318.15	.0992	101.3	.000618	
318.15	.1199	101.3	.000624	
318.15	.139	101.3	.000626	
318.15	.1594	101.3	.000631	
318.15	.1793	101.3	.000635	

System: galactitol + water; phases: Liquid
Property: Viscosity, Pa*s (Liquid); method: Capillary tube (Ostwald; Ubbelohde) method
Temperature, K	Molality, mol/kg of galactitol	Pressure, kPa	Viscosity, Pa*s	uncertainty
288.15	.04	101.3	.001161	
288.15	.0603	101.3	.001172	
288.15	.0797	101.3	.001183	
288.15	.1002	101.3	.001191	
288.15	.1196	101.3	.001202	
288.15	.14	101.3	.001213	
288.15	.1597	101.3	.001221	
288.15	.1795	101.3	.001229	
298.15	.04	101.3	.000904	
298.15	.0603	101.3	.000912	
298.15	.0797	101.3	.000919	
298.15	.1002	101.3	.000926	
298.15	.1196	101.3	.000933	
298.15	.14	101.3	.000939	
298.15	.1597	101.3	.000948	
298.15	.1795	101.3	.000953	
308.15	.04	101.3	.00073	
308.15	.0603	101.3	.000736	
308.15	.0797	101.3	.000741	
308.15	.1002	101.3	.000746	
308.15	.1196	101.3	.000751	
308.15	.14	101.3	.000756	
308.15	.1597	101.3	.000761	
308.15	.1795	101.3	.000766	
318.15	.04	101.3	.000602	
318.15	.0603	101.3	.000607	
318.15	.0797	101.3	.00061	
318.15	.1002	101.3	.000614	
318.15	.1196	101.3	.000617	
318.15	.14	101.3	.000623	
318.15	.1597	101.3	.000626	
318.15	.1795	101.3	.000628	
