Measured thermophysical data. Experiments and model for the surface tension of DEAE-PZ and DEAE-MEA aqueous solutions
Source: J. Chem. Thermodyn., 2017, 10.1016/j.jct.2016.10.007
Compound 1: 2-diethylaminoethanol, C6H15NO, purity 99%
Compound 2: monoethanolamine, C2H7NO, purity 99.5%
Compound 3: piperazine, C4H10N2, purity 99.5%
Compound 4: water, H2O, purity 99.9%

System: 2-diethylaminoethanol; phases: Liquid, Air at 1 atmosphere
Property: Surface tension liquid-gas, N/m (Liquid); method: Wilhemy plate method
Temperature, K	Surface tension liquid-gas, N/m	uncertainty
303.2	.0277	
313.2	.0264	
323.2	.0252	
283.2	.0297	
293.2	.0286	

System: water; phases: Liquid, Air at 1 atmosphere
Property: Surface tension liquid-gas, N/m (Liquid); method: Wilhemy plate method
Temperature, K	Surface tension liquid-gas, N/m	uncertainty
298.2	.0719	

System: 2-diethylaminoethanol + water; phases: Liquid, Air at 1 atmosphere
Property: Surface tension liquid-gas, N/m (Liquid); method: Wilhemy plate method
Temperature, K	Mass fraction of 2-diethylaminoethanol	Surface tension liquid-gas, N/m	uncertainty
303.2	.1	.0412	
303.2	.137	.0401	
303.2	.2	.0365	
303.2	.213	.0363	
303.2	.3	.0349	
303.2	.4	.0336	
303.2	.483	.0329	
303.2	.5	.0327	
303.2	.58	.0318	
303.2	.6	.0313	
303.2	.685	.0307	
303.2	.7	.0303	
303.2	.8	.0296	
303.2	.814	.0295	
303.2	.9	.0287	
303.2	.91	.0286	
303.2	1	.0277	
313.2	.1	.0392	
313.2	.2	.0347	
313.2	.3	.0332	
313.2	.4	.0321	
313.2	.5	.0312	
313.2	.6	.0298	
313.2	.7	.0287	
313.2	.8	.028	
313.2	.9	.0273	
313.2	1	.0264	
323.2	.1	.0373	
323.2	.2	.0331	
323.2	.3	.0317	
323.2	.4	.0307	
323.2	.5	.0299	
323.2	.6	.0283	
323.2	.7	.0273	
323.2	.8	.0266	
323.2	.9	.026	
323.2	1	.0252	

System: 2-diethylaminoethanol + monoethanolamine + water; phases: Liquid, Air at 1 atmosphere
Property: Surface tension liquid-gas, N/m (Liquid); method: Wilhemy plate method
Temperature, K	Mass fraction of 2-diethylaminoethanol	Mass fraction of monoethanolamine	Surface tension liquid-gas, N/m	uncertainty
303.2	.3	.05	.0347	
303.2	.3	.1	.0345	
303.2	.3	.15	.0343	
303.2	.4	.05	.0332	
303.2	.4	.1	.033	
303.2	.4	.15	.0328	
303.2	.5	.05	.0322	
303.2	.5	.1	.032	
303.2	.5	.15	.0318	
313.2	.3	.05	.033	
313.2	.3	.1	.0328	
313.2	.3	.15	.0326	
313.2	.4	.05	.0316	
313.2	.4	.1	.0314	
313.2	.4	.15	.0312	
313.2	.5	.05	.0308	
313.2	.5	.1	.0306	
313.2	.5	.15	.0304	
323.2	.3	.05	.0314	
323.2	.3	.1	.0312	
323.2	.3	.15	.031	
323.2	.4	.05	.0301	
323.2	.4	.1	.0298	
323.2	.4	.15	.0296	
323.2	.5	.05	.0295	
323.2	.5	.1	.0293	
323.2	.5	.15	.0291	

System: 2-diethylaminoethanol + piperazine + water; phases: Liquid, Air at 1 atmosphere
Property: Surface tension liquid-gas, N/m (Liquid); method: Wilhemy plate method
Temperature, K	Mass fraction of 2-diethylaminoethanol	Mass fraction of piperazine	Surface tension liquid-gas, N/m	uncertainty
303.2	.3	.025	.0347	
303.2	.3	.05	.0346	
303.2	.3	.075	.0345	
303.2	.4	.025	.0334	
303.2	.4	.05	.0331	
303.2	.4	.075	.0328	
303.2	.5	.025	.0324	
303.2	.5	.05	.0322	
303.2	.5	.075	.032	
313.2	.3	.025	.0331	
313.2	.3	.05	.0329	
313.2	.3	.075	.0328	
313.2	.4	.025	.0319	
313.2	.4	.05	.0317	
313.2	.4	.075	.0314	
313.2	.5	.025	.031	
313.2	.5	.05	.0308	
313.2	.5	.075	.0307	
323.2	.3	.025	.0316	
323.2	.3	.05	.0314	
323.2	.3	.075	.0312	
323.2	.4	.025	.0305	
323.2	.4	.05	.0303	
323.2	.4	.075	.03	
323.2	.5	.025	.0297	
323.2	.5	.05	.0295	
323.2	.5	.075	.0293	
