Measured thermophysical data. FT-IR spectroscopic study of excess thermodynamic properties of liquid mixtures containing benzylalcohol with alkoxyalkanols
Source: J. Chem. Thermodyn., 2016, 10.1016/j.jct.2015.08.040
Compound 1: benzyl alcohol, C7H8O, purity 99%
Compound 2: 2-methoxyethanol, C3H8O2, purity 99%
Compound 3: 2-ethoxyethanol, C4H10O2, purity 98%
Compound 4: 2-butoxyethanol, C6H14O2, purity 98%

System: benzyl alcohol; phases: Liquid
Property: Mass density, kg/m3 (Liquid); method: Vibrating tube method
Temperature, K	Pressure, kPa	Mass density, kg/m3	uncertainty
298.15	100	1041.05	2
303.15	100	1037.15	2
308.15	100	1033.32	2
313.15	100	1029.46	2
318.15	100	1025.59	2

System: benzyl alcohol; phases: Liquid
Fixed: Frequency, MHz = 2
Property: Speed of sound, m/s (Liquid); method: Linear variable-path acoustic interferometer
Temperature, K	Pressure, kPa	Speed of sound, m/s	uncertainty
298.15	100	1534.5	4.6035
308.15	100	1496	4.488

System: 2-methoxyethanol; phases: Liquid
Property: Mass density, kg/m3 (Liquid); method: Vibrating tube method
Temperature, K	Pressure, kPa	Mass density, kg/m3	uncertainty
298.15	100	960.29	2
303.15	100	955.84	2
308.15	100	951.16	2
313.15	100	946.49	2
318.15	100	941.89	2

System: 2-methoxyethanol; phases: Liquid
Fixed: Frequency, MHz = 2
Property: Speed of sound, m/s (Liquid); method: Linear variable-path acoustic interferometer
Temperature, K	Pressure, kPa	Speed of sound, m/s	uncertainty
298.15	100	1341.6	4.0248
308.15	100	1302	3.906

System: 2-ethoxyethanol; phases: Liquid
Property: Mass density, kg/m3 (Liquid); method: Vibrating tube method
Temperature, K	Pressure, kPa	Mass density, kg/m3	uncertainty
298.15	100	925.36	2
303.15	100	920.72	2
308.15	100	916.11	2
313.15	100	911.47	2
318.15	100	906.9	2

System: 2-ethoxyethanol; phases: Liquid
Fixed: Frequency, MHz = 2
Property: Speed of sound, m/s (Liquid); method: Linear variable-path acoustic interferometer
Temperature, K	Pressure, kPa	Speed of sound, m/s	uncertainty
298.15	100	1301.4	3.9042
308.15	100	1274.8	3.8244

System: 2-butoxyethanol; phases: Liquid
Property: Mass density, kg/m3 (Liquid); method: Vibrating tube method
Temperature, K	Pressure, kPa	Mass density, kg/m3	uncertainty
298.15	100	896.46	2
303.15	100	892.22	2
308.15	100	887.97	2
313.15	100	883.7	2
318.15	100	879.42	2

System: 2-butoxyethanol; phases: Liquid
Fixed: Frequency, MHz = 2
Property: Speed of sound, m/s (Liquid); method: Linear variable-path acoustic interferometer
Temperature, K	Pressure, kPa	Speed of sound, m/s	uncertainty
298.15	100	1305	3.915
308.15	100	1275	3.825

System: benzyl alcohol + 2-methoxyethanol; phases: Liquid
Fixed: Pressure, kPa = 100
Property: Mass density, kg/m3 (Liquid); method: Vibrating tube method
Temperature, K	Mole fraction of benzyl alcohol	Mass density, kg/m3	uncertainty
298.15	.0979	974.27	2
298.15	.1928	985.51	2
298.15	.2847	995	2
298.15	.3739	1003.23	2
298.15	.4604	1010.46	2
298.15	.5443	1016.87	2
298.15	.6258	1022.61	2
298.15	.7049	1027.69	2
298.15	.7818	1032.17	2
298.15	.8565	1035.9	2
298.15	.9292	1038.94	2
303.15	.0979	969.06	2
303.15	.1928	980.26	2
303.15	.2847	989.74	2
303.15	.3739	998.13	2
303.15	.4604	1005.46	2
303.15	.5443	1011.91	2
303.15	.6258	1017.7	2
303.15	.7049	1022.84	2
303.15	.7818	1027.39	2
303.15	.8565	1031.28	2
303.15	.9292	1034.49	2
308.15	.0979	963.98	2
308.15	.1928	975.04	2
308.15	.2847	984.55	2
308.15	.3739	992.96	2
308.15	.4604	1000.42	2
308.15	.5443	1006.93	2
308.15	.6258	1012.79	2
308.15	.7049	1018.04	2
308.15	.7818	1022.66	2
308.15	.8565	1026.79	2
308.15	.9292	1030.32	2
313.15	.0979	958.77	2
313.15	.1928	969.7	2
313.15	.2847	979.32	2
313.15	.3739	987.81	2
313.15	.4604	995.25	2
313.15	.5443	1001.91	2
313.15	.6258	1007.81	2
313.15	.7049	1013.09	2
313.15	.7818	1017.74	2
313.15	.8565	1022.07	2
313.15	.9292	1025.92	2
318.15	.0979	953.4	2
318.15	.1928	964.14	2
318.15	.2847	973.82	2
318.15	.3739	982.44	2
318.15	.4604	990.02	2
318.15	.5443	996.67	2
318.15	.6258	1002.65	2
318.15	.7049	1007.91	2
318.15	.7818	1012.63	2
318.15	.8565	1017.05	2
318.15	.9292	1021.35	2
298.15	1	1041.05	2
303.15	1	1037.15	2
308.15	1	1033.32	2
313.15	1	1029.46	2
318.15	1	1025.59	2
298.15	0	960.29	2
303.15	0	955.84	2
308.15	0	951.16	2
313.15	0	946.49	2
318.15	0	941.89	2

System: benzyl alcohol + 2-methoxyethanol; phases: Liquid
Fixed: Pressure, kPa = 100
Fixed: Frequency, MHz = 2
Property: Speed of sound, m/s (Liquid); method: Linear variable-path acoustic interferometer
Temperature, K	Mole fraction of benzyl alcohol	Speed of sound, m/s	uncertainty
298.15	.0979	1359	4.077
298.15	.1928	1377	4.131
298.15	.2847	1395	4.185
298.15	.3739	1413	4.239
298.15	.4604	1430	4.29
298.15	.5443	1447	4.341
298.15	.6258	1463	4.389
298.15	.7049	1478	4.434
298.15	.7818	1493	4.479
298.15	.8565	1507	4.521
298.15	.9292	1521	4.563
308.15	.0979	1319	3.957
308.15	.1928	1337	4.011
308.15	.2847	1354	4.062
308.15	.3739	1371	4.113
308.15	.4604	1388	4.164
308.15	.5443	1405	4.215
308.15	.6258	1421	4.263
308.15	.7049	1437	4.311
308.15	.7818	1452	4.356
308.15	.8565	1467	4.401
308.15	.9292	1482	4.446
298.15	1	1534.5	4.6035
308.15	1	1496	4.488
298.15	0	1341.6	4.0248
308.15	0	1302	3.906

System: benzyl alcohol + 2-ethoxyethanol; phases: Liquid
Fixed: Pressure, kPa = 100
Property: Mass density, kg/m3 (Liquid); method: Vibrating tube method
Temperature, K	Mole fraction of benzyl alcohol	Mass density, kg/m3	uncertainty
298.15	.0793	936.7	2
298.15	.1593	947.73	2
298.15	.2401	958.4	2
298.15	.3215	968.73	2
298.15	.4037	978.84	2
298.15	.4866	988.63	2
298.15	.5703	998.17	2
298.15	.6547	1007.45	2
298.15	.7398	1016.35	2
298.15	.8257	1024.9	2
298.15	.9125	1033.23	2
303.15	.0793	931.63	2
303.15	.1593	942.59	2
303.15	.2401	953.27	2
303.15	.3215	963.72	2
303.15	.4037	973.92	2
303.15	.4866	983.76	2
303.15	.5703	993.33	2
303.15	.6547	1002.6	2
303.15	.7398	1011.53	2
303.15	.8257	1020.21	2
303.15	.9125	1028.71	2
308.15	.0793	926.88	2
308.15	.1593	937.61	2
308.15	.2401	948.33	2
308.15	.3215	958.87	2
308.15	.4037	969.17	2
308.15	.4866	979.06	2
308.15	.5703	988.65	2
308.15	.6547	997.97	2
308.15	.7398	1006.89	2
308.15	.8257	1015.71	2
308.15	.9125	1024.47	2
313.15	.0793	922.19	2
313.15	.1593	932.97	2
313.15	.2401	943.6	2
313.15	.3215	954.15	2
313.15	.4037	964.42	2
313.15	.4866	974.35	2
313.15	.5703	984.06	2
313.15	.6547	993.39	2
313.15	.7398	1002.53	2
313.15	.8257	1011.52	2
313.15	.9125	1020.44	2
318.15	.0793	917.52	2
318.15	.1593	928.22	2
318.15	.2401	938.75	2
318.15	.3215	949.14	2
318.15	.4037	959.34	2
318.15	.4866	969.28	2
318.15	.5703	979.07	2
318.15	.6547	988.67	2
318.15	.7398	998.04	2
318.15	.8257	1007.24	2
318.15	.9125	1016.45	2
298.15	1	1041.05	2
303.15	1	1037.15	2
308.15	1	1033.32	2
313.15	1	1029.46	2
318.15	1	1025.59	2
298.15	0	925.36	2
303.15	0	920.72	2
308.15	0	916.11	2
313.15	0	911.47	2
318.15	0	906.9	2

System: benzyl alcohol + 2-ethoxyethanol; phases: Liquid
Fixed: Pressure, kPa = 100
Fixed: Frequency, MHz = 2
Property: Speed of sound, m/s (Liquid); method: Linear variable-path acoustic interferometer
Temperature, K	Mole fraction of benzyl alcohol	Speed of sound, m/s	uncertainty
298.15	.0793	1320	3.96
298.15	.1593	1339	4.017
298.15	.2401	1358	4.074
298.15	.3215	1378	4.134
298.15	.4037	1399	4.197
298.15	.4866	1419	4.257
298.15	.5703	1440	4.32
298.15	.6547	1460	4.38
298.15	.7398	1480	4.44
298.15	.8257	1499	4.497
298.15	.9125	1517	4.551
308.15	.0793	1291	3.873
308.15	.1593	1308	3.924
308.15	.2401	1325	3.975
308.15	.3215	1342	4.026
308.15	.4037	1360	4.08
308.15	.4866	1379	4.137
308.15	.5703	1398	4.194
308.15	.6547	1417	4.251
308.15	.7398	1437	4.311
308.15	.8257	1456	4.368
308.15	.9125	1476	4.428
298.15	1	1534.5	4.6035
308.15	1	1496	4.488
298.15	0	1301.4	3.9042
308.15	0	1274.8	3.8244

System: benzyl alcohol + 2-butoxyethanol; phases: Liquid
Fixed: Pressure, kPa = 100
Property: Mass density, kg/m3 (Liquid); method: Vibrating tube method
Temperature, K	Mole fraction of benzyl alcohol	Mass density, kg/m3	uncertainty
298.15	.1042	909.14	2
298.15	.2038	921.94	2
298.15	.299	934.77	2
298.15	.3902	947.51	2
298.15	.4776	960.11	2
298.15	.5614	972.47	2
298.15	.6418	984.52	2
298.15	.7191	996.35	2
298.15	.7933	1007.85	2
298.15	.8648	1019.13	2
298.15	.9336	1030.15	2
303.15	.1042	904.89	2
303.15	.2038	917.61	2
303.15	.299	930.34	2
303.15	.3902	942.98	2
303.15	.4776	955.52	2
303.15	.5614	967.75	2
303.15	.6418	979.84	2
303.15	.7191	991.7	2
303.15	.7933	1003.3	2
303.15	.8648	1014.73	2
303.15	.9336	1025.98	2
308.15	.1042	900.6	2
308.15	.2038	913.28	2
308.15	.299	925.95	2
308.15	.3902	938.56	2
308.15	.4776	951.03	2
308.15	.5614	963.31	2
308.15	.6418	975.34	2
308.15	.7191	987.22	2
308.15	.7933	998.89	2
308.15	.8648	1010.48	2
308.15	.9336	1021.88	2
313.15	.1042	896.2	2
313.15	.2038	908.82	2
313.15	.299	921.47	2
313.15	.3902	934.1	2
313.15	.4776	946.55	2
313.15	.5614	958.86	2
313.15	.6418	970.91	2
313.15	.7191	982.84	2
313.15	.7933	994.59	2
313.15	.8648	1006.26	2
313.15	.9336	1017.81	2
318.15	.1042	891.93	2
318.15	.2038	904.49	2
318.15	.299	917.11	2
318.15	.3902	929.63	2
318.15	.4776	942.13	2
318.15	.5614	954.41	2
318.15	.6418	966.56	2
318.15	.7191	978.55	2
318.15	.7933	990.4	2
318.15	.8648	1002.24	2
318.15	.9336	1013.89	2
298.15	1	1041.05	2
303.15	1	1037.15	2
308.15	1	1033.32	2
313.15	1	1029.46	2
318.15	1	1025.59	2
298.15	0	896.46	2
303.15	0	892.22	2
308.15	0	887.97	2
313.15	0	883.7	2
318.15	0	879.42	2

System: benzyl alcohol + 2-butoxyethanol; phases: Liquid
Fixed: Pressure, kPa = 100
Fixed: Frequency, MHz = 2
Property: Speed of sound, m/s (Liquid); method: Linear variable-path acoustic interferometer
Temperature, K	Mole fraction of benzyl alcohol	Speed of sound, m/s	uncertainty
298.15	.1042	1329	3.987
298.15	.2038	1352	4.056
298.15	.299	1373	4.119
298.15	.3902	1394	4.182
298.15	.4776	1413	4.239
298.15	.5614	1433	4.299
298.15	.6418	1452	4.356
298.15	.7191	1470	4.41
298.15	.7933	1486	4.458
298.15	.8648	1503	4.509
298.15	.9336	1519	4.557
308.15	.1042	1296	3.888
308.15	.2038	1317	3.951
308.15	.299	1337	4.011
308.15	.3902	1356	4.068
308.15	.4776	1375	4.125
308.15	.5614	1394	4.182
308.15	.6418	1412	4.236
308.15	.7191	1430	4.29
308.15	.7933	1446	4.338
308.15	.8648	1463	4.389
308.15	.9336	1479	4.437
298.15	1	1534.5	4.6035
308.15	1	1496	4.488
298.15	0	1305	3.915
308.15	0	1275	3.825
