Measured thermophysical data. Activity coefficients at infinite dilution of organic solutes in the ionic liquid trihexyl(tetradecyl)phosphonium tetrafluoroborate using gas liquid  chromatography at T = (313.15, 333.15, 353.15, and 373.15) K
Source: J. Chem. Thermodyn., 2011, 10.1016/j.jct.2010.12.005
Compound 1: trihexyl(tetradecyl)-phosphonium tetrafluoroborate, C32H68P, purity 98%
Compound 2: pentane, C5H12, purity 98%
Compound 3: n-hexane, C6H14, purity 98%
Compound 4: heptane, C7H16, purity 98%
Compound 5: octane, C8H18, purity 98%
Compound 6: nonane, C9H20, purity 98%
Compound 7: decane, C10H22, purity 98%
Compound 8: 1-pentene, C5H10, purity 98%
Compound 9: 1-hexene, C6H12, purity 98%
Compound 10: 1-heptene, C7H14, purity 98%
Compound 11: 1-octene, C8H16, purity 98%
Compound 12: 1-nonene, C9H18, purity 98%
Compound 13: 1-pentyne, C5H8, purity 98%
Compound 14: 1-hexyne, C6H10, purity 98%
Compound 15: 1-heptyne, C7H12, purity 98%
Compound 16: 1-octyne, C8H14, purity 98%
Compound 17: heptylacetylene, C9H16, purity 98%
Compound 18: cyclopentane, C5H10, purity 98%
Compound 19: cyclohexane, C6H12, purity 98%
Compound 20: cycloheptane, C7H14, purity 98%
Compound 21: cyclooctane, C8H16, purity 98%
Compound 22: methanol, CH4O, purity 98%
Compound 23: ethanol, C2H6O, purity 98%
Compound 24: benzene, C6H6, purity 98%
Compound 25: toluene, C7H8, purity 98%
Compound 26: ethylbenzene, C8H10, purity 98%
Compound 27: propanone, C3H6O, purity 98%
Compound 28: ethyl methyl ketone, C4H8O, purity 98%

System: trihexyl(tetradecyl)-phosphonium tetrafluoroborate; phases: Liquid
Fixed: Pressure, kPa = 101.325
Property: Mass density, kg/m3 (Liquid); method: Vibrating tube method
Temperature, K	Mass density, kg/m3	uncertainty
323.15	925.1	.005

System: pentane + trihexyl(tetradecyl)-phosphonium tetrafluoroborate; phases: Liquid
Fixed: Pressure, kPa = 101
Fixed: Mole fraction of pentane = 0
Property: Activity coefficient of pentane (Liquid); method: Chromatography
Temperature, K	Activity coefficient of pentane	uncertainty
313.15	1.23	.0615
333.15	1.21	.0605
353.15	1.21	.0605
373.15	1.2	.06
313.15	1.29	.0645
333.15	1.27	.0635
353.15	1.23	.0615
373.15	1.19	.0595

System: n-hexane + trihexyl(tetradecyl)-phosphonium tetrafluoroborate; phases: Liquid
Fixed: Pressure, kPa = 101
Fixed: Mole fraction of n-hexane = 0
Property: Activity coefficient of n-hexane (Liquid); method: Chromatography
Temperature, K	Activity coefficient of n-hexane	uncertainty
313.15	1.39	.0695
333.15	1.37	.0685
353.15	1.36	.068
373.15	1.35	.0675
313.15	1.41	.0705
333.15	1.4	.07
353.15	1.36	.068
373.15	1.31	.0655

System: heptane + trihexyl(tetradecyl)-phosphonium tetrafluoroborate; phases: Liquid
Fixed: Pressure, kPa = 101
Fixed: Mole fraction of heptane = 0
Property: Activity coefficient of heptane (Liquid); method: Chromatography
Temperature, K	Activity coefficient of heptane	uncertainty
313.15	1.58	.079
333.15	1.54	.077
353.15	1.53	.0765
373.15	1.52	.076
313.15	1.58	.079
333.15	1.59	.0795
353.15	1.53	.0765
373.15	1.46	.073

System: octane + trihexyl(tetradecyl)-phosphonium tetrafluoroborate; phases: Liquid
Fixed: Pressure, kPa = 101
Fixed: Mole fraction of octane = 0
Property: Activity coefficient of octane (Liquid); method: Chromatography
Temperature, K	Activity coefficient of octane	uncertainty
313.15	1.79	.0895
333.15	1.77	.0885
353.15	1.71	.0855
373.15	1.7	.085
313.15	1.79	.0895
333.15	1.73	.0865
353.15	1.7	.085
373.15	1.62	.081

System: nonane + trihexyl(tetradecyl)-phosphonium tetrafluoroborate; phases: Liquid
Fixed: Pressure, kPa = 101
Fixed: Mole fraction of nonane = 0
Property: Activity coefficient of nonane (Liquid); method: Chromatography
Temperature, K	Activity coefficient of nonane	uncertainty
313.15	2.05	.1025
333.15	1.97	.0985
353.15	1.94	.097
373.15	1.91	.0955
313.15	2.07	.1035
333.15	1.99	.0995
353.15	1.91	.0955
373.15	1.81	.0905

System: decane + trihexyl(tetradecyl)-phosphonium tetrafluoroborate; phases: Liquid
Fixed: Pressure, kPa = 101
Fixed: Mole fraction of decane = 0
Property: Activity coefficient of decane (Liquid); method: Chromatography
Temperature, K	Activity coefficient of decane	uncertainty
313.15	2.4	.12
333.15	2.24	.112
353.15	2.18	.109
373.15	2.13	.1065
313.15	2.36	.118
333.15	2.29	.1145
353.15	2.17	.1085
373.15	2.07	.1035

System: 1-pentene + trihexyl(tetradecyl)-phosphonium tetrafluoroborate; phases: Liquid
Fixed: Pressure, kPa = 101
Fixed: Mole fraction of 1-pentene = 0
Property: Activity coefficient of 1-pentene (Liquid); method: Chromatography
Temperature, K	Activity coefficient of 1-pentene	uncertainty
313.15	.971	.04855
333.15	.984	.0492
353.15	.992	.0496
373.15	1.02	.051
313.15	1.02	.051
333.15	.99	.0495
353.15	.958	.0479
373.15	.929	.04645

System: 1-hexene + trihexyl(tetradecyl)-phosphonium tetrafluoroborate; phases: Liquid
Fixed: Pressure, kPa = 101
Fixed: Mole fraction of 1-hexene = 0
Property: Activity coefficient of 1-hexene (Liquid); method: Chromatography
Temperature, K	Activity coefficient of 1-hexene	uncertainty
313.15	1.12	.056
333.15	1.12	.056
353.15	1.13	.0565
373.15	1.13	.0565
313.15	1.1	.055
333.15	1.09	.0545
353.15	1.08	.054
373.15	1.07	.0535

System: 1-heptene + trihexyl(tetradecyl)-phosphonium tetrafluoroborate; phases: Liquid
Fixed: Pressure, kPa = 101
Fixed: Mole fraction of 1-heptene = 0
Property: Activity coefficient of 1-heptene (Liquid); method: Chromatography
Temperature, K	Activity coefficient of 1-heptene	uncertainty
313.15	1.25	.0625
333.15	1.25	.0625
353.15	1.25	.0625
373.15	1.26	.063
313.15	1.27	.0635
333.15	1.25	.0625
353.15	1.23	.0615
373.15	1.19	.0595

System: 1-octene + trihexyl(tetradecyl)-phosphonium tetrafluoroborate; phases: Liquid
Fixed: Pressure, kPa = 101
Fixed: Mole fraction of 1-octene = 0
Property: Activity coefficient of 1-octene (Liquid); method: Chromatography
Temperature, K	Activity coefficient of 1-octene	uncertainty
313.15	1.4	.07
333.15	1.41	.0705
353.15	1.41	.0705
373.15	1.42	.071
313.15	1.45	.0725
333.15	1.4	.07
353.15	1.39	.0695
373.15	1.35	.0675

System: 1-nonene + trihexyl(tetradecyl)-phosphonium tetrafluoroborate; phases: Liquid
Fixed: Pressure, kPa = 101
Fixed: Mole fraction of 1-nonene = 0
Property: Activity coefficient of 1-nonene (Liquid); method: Chromatography
Temperature, K	Activity coefficient of 1-nonene	uncertainty
313.15	1.63	.0815
333.15	1.59	.0795
353.15	1.57	.0785
373.15	1.6	.08
313.15	1.64	.082
333.15	1.61	.0805
353.15	1.58	.079
373.15	1.48	.074

System: 1-pentyne + trihexyl(tetradecyl)-phosphonium tetrafluoroborate; phases: Liquid
Fixed: Pressure, kPa = 101
Fixed: Mole fraction of 1-pentyne = 0
Property: Activity coefficient of 1-pentyne (Liquid); method: Chromatography
Temperature, K	Activity coefficient of 1-pentyne	uncertainty
313.15	.569	.02845
333.15	.591	.02955
353.15	.624	.0312
373.15	.69	.0345
313.15	.599	.02995
333.15	.611	.03055
353.15	.638	.0319
373.15	.594	.0297

System: 1-hexyne + trihexyl(tetradecyl)-phosphonium tetrafluoroborate; phases: Liquid
Fixed: Pressure, kPa = 101
Fixed: Mole fraction of 1-hexyne = 0
Property: Activity coefficient of 1-hexyne (Liquid); method: Chromatography
Temperature, K	Activity coefficient of 1-hexyne	uncertainty
313.15	.61	.0305
333.15	.646	.0323
353.15	.682	.0341
373.15	.705	.03525
313.15	.596	.0298
333.15	.65	.0325
353.15	.668	.0334
373.15	.697	.03485

System: 1-heptyne + trihexyl(tetradecyl)-phosphonium tetrafluoroborate; phases: Liquid
Fixed: Pressure, kPa = 101
Fixed: Mole fraction of 1-heptyne = 0
Property: Activity coefficient of 1-heptyne (Liquid); method: Chromatography
Temperature, K	Activity coefficient of 1-heptyne	uncertainty
313.15	.67	.0335
333.15	.697	.03485
353.15	.749	.03745
373.15	.82	.041
313.15	.806	.0403
333.15	.789	.03945
353.15	.793	.03965
373.15	.746	.0373

System: 1-octyne + trihexyl(tetradecyl)-phosphonium tetrafluoroborate; phases: Liquid
Fixed: Pressure, kPa = 101
Fixed: Mole fraction of 1-octyne = 0
Property: Activity coefficient of 1-octyne (Liquid); method: Chromatography
Temperature, K	Activity coefficient of 1-octyne	uncertainty
313.15	.76	.038
333.15	.818	.0409
353.15	.87	.0435
373.15	.923	.04615
313.15	.738	.0369
333.15	.82	.041
353.15	.838	.0419
373.15	.839	.04195

System: heptylacetylene + trihexyl(tetradecyl)-phosphonium tetrafluoroborate; phases: Liquid
Fixed: Pressure, kPa = 101
Fixed: Mole fraction of heptylacetylene = 0
Property: Activity coefficient of heptylacetylene (Liquid); method: Chromatography
Temperature, K	Activity coefficient of heptylacetylene	uncertainty
313.15	.784	.0392
333.15	.871	.04355
353.15	.95	.0475
373.15	1.03	.0515
313.15	.862	.0431
333.15	.871	.04355
353.15	.894	.0447
373.15	.931	.04655

System: cyclopentane + trihexyl(tetradecyl)-phosphonium tetrafluoroborate; phases: Liquid
Fixed: Pressure, kPa = 101
Fixed: Mole fraction of cyclopentane = 0
Property: Activity coefficient of cyclopentane (Liquid); method: Chromatography
Temperature, K	Activity coefficient of cyclopentane	uncertainty
313.15	.841	.04205
333.15	.816	.0408
353.15	.813	.04065
373.15	.802	.0401
313.15	.845	.04225
333.15	.838	.0419
353.15	.809	.04045
373.15	.812	.0406

System: cyclohexane + trihexyl(tetradecyl)-phosphonium tetrafluoroborate; phases: Liquid
Fixed: Pressure, kPa = 101
Fixed: Mole fraction of cyclohexane = 0
Property: Activity coefficient of cyclohexane (Liquid); method: Chromatography
Temperature, K	Activity coefficient of cyclohexane	uncertainty
313.15	.97	.0485
333.15	.935	.04675
353.15	.919	.04595
373.15	.905	.04525
313.15	.98	.049
333.15	.947	.04735
353.15	.887	.04435
373.15	.883	.04415

System: cycloheptane + trihexyl(tetradecyl)-phosphonium tetrafluoroborate; phases: Liquid
Fixed: Pressure, kPa = 101
Fixed: Mole fraction of cycloheptane = 0
Property: Activity coefficient of cycloheptane (Liquid); method: Chromatography
Temperature, K	Activity coefficient of cycloheptane	uncertainty
313.15	1.05	.0525
333.15	1.01	.0505
353.15	.982	.0491
373.15	.965	.04825
313.15	.993	.04965
333.15	.965	.04825
353.15	.952	.0476
373.15	.931	.04655

System: cyclooctane + trihexyl(tetradecyl)-phosphonium tetrafluoroborate; phases: Liquid
Fixed: Pressure, kPa = 101
Fixed: Mole fraction of cyclooctane = 0
Property: Activity coefficient of cyclooctane (Liquid); method: Chromatography
Temperature, K	Activity coefficient of cyclooctane	uncertainty
313.15	1.11	.0555
333.15	1.09	.0545
353.15	1.07	.0535
373.15	1.06	.053
313.15	1.25	.0625
333.15	1.16	.058
353.15	1.08	.054
373.15	1.01	.0505

System: methanol + trihexyl(tetradecyl)-phosphonium tetrafluoroborate; phases: Liquid
Fixed: Pressure, kPa = 101
Fixed: Mole fraction of methanol = 0
Property: Activity coefficient of methanol (Liquid); method: Chromatography
Temperature, K	Activity coefficient of methanol	uncertainty
313.15	.548	.0274
333.15	.5	.025
353.15	.466	.0233
373.15	.453	.02265
313.15	.526	.0263
333.15	.482	.0241
353.15	.446	.0223
373.15	.381	.01905

System: ethanol + trihexyl(tetradecyl)-phosphonium tetrafluoroborate; phases: Liquid
Fixed: Pressure, kPa = 101
Fixed: Mole fraction of ethanol = 0
Property: Activity coefficient of ethanol (Liquid); method: Chromatography
Temperature, K	Activity coefficient of ethanol	uncertainty
313.15	.611	.03055
333.15	.553	.02765
353.15	.507	.02535
373.15	.479	.02395
313.15	.547	.02735
333.15	.513	.02565
353.15	.495	.02475
373.15	.423	.02115

System: benzene + trihexyl(tetradecyl)-phosphonium tetrafluoroborate; phases: Liquid
Fixed: Pressure, kPa = 101
Fixed: Mole fraction of benzene = 0
Property: Activity coefficient of benzene (Liquid); method: Chromatography
Temperature, K	Activity coefficient of benzene	uncertainty
313.15	.432	.0216
333.15	.44	.022
353.15	.447	.02235
373.15	.464	.0232
313.15	.388	.0194
333.15	.41	.0205
353.15	.437	.02185
373.15	.432	.0216

System: toluene + trihexyl(tetradecyl)-phosphonium tetrafluoroborate; phases: Liquid
Fixed: Pressure, kPa = 101
Fixed: Mole fraction of toluene = 0
Property: Activity coefficient of toluene (Liquid); method: Chromatography
Temperature, K	Activity coefficient of toluene	uncertainty
313.15	.524	.0262
333.15	.539	.02695
353.15	.546	.0273
373.15	.564	.0282
313.15	.528	.0264
333.15	.523	.02615
353.15	.574	.0287
373.15	.584	.0292

System: ethylbenzene + trihexyl(tetradecyl)-phosphonium tetrafluoroborate; phases: Liquid
Fixed: Pressure, kPa = 101
Fixed: Mole fraction of ethylbenzene = 0
Property: Activity coefficient of ethylbenzene (Liquid); method: Chromatography
Temperature, K	Activity coefficient of ethylbenzene	uncertainty
313.15	.659	.03295
333.15	.665	.03325
353.15	.682	.0341
373.15	.696	.0348
313.15	.661	.03305
333.15	.677	.03385
353.15	.686	.0343
373.15	.734	.0367

System: propanone + trihexyl(tetradecyl)-phosphonium tetrafluoroborate; phases: Liquid
Fixed: Pressure, kPa = 101
Fixed: Mole fraction of propanone = 0
Property: Activity coefficient of propanone (Liquid); method: Chromatography
Temperature, K	Activity coefficient of propanone	uncertainty
313.15	.436	.0218
333.15	.437	.02185
353.15	.438	.0219
373.15	.439	.02195
313.15	.426	.0213
333.15	.427	.02135
353.15	.428	.0214
373.15	.431	.02155

System: ethyl methyl ketone + trihexyl(tetradecyl)-phosphonium tetrafluoroborate; phases: Liquid
Fixed: Pressure, kPa = 101
Fixed: Mole fraction of ethyl methyl ketone = 0
Property: Activity coefficient of ethyl methyl ketone (Liquid); method: Chromatography
Temperature, K	Activity coefficient of ethyl methyl ketone	uncertainty
313.15	.45	.0225
333.15	.452	.0226
353.15	.455	.02275
373.15	.457	.02285
313.15	.438	.0219
333.15	.442	.0221
353.15	.447	.02235
373.15	.451	.02255
