Measured thermophysical data. Isothermal (vapour + liquid) equilibrium and thermophysical properties for (1-butyl-3-methylimidazolium iodide + 1-butanol) binary system
Source: J. Chem. Thermodyn., 2015, 10.1016/j.jct.2015.03.023
Compound 1: 1-butyl-3-methylimidazolium iodide, C8H15IN2, purity 99%
Compound 2: 1-butanol, C4H10O, purity 99.5%

System: 1-butyl-3-methylimidazolium iodide; phases: Liquid
Fixed: Pressure, kPa = 101.325
Property: Mass density, kg/m3 (Liquid); method: Vibrating tube method
Temperature, K	Mass density, kg/m3	uncertainty
293.15	1483.5	.1
298.15	1479.6	.1
308.15	1471.7	.1

System: 1-butyl-3-methylimidazolium iodide; phases: Liquid
Fixed: Pressure, kPa = 101.325
Property: Speed of sound, m/s (Liquid); method: Sing-around technique in a fixed-path interferometer
Temperature, K	Speed of sound, m/s	uncertainty
293.15	1508.1	.5
298.15	1497.5	.5
308.15	1473.3	.5

System: 1-butyl-3-methylimidazolium iodide; phases: Liquid
Fixed: Pressure, kPa = 101.325
Property: Refractive index (Na D-line) (Liquid); method: Standard Abbe refractometry
Temperature, K	Refractive index (Na D-line)	uncertainty
293.15	1.5825	.0005
298.15	1.581	.0005
308.15	1.5781	.0005

System: 1-butanol; phases: Liquid
Fixed: Pressure, kPa = 101.325
Property: Mass density, kg/m3 (Liquid); method: Vibrating tube method
Temperature, K	Mass density, kg/m3	uncertainty
293.15	809.8	.1
298.15	805.9	.1
308.15	798.2	.1

System: 1-butanol; phases: Liquid
Fixed: Pressure, kPa = 101.325
Property: Speed of sound, m/s (Liquid); method: Sing-around technique in a fixed-path interferometer
Temperature, K	Speed of sound, m/s	uncertainty
293.15	1256.3	.5
298.15	1239.5	.5
308.15	1205.9	.5

System: 1-butanol; phases: Liquid, Gas
Property: Vapor or sublimation pressure, kPa (Liquid); method: Ebulliometric method (Recirculating still)
Temperature, K	Vapor or sublimation pressure, kPa	uncertainty
353.15	21.19	.2119
363.15	33.8	.338
373.15	51.73	.5173

System: 1-butanol; phases: Liquid
Fixed: Pressure, kPa = 101.325
Property: Refractive index (Na D-line) (Liquid); method: Standard Abbe refractometry
Temperature, K	Refractive index (Na D-line)	uncertainty
293.15	1.3992	.0001
298.15	1.3973	.0001
308.15	1.3932	.0001
293.15	1.3993	.0001

System: 1-butanol + 1-butyl-3-methylimidazolium iodide; phases: Liquid, Gas
Property: Vapor or sublimation pressure, kPa (Liquid); method: Ebulliometric method (Recirculating still)
Temperature, K	Mole fraction of 1-butyl-3-methylimidazolium iodide	Vapor or sublimation pressure, kPa	uncertainty
353.15	0	21.19	.2119
353.15	.049	20.57	.2057
353.15	.117	19.43	.1943
353.15	.212	17.37	.1737
363.15	0	33.8	.338
363.15	.05	32.8	.328
363.15	.119	30.97	.3097
363.15	.199	27.46	.2746
373.15	0	51.73	.5173
373.15	.05	50.14	.5014
373.15	.124	47.85	.4785
373.15	.199	41.48	.4148

System: 1-butanol + 1-butyl-3-methylimidazolium iodide; phases: Liquid
Fixed: Pressure, kPa = 101.22
Property: Refractive index (Na D-line) (Liquid); method: Standard Abbe refractometry
Temperature, K	Mole fraction of 1-butyl-3-methylimidazolium iodide	Refractive index (Na D-line)	uncertainty
293.15	0	1.3992	.0001
293.15	.311	1.4864	.0001
293.15	.381	1.5007	.0001
293.15	.51	1.5237	.0001
293.15	.574	1.5339	.0001
293.15	.623	1.541	.0001
293.15	.802	1.5634	.0001
293.15	.85	1.5686	.0001
293.15	1	1.5825	.0001
298.15	0	1.3973	.0001
298.15	.108	1.4332	.0001
298.15	.171	1.4508	.0001
298.15	.311	1.4848	.0001
298.15	.381	1.4991	.0001
298.15	.51	1.5221	.0001
298.15	.574	1.5322	.0001
298.15	.623	1.5393	.0001
298.15	.802	1.5618	.0001
298.15	.85	1.567	.0001
298.15	1	1.581	.0001
308.15	0	1.3932	.0001
308.15	.108	1.4294	.0001
308.15	.171	1.4472	.0001
308.15	.311	1.4815	.0001
308.15	.381	1.4958	.0001
308.15	.51	1.5189	.0001
308.15	.574	1.5289	.0001
308.15	.623	1.5361	.0001
308.15	.802	1.5587	.0001
308.15	.85	1.5639	.0001
308.15	1	1.5781	.0001
