Measured thermophysical data. Energetics and structural properties of neutral and deprotonated phenyl carbinols
Source: J. Chem. Thermodyn., 2016, 10.1016/j.jct.2016.02.010
Compound 1: 1-phenylethanol, C8H10O, purity 98%
Compound 2: diphenylmethanol, C13H12O, purity 99%
Compound 3: triphenylmethanol, C19H16O, purity 97%
Compound 4: carbon dioxide, CO2
Compound 5: water, H2O
Compound 6: oxygen, O2

System: 1-phenylethanol; phases: Crystal, Liquid, Air at 1 atmosphere
Property: Normal melting temperature, K (Crystal); method: DSC/DTA
Normal melting temperature, K	uncertainty
291.7	.7

System: 1-phenylethanol; phases: Crystal, Liquid, Air at 1 atmosphere
Property: Molar enthalpy of transition or fusion, kJ/mol (Crystal); method: DSC
Molar enthalpy of transition or fusion, kJ/mol	uncertainty
16	2

System: 1-phenylethanol; phases: Liquid
Fixed: Pressure, kPa = 101.325
Property: Molar heat capacity at constant pressure, J/K/mol (Liquid); method: Small sample (50 mg) scanning calorimetry
Temperature, K	Molar heat capacity at constant pressure, J/K/mol	uncertainty
297.15	262.4	
298.15	263.1	
299.15	263.9	
300.15	264.6	
301.15	265.1	
302.15	265.8	
303.15	267.1	
304.15	267.9	
305.15	268.5	
306.15	269.4	
307.15	269.8	
308.15	271	
309.15	271.7	
310.15	272.4	
311.15	273	
312.15	273.7	
313.15	274.7	
314.15	275.1	
315.15	275.7	
316.15	276.4	
317.15	277.3	
318.15	278.2	
319.15	279.1	
320.15	279.6	
321.15	280.3	
322.15	281	
323.15	281.5	
324.15	282.2	
325.15	283	
326.15	283.9	
327.15	284.4	
328.15	284.8	
329.15	285.4	
330.15	286	
331.15	286.7	
332.15	287.3	
333.15	288.1	
334.15	288.9	
335.15	289.6	
336.15	290.2	
337.15	290.6	
338.15	291.2	
339.15	292	
340.15	292.5	
341.15	293	
342.15	293.6	
343.15	294.2	
344.15	295.2	
345.15	295.7	
346.15	296.3	
347.15	296.9	
348.15	297.5	
349.15	298.1	
350.15	298.3	
351.15	298.8	
352.15	299.2	
353.15	300.7	
354.15	300.8	
355.15	301.7	
356.15	302.8	
357.15	303.4	
358.15	303.8	
359.15	303.9	
360.15	304.5	
361.15	305.3	
362.15	305.7	
363.15	306.1	
364.15	307	
365.15	307.7	
366.15	308.4	
367.15	308.6	
368.15	308.9	
369.15	309.5	
370.15	310.3	
371.15	311.1	
372.15	311.6	
373.15	311.8	

System: diphenylmethanol; phases: Crystal, Liquid, Air at 1 atmosphere
Property: Normal melting temperature, K (Crystal); method: DSC/DTA
Normal melting temperature, K	uncertainty
339.4	.7

System: diphenylmethanol; phases: Crystal, Liquid, Air at 1 atmosphere
Property: Molar enthalpy of transition or fusion, kJ/mol (Crystal); method: DSC
Molar enthalpy of transition or fusion, kJ/mol	uncertainty
23.7	.1

System: diphenylmethanol; phases: Crystal
Fixed: Pressure, kPa = 101.325
Property: Mass density, kg/m3 (Crystal); method: Pycnometric method
Temperature, K	Mass density, kg/m3	uncertainty
298	1210	20

System: diphenylmethanol; phases: Crystal
Fixed: Pressure, kPa = 101.325
Property: Molar heat capacity at constant pressure, J/K/mol (Crystal); method: Small sample (50 mg) scanning calorimetry
Temperature, K	Molar heat capacity at constant pressure, J/K/mol	uncertainty
259.15	202.8	
260.15	203.3	
261.15	203.9	
262.15	204.6	
263.15	205.2	
264.15	206.1	
265.15	206.8	
266.15	207.6	
267.15	208.5	
268.15	209.5	
269.15	210.3	
270.15	211.1	
271.15	211.7	
272.15	212.5	
273.15	213.8	
274.15	214.1	
275.15	215.2	
276.15	215.9	
277.15	216.9	
278.15	216.8	
279.15	217.6	
280.15	218.5	
281.15	219.4	
282.15	220.2	
283.15	221	
284.15	221.8	
285.15	222.8	
286.15	223.3	
287.15	224.3	
288.15	225	
289.15	225.8	
290.15	226.5	
291.15	227.4	
292.15	228.2	
293.15	229.1	
294.15	229.9	
295.15	230.7	
296.15	231.9	
297.15	232	
298.15	233	
299.15	233.7	
300.15	234.5	
301.15	235.4	
302.15	236.2	
303.15	237	
304.15	237.8	
305.15	238.7	
306.15	239.6	
307.15	240.7	
308.15	241.8	
309.15	242.5	
310.15	243.3	
311.15	244.2	
312.15	245.2	
313.15	246	
314.15	247	
315.15	247.8	
316.15	248.8	
317.15	249.8	
318.15	250.7	
319.15	251.7	
320.15	252.5	
321.15	253.5	
322.15	254.4	
323.15	255.3	
324.15	256.4	
325.15	257.4	
326.15	258.5	
327.15	259.5	
328.15	260.7	
329.15	261.8	
330.15	263.1	
331.15	265.1	
332.15	267	

System: diphenylmethanol; phases: Crystal, Gas
Property: Vapor or sublimation pressure, kPa (Crystal); method: Knudsen effusion method
Temperature, K	Vapor or sublimation pressure, kPa	uncertainty
301.97	.000128	
304.52	.00018	
305.16	.000198	
308.1	.00028	
311.41	.000446	
314.06	.00061	
317.02	.00091	

System: triphenylmethanol; phases: Crystal, Liquid, Air at 1 atmosphere
Property: Normal melting temperature, K (Crystal); method: DSC/DTA
Normal melting temperature, K	uncertainty
435.2	.4

System: triphenylmethanol; phases: Crystal, Liquid, Air at 1 atmosphere
Property: Molar enthalpy of transition or fusion, kJ/mol (Crystal); method: DSC
Molar enthalpy of transition or fusion, kJ/mol	uncertainty
27.3	.4

System: triphenylmethanol; phases: Crystal
Fixed: Pressure, kPa = 101.325
Property: Molar heat capacity at constant pressure, J/K/mol (Crystal); method: Small sample (50 mg) scanning calorimetry
Temperature, K	Molar heat capacity at constant pressure, J/K/mol	uncertainty
259.15	283	
260.15	283.6	
261.15	284.9	
262.15	285.6	
263.15	286.4	
264.15	288.3	
265.15	289.5	
266.15	290.4	
267.15	291.2	
268.15	290.8	
269.15	292.3	
270.15	293.4	
271.15	294.3	
272.15	295.3	
273.15	296.5	
274.15	297.4	
275.15	297.3	
276.15	298.6	
277.15	299.8	
278.15	301.2	
279.15	302.1	
280.15	302.8	
281.15	303.4	
282.15	304.7	
283.15	306	
284.15	305.9	
285.15	307	
286.15	307.4	
287.15	308.9	
288.15	309.3	
289.15	310.1	
290.15	310.6	
291.15	311.8	
292.15	312.5	
293.15	312.9	
294.15	313.5	
295.15	314.7	
296.15	315.1	
297.15	316.1	
298.15	316.4	
299.15	316.9	
300.15	319.7	
301.15	320.5	
302.15	321.2	
303.15	322.1	
304.15	323	
305.15	324.7	
306.15	325.1	
307.15	326.1	
308.15	327.2	
309.15	328.5	
310.15	329.3	
311.15	330	
312.15	331.2	
313.15	331.9	
314.15	332.7	
315.15	333.4	
316.15	334.4	
317.15	335.9	
318.15	336.8	
319.15	337.6	
320.15	338.3	
321.15	339.8	
322.15	340.7	
323.15	343.5	
324.15	344.4	
325.15	345.5	
326.15	346.3	
327.15	347.4	
328.15	348.5	
329.15	349.7	
330.15	350.6	
331.15	351.4	
332.15	352.2	
333.15	353.2	
334.15	354.1	
335.15	355	
336.15	356.1	
337.15	357.1	
338.15	358.3	
339.15	359.3	
340.15	359.9	
341.15	360.8	
342.15	362	
343.15	363.1	
344.15	363.9	
345.15	364.6	
346.15	365.7	
347.15	366.7	
348.15	367.5	
349.15	368.3	
350.15	369.4	
351.15	370.6	
352.15	371.3	
353.15	374.6	
354.15	375.6	
355.15	376.7	
356.15	378.1	
357.15	379	
358.15	379.6	
359.15	380.8	
360.15	381.6	
361.15	382.3	
362.15	383	
363.15	383.8	
364.15	384.8	
365.15	386.1	
366.15	387.2	
367.15	387.8	
368.15	389.1	
369.15	391	
370.15	393.2	
371.15	395.8	
372.15	396.3	
373.15	397.3	

System: triphenylmethanol; phases: Crystal, Gas
Property: Vapor or sublimation pressure, kPa (Crystal); method: Knudsen effusion method
Temperature, K	Vapor or sublimation pressure, kPa	uncertainty
342.25	.00000335	
344.44	.00000439	
347.56	.0000068	
351.64	.0000111	
353.37	.0000142	
356.81	.0000193	
358.08	.0000217	

Reaction: -1 1-phenylethanol + 8 carbon dioxide + 5 water + -10 oxygen
Property: Specific internal energy of reaction at constant volume, J/g
-35740.7

Reaction: -1 diphenylmethanol + 13 carbon dioxide + 6 water + -15.5 oxygen
Property: Specific internal energy of reaction at constant volume, J/g
-36491.3
