Measured thermophysical data. Viscosity of binary mixtures of 1-ethyl-3-methylimidazolium tetrafluoroborate ionic liquid with four organic solvents
Source: J. Chem. Thermodyn., 2016, 10.1016/j.jct.2016.06.015
Compound 1: 1-ethyl-3-methylimidazolium tetrafluoroborate, C6H11BF4N2, purity 98%
Compound 2: dimethyl sulfoxide, C2H6OS, purity 99.9%
Compound 3: ethylene glycol, C2H6O2, purity 99.5%
Compound 4: acetonitrile, C2H3N, purity 99.5%
Compound 5: 1,4-dioxane, C4H8O2, purity 99%

System: 1-ethyl-3-methylimidazolium tetrafluoroborate; phases: Liquid
Property: Viscosity, Pa*s (Liquid); method: Falling or rolling sphere viscometry
Temperature, K	Pressure, kPa	Viscosity, Pa*s	uncertainty
293.15	100	.05054	
298.15	100	.04145	
303.15	100	.03453	
313.15	100	.02483	
323.15	100	.01862	
333.15	100	.01454	
343.15	100	.01171	
353.15	100	.00958	

System: dimethyl sulfoxide; phases: Liquid
Property: Viscosity, Pa*s (Liquid); method: Falling or rolling sphere viscometry
Temperature, K	Pressure, kPa	Viscosity, Pa*s	uncertainty
293.15	100	.00221	
298.15	100	.002012	
303.15	100	.001843	
313.15	100	.001556	
323.15	100	.001337	
333.15	100	.001165	
343.15	100	.001028	
353.15	100	.000917	

System: ethylene glycol; phases: Liquid
Property: Viscosity, Pa*s (Liquid); method: Falling or rolling sphere viscometry
Temperature, K	Pressure, kPa	Viscosity, Pa*s	uncertainty
293.15	100	.02144	
298.15	100	.01741	
303.15	100	.01433	
313.15	100	.01001	
323.15	100	.007121	
333.15	100	.00533	
343.15	100	.004103	
353.15	100	.003242	

System: acetonitrile; phases: Liquid
Property: Viscosity, Pa*s (Liquid); method: Falling or rolling sphere viscometry
Temperature, K	Pressure, kPa	Viscosity, Pa*s	uncertainty
293.15	100	.000386	
298.15	100	.00037	
303.15	100	.000354	
313.15	100	.000327	
323.15	100	.000302	
333.15	100	.000281	
343.15	100	.000262	

System: 1,4-dioxane; phases: Liquid
Property: Viscosity, Pa*s (Liquid); method: Falling or rolling sphere viscometry
Temperature, K	Pressure, kPa	Viscosity, Pa*s	uncertainty
293.15	100	.001286	
298.15	100	.00118	
303.15	100	.001087	
313.15	100	.000934	
323.15	100	.000814	
333.15	100	.000718	
343.15	100	.00064	
353.15	100	.000577	

System: 1,4-dioxane + 1-ethyl-3-methylimidazolium tetrafluoroborate; phases: Liquid
Fixed: Pressure, kPa = 100
Property: Viscosity, Pa*s (Liquid); method: Falling or rolling sphere viscometry
Temperature, K	Mole fraction of 1-ethyl-3-methylimidazolium tetrafluoroborate	Viscosity, Pa*s	uncertainty
293.15	0	.001286	
293.15	.3292	.007097	
293.15	.4547	.01218	
293.15	.4923	.01384	
293.15	.6409	.02219	
293.15	.6838	.02491	
293.15	.7851	.03206	
293.15	.8336	.0358	
293.15	1	.05054	
298.15	0	.00118	
298.15	.3292	.006417	
298.15	.4547	.01059	
298.15	.4923	.01199	
298.15	.6409	.01878	
298.15	.6838	.02101	
298.15	.7851	.02681	
298.15	.8336	.0298	
298.15	1	.04145	
303.15	0	.001087	
303.15	.3292	.005505	
303.15	.4547	.009302	
303.15	.4923	.01049	
303.15	.6409	.01624	
303.15	.6838	.01805	
303.15	.7851	.02272	
303.15	.8336	.02507	
303.15	1	.03453	
313.15	0	.000934	
313.15	.3292	.004479	
313.15	.4547	.007331	
313.15	.4923	.008209	
313.15	.6409	.01235	
313.15	.6838	.01362	
313.15	.7851	.01686	
313.15	.8336	.01847	
313.15	1	.02483	
323.15	0	.000814	
323.15	.3292	.003865	
323.15	.4547	.005929	
323.15	.4923	.006594	
323.15	.6409	.009687	
323.15	.6838	.01063	
323.15	.7851	.013	
323.15	.8336	.01427	
323.15	1	.01862	
333.15	0	.000718	
333.15	.3292	.003107	
333.15	.4547	.004898	
333.15	.4923	.005418	
333.15	.6409	.007797	
333.15	.6838	.00852	
333.15	.7851	.01033	
333.15	.8336	.01109	
333.15	1	.01454	
343.15	0	.00064	
343.15	.3292	.00265	
343.15	.4547	.004119	
343.15	.4923	.004535	
343.15	.6409	.006413	
343.15	.6838	.006974	
343.15	.7851	.008378	
343.15	.8336	.008962	
343.15	1	.01171	
353.15	0	.000577	
353.15	.3292	.002296	
353.15	.4547	.003517	
353.15	.4923	.003859	
353.15	.6409	.005372	
353.15	.6838	.005812	
353.15	.7851	.006906	
353.15	.8336	.007384	
353.15	1	.00958	

System: acetonitrile + 1-ethyl-3-methylimidazolium tetrafluoroborate; phases: Liquid
Fixed: Pressure, kPa = 100
Property: Viscosity, Pa*s (Liquid); method: Falling or rolling sphere viscometry
Temperature, K	Mole fraction of 1-ethyl-3-methylimidazolium tetrafluoroborate	Viscosity, Pa*s	uncertainty
293.15	0	.000386	
293.15	.1699	.001213	
293.15	.2884	.002485	
293.15	.4247	.004825	
293.15	.5097	.007485	
293.15	.6318	.01226	
293.15	.7197	.01813	
293.15	.8213	.02516	
293.15	.9203	.03735	
293.15	1	.05054	
298.15	0	.00037	
298.15	.1699	.001143	
298.15	.2884	.002285	
298.15	.4247	.00438	
298.15	.5097	.006643	
298.15	.6318	.01071	
298.15	.7197	.01559	
298.15	.8213	.02138	
298.15	.9203	.03111	
298.15	1	.04145	
303.15	0	.000354	
303.15	.1699	.001078	
303.15	.2884	.002113	
303.15	.4247	.003995	
303.15	.5097	.005943	
303.15	.6318	.00945	
303.15	.7197	.01355	
303.15	.8213	.01834	
303.15	.9203	.02625	
303.15	1	.03453	
313.15	0	.000327	
313.15	.1699	.000961	
313.15	.2884	.001824	
313.15	.4247	.003362	
313.15	.5097	.004853	
313.15	.6318	.007496	
313.15	.7197	.0105	
313.15	.8213	.014	
313.15	.9203	.01941	
313.15	1	.02483	
323.15	0	.000302	
323.15	.1699	.000866	
323.15	.2884	.001596	
323.15	.4247	.002866	
323.15	.5097	.00405	
323.15	.6318	.006099	
323.15	.7197	.008362	
323.15	.8213	.011	
323.15	.9203	.01491	
323.15	1	.01862	
333.15	0	.000281	
333.15	.1699	.000785	
333.15	.2884	.001412	
333.15	.4247	.00248	
333.15	.5097	.00344	
333.15	.6318	.005066	
333.15	.7197	.00682	
333.15	.8213	.008879	
333.15	.9203	.01183	
333.15	1	.01454	
343.15	0	.000262	
343.15	.1699	.000719	
343.15	.2884	.001262	
343.15	.4247	.002171	
343.15	.5097	.002969	
343.15	.6318	.004282	
343.15	.7197	.005678	
343.15	.8213	.007289	
343.15	.9203	.009604	
343.15	1	.01171	

System: ethylene glycol + 1-ethyl-3-methylimidazolium tetrafluoroborate; phases: Liquid
Fixed: Pressure, kPa = 100
Property: Viscosity, Pa*s (Liquid); method: Falling or rolling sphere viscometry
Temperature, K	Mole fraction of 1-ethyl-3-methylimidazolium tetrafluoroborate	Viscosity, Pa*s	uncertainty
293.15	0	.02144	
293.15	.1249	.01578	
293.15	.2084	.01503	
293.15	.3046	.0149	
293.15	.4124	.01575	
293.15	.4763	.01654	
293.15	.5565	.018	
293.15	.717	.02343	
293.15	.7826	.02679	
293.15	.901	.03676	
293.15	1	.05054	
298.15	0	.01741	
298.15	.1249	.01294	
298.15	.2084	.01233	
298.15	.3046	.0123	
298.15	.4124	.01312	
298.15	.4763	.01384	
298.15	.5565	.01514	
298.15	.717	.01981	
298.15	.7826	.02261	
298.15	.901	.03065	
298.15	1	.04145	
303.15	0	.01433	
303.15	.1249	.01076	
303.15	.2084	.01029	
303.15	.3046	.01033	
303.15	.4124	.01108	
303.15	.4763	.01176	
303.15	.5565	.01291	
303.15	.717	.01688	
303.15	.7826	.01927	
303.15	.901	.0259	
303.15	1	.03453	
313.15	0	.01001	
313.15	.1249	.007709	
313.15	.2084	.007435	
313.15	.3046	.007557	
313.15	.4124	.008217	
313.15	.4763	.008772	
313.15	.5565	.009707	
313.15	.717	.01271	
313.15	.7826	.01434	
313.15	.901	.0191	
313.15	1	.02483	
323.15	0	.007121	
323.15	.1249	.005739	
323.15	.2084	.005601	
323.15	.3046	.005765	
323.15	.4124	.006339	
323.15	.4763	.006807	
323.15	.5565	.007571	
323.15	.717	.009915	
323.15	.7826	.01125	
323.15	.901	.01461	
323.15	1	.01862	
333.15	0	.00533	
333.15	.1249	.004422	
333.15	.2084	.004371	
333.15	.3046	.00455	
333.15	.4124	.005049	
333.15	.4763	.005442	
333.15	.5565	.006082	
333.15	.717	.007957	
333.15	.7826	.008984	
333.15	.901	.01152	
333.15	1	.01454	
343.15	0	.004103	
343.15	.1249	.003499	
343.15	.2084	.003508	
343.15	.3046	.003694	
343.15	.4124	.00413	
343.15	.4763	.004468	
343.15	.5565	.005007	
343.15	.717	.006533	
343.15	.7826	.007335	
343.15	.901	.009319	
343.15	1	.01171	
353.15	0	.003242	
353.15	.1249	.002854	
353.15	.2084	.002895	
353.15	.3046	.003074	
353.15	.4124	.00346	
353.15	.4763	.003748	
353.15	.5565	.004206	
353.15	.717	.005472	
353.15	.7826	.006118	
353.15	.901	.007694	
353.15	1	.00958	

System: dimethyl sulfoxide + 1-ethyl-3-methylimidazolium tetrafluoroborate; phases: Liquid
Fixed: Pressure, kPa = 100
Property: Viscosity, Pa*s (Liquid); method: Falling or rolling sphere viscometry
Temperature, K	Mole fraction of 1-ethyl-3-methylimidazolium tetrafluoroborate	Viscosity, Pa*s	uncertainty
293.15	0	.00221	
293.15	.1041	.003836	
293.15	.2134	.006322	
293.15	.3311	.01026	
293.15	.4282	.01446	
293.15	.5219	.01913	
293.15	.5902	.02282	
293.15	.7069	.0295	
293.15	.7979	.03509	
293.15	.9128	.04308	
293.15	1	.05054	
298.15	0	.002012	
298.15	.1041	.003434	
298.15	.2134	.005552	
298.15	.3311	.008842	
298.15	.4282	.01231	
298.15	.5219	.01613	
298.15	.5902	.01914	
298.15	.7069	.02456	
298.15	.7979	.02907	
298.15	.9128	.03548	
298.15	1	.04145	
303.15	0	.001843	
303.15	.1041	.003086	
303.15	.2134	.004909	
303.15	.3311	.007691	
303.15	.4282	.01059	
303.15	.5219	.01378	
303.15	.5902	.01627	
303.15	.7069	.02076	
303.15	.7979	.02447	
303.15	.9128	.02971	
303.15	1	.03453	
313.15	0	.001556	
313.15	.1041	.002524	
313.15	.2134	.003924	
313.15	.3311	.005984	
313.15	.4282	.008084	
313.15	.5219	.01037	
313.15	.5902	.01215	
313.15	.7069	.01535	
313.15	.7979	.01798	
313.15	.9128	.02161	
313.15	1	.02483	
323.15	0	.001337	
323.15	.1041	.002132	
323.15	.2134	.003212	
323.15	.3311	.004777	
323.15	.4282	.006368	
323.15	.5219	.008095	
323.15	.5902	.009433	
323.15	.7069	.01181	
323.15	.7979	.01372	
323.15	.9128	.01633	
323.15	1	.01862	
333.15	0	.001165	
333.15	.1041	.001831	
333.15	.2134	.002685	
333.15	.3311	.003908	
333.15	.4282	.005152	
333.15	.5219	.006497	
333.15	.5902	.007534	
333.15	.7069	.009358	
333.15	.7979	.01081	
333.15	.9128	.01278	
333.15	1	.01454	
343.15	0	.001028	
343.15	.1041	.00161	
343.15	.2134	.002278	
343.15	.3311	.003242	
343.15	.4282	.004242	
343.15	.5219	.00533	
343.15	.5902	.006162	
343.15	.7069	.007599	
343.15	.7979	.008725	
343.15	.9128	.01026	
343.15	1	.01171	
353.15	0	.000917	
353.15	.1041	.001415	
353.15	.2134	.001971	
353.15	.3311	.002769	
353.15	.4282	.003591	
353.15	.5219	.004478	
353.15	.5902	.005149	
353.15	.7069	.006294	
353.15	.7979	.007181	
353.15	.9128	.0084	
353.15	1	.00958	
