Measured thermophysical data. Volume effects for binary mixtures of propane-1,2-diol with methanol, propan-1-ol,  hexan-1-ol, octan-1-ol, or nonan-1-ol at temperatures (293.15 to 318.15) K
Source: J. Chem. Thermodyn., 2013, 10.1016/j.jct.2012.12.003
Compound 1: 1,2-dihydroxypropane, C3H8O2, purity 99.5%
Compound 2: methyl alcohol, CH4O, purity 99.5%
Compound 3: n-propyl alcohol, C3H8O, purity 99.9%
Compound 4: amylcarbinol, C6H14O, purity 99%
Compound 5: 1-octanol, C8H18O, purity 99%
Compound 6: 1-nonanol, C9H20O, purity 99%

System: 1,2-dihydroxypropane; phases: Liquid
Property: Mass density, kg/m3 (Liquid); method: Vibrating tube method
Temperature, K	Pressure, kPa	Mass density, kg/m3	uncertainty
293.15	101.3	1036.175	.05
298.15	101.3	1032.52	.05
303.15	101.3	1028.826	.05
308.15	101.3	1025.085	.05
313.15	101.3	1021.307	.05
318.15	101.3	1017.488	.05
293.15	101.3	1036.131	.05
298.15	101.3	1032.476	.05
303.15	101.3	1028.78	.05
308.15	101.3	1025.048	.05
313.15	101.3	1021.28	.05
318.15	101.3	1017.471	.05
293.15	101.3	1036.209	.05
298.15	101.3	1032.548	.05
303.15	101.3	1028.837	.05
308.15	101.3	1025.088	.05
313.15	101.3	1021.309	.05
293.15	101.3	1036.219	.05
298.15	101.3	1032.558	.05
303.15	101.3	1028.846	.05
308.15	101.3	1025.096	.05
313.15	101.3	1021.31	.05
318.15	101.3	1017.49	.05

System: methyl alcohol; phases: Liquid
Property: Mass density, kg/m3 (Liquid); method: Vibrating tube method
Temperature, K	Pressure, kPa	Mass density, kg/m3	uncertainty
293.15	101.3	791.494	.05
298.15	101.3	786.794	.05
303.15	101.3	782.071	.05
308.15	101.3	777.326	.05
313.15	101.3	772.55	.05
318.15	101.3	767.744	.05

System: n-propyl alcohol; phases: Liquid
Property: Mass density, kg/m3 (Liquid); method: Vibrating tube method
Temperature, K	Pressure, kPa	Mass density, kg/m3	uncertainty
293.15	101.3	803.527	.05
298.15	101.3	799.528	.05
303.15	101.3	795.493	.05
308.15	101.3	791.426	.05
313.15	101.3	787.32	.05
318.15	101.3	783.164	.05

System: amylcarbinol; phases: Liquid
Property: Mass density, kg/m3 (Liquid); method: Vibrating tube method
Temperature, K	Pressure, kPa	Mass density, kg/m3	uncertainty
293.15	101.3	818.749	.05
298.15	101.3	815.188	.05
303.15	101.3	811.6	.05
308.15	101.3	807.984	.05
313.15	101.3	804.339	.05
318.15	101.3	800.657	.05

System: 1-octanol; phases: Liquid
Property: Mass density, kg/m3 (Liquid); method: Vibrating tube method
Temperature, K	Pressure, kPa	Mass density, kg/m3	uncertainty
293.15	101.3	825.093	.05
298.15	101.3	821.647	.05
303.15	101.3	818.177	.05
308.15	101.3	814.686	.05
313.15	101.3	811.171	.05
318.15	101.3	807.629	.05

System: 1-nonanol; phases: Liquid
Property: Mass density, kg/m3 (Liquid); method: Vibrating tube method
Temperature, K	Pressure, kPa	Mass density, kg/m3	uncertainty
293.15	101.3	827.667	.05
298.15	101.3	824.254	.05
303.15	101.3	820.815	.05
308.15	101.3	817.362	.05
313.15	101.3	813.885	.05
318.15	101.3	810.385	.05

System: 1,2-dihydroxypropane + methyl alcohol; phases: Liquid
Fixed: Pressure, kPa = 101.3
Property: Mass density, kg/m3 (Liquid); method: Vibrating tube method
Temperature, K	Mole fraction of 1,2-dihydroxypropane	Mass density, kg/m3	uncertainty
293.15	0	791.494	.05
293.15	.10082	838.277	.05
293.15	.13852	853.548	.05
293.15	.25821	895.155	.05
293.15	.3	908.078	.05
293.15	.48511	954.527	.05
293.15	.54762	967.74	.05
293.15	.69908	995.074	.05
293.15	.7595	1004.493	.05
293.15	.89908	1023.998	.05
293.15	1	1036.175	.05
298.15	0	786.794	.05
298.15	.10082	833.79	.05
298.15	.13852	849.127	.05
298.15	.25821	890.917	.05
298.15	.3	903.893	.05
298.15	.48511	950.534	.05
298.15	.54762	963.799	.05
298.15	.69908	991.242	.05
298.15	.7595	1000.699	.05
298.15	.89908	1020.294	.05
298.15	1	1032.52	.05
303.15	0	782.071	.05
303.15	.10082	829.274	.05
303.15	.13852	844.68	.05
303.15	.25821	886.644	.05
303.15	.3	899.676	.05
303.15	.48511	946.507	.05
303.15	.54762	959.825	.05
303.15	.69908	987.37	.05
303.15	.7595	996.862	.05
303.15	.89908	1016.538	.05
303.15	1	1028.826	.05
308.15	0	777.326	.05
308.15	.10082	824.731	.05
308.15	.13852	840.206	.05
308.15	.25821	882.346	.05
308.15	.3	895.43	.05
308.15	.48511	942.448	.05
308.15	.54762	955.815	.05
308.15	.69908	983.47	.05
308.15	.7595	992.997	.05
308.15	.89908	1012.75	.05
308.15	1	1025.085	.05
313.15	0	772.55	.05
313.15	.10082	820.164	.05
313.15	.13852	835.7	.05
313.15	.25821	878.013	.05
313.15	.3	891.151	.05
313.15	.48511	938.356	.05
313.15	.54762	951.772	.05
313.15	.69908	979.532	.05
313.15	.7595	989.094	.05
313.15	.89908	1008.921	.05
313.15	1	1021.307	.05
318.15	0	767.744	.05
318.15	.10082	815.56	.05
318.15	.13852	831.158	.05
318.15	.25821	873.648	.05
318.15	.3	886.837	.05
318.15	.48511	934.226	.05
318.15	.54762	947.684	.05
318.15	.69908	975.556	.05
318.15	.7595	985.157	.05
318.15	.89908	1005.055	.05
318.15	1	1017.488	.05

System: 1,2-dihydroxypropane + n-propyl alcohol; phases: Liquid
Fixed: Pressure, kPa = 101.3
Property: Mass density, kg/m3 (Liquid); method: Vibrating tube method
Temperature, K	Mole fraction of 1,2-dihydroxypropane	Mass density, kg/m3	uncertainty
293.15	0	803.527	.05
293.15	.10013	827.101	.05
293.15	.19998	850.504	.05
293.15	.30011	873.567	.05
293.15	.39994	897.361	.05
293.15	.49992	920.615	.05
293.15	.69974	967.056	.05
293.15	.79981	990.126	.05
293.15	.9497	1024.724	.05
293.15	1	1036.131	.05
298.15	0	799.528	.05
298.15	.10013	823.072	.05
298.15	.19998	846.479	.05
298.15	.30011	869.634	.05
298.15	.39994	893.372	.05
298.15	.49992	916.676	.05
298.15	.69974	963.215	.05
298.15	.79981	986.331	.05
298.15	.9497	1021.038	.05
298.15	1	1032.476	.05
303.15	0	795.493	.05
303.15	.10013	819.008	.05
303.15	.19998	842.415	.05
303.15	.30011	865.603	.05
303.15	.39994	889.385	.05
303.15	.49992	912.697	.05
303.15	.69974	959.329	.05
303.15	.79981	982.502	.05
303.15	.9497	1017.3	.05
303.15	1	1028.78	.05
308.15	0	791.426	.05
308.15	.10013	814.909	.05
308.15	.19998	838.312	.05
308.15	.30011	861.519	.05
308.15	.39994	885.326	.05
308.15	.49992	908.683	.05
308.15	.69974	955.407	.05
308.15	.79981	978.642	.05
308.15	.9497	1013.523	.05
308.15	1	1025.048	.05
313.15	0	787.32	.05
313.15	.10013	810.77	.05
313.15	.19998	834.174	.05
313.15	.30011	857.399	.05
313.15	.39994	881.264	.05
313.15	.49992	904.631	.05
313.15	.69974	951.451	.05
313.15	.79981	974.743	.05
313.15	.9497	1009.71	.05
313.15	1	1021.28	.05
318.15	0	783.164	.05
318.15	.10013	806.589	.05
318.15	.19998	829.994	.05
318.15	.30011	853.237	.05
318.15	.39994	877.138	.05
318.15	.49992	900.544	.05
318.15	.69974	947.456	.05
318.15	.79981	970.809	.05
318.15	.9497	1005.859	.05
318.15	1	1017.471	.05

System: 1,2-dihydroxypropane + amylcarbinol; phases: Liquid
Fixed: Pressure, kPa = 101.3
Property: Mass density, kg/m3 (Liquid); method: Vibrating tube method
Temperature, K	Mole fraction of 1,2-dihydroxypropane	Mass density, kg/m3	uncertainty
293.15	0	818.749	.05
293.15	.10137	831.496	.05
293.15	.19976	845.231	.05
293.15	.2999	860.667	.05
293.15	.40031	877.818	.05
293.15	.49392	895.533	.05
293.15	.59959	917.945	.05
293.15	.69648	941.028	.05
293.15	.79886	968.795	.05
293.15	.90053	1000.458	.05
293.15	1	1036.209	.05
298.15	0	815.188	.05
298.15	.10137	827.881	.05
298.15	.19976	841.574	.05
298.15	.2999	856.979	.05
298.15	.40031	874.105	.05
298.15	.49392	891.801	.05
298.15	.59959	914.203	.05
298.15	.69648	937.285	.05
298.15	.79886	965.064	.05
298.15	.90053	996.753	.05
298.15	1	1032.548	.05
303.15	0	811.6	.05
303.15	.10137	824.235	.05
303.15	.19976	837.887	.05
303.15	.2999	853.262	.05
303.15	.40031	870.363	.05
303.15	.49392	888.041	.05
303.15	.59959	910.432	.05
303.15	.69648	933.51	.05
303.15	.79886	961.302	.05
303.15	.90053	993.003	.05
303.15	1	1028.837	.05
308.15	0	807.984	.05
308.15	.10137	820.566	.05
308.15	.19976	834.178	.05
308.15	.2999	849.521	.05
308.15	.40031	866.596	.05
308.15	.49392	884.256	.05
308.15	.59959	906.63	.05
308.15	.69648	929.702	.05
308.15	.79886	957.503	.05
308.15	.90053	989.222	.05
308.15	1	1025.088	.05
313.15	0	804.339	.05
313.15	.10137	816.869	.05
313.15	.19976	830.44	.05
313.15	.2999	845.751	.05
313.15	.40031	862.8	.05
313.15	.49392	880.441	.05
313.15	.59959	902.801	.05
313.15	.69648	925.868	.05
313.15	.79886	953.677	.05
313.15	.90053	985.406	.05
313.15	1	1021.309	.05
318.15	0	800.657	.05
318.15	.10137	813.142	.05
318.15	.19976	826.676	.05
318.15	.2999	841.952	.05
318.15	.40031	858.977	.05
318.15	.49392	876.599	.05
318.15	.59959	898.941	.05
318.15	.69648	922.002	.05
318.15	.79886	949.81	.05
318.15	.90053	981.555	.05
318.15	1	1017.488	.05

System: 1,2-dihydroxypropane + 1-octanol; phases: Liquid
Fixed: Pressure, kPa = 101.3
Property: Mass density, kg/m3 (Liquid); method: Vibrating tube method
Temperature, K	Mole fraction of 1,2-dihydroxypropane	Mass density, kg/m3	uncertainty
293.15	0	825.093	.05
293.15	.10282	834.904	.05
293.15	.19377	844.743	.05
293.15	.30295	858.314	.05
293.15	.39289	871.118	.05
293.15	.51806	892.06	.05
293.15	.6002	908.213	.05
293.15	.70116	931.472	.05
293.15	.80158	959.327	.05
293.15	.90101	993.344	.05
293.15	1	1036.219	.05
298.15	0	821.647	.05
298.15	.10282	831.409	.05
298.15	.19377	841.209	.05
298.15	.30295	854.74	.05
298.15	.39289	867.513	.05
298.15	.51806	888.414	.05
298.15	.6002	904.545	.05
298.15	.70116	927.781	.05
298.15	.80158	955.627	.05
298.15	.90101	989.648	.05
298.15	1	1032.558	.05
303.15	0	818.177	.05
303.15	.10282	827.891	.05
303.15	.19377	837.652	.05
303.15	.30295	851.144	.05
303.15	.39289	863.884	.05
303.15	.51806	884.743	.05
303.15	.6002	900.85	.05
303.15	.70116	924.062	.05
303.15	.80158	951.891	.05
303.15	.90101	985.914	.05
303.15	1	1028.846	.05
308.15	0	814.686	.05
308.15	.10282	824.351	.05
308.15	.19377	834.08	.05
308.15	.30295	847.528	.05
308.15	.39289	860.235	.05
308.15	.51806	881.051	.05
308.15	.6002	897.13	.05
308.15	.70116	920.315	.05
308.15	.80158	948.124	.05
308.15	.90101	982.15	.05
308.15	1	1025.096	.05
313.15	0	811.171	.05
313.15	.10282	820.793	.05
313.15	.19377	830.481	.05
313.15	.30295	843.885	.05
313.15	.39289	856.562	.05
313.15	.51806	877.332	.05
313.15	.6002	893.39	.05
313.15	.70116	916.543	.05
313.15	.80158	944.333	.05
313.15	.90101	978.349	.05
313.15	1	1021.31	.05
318.15	0	807.629	.05
318.15	.10282	817.208	.05
318.15	.19377	826.859	.05
318.15	.30295	840.223	.05
318.15	.39289	852.864	.05
318.15	.51806	873.592	.05
318.15	.6002	889.619	.05
318.15	.70116	912.743	.05
318.15	.80158	940.506	.05
318.15	.90101	974.513	.05
318.15	1	1017.49	.05

System: 1,2-dihydroxypropane + 1-nonanol; phases: Liquid
Fixed: Pressure, kPa = 101.3
Property: Mass density, kg/m3 (Liquid); method: Vibrating tube method
Temperature, K	Mole fraction of 1,2-dihydroxypropane	Mass density, kg/m3	uncertainty
293.15	0	827.667	.05
293.15	.10562	836.639	.05
293.15	.22502	848.601	.05
293.15	.34328	862.671	.05
293.15	.37726	867.271	.05
293.15	.55513	895.783	.05
293.15	.6746	920.803	.05
293.15	.7695	945.697	.05
293.15	.79782	953.952	.05
293.15	.89895	989.338	.05
293.15	1	1036.175	.05
298.15	0	824.254	.05
298.15	.10562	833.182	.05
298.15	.22502	845.095	.05
298.15	.34328	859.126	.05
298.15	.37726	863.71	.05
298.15	.55513	892.163	.05
298.15	.6746	917.143	.05
298.15	.7695	942.013	.05
298.15	.79782	950.266	.05
298.15	.89895	985.641	.05
298.15	1	1032.52	.05
303.15	0	820.815	.05
303.15	.10562	829.698	.05
303.15	.22502	841.567	.05
303.15	.34328	855.554	.05
303.15	.37726	860.127	.05
303.15	.55513	888.513	.05
303.15	.6746	913.452	.05
303.15	.7695	938.296	.05
303.15	.79782	946.543	.05
303.15	.89895	981.914	.05
303.15	1	1028.826	.05
308.15	0	817.362	.05
308.15	.10562	826.204	.05
308.15	.22502	838.022	.05
308.15	.34328	851.964	.05
308.15	.37726	856.523	.05
308.15	.55513	884.841	.05
308.15	.6746	909.736	.05
308.15	.7695	934.554	.05
308.15	.79782	942.791	.05
308.15	.89895	978.153	.05
308.15	1	1025.085	.05
313.15	0	813.885	.05
313.15	.10562	822.685	.05
313.15	.22502	834.458	.05
313.15	.34328	848.353	.05
313.15	.37726	852.901	.05
313.15	.55513	881.148	.05
313.15	.6746	906.002	.05
313.15	.7695	930.783	.05
313.15	.79782	939.015	.05
313.15	.89895	974.358	.05
313.15	1	1021.307	.05
318.15	0	810.385	.05
318.15	.10562	819.146	.05
318.15	.22502	830.872	.05
318.15	.34328	844.72	.05
318.15	.37726	849.257	.05
318.15	.55513	877.428	.05
318.15	.6746	902.236	.05
318.15	.7695	926.985	.05
318.15	.79782	935.207	.05
318.15	.89895	970.53	.05
318.15	1	1017.488	.05
