Measured thermophysical data. Effect of the temperature on the physical properties of the pure ionic liquid 1-ethyl-3-methylimidazolium methylsulfate and characterization of its binary mixtures with alcohols
Source: J. Chem. Thermodyn., 2014, 10.1016/j.jct.2014.01.030
Compound 1: 1-ethyl-3-methylimidazolium methylsulfate, C7H14N2O4S, purity 99%
Compound 2: methanol, CH4O, purity 99.9%
Compound 3: ethanol, C2H6O, purity 99.9%
Compound 4: 1-propanol, C3H8O, purity 99.9%
Compound 5: 2-propanol, C3H8O, purity 99.9%
Compound 6: 2-butanol, C4H10O, purity 99.5%
Compound 7: 1-pentanol, C5H12O, purity 99%

System: 1-ethyl-3-methylimidazolium methylsulfate; phases: Liquid
Fixed: Pressure, kPa = 101.325
Property: Molar heat capacity at constant pressure, J/K/mol (Liquid); method: Small sample (50 mg) DSC
Temperature, K	Molar heat capacity at constant pressure, J/K/mol	uncertainty
288.15	331.48	6.6296
298.15	340.77	6.8154
308.15	346.99	6.9398

System: 1-ethyl-3-methylimidazolium methylsulfate; phases: Liquid
Fixed: Pressure, kPa = 101.325
Property: Mass density, kg/m3 (Liquid); method: Vibrating tube method
Temperature, K	Mass density, kg/m3	uncertainty
293.15	1284.26	.05
298.15	1280.81	.05
303.15	1277.28	.05
308.15	1273.97	.05
313.15	1270.57	.05
318.15	1267.18	.05
323.15	1263.81	.05
328.15	1260.45	.05
333.15	1257.09	.05
338.15	1253.75	.05
343.15	1250.42	.05
288.15	1287.57	.05

System: 1-ethyl-3-methylimidazolium methylsulfate; phases: Liquid
Fixed: Pressure, kPa = 101.325
Property: Speed of sound, m/s (Liquid); method: Sing-around technique in a fixed-path interferometer
Temperature, K	Speed of sound, m/s	uncertainty
293.15	1768	1
298.15	1756	1
303.15	1744	1
308.15	1732	1
313.15	1720	1
318.15	1709	1
323.15	1697	1
328.15	1686	1
333.15	1675	1
338.15	1663	1
343.15	1652	1
288.15	1781	1

System: 1-ethyl-3-methylimidazolium methylsulfate; phases: Liquid
Fixed: Pressure, kPa = 101.325
Property: Refractive index (Na D-line) (Liquid); method: Standard Abbe refractometry
Temperature, K	Refractive index (Na D-line)	uncertainty
293.15	1.48252	.00004
298.15	1.48125	.00004
303.15	1.47998	.00004
308.15	1.47868	.00004
313.15	1.4774	.00004
318.15	1.47612	.00004
323.15	1.4748	.00004
328.15	1.4735	.00004
333.15	1.47218	.00004
338.15	1.47086	.00004
343.15	1.46954	.00004

System: 1-ethyl-3-methylimidazolium methylsulfate; phases: Liquid
Fixed: Pressure, kPa = 101.325
Property: Viscosity, Pa*s (Liquid); method: Capillary tube (Ostwald; Ubbelohde) method
Temperature, K	Viscosity, Pa*s	uncertainty
293.15	.08522	.0008522
298.15	.06706	.0006706
303.15	.05439	.0005439
308.15	.04468	.0004468
313.15	.0371	.000371
318.15	.03127	.0003127
323.15	.02681	.0002681
328.15	.02274	.0002274
333.15	.01971	.0001971
338.15	.01725	.0001725
343.15	.01516	.0001516

System: methanol; phases: Liquid
Fixed: Pressure, kPa = 101.325
Property: Refractive index (Na D-line) (Liquid); method: Standard Abbe refractometry
Temperature, K	Refractive index (Na D-line)	uncertainty
298.15	1.32649	.00004

System: methanol; phases: Liquid
Property: Mass density, kg/m3 (Liquid); method: Vibrating tube method
Temperature, K	Pressure, kPa	Mass density, kg/m3	uncertainty
288.15	101	796.46	.05
308.15	101	777.64	.05
298.15	101	787.1	.05

System: methanol; phases: Liquid
Property: Speed of sound, m/s (Liquid); method: Sing-around technique in a fixed-path interferometer
Temperature, K	Pressure, kPa	Speed of sound, m/s	uncertainty
288.15	101	1137	1
298.15	101	1104	1
308.15	101	1071	1

System: ethanol; phases: Liquid
Fixed: Pressure, kPa = 101.325
Property: Refractive index (Na D-line) (Liquid); method: Standard Abbe refractometry
Temperature, K	Refractive index (Na D-line)	uncertainty
298.15	1.35907	.00004

System: ethanol; phases: Liquid
Property: Mass density, kg/m3 (Liquid); method: Vibrating tube method
Temperature, K	Pressure, kPa	Mass density, kg/m3	uncertainty
288.15	101	794.04	.05
308.15	101	776.87	.05
298.15	101	785.52	.05

System: ethanol; phases: Liquid
Property: Speed of sound, m/s (Liquid); method: Sing-around technique in a fixed-path interferometer
Temperature, K	Pressure, kPa	Speed of sound, m/s	uncertainty
288.15	101	1179	1
298.15	101	1145	1
308.15	101	1111	1

System: 1-propanol; phases: Liquid
Fixed: Pressure, kPa = 101.325
Property: Refractive index (Na D-line) (Liquid); method: Standard Abbe refractometry
Temperature, K	Refractive index (Na D-line)	uncertainty
298.15	1.38286	.00004

System: 1-propanol; phases: Liquid
Property: Mass density, kg/m3 (Liquid); method: Vibrating tube method
Temperature, K	Pressure, kPa	Mass density, kg/m3	uncertainty
288.15	101	808.48	.05
308.15	101	792.38	.05
298.15	101	800.5	.05

System: 1-propanol; phases: Liquid
Property: Speed of sound, m/s (Liquid); method: Sing-around technique in a fixed-path interferometer
Temperature, K	Pressure, kPa	Speed of sound, m/s	uncertainty
288.15	101	1243	1
298.15	101	1208	1
308.15	101	1174	1

System: 2-propanol; phases: Liquid
Fixed: Pressure, kPa = 101.325
Property: Refractive index (Na D-line) (Liquid); method: Standard Abbe refractometry
Temperature, K	Refractive index (Na D-line)	uncertainty
298.15	1.37523	.00004

System: 2-propanol; phases: Liquid
Property: Mass density, kg/m3 (Liquid); method: Vibrating tube method
Temperature, K	Pressure, kPa	Mass density, kg/m3	uncertainty
288.15	101	790.01	.05
308.15	101	773.03	.05
298.15	101	781.67	.05

System: 2-propanol; phases: Liquid
Property: Speed of sound, m/s (Liquid); method: Sing-around technique in a fixed-path interferometer
Temperature, K	Pressure, kPa	Speed of sound, m/s	uncertainty
288.15	101	1177	1
298.15	101	1141	1
308.15	101	1106	1

System: 2-butanol; phases: Liquid
Fixed: Pressure, kPa = 101.325
Property: Refractive index (Na D-line) (Liquid); method: Standard Abbe refractometry
Temperature, K	Refractive index (Na D-line)	uncertainty
298.15	1.39487	.00004

System: 2-butanol; phases: Liquid
Property: Mass density, kg/m3 (Liquid); method: Vibrating tube method
Temperature, K	Pressure, kPa	Mass density, kg/m3	uncertainty
288.15	101	810.96	.05
308.15	101	794.34	.05
298.15	101	802.82	.05

System: 2-butanol; phases: Liquid
Property: Speed of sound, m/s (Liquid); method: Sing-around technique in a fixed-path interferometer
Temperature, K	Pressure, kPa	Speed of sound, m/s	uncertainty
288.15	101	1249	1
298.15	101	1213	1
308.15	101	1177	1

System: 1-pentanol; phases: Liquid
Fixed: Pressure, kPa = 101.325
Property: Refractive index (Na D-line) (Liquid); method: Standard Abbe refractometry
Temperature, K	Refractive index (Na D-line)	uncertainty
298.15	1.40774	.00004

System: 1-pentanol; phases: Liquid
Property: Mass density, kg/m3 (Liquid); method: Vibrating tube method
Temperature, K	Pressure, kPa	Mass density, kg/m3	uncertainty
288.15	101	818.25	.05
308.15	101	803.61	.05
298.15	101	810.99	.05

System: 1-pentanol; phases: Liquid
Property: Speed of sound, m/s (Liquid); method: Sing-around technique in a fixed-path interferometer
Temperature, K	Pressure, kPa	Speed of sound, m/s	uncertainty
288.15	101	1310	1
298.15	101	1276	1
308.15	101	1243	1

System: ethanol + 1-ethyl-3-methylimidazolium methylsulfate; phases: Liquid
Fixed: Pressure, kPa = 101
Property: Mass density, kg/m3 (Liquid); method: Vibrating tube method
Mole fraction of ethanol	Temperature, K	Mass density, kg/m3	uncertainty
0	288.15	1287.57	.05
.0501	288.15	1279.94	.05
.1018	288.15	1271.31	.05
.1972	288.15	1253.48	.05
.3098	288.15	1228.51	.05
.3913	288.15	1206.5	.05
.503	288.15	1170.26	.05
.6129	288.15	1125.74	.05
.7031	288.15	1078.87	.05
.8087	288.15	1007.23	.05
.9011	288.15	922.29	.05
.9482	288.15	867.78	.05
1	288.15	794.04	.05
0	298.15	1280.814	.05
.05	298.15	1273.01	.05
.102	298.15	1264.42	.05
.197	298.15	1246.51	.05
.31	298.15	1221.47	.05
.391	298.15	1199.39	.05
.503	298.15	1163.02	.05
.613	298.15	1118.41	.05
.703	298.15	1071.36	.05
.809	298.15	999.5	.05
.901	298.15	914.27	.05
.948	298.15	859.57	.05
1	298.15	785.52	.05
0	308.15	1273.97	.05
.05	308.15	1266.14	.05
.102	308.15	1257.55	.05
.197	308.15	1239.58	.05
.31	308.15	1214.47	.05
.391	308.15	1192.33	.05
.503	308.15	1155.75	.05
.613	308.15	1111.08	.05
.703	308.15	1063.86	.05
.809	308.15	991.73	.05
.901	308.15	906.19	.05
.948	308.15	851.28	.05
1	308.15	776.87	.05

System: ethanol + 1-ethyl-3-methylimidazolium methylsulfate; phases: Liquid
Fixed: Pressure, kPa = 101
Property: Speed of sound, m/s (Liquid); method: Sing-around technique in a fixed-path interferometer
Mole fraction of ethanol	Temperature, K	Speed of sound, m/s	uncertainty
0	288.15	1781	1
.0501	288.15	1769	1
.1018	288.15	1756	1
.1972	288.15	1728	1
.3098	288.15	1690	1
.3913	288.15	1656	1
.503	288.15	1600	1
.6129	288.15	1532	1
.7031	288.15	1467	1
.8087	288.15	1376	1
.9011	288.15	1286	1
.9482	288.15	1238	1
1	288.15	1179	1
0	298.15	1756	1
.05	298.15	1744	1
.102	298.15	1731	1
.197	298.15	1704	1
.31	298.15	1665	1
.391	298.15	1630	1
.503	298.15	1574	1
.613	298.15	1506	1
.703	298.15	1440	1
.809	298.15	1348	1
.901	298.15	1256	1
.948	298.15	1206	1
1	298.15	1145	1
0	308.15	1732	1
.05	308.15	1720	1
.102	308.15	1707	1
.197	308.15	1679	1
.31	308.15	1640	1
.391	308.15	1605	1
.503	308.15	1549	1
.613	308.15	1480	1
.703	308.15	1413	1
.809	308.15	1321	1
.901	308.15	1226	1
.948	308.15	1175	1
1	308.15	1111	1

System: methanol + 1-ethyl-3-methylimidazolium methylsulfate; phases: Liquid
Fixed: Pressure, kPa = 101
Property: Mass density, kg/m3 (Liquid); method: Vibrating tube method
Mole fraction of methanol	Temperature, K	Mass density, kg/m3	uncertainty
0	288.15	1287.57	.05
.0515	288.15	1282.18	.05
.1025	288.15	1276.36	.05
.1919	288.15	1265.13	.05
.3013	288.15	1247.5	.05
.4032	288.15	1227.98	.05
.5038	288.15	1203.27	.05
.604	288.15	1170.7	.05
.7023	288.15	1127.32	.05
.8003	288.15	1065.67	.05
.9049	288.15	962.26	.05
.9515	288.15	893.83	.05
1	288.15	796.46	.05
0	298.15	1280.81	.05
.0515	298.15	1275.24	.05
.1025	298.15	1269.42	.05
.1919	298.15	1258.14	.05
.3013	298.15	1240.45	.05
.4032	298.15	1220.84	.05
.5038	298.15	1196.01	.05
.604	298.15	1163.31	.05
.7023	298.15	1119.71	.05
.8003	298.15	1057.76	.05
.9049	298.15	953.82	.05
.9515	298.15	885.04	.05
1	298.15	787.1	.05
0	308.15	1273.97	.05
.0515	308.15	1268.37	.05
.1025	308.15	1262.52	.05
.1919	308.15	1251.2	.05
.3013	308.15	1233.43	.05
.4032	308.15	1213.74	.05
.5038	308.15	1188.8	.05
.604	308.15	1155.94	.05
.7023	308.15	1112.12	.05
.8003	308.15	1049.86	.05
.9049	308.15	945.37	.05
.9515	308.15	876.21	.05
1	308.15	777.64	.05

System: methanol + 1-ethyl-3-methylimidazolium methylsulfate; phases: Liquid
Fixed: Pressure, kPa = 101
Property: Speed of sound, m/s (Liquid); method: Sing-around technique in a fixed-path interferometer
Mole fraction of methanol	Temperature, K	Speed of sound, m/s	uncertainty
0	288.15	1781	1
.0515	288.15	1772	1
.1025	288.15	1763	1
.1919	288.15	1747	1
.3013	288.15	1720	1
.4032	288.15	1690	1
.5038	288.15	1653	1
.604	288.15	1605	1
.7023	288.15	1541	1
.8003	288.15	1452	1
.9049	288.15	1316	1
.9515	288.15	1237	1
1	288.15	1137	1
0	298.15	1756	1
.0515	298.15	1748	1
.1025	298.15	1739	1
.1919	298.15	1722	1
.3013	298.15	1695	1
.4032	298.15	1665	1
.5038	298.15	1628	1
.604	298.15	1578	1
.7023	298.15	1514	1
.8003	298.15	1424	1
.9049	298.15	1286	1
.9515	298.15	1206	1
1	298.15	1104	1
0	308.15	1732	1
.0515	308.15	1724	1
.1025	308.15	1715	1
.1919	308.15	1698	1
.3013	308.15	1670	1
.4032	308.15	1640	1
.5038	308.15	1602	1
.604	308.15	1553	1
.7023	308.15	1487	1
.8003	308.15	1397	1
.9049	308.15	1258	1
.9515	308.15	1176	1
1	308.15	1071	1

System: 1-propanol + 1-ethyl-3-methylimidazolium methylsulfate; phases: Liquid
Fixed: Pressure, kPa = 101
Property: Mass density, kg/m3 (Liquid); method: Vibrating tube method
Mole fraction of 1-propanol	Temperature, K	Mass density, kg/m3	uncertainty
0	288.15	1287.57	.05
.055	288.15	1277.08	.05
.104	288.15	1266.71	.05
.21	288.15	1241.65	.05
.307	288.15	1215.18	.05
.414	288.15	1181.08	.05
.519	288.15	1141.11	.05
.62	288.15	1095.52	.05
.718	288.15	1042.21	.05
.81	288.15	981.73	.05
.907	288.15	903.61	.05
.954	288.15	858.4	.05
1	288.15	808.48	.05
0	298.15	1280.81	.05
.055	298.15	1270.16	.05
.104	298.15	1259.77	.05
.21	298.15	1234.68	.05
.307	298.15	1208.16	.05
.414	298.15	1174.01	.05
.519	298.15	1133.94	.05
.62	298.15	1088.26	.05
.718	298.15	1034.8	.05
.81	298.15	974.16	.05
.907	298.15	895.88	.05
.954	298.15	850.58	.05
1	298.15	800.5	.05
0	308.15	1273.97	.05
.055	308.15	1263.29	.05
.104	308.15	1252.89	.05
.21	308.15	1227.75	.05
.307	308.15	1201.19	.05
.414	308.15	1166.97	.05
.519	308.15	1126.8	.05
.62	308.15	1081.02	.05
.718	308.15	1027.38	.05
.81	308.15	966.57	.05
.907	308.15	888.1	.05
.954	308.15	842.66	.05
1	308.15	792.38	.05

System: 1-propanol + 1-ethyl-3-methylimidazolium methylsulfate; phases: Liquid
Fixed: Pressure, kPa = 101
Property: Speed of sound, m/s (Liquid); method: Sing-around technique in a fixed-path interferometer
Mole fraction of 1-propanol	Temperature, K	Speed of sound, m/s	uncertainty
0	288.15	1781	1
.055	288.15	1765	1
.104	288.15	1750	1
.21	288.15	1712	1
.307	288.15	1671	1
.414	288.15	1617	1
.519	288.15	1559	1
.62	288.15	1498	1
.718	288.15	1435	1
.81	288.15	1373	1
.907	288.15	1307	1
.954	288.15	1276	1
1	288.15	1243	1
0	298.15	1756	1
.055	298.15	1741	1
.104	298.15	1725	1
.21	298.15	1687	1
.307	298.15	1645	1
.414	298.15	1592	1
.519	298.15	1533	1
.62	298.15	1471	1
.718	298.15	1407	1
.81	298.15	1344	1
.907	298.15	1276	1
.954	298.15	1243	1
1	298.15	1208	1
0	308.15	1732	1
.055	308.15	1717	1
.104	308.15	1701	1
.21	308.15	1662	1
.307	308.15	1620	1
.414	308.15	1567	1
.519	308.15	1507	1
.62	308.15	1445	1
.718	308.15	1380	1
.81	308.15	1315	1
.907	308.15	1245	1
.954	308.15	1211	1
1	308.15	1174	1

System: 2-propanol + 1-ethyl-3-methylimidazolium methylsulfate; phases: Liquid
Fixed: Pressure, kPa = 101
Property: Mass density, kg/m3 (Liquid); method: Vibrating tube method
Mole fraction of 2-propanol	Temperature, K	Mass density, kg/m3	uncertainty
0	288.15	1287.57	.05
.049	288.15	1277.61	.05
.101	288.15	1266.36	.05
.205	288.15	1240.88	.05
.307	288.15	1212.09	.05
.388	288.15	1185.23	.05
.505	288.15	1140.35	.05
.611	288.15	1091.15	.05
.705	288.15	1039.05	.05
.805	288.15	972.17	.05
.902	288.15	891.92	.05
.953	288.15	842.51	.05
1	288.15	790.01	.05
0	298.15	1280.81	.05
.049	298.15	1270.72	.05
.101	298.15	1259.44	.05
.205	298.15	1233.92	.05
.307	298.15	1205.09	.05
.388	298.15	1178.18	.05
.505	298.15	1133.21	.05
.611	298.15	1083.89	.05
.705	298.15	1031.61	.05
.805	298.15	964.55	.05
.902	298.15	884.06	.05
.953	298.15	834.48	.05
1	298.15	781.67	.05
0	308.15	1273.97	.05
.049	308.15	1263.87	.05
.101	308.15	1252.56	.05
.205	308.15	1227.01	.05
.307	308.15	1198.13	.05
.388	308.15	1171.15	.05
.505	308.15	1126.08	.05
.611	308.15	1076.62	.05
.705	308.15	1024.15	.05
.805	308.15	956.84	.05
.902	308.15	876.06	.05
.953	308.15	826.24	.05
1	308.15	773.03	.05

System: 2-propanol + 1-ethyl-3-methylimidazolium methylsulfate; phases: Liquid
Fixed: Pressure, kPa = 101
Property: Speed of sound, m/s (Liquid); method: Sing-around technique in a fixed-path interferometer
Mole fraction of 2-propanol	Temperature, K	Speed of sound, m/s	uncertainty
0	288.15	1781	1
.049	288.15	1766	1
.101	288.15	1749	1
.205	288.15	1708	1
.307	288.15	1659	1
.388	288.15	1614	1
.505	288.15	1541	1
.611	288.15	1469	1
.705	288.15	1402	1
.805	288.15	1326	1
.902	288.15	1252	1
.953	288.15	1214	1
1	288.15	1177	1
0	298.15	1756	1
.049	298.15	1741	1
.101	298.15	1724	1
.205	298.15	1683	1
.307	298.15	1634	1
.388	298.15	1588	1
.505	298.15	1515	1
.611	298.15	1443	1
.705	298.15	1375	1
.805	298.15	1298	1
.902	298.15	1221	1
.953	298.15	1181	1
1	298.15	1141	1
0	308.15	1732	1
.049	308.15	1717	1
.101	308.15	1700	1
.205	308.15	1658	1
.307	308.15	1609	1
.388	308.15	1564	1
.505	308.15	1490	1
.611	308.15	1416	1
.705	308.15	1348	1
.805	308.15	1269	1
.902	308.15	1190	1
.953	308.15	1148	1
1	308.15	1106	1

System: 2-butanol + 1-ethyl-3-methylimidazolium methylsulfate; phases: Liquid
Fixed: Pressure, kPa = 101
Property: Mass density, kg/m3 (Liquid); method: Vibrating tube method
Mole fraction of 2-butanol	Temperature, K	Mass density, kg/m3	uncertainty
0	288.15	1287.57	.05
.054	288.15	1274.82	.05
.106	288.15	1261.26	.05
.204	288.15	1233.86	.05
.306	288.15	1201.1	.05
.405	288.15	1165.21	.05
.507	288.15	1122.93	.05
.608	288.15	1075.89	.05
.713	288.15	1019.51	.05
.801	288.15	964.94	.05
.905	288.15	890.81	.05
.948	288.15	856.61	.05
1	288.15	810.96	.05
0	298.15	1280.81	.05
.054	298.15	1267.9	.05
.106	298.15	1254.37	.05
.204	298.15	1226.94	.05
.306	298.15	1194.21	.05
.405	298.15	1158.22	.05
.507	298.15	1115.87	.05
.608	298.15	1068.69	.05
.713	298.15	1012.15	.05
.801	298.15	957.44	.05
.905	298.15	883.1	.05
.948	298.15	848.81	.05
1	298.15	802.82	.05
0	308.15	1273.97	.05
.054	308.15	1261.04	.05
.106	308.15	1247.52	.05
.204	308.15	1220.05	.05
.306	308.15	1187.37	.05
.405	308.15	1151.25	.05
.507	308.15	1108.83	.05
.608	308.15	1061.49	.05
.713	308.15	1004.76	.05
.801	308.15	949.85	.05
.905	308.15	875.21	.05
.948	308.15	840.73	.05
1	308.15	794.34	.05

System: 2-butanol + 1-ethyl-3-methylimidazolium methylsulfate; phases: Liquid
Fixed: Pressure, kPa = 101
Property: Speed of sound, m/s (Liquid); method: Sing-around technique in a fixed-path interferometer
Mole fraction of 2-butanol	Temperature, K	Speed of sound, m/s	uncertainty
0	288.15	1781	1
.054	288.15	1762	1
.106	288.15	1743	1
.204	288.15	1698	1
.306	288.15	1644	1
.405	288.15	1587	1
.507	288.15	1527	1
.608	288.15	1467	1
.713	288.15	1406	1
.801	288.15	1356	1
.905	288.15	1299	1
.948	288.15	1277	1
1	288.15	1249	1
0	298.15	1756	1
.054	298.15	1738	1
.106	298.15	1718	1
.204	298.15	1673	1
.306	298.15	1619	1
.405	298.15	1562	1
.507	298.15	1501	1
.608	298.15	1440	1
.713	298.15	1378	1
.801	298.15	1326	1
.905	298.15	1267	1
.948	298.15	1244	1
1	298.15	1213	1
0	308.15	1732	1
.054	308.15	1714	1
.106	308.15	1693	1
.204	308.15	1649	1
.306	308.15	1594	1
.405	308.15	1536	1
.507	308.15	1475	1
.608	308.15	1414	1
.713	308.15	1350	1
.801	308.15	1297	1
.905	308.15	1235	1
.948	308.15	1210	1
1	308.15	1177	1

System: 1-pentanol + 1-ethyl-3-methylimidazolium methylsulfate; phases: Liquid
Fixed: Pressure, kPa = 101
Property: Mass density, kg/m3 (Liquid); method: Vibrating tube method
Mole fraction of 1-pentanol	Temperature, K	Mass density, kg/m3	uncertainty
0	288.15	1287.57	.05
.057	288.15	1271.79	.05
.113	288.15	1255.1	.05
.216	288.15	1221.14	.05
.306	288.15	1188.62	.05
.404	288.15	1150.41	.05
.51	288.15	1104.6	.05
.608	288.15	1058.29	.05
.716	288.15	1001.72	.05
.801	288.15	952.72	.05
.9	288.15	889.67	.05
.956	288.15	851	.05
1	288.15	818.25	.05
0	298.15	1280.81	.05
.057	298.15	1264.9	.05
.113	298.15	1248.21	.05
.216	298.15	1214.5	.05
.306	298.15	1181.87	.05
.404	298.15	1143.48	.05
.51	298.15	1097.6	.05
.608	298.15	1051.16	.05
.716	298.15	994.56	.05
.801	298.15	945.38	.05
.9	298.15	882.45	.05
.956	298.15	843.78	.05
1	298.15	810.99	.05
0	308.15	1273.97	.05
.057	308.15	1258.06	.05
.113	308.15	1241.74	.05
.216	308.15	1207.89	.05
.306	308.15	1175.24	.05
.404	308.15	1136.6	.05
.51	308.15	1090.68	.05
.608	308.15	1043.98	.05
.716	308.15	987.39	.05
.801	308.15	938.08	.05
.9	308.15	875.19	.05
.956	308.15	836.48	.05
1	308.15	803.61	.05

System: 1-pentanol + 1-ethyl-3-methylimidazolium methylsulfate; phases: Liquid
Fixed: Pressure, kPa = 101
Property: Speed of sound, m/s (Liquid); method: Sing-around technique in a fixed-path interferometer
Mole fraction of 1-pentanol	Temperature, K	Speed of sound, m/s	uncertainty
0	288.15	1781	1
.057	288.15	1759	1
.113	288.15	1733	1
.216	288.15	1678	1
.306	288.15	1627	1
.404	288.15	1569	1
.51	288.15	1511	1
.608	288.15	1463	1
.716	288.15	1413	1
.801	288.15	1378	1
.9	288.15	1342	1
.956	288.15	1325	1
1	288.15	1310	1
0	298.15	1756	1
.057	298.15	1734	1
.113	298.15	1708	1
.216	298.15	1652	1
.306	298.15	1600	1
.404	298.15	1544	1
.51	298.15	1485	1
.608	298.15	1435	1
.716	298.15	1385	1
.801	298.15	1349	1
.9	298.15	1311	1
.956	298.15	1292	1
1	298.15	1276	1
0	308.15	1732	1
.057	308.15	1710	1
.113	308.15	1684	1
.216	308.15	1628	1
.306	308.15	1576	1
.404	308.15	1519	1
.51	308.15	1459	1
.608	308.15	1408	1
.716	308.15	1357	1
.801	308.15	1320	1
.9	308.15	1280	1
.956	308.15	1260	1
1	308.15	1243	1
