Measured thermophysical data. Thermodynamic properties of aqueous 4-hydroxyproline at different temperatures
Source: J. Chem. Thermodyn., 2010, 10.1016/j.jct.2009.11.017
Compound 1: L-proline, C5H9NO2, purity 99%
Compound 2: L-4-hydroxyproline, C5H9NO3, purity 99%
Compound 3: water, H2O, purity 99.8%

System: L-4-hydroxyproline + water; phases: Liquid
Fixed: Pressure, kPa = 101
Property: Molar heat capacity at constant pressure, J/K/mol (Liquid); method: Small sample (50 mg) DSC
Temperature, K	Molality, mol/kg of L-4-hydroxyproline	Molar heat capacity at constant pressure, J/K/mol	uncertainty
298.15	.101708	75.4362828229871	.0827962
298.15	.249849	75.6457112435823	.0816814
298.15	.504886	76.0278904540339	.0798828
298.15	.754504	76.441542880865	.0782724
298.15	1.003264	76.9157917486069	.0768258
298.15	1.512248	77.7894355986111	.0740316
298.15	2.031524	78.6606138390849	.0714806
303.15	.101708	75.4153273382555	.0827732
303.15	.249849	75.6438590297064	.0816794
303.15	.504886	76.0640566855287	.0799208
303.15	.754504	76.4763101669909	.078308
303.15	1.003264	76.9880763218134	.076898
303.15	1.512248	77.9184689126488	.0741544
303.15	2.031524	78.8512112643573	.0716538
308.15	.101708	75.4273539642754	.0827864
308.15	.249849	75.6838668494269	.0817226
308.15	.504886	76.1430513490568	.0800038
308.15	.754504	76.5917453698021	.0784262
308.15	1.003264	77.1602777981503	.07707
308.15	1.512248	78.1349254492266	.0743604
308.15	2.031524	79.1674797402424	.0719412
313.15	.101708	75.4473983409751	.0828084
313.15	.249849	75.736469723504	.0817794
313.15	.504886	76.235370413662	.0801008
313.15	.754504	76.7403852840818	.0785784
313.15	1.003264	77.2966373392961	.0772062
313.15	1.512248	78.3259535965559	.0745422
313.15	2.031524	79.4018749572345	.0721542
318.15	.101708	75.4721804794402	.0828356
318.15	.249849	75.7792558640385	.0818256
318.15	.504886	76.3181720489264	.0801878
318.15	.754504	76.8448824642916	.0786854
318.15	1.003264	77.3977556480753	.0773072
318.15	1.512248	78.458559494207	.0746684
318.15	2.031524	79.5709036207556	.0723078
323.15	.101708	75.5139092272969	.0828814
323.15	.249849	75.8437129069216	.0818952
323.15	.504886	76.4135366909206	.080288
323.15	.754504	76.9753574481797	.078819
323.15	1.003264	77.5549395538014	.0774642
323.15	1.512248	78.7101114109872	.0749078
323.15	2.031524	79.8730863746806	.0725824
328.15	.101708	75.5536335374836	.082925
328.15	.249849	75.8966862237738	.0819524
328.15	.504886	76.4980514634663	.0803768
328.15	.754504	77.0859096051867	.0789322
328.15	1.003264	77.6754805872372	.0775846
328.15	1.512248	78.878022840818	.0750676
328.15	2.031524	80.0399141441454	.072734

System: L-4-hydroxyproline + water; phases: Liquid
Fixed: Pressure, kPa = 101
Property: Mass density, kg/m3 (Liquid); method: Vibrating tube method
Temperature, K	Molality, mol/kg of L-4-hydroxyproline	Mass density, kg/m3	uncertainty
288	0	999.103	.05
288	.064469	1002.178	.05
288	.117917	1004.687	.05
288	.198195	1008.412	.05
288	.289389	1012.55	.05
288	.335649	1014.622	.05
288	.409044	1017.85	.05
288	.486717	1021.255	.05
288	.512883	1022.376	.05
288	.620041	1026.943	.05
293	0	998.204	.05
293	.157813	1005.574	.05
293	.237417	1009.203	.05
293	.282523	1011.215	.05
293	.338825	1013.707	.05
293	.370114	1015.071	.05
293	.377455	1015.388	.05
298.15	0	997.041	.05
298.15	.037934	998.817	.05
298.15	.086168	1001.057	.05
298.15	.10449	1001.897	.05
298.15	.134358	1003.262	.05
298.15	.208486	1006.618	.05
298.15	.296893	1010.557	.05
298.15	.338539	1012.382	.05
298.15	.458905	1017.589	.05
303.15	0	995.641	.05
303.15	.097935	1000.167	.05
303.15	.138184	1001.998	.05
303.15	.157107	1002.85	.05
303.15	.248979	1006.96	.05
303.15	.308887	1009.587	.05
303.15	.345172	1011.175	.05
303.15	.463085	1016.252	.05
303.15	.482486	1017.035	.05
303.15	.576096	1020.98	.05
303.15	.605873	1022.2	.05
308.15	0	994.023	.05
308.15	.070783	997.293	.05
308.15	.071033	997.304	.05
308.15	.158532	1001.272	.05
308.15	.207831	1003.477	.05
308.15	.212058	1003.664	.05
308.15	.250228	1005.361	.05
308.15	.330408	1008.838	.05
308.15	.483939	1015.398	.05
308.15	.786476	1027.731	.05
313.15	0	992.206	.05
313.15	.10123	996.844	.05
313.15	.106272	997.072	.05
313.15	.141384	998.654	.05
313.15	.161175	999.533	.05
313.15	.21665	1001.993	.05
313.15	.324754	1006.705	.05
313.15	.380304	1009.082	.05
313.15	.446584	1011.881	.05
313.15	.521614	1015.004	.05

System: L-4-hydroxyproline + water; phases: Liquid
Fixed: Pressure, kPa = 101
Property: Speed of sound, m/s (Liquid); method: Sing-around technique in a fixed-path interferometer
Temperature, K	Molality, mol/kg of L-4-hydroxyproline	Speed of sound, m/s	uncertainty
288	0	1466.76	1
288	.064469	1471.4	1
288	.117917	1475.21	1
288	.198195	1480.8	1
288	.289389	1487.18	1
288	.335649	1490.25	1
288	.409044	1495.42	1
288	.486717	1500.54	1
288	.512883	1502.22	1
288	.620041	1509.41	1
293	0	1483.12	1
293	.157813	1493.94	1
293	.237417	1499.22	1
293	.282523	1502.23	1
293	.338825	1505.87	1
293	.370114	1507.76	1
293	.377455	1508.24	1
298.15	0	1497.34	1
298.15	.037934	1499.82	1
298.15	.086168	1502.95	1
298.15	.10449	1506.98	1
298.15	.134358	1506.07	1
298.15	.208486	1510.83	1
298.15	.296893	1516.41	1
298.15	.338539	1519	1
298.15	.458905	1526.55	1
303.15	0	1509.75	1
303.15	.097935	1515.91	1
303.15	.138184	1518.45	1
303.15	.157107	1519.61	1
303.15	.248979	1525.35	1
303.15	.308887	1528.91	1
303.15	.345172	1530.98	1
303.15	.463085	1538.25	1
303.15	.482486	1539.15	1
303.15	.576096	1544.8	1
303.15	.605873	1546.38	1
308.15	0	1520.35	1
308.15	.070783	1524.63	1
308.15	.071033	1524.63	1
308.15	.158532	1529.93	1
308.15	.207831	1532.87	1
308.15	.212058	1533.22	1
308.15	.250228	1535.39	1
308.15	.330408	1540.15	1
308.15	.483939	1548.97	1
308.15	.786476	1566.19	1
313.15	0	1529.44	1
313.15	.10123	1535.54	1
313.15	.106272	1535.84	1
313.15	.141384	1537.92	1
313.15	.161175	1539.09	1
313.15	.21665	1542.36	1
313.15	.324754	1548.7	1
313.15	.380304	1551.82	1
313.15	.446584	1555.5	1
313.15	.521614	1559.86	1

System: L-4-hydroxyproline + water; phases: Liquid
Fixed: Pressure, kPa = 101
Fixed: Pressure, kPa = 101.3
Property: Molar enthalpy of dilution, kJ/mol (Liquid); method: Isothermal titration calorimetry
Temperature, K	Molality, mol/kg of L-4-hydroxyproline	Molar enthalpy of dilution, kJ/mol	uncertainty
288.15	.00699	.1469	.002938
288.15	.01045	.1448	.002896
288.15	.01388	.1425	.00285
288.15	.01729	.1407	.002814
288.15	.02067	.1383	.002766
288.15	.02403	.136	.00272
288.15	.02736	.134	.00268
288.15	.03067	.1318	.002636
288.15	.03396	.1296	.002592
288.15	.03723	.1273	.002546
288.15	.04045	.1256	.002512
288.15	.04366	.1234	.002468
288.15	.04685	.1218	.002436
288.15	.05001	.1196	.002392
288.15	.05314	.1177	.002354
288.15	.05625	.116	.00232
288.15	.05934	.1148	.002296
288.15	.0624	.1121	.002242
288.15	.06544	.1105	.00221
288.15	.06845	.1092	.002184
288.15	.07144	.1076	.002152
288.15	.0744	.1056	.002112
288.15	.07734	.1039	.002078
288.15	.08025	.1024	.002048
293.15	.00699	.105	.0021
293.15	.01045	.1035	.00207
293.15	.01388	.102	.00204
293.15	.01729	.1007	.002014
293.15	.02067	.0989	.001978
293.15	.02403	.0974	.001948
293.15	.02736	.096	.00192
293.15	.03067	.0944	.001888
293.15	.03396	.0929	.001858
293.15	.03723	.0912	.001824
293.15	.04045	.0898	.001796
293.15	.04366	.0877	.001754
293.15	.04685	.0865	.00173
293.15	.05001	.0852	.001704
293.15	.05314	.0842	.001684
293.15	.05625	.0827	.001654
293.15	.05934	.0812	.001624
293.15	.0624	.0796	.001592
293.15	.06544	.0778	.001556
293.15	.06845	.0772	.001544
293.15	.07144	.076	.00152
293.15	.0744	.0743	.001486
293.15	.07734	.0734	.001468
293.15	.08025	.072	.00144
298.15	.00699	.0652	.001304
298.15	.01045	.0649	.001298
298.15	.01388	.0642	.001284
298.15	.01729	.0627	.001254
298.15	.02067	.062	.00124
298.15	.02403	.061	.00122
298.15	.02736	.0597	.001194
298.15	.03067	.0587	.001174
298.15	.03396	.0574	.001148
298.15	.03723	.0564	.001128
298.15	.04045	.0555	.00111
298.15	.04366	.0543	.001086
298.15	.04685	.054	.00108
298.15	.05001	.0528	.001056
298.15	.05314	.0518	.001036
298.15	.05625	.0508	.001016
298.15	.05934	.0501	.001002
298.15	.0624	.049	.00098
298.15	.06544	.048	.00096
298.15	.06845	.0473	.000946
298.15	.07144	.0464	.000928
298.15	.0744	.0456	.000912
298.15	.07734	.0448	.000896
298.15	.08025	.0439	.000878
303.15	.01045	.0393	.000786
303.15	.01388	.0366	.000732
303.15	.01729	.0378	.000756
303.15	.02067	.0375	.00075
303.15	.02403	.0356	.000712
303.15	.02736	.0358	.000716
303.15	.03067	.0346	.000692
303.15	.03396	.0339	.000678
303.15	.03723	.0335	.00067
303.15	.04045	.0329	.000658
303.15	.04366	.0321	.000642
303.15	.04685	.0313	.000626
303.15	.05001	.0325	.00065
303.15	.05314	.0298	.000596
303.15	.05625	.03	.0006
303.15	.05934	.03	.0006
303.15	.0624	.0299	.000598
303.15	.06544	.029	.00058
303.15	.06845	.027	.00054
303.15	.07144	.0278	.000556
303.15	.0744	.0275	.00055
303.15	.07734	.0267	.000534
303.15	.08025	.0263	.000526
308.15	.00699	.0152	.000304
308.15	.01045	.0144	.000288
308.15	.01388	.014	.00028
308.15	.01729	.0139	.000278
308.15	.02067	.0128	.000256
308.15	.02736	.0123	.000246
308.15	.03067	.0121	.000242
308.15	.03396	.0115	.00023
308.15	.03723	.0112	.000224
308.15	.04045	.0108	.000216
308.15	.04366	.0102	.000204
308.15	.04685	.0102	.000204
308.15	.05001	.0097	.000194
308.15	.05314	.0094	.000188
308.15	.05625	.0091	.000182
308.15	.05934	.0089	.000178
308.15	.0624	.0084	.000168
308.15	.06544	.0084	.000168
308.15	.06845	.0081	.000162
308.15	.07144	.0075	.00015
308.15	.0744	.0076	.000152
308.15	.07734	.0075	.00015
308.15	.08025	.0072	.000144

System: L-proline + water; phases: Liquid
Fixed: Pressure, kPa = 101
Fixed: Pressure, kPa = 101.3
Property: Molar enthalpy of dilution, kJ/mol (Liquid); method: Isothermal titration calorimetry
Temperature, K	Molality, mol/kg of L-proline	Molar enthalpy of dilution, kJ/mol	uncertainty
288.15	.00699	-.1072	-.002144
288.15	.01045	-.1062	-.002124
288.15	.01388	-.1048	-.002096
288.15	.01729	-.1035	-.00207
288.15	.02067	-.1017	-.002034
288.15	.02403	-.1003	-.002006
288.15	.02736	-.0991	-.001982
288.15	.03067	-.0979	-.001958
288.15	.03396	-.0967	-.001934
288.15	.03723	-.0953	-.001906
288.15	.04045	-.0944	-.001888
288.15	.04366	-.0932	-.001864
288.15	.04685	-.0921	-.001842
288.15	.05001	-.0904	-.001808
288.15	.05314	-.0898	-.001796
288.15	.05625	-.0885	-.00177
288.15	.05934	-.0876	-.001752
288.15	.0624	-.0863	-.001726
288.15	.06544	-.085	-.0017
288.15	.06845	-.0844	-.001688
288.15	.07144	-.0831	-.001662
288.15	.0744	-.082	-.00164
288.15	.07734	-.0809	-.001618
288.15	.08025	-.0799	-.001598
293.15	.00699	-.1183	-.002366
293.15	.01045	-.1169	-.002338
293.15	.01388	-.1153	-.002306
293.15	.01729	-.1139	-.002278
293.15	.02067	-.1123	-.002246
293.15	.02403	-.1104	-.002208
293.15	.02736	-.1093	-.002186
293.15	.03067	-.1075	-.00215
293.15	.03396	-.1063	-.002126
293.15	.03723	-.1045	-.00209
293.15	.04045	-.1034	-.002068
293.15	.04366	-.1021	-.002042
293.15	.04685	-.1005	-.00201
293.15	.05001	-.0991	-.001982
293.15	.05314	-.0978	-.001956
293.15	.05625	-.0964	-.001928
293.15	.05934	-.0955	-.00191
293.15	.0624	-.0936	-.001872
293.15	.06544	-.0922	-.001844
293.15	.06845	-.0912	-.001824
293.15	.07144	-.0898	-.001796
293.15	.0744	-.0887	-.001774
293.15	.07734	-.0872	-.001744
293.15	.08025	-.086	-.00172
298.15	.00699	-.1275	-.00255
298.15	.01045	-.1257	-.002514
298.15	.01388	-.1241	-.002482
298.15	.01729	-.1224	-.002448
298.15	.02067	-.1208	-.002416
298.15	.02403	-.1188	-.002376
298.15	.02736	-.1174	-.002348
298.15	.03067	-.1159	-.002318
298.15	.03396	-.1143	-.002286
298.15	.03723	-.1129	-.002258
298.15	.04045	-.1112	-.002224
298.15	.04366	-.11	-.0022
298.15	.04685	-.1085	-.00217
298.15	.05001	-.1069	-.002138
298.15	.05314	-.106	-.00212
298.15	.05625	-.1045	-.00209
298.15	.05934	-.1036	-.002072
298.15	.0624	-.1016	-.002032
298.15	.06544	-.1001	-.002002
298.15	.06845	-.0992	-.001984
298.15	.07144	-.0977	-.001954
298.15	.0744	-.0967	-.001934
298.15	.07734	-.0952	-.001904
298.15	.08025	-.0941	-.001882
303.15	.00699	-.1339	-.002678
303.15	.01045	-.1319	-.002638
303.15	.01388	-.1304	-.002608
303.15	.01729	-.13	-.0026
303.15	.02067	-.127	-.00254
303.15	.02403	-.1252	-.002504
303.15	.02736	-.1235	-.00247
303.15	.03067	-.1219	-.002438
303.15	.03396	-.1202	-.002404
303.15	.03723	-.1186	-.002372
303.15	.04045	-.1171	-.002342
303.15	.04366	-.1157	-.002314
303.15	.04685	-.114	-.00228
303.15	.05001	-.1123	-.002246
303.15	.05314	-.1111	-.002222
303.15	.05625	-.1095	-.00219
303.15	.05934	-.1085	-.00217
303.15	.0624	-.1066	-.002132
303.15	.06544	-.1052	-.002104
303.15	.06845	-.1039	-.002078
303.15	.07144	-.1028	-.002056
303.15	.0744	-.1014	-.002028
303.15	.07734	-.0997	-.001994
303.15	.08025	-.0985	-.00197
308.15	.00699	-.1406	-.002812
308.15	.01045	-.1388	-.002776
308.15	.01388	-.1371	-.002742
308.15	.01729	-.1352	-.002704
308.15	.02067	-.1332	-.002664
308.15	.02403	-.1314	-.002628
308.15	.02736	-.1295	-.00259
308.15	.03067	-.1276	-.002552
308.15	.03396	-.126	-.00252
308.15	.03723	-.1243	-.002486
308.15	.04045	-.1224	-.002448
308.15	.04366	-.121	-.00242
308.15	.04685	-.1191	-.002382
308.15	.05001	-.1176	-.002352
308.15	.05314	-.1162	-.002324
308.15	.05625	-.1145	-.00229
308.15	.05934	-.1136	-.002272
308.15	.0624	-.1112	-.002224
308.15	.06544	-.1095	-.00219
308.15	.06845	-.1083	-.002166
308.15	.07144	-.1068	-.002136
308.15	.0744	-.1055	-.00211
308.15	.07734	-.1039	-.002078
308.15	.08025	-.1027	-.002054
