Measured thermophysical data. Determination and correlation of (liquid + liquid) equilibria of ternary and quaternary systems with octane, decane, benzene and [BMpyr][DCA] at T = 298.15 K and atmospheric pressure
Source: J. Chem. Thermodyn., 2016, 10.1016/j.jct.2015.11.016
Compound 1: 1-butyl-1-methylpyrrolidinium dicyanamide, C11H20N4, purity 98%
Compound 2: benzene, C6H6, purity 99%
Compound 3: octane, C8H18, purity 99%
Compound 4: decane, C10H22, purity 99%

System: 1-butyl-1-methylpyrrolidinium dicyanamide; phases: Liquid
Fixed: Pressure, kPa = 101.325
Property: Mass density, kg/m3 (Liquid); method: Vibrating tube method
Temperature, K	Mass density, kg/m3	uncertainty
298.15	1014.47	3

System: benzene; phases: Liquid
Fixed: Pressure, kPa = 101.325
Property: Mass density, kg/m3 (Liquid); method: Vibrating tube method
Temperature, K	Mass density, kg/m3	uncertainty
298.15	873.71	1

System: octane; phases: Liquid
Fixed: Pressure, kPa = 101.325
Property: Mass density, kg/m3 (Liquid); method: Vibrating tube method
Temperature, K	Mass density, kg/m3	uncertainty
298.15	698.86	1

System: decane; phases: Liquid
Fixed: Pressure, kPa = 101.325
Property: Mass density, kg/m3 (Liquid); method: Vibrating tube method
Temperature, K	Mass density, kg/m3	uncertainty
298.15	726.15	1

System: benzene + octane + 1-butyl-1-methylpyrrolidinium dicyanamide; phases: Liquid mixture 2, Liquid mixture 1
Fixed: Pressure, kPa = 100
Fixed: Temperature, K = 298.15
Property: Mole fraction of octane (Liquid mixture 2); method: Density calibration data
Property: Mole fraction of benzene (Liquid mixture 1); method: Density calibration data
Property: Mole fraction of octane (Liquid mixture 1); method: Density calibration data
Mole fraction of benzene	Mole fraction of octane	uncertainty	Mole fraction of benzene	uncertainty	Mole fraction of octane	uncertainty
.028	.01	.007	.021	.007	.979	.007
.663	.001	.007	.917	.007	.083	.007
.074	.009	.007	.063	.007	.937	.007
.139	.009	.007	.133	.007	.867	.007
.219	.009	.007	.217	.007	.783	.007
.321	.009	.007	.343	.007	.657	.007
.405	.008	.007	.451	.007	.549	.007
.49	.006	.007	.585	.007	.415	.007
.559	.004	.007	.714	.007	.286	.007
.612	.003	.007	.82	.007	.18	.007

System: benzene + octane + 1-butyl-1-methylpyrrolidinium dicyanamide; phases: Liquid mixture 1, Liquid mixture 2
Fixed: Pressure, kPa = 100
Fixed: Temperature, K = 298.15
Property: Mole fraction of octane (Liquid mixture 1); method: Titration method
Mole fraction of benzene	Mole fraction of octane	uncertainty
0	.01	.007
.051	.009	.007
.099	.012	.007
.195	.009	.007
.292	.01	.007
.405	.01	.007
.503	.006	.007
.645	.001	.007
.706	0	.007

System: benzene + octane + 1-butyl-1-methylpyrrolidinium dicyanamide; phases: Liquid
Fixed: Pressure, kPa = 100
Fixed: Temperature, K = 298.15
Property: Mass density, kg/m3 (Liquid); method: Vibrating tube method
Mole fraction of octane	Mole fraction of benzene	Mass density, kg/m3	uncertainty
.01	0	1012.4	3
.009	.051	1010.64	3
.012	.099	1008.55	3
.009	.195	1004.36	3
.01	.292	999.52	3
.01	.405	992.56	3
.006	.503	985.67	3
.001	.645	972.09	3
0	.706	964.75	3

System: benzene + decane + 1-butyl-1-methylpyrrolidinium dicyanamide; phases: Liquid mixture 2, Liquid mixture 1
Fixed: Pressure, kPa = 100
Fixed: Temperature, K = 298.15
Property: Mole fraction of decane (Liquid mixture 2); method: Chromatography
Property: Mole fraction of benzene (Liquid mixture 1); method: Chromatography
Property: Mole fraction of decane (Liquid mixture 1); method: Chromatography
Mole fraction of benzene	Mole fraction of decane	uncertainty	Mole fraction of benzene	uncertainty	Mole fraction of decane	uncertainty
.063	.003	.004	.046	.004	.954	.004
.672	.001	.004	.901	.004	.099	.004
.114	.003	.004	.095	.004	.905	.004
.171	.003	.004	.15	.004	.85	.004
.237	.003	.004	.226	.004	.774	.004
.299	.003	.004	.311	.004	.689	.004
.409	.003	.004	.464	.004	.536	.004
.49	.002	.004	.58	.004	.42	.004
.535	.001	.004	.685	.004	.315	.004
.614	.001	.004	.79	.004	.21	.004

System: octane + 1-butyl-1-methylpyrrolidinium dicyanamide; phases: Liquid mixture 1, Liquid mixture 2
Property: Mole fraction of octane (Liquid mixture 1); method: Titration method
Pressure, kPa	Temperature, K	Mole fraction of octane	uncertainty
100	298.15	.01	.007

System: octane + 1-butyl-1-methylpyrrolidinium dicyanamide; phases: Liquid
Property: Mass density, kg/m3 (Liquid); method: Vibrating tube method
Mole fraction of octane	Pressure, kPa	Temperature, K	Mass density, kg/m3	uncertainty
.01	100	298.15	1012.4	3

System: benzene + 1-butyl-1-methylpyrrolidinium dicyanamide; phases: Liquid mixture 1, Liquid mixture 2
Property: Mole fraction of benzene (Liquid mixture 1); method: Titration method
Pressure, kPa	Temperature, K	Mole fraction of benzene	uncertainty
100	298.15	.706	.007

System: benzene + 1-butyl-1-methylpyrrolidinium dicyanamide; phases: Liquid
Property: Mass density, kg/m3 (Liquid); method: Vibrating tube method
Mole fraction of benzene	Pressure, kPa	Temperature, K	Mass density, kg/m3	uncertainty
.706	100	298.15	964.75	3
