Measured thermophysical data. Calorimetric measurements of liquid (Al + Li + Zn) alloys
Source: J. Chem. Thermodyn., 2016, 10.1016/j.jct.2015.09.008
Compound 1: aluminum, Al, purity 99.999%
Compound 2: lithium, Li, purity 99.9%
Compound 3: zinc, Zn, purity 99.999%

System: aluminum + lithium; phases: Liquid
Fixed: Pressure, kPa = 100
Property: Excess molar enthalpy (molar enthalpy of mixing), kJ/mol (Liquid); method: Calvet calorimetry
Temperature, K	Mole fraction of lithium	Excess molar enthalpy (molar enthalpy of mixing), kJ/mol	uncertainty
1023	.5053	-12.1	.2
1023	.4012	-10.1	.2
1023	.3334	-8.4	.2
1023	.2867	-7.2	.2
1023	.251	-6.4	.2
1023	.2231	-5.6	.2
1023	.1991	-5.2	.2
1023	.1812	-4.4	.2
1023	.1663	-4	.2
1023	.1536	-3.6	.2
1027	.7658	-8.3	.5
1027	.6675	-10.6	.5
1027	.3598	-9.1	.2
1027	.511	-11.9	.2
1027	.6112	-12	.2
1027	.7288	-9.6	.2
1027	.7879	-7.7	.2
1027	.8245	-6.3	.2
1027	.8493	-5.4	.2
1014	.4999	-11.3	.2
978	.65	-11.5	.1
978	.3524	-9	.1
942	.1018	-2.7	.2

System: aluminum + lithium + zinc; phases: Liquid
Fixed: Pressure, kPa = 100
Property: Excess molar enthalpy (molar enthalpy of mixing), kJ/mol (Liquid); method: Calvet calorimetry
Temperature, K	Mole fraction of lithium	Mole fraction of zinc	Excess molar enthalpy (molar enthalpy of mixing), kJ/mol	uncertainty
1014	.4999	0	-11.3	.2
1014	.4556	.0886	-11	.2
1014	.4225	.1549	-10.5	.2
1014	.3917	.2164	-10.2	.2
1014	.3674	.2651	-9.8	.2
1014	.2954	.409	-8.4	.2
1014	.2472	.5055	-7.4	.2
1014	.2145	.5709	-6.7	.2
978	.65	0	-11.5	.1
978	.5955	.0839	-11.5	.1
978	.5499	.154	-11.6	.1
978	.4998	.2311	-11.5	.1
978	.4608	.2911	-11.4	.1
978	.4294	.3393	-11.2	.1
978	.401	.383	-11	.1
978	.3066	.5283	-9.7	.1
978	.3524	0	-9	.1
978	.3222	.0857	-8.3	.1
978	.296	.16	-7.7	.1
978	.2745	.2209	-7.1	.1
978	.2559	.2738	-6.7	.1
978	.2393	.321	-6.2	.1
978	.1895	.4621	-5	.1
942	.1018	0	-2.7	.2
942	.0966	.0511	-2.2	.2
942	.0917	.09967	-1.8	.2
942	.0865	.1501	-1.4	.2
942	.082	.1944	-1	.2
942	.0687	.3255	-.4	.2
942	.0578	.4326	0	.2
942	.0504	.5046	.2	.2
942	.0451	.557	.3	.2
