Measured thermophysical data. Modified solution calorimetry approach for determination of vaporization and sublimation enthalpies of branched-chain aliphatic and alkyl aromatic compounds at T = 298.15 K
Source: J. Chem. Thermodyn., 2015, 10.1016/j.jct.2015.07.037
Compound 1: sec-butylbenzene, C10H14, purity 99%
Compound 2: o-xylene, C8H10, purity 99%
Compound 3: m-xylene, C8H10, purity 99%
Compound 4: mesitylene, C9H12, purity 98%
Compound 5: 1,2,4-trimethylbenzene, C9H12, purity 98%
Compound 6: 1,2,4,5-tetramethylbenzene, C10H14, purity 98%
Compound 7: hexamethylbenzene, C12H18, purity 99%
Compound 8: cyclohexylbenzene, C12H16, purity 97%
Compound 9: 1-methylnaphthalene, C11H10, purity 96%
Compound 10: 1,6-dimethylnaphthalene, C12H12, purity 98%
Compound 11: 4-methylbiphenyl, C13H12, purity 98%
Compound 12: 3-tert-butylbiphenyl, C16H18, purity 98.8%
Compound 13: 1,2-diphenylethane, C14H14, purity 98%
Compound 14: triphenylmethane, C19H16, purity 99%
Compound 15: tetraphenylmethane, C25H20, purity 97%
Compound 16: acenaphthene, C12H10, purity 99%
Compound 17: fluorene, C13H10, purity 98%
Compound 18: methyl isobutyrate, C5H10O2, purity 99%
Compound 19: methyl pivalate, C6H12O2, purity 99%
Compound 20: cyclohexane, C6H12, purity 99%

System: cyclohexane + sec-butylbenzene; phases: Liquid
Fixed: Pressure, kPa = 100
Fixed: Temperature, K = 298.15
Property: Molar enthalpy of solution, kJ/mol (Liquid); method: Titration calorimetry
Mole fraction of sec-butylbenzene	Molar enthalpy of solution, kJ/mol	uncertainty
0	2.34	

System: o-xylene + cyclohexane; phases: Liquid
Fixed: Pressure, kPa = 100
Fixed: Temperature, K = 298.15
Property: Molar enthalpy of solution, kJ/mol (Liquid); method: Titration calorimetry
Mole fraction of o-xylene	Molar enthalpy of solution, kJ/mol	uncertainty
0	3.18	

System: m-xylene + cyclohexane; phases: Liquid
Fixed: Pressure, kPa = 100
Fixed: Temperature, K = 298.15
Property: Molar enthalpy of solution, kJ/mol (Liquid); method: Titration calorimetry
Mole fraction of m-xylene	Molar enthalpy of solution, kJ/mol	uncertainty
0	3.22	

System: mesitylene + cyclohexane; phases: Liquid
Fixed: Pressure, kPa = 100
Fixed: Temperature, K = 298.15
Property: Molar enthalpy of solution, kJ/mol (Liquid); method: Titration calorimetry
Mole fraction of mesitylene	Molar enthalpy of solution, kJ/mol	uncertainty
0	3.92	

System: 1,2,4-trimethylbenzene + cyclohexane; phases: Liquid
Fixed: Pressure, kPa = 100
Fixed: Temperature, K = 298.15
Property: Molar enthalpy of solution, kJ/mol (Liquid); method: Titration calorimetry
Mole fraction of 1,2,4-trimethylbenzene	Molar enthalpy of solution, kJ/mol	uncertainty
0	3.68	

System: 1,2,4,5-tetramethylbenzene + cyclohexane; phases: Liquid
Fixed: Pressure, kPa = 100
Fixed: Temperature, K = 298.15
Property: Molar enthalpy of solution, kJ/mol (Liquid); method: Power-compensation calorimetry
Mole fraction of 1,2,4,5-tetramethylbenzene	Molar enthalpy of solution, kJ/mol	uncertainty
0	25.4	

System: hexamethylbenzene + cyclohexane; phases: Liquid
Fixed: Pressure, kPa = 100
Fixed: Temperature, K = 298.15
Property: Molar enthalpy of solution, kJ/mol (Liquid); method: Power-compensation calorimetry
Mole fraction of hexamethylbenzene	Molar enthalpy of solution, kJ/mol	uncertainty
0	24.9	

System: cyclohexane + cyclohexylbenzene; phases: Liquid
Fixed: Pressure, kPa = 100
Fixed: Temperature, K = 298.15
Property: Molar enthalpy of solution, kJ/mol (Liquid); method: Titration calorimetry
Mole fraction of cyclohexylbenzene	Molar enthalpy of solution, kJ/mol	uncertainty
0	2.31	

System: 1-methylnaphthalene + cyclohexane; phases: Liquid
Fixed: Temperature, K = 298.15
Fixed: Pressure, kPa = 100
Property: Molar enthalpy of solution, kJ/mol (Liquid); method: Titration calorimetry
Mole fraction of 1-methylnaphthalene	Molar enthalpy of solution, kJ/mol	uncertainty
0	5.1	

System: cyclohexane + 1,6-dimethylnaphthalene; phases: Liquid
Fixed: Temperature, K = 298.15
Fixed: Pressure, kPa = 100
Property: Molar enthalpy of solution, kJ/mol (Liquid); method: Titration calorimetry
Mole fraction of 1,6-dimethylnaphthalene	Molar enthalpy of solution, kJ/mol	uncertainty
0	5.98	

System: cyclohexane + 4-methylbiphenyl; phases: Liquid
Fixed: Temperature, K = 298.15
Fixed: Pressure, kPa = 100
Property: Molar enthalpy of solution, kJ/mol (Liquid); method: Power-compensation calorimetry
Mole fraction of 4-methylbiphenyl	Molar enthalpy of solution, kJ/mol	uncertainty
0	21.5	

System: cyclohexane + 3-tert-butylbiphenyl; phases: Liquid
Fixed: Temperature, K = 298.15
Fixed: Pressure, kPa = 100
Property: Molar enthalpy of solution, kJ/mol (Liquid); method: Titration calorimetry
Mole fraction of 3-tert-butylbiphenyl	Molar enthalpy of solution, kJ/mol	uncertainty
0	4.09	

System: 1,2-diphenylethane + cyclohexane; phases: Liquid
Fixed: Temperature, K = 298.15
Fixed: Pressure, kPa = 100
Property: Molar enthalpy of solution, kJ/mol (Liquid); method: Power-compensation calorimetry
Mole fraction of 1,2-diphenylethane	Molar enthalpy of solution, kJ/mol	uncertainty
0	27.1	

System: cyclohexane + triphenylmethane; phases: Liquid
Fixed: Temperature, K = 298.15
Fixed: Pressure, kPa = 100
Property: Molar enthalpy of solution, kJ/mol (Liquid); method: Power-compensation calorimetry
Mole fraction of triphenylmethane	Molar enthalpy of solution, kJ/mol	uncertainty
0	24.7	

System: cyclohexane + tetraphenylmethane; phases: Liquid
Fixed: Temperature, K = 298.15
Fixed: Pressure, kPa = 100
Property: Molar enthalpy of solution, kJ/mol (Liquid); method: Power-compensation calorimetry
Mole fraction of tetraphenylmethane	Molar enthalpy of solution, kJ/mol	uncertainty
0	28.9	

System: acenaphthene + cyclohexane; phases: Liquid
Fixed: Temperature, K = 298.15
Fixed: Pressure, kPa = 100
Property: Molar enthalpy of solution, kJ/mol (Liquid); method: Power-compensation calorimetry
Mole fraction of acenaphthene	Molar enthalpy of solution, kJ/mol	uncertainty
0	26.05	

System: fluorene + cyclohexane; phases: Liquid
Fixed: Temperature, K = 298.15
Fixed: Pressure, kPa = 100
Property: Molar enthalpy of solution, kJ/mol (Liquid); method: Power-compensation calorimetry
Mole fraction of fluorene	Molar enthalpy of solution, kJ/mol	uncertainty
0	25.01	

System: cyclohexane + methyl isobutyrate; phases: Liquid
Fixed: Temperature, K = 298.15
Fixed: Pressure, kPa = 100
Property: Molar enthalpy of solution, kJ/mol (Liquid); method: Titration calorimetry
Mole fraction of methyl isobutyrate	Molar enthalpy of solution, kJ/mol	uncertainty
0	6.47	

System: cyclohexane + methyl pivalate; phases: Liquid
Fixed: Temperature, K = 298.15
Fixed: Pressure, kPa = 100
Property: Molar enthalpy of solution, kJ/mol (Liquid); method: Titration calorimetry
Mole fraction of methyl pivalate	Molar enthalpy of solution, kJ/mol	uncertainty
0	6.5	
