Measured thermophysical data. Excess molar volumes, excess molar enthalpies, and excess isentropic compressibilities of tetrahydropyran with aromatic hydrocarbons
Source: J. Chem. Thermodyn., 2011, 10.1016/j.jct.2010.07.016
Compound 1: tetrahydropyran, C5H10O, purity 99%
Compound 2: benzene, C6H6, purity 99%
Compound 3: toluene, C7H8, purity 99%
Compound 4: 1,2-dimethylbenzene, C8H10, purity 99%
Compound 5: 1,4-dimethylbenzene, C8H10, purity 99%
Compound 6: 1,3-dimethylbenzene, C8H10, purity 99%

System: benzene + tetrahydropyran; phases: Liquid
Fixed: Pressure, kPa = 101
Fixed: Temperature, K = 308.15
Property: Excess molar volume, m3/mol (Liquid); method: Direct dilatometry
Mole fraction of tetrahydropyran	Excess molar volume, m3/mol	uncertainty
.0684	-.000000049	-.000000000245
.1029	-.000000069	-.000000000345
.1673	-.000000101	-.000000000505
.1835	-.000000108	-.00000000054
.243	-.000000129	-.000000000645
.3143	-.000000145	-.000000000725
.4085	-.000000156	-.00000000078
.5291	-.000000152	-.00000000076
.599	-.000000142	-.00000000071
.6543	-.00000013	-.00000000065
.7452	-.000000105	-.000000000525
.7823	-.000000093	-.000000000465
.8754	-.000000057	-.000000000285
.9539	-.000000023	-.000000000115

System: benzene + tetrahydropyran; phases: Liquid
Fixed: Pressure, kPa = 101
Fixed: Temperature, K = 308.15
Property: Excess molar enthalpy (molar enthalpy of mixing), kJ/mol (Liquid); method: Drop calorimeter
Mole fraction of tetrahydropyran	Excess molar enthalpy (molar enthalpy of mixing), kJ/mol	uncertainty
.0484	-.0326	-.000326
.0757	-.0516	-.000516
.0978	-.0671	-.000671
.1432	-.0985	-.000985
.2425	-.1608	-.001608
.311	-.1952	-.001952
.385	-.2216	-.002216
.4982	-.2365	-.002365
.6013	-.222	-.00222
.6875	-.1909	-.001909
.7073	-.1816	-.001816
.7832	-.1399	-.001399
.8501	-.0974	-.000974
.923	-.0488	-.000488

System: benzene + tetrahydropyran; phases: Liquid
Fixed: Pressure, kPa = 101
Fixed: Temperature, K = 308.15
Property: Speed of sound, m/s (Liquid); method: Linear variable-path acoustic interferometer
Mole fraction of tetrahydropyran	Speed of sound, m/s	uncertainty
.0555	1256	1
.1165	1253	1
.1472	1251	1
.2223	1248	1
.2728	1246	1
.3751	1241	1
.4395	1239	1
.4821	1237	1
.5313	1238	1
.6223	1233	1
.681	1231	1
.7321	1230	1
.8253	1228	1
.9123	1226	1

System: toluene + tetrahydropyran; phases: Liquid
Fixed: Pressure, kPa = 101
Fixed: Temperature, K = 308.15
Property: Excess molar volume, m3/mol (Liquid); method: Direct dilatometry
Mole fraction of tetrahydropyran	Excess molar volume, m3/mol	uncertainty
.0554	-.000000031	-.000000000155
.0673	-.000000037	-.000000000185
.085	-.000000046	-.00000000023
.1534	-.000000079	-.000000000395
.1861	-.000000092	-.00000000046
.2311	-.00000011	-.00000000055
.2942	-.000000129	-.000000000645
.4109	-.000000153	-.000000000765
.5273	-.000000159	-.000000000795
.6433	-.000000146	-.00000000073
.7215	-.000000127	-.000000000635
.8202	-.000000093	-.000000000465
.9297	-.00000004	-.0000000002
.9735	-.000000016	-.00000000008

System: toluene + tetrahydropyran; phases: Liquid
Fixed: Pressure, kPa = 101
Fixed: Temperature, K = 308.15
Property: Excess molar enthalpy (molar enthalpy of mixing), kJ/mol (Liquid); method: Drop calorimeter
Mole fraction of tetrahydropyran	Excess molar enthalpy (molar enthalpy of mixing), kJ/mol	uncertainty
.0445	-.0285	-.000285
.0662	-.0427	-.000427
.0837	-.0541	-.000541
.1138	-.0737	-.000737
.2154	-.1354	-.001354
.2806	-.1687	-.001687
.3031	-.1787	-.001787
.397	-.2101	-.002101
.5319	-.2225	-.002225
.6305	-.2058	-.002058
.7413	-.1629	-.001629
.8325	-.1121	-.001121
.9352	-.0445	-.000445
.9727	-.0187	-.000187

System: toluene + tetrahydropyran; phases: Liquid
Fixed: Pressure, kPa = 101
Fixed: Temperature, K = 308.15
Property: Speed of sound, m/s (Liquid); method: Linear variable-path acoustic interferometer
Mole fraction of tetrahydropyran	Speed of sound, m/s	uncertainty
.0925	1259	1
.1343	1258	1
.1789	1257	1
.2587	1256	1
.3742	1254	1
.4263	1253	1
.4815	1251	1
.5187	1250	1
.5795	1248	1
.6765	1243	1
.7122	1242	1
.7646	1239	1
.8487	1234	1
.9252	1229	1

System: 1,2-dimethylbenzene + tetrahydropyran; phases: Liquid
Fixed: Pressure, kPa = 101
Fixed: Temperature, K = 308.15
Property: Excess molar volume, m3/mol (Liquid); method: Direct dilatometry
Mole fraction of tetrahydropyran	Excess molar volume, m3/mol	uncertainty
.0536	-.000000012	-.00000000006
.0643	-.000000014	-.00000000007
.0805	-.000000017	-.000000000085
.1127	-.000000023	-.000000000115
.1816	-.000000034	-.00000000017
.2975	-.000000047	-.000000000235
.3954	-.000000053	-.000000000265
.4935	-.000000055	-.000000000275
.52	-.000000054	-.00000000027
.5642	-.000000053	-.000000000265
.6421	-.000000048	-.00000000024
.7314	-.00000004	-.0000000002
.8832	-.000000019	-.000000000095
.9228	-.000000013	-.000000000065

System: 1,2-dimethylbenzene + tetrahydropyran; phases: Liquid
Fixed: Pressure, kPa = 101
Fixed: Temperature, K = 308.15
Property: Excess molar enthalpy (molar enthalpy of mixing), kJ/mol (Liquid); method: Drop calorimeter
Mole fraction of tetrahydropyran	Excess molar enthalpy (molar enthalpy of mixing), kJ/mol	uncertainty
.0587	-.0266	-.000266
.0691	-.0305	-.000305
.0838	-.0356	-.000356
.1451	-.0516	-.000516
.1809	-.0573	-.000573
.2454	-.0613	-.000613
.3023	-.0588	-.000588
.3872	-.0465	-.000465
.4425	-.0342	-.000342
.5752	.0024	.000024
.647	.022	.00022
.7443	.0421	.000421
.8495	.0467	.000467
.9437	.0267	.000267

System: 1,2-dimethylbenzene + tetrahydropyran; phases: Liquid
Fixed: Pressure, kPa = 101
Fixed: Temperature, K = 308.15
Property: Speed of sound, m/s (Liquid); method: Linear variable-path acoustic interferometer
Mole fraction of tetrahydropyran	Speed of sound, m/s	uncertainty
.0854	1319	1
.1494	1315	1
.2134	1309	1
.2834	1303	1
.3778	1293	1
.4756	1281	1
.5132	1277	1
.5668	1270	1
.6124	1265	1
.7035	1254	1
.7866	1245	1
.8645	1237	1
.9344	1230	1
.9545	1228	1

System: 1,4-dimethylbenzene + tetrahydropyran; phases: Liquid
Fixed: Pressure, kPa = 101
Fixed: Temperature, K = 308.15
Property: Excess molar volume, m3/mol (Liquid); method: Direct dilatometry
Mole fraction of tetrahydropyran	Excess molar volume, m3/mol	uncertainty
.0639	-.000000022	-.00000000011
.1503	-.000000043	-.000000000215
.2321	-.000000055	-.000000000275
.2835	-.000000059	-.000000000295
.3331	-.000000061	-.000000000305
.3832	-.000000061	-.000000000305
.4421	-.00000006	-.0000000003
.5127	-.000000057	-.000000000285
.5515	-.000000054	-.00000000027
.6027	-.000000049	-.000000000245
.6529	-.000000044	-.00000000022
.7211	-.000000036	-.00000000018
.7905	-.000000027	-.000000000135
.8673	-.000000017	-.000000000085

System: 1,4-dimethylbenzene + tetrahydropyran; phases: Liquid
Fixed: Pressure, kPa = 101
Fixed: Temperature, K = 308.15
Property: Excess molar enthalpy (molar enthalpy of mixing), kJ/mol (Liquid); method: Drop calorimeter
Mole fraction of tetrahydropyran	Excess molar enthalpy (molar enthalpy of mixing), kJ/mol	uncertainty
.0804	-.0286	-.000286
.1402	-.0533	-.000533
.2416	-.0944	-.000944
.3002	-.1147	-.001147
.3842	-.136	-.00136
.4706	-.1461	-.001461
.5776	-.1402	-.001402
.6454	-.1264	-.001264
.6914	-.1133	-.001133
.7432	-.0955	-.000955
.7919	-.0767	-.000767
.8476	-.054	-.00054
.9021	-.0322	-.000322
.9415	-.0177	-.000177

System: 1,4-dimethylbenzene + tetrahydropyran; phases: Liquid
Fixed: Pressure, kPa = 101
Fixed: Temperature, K = 308.15
Property: Speed of sound, m/s (Liquid); method: Linear variable-path acoustic interferometer
Mole fraction of tetrahydropyran	Speed of sound, m/s	uncertainty
.0784	1271	1
.1521	1267	1
.2123	1263	1
.2876	1258	1
.3342	1255	1
.4091	1251	1
.4953	1247	1
.5186	1245	1
.5684	1243	1
.6175	1241	1
.7077	1237	1
.7909	1233	1
.8666	1230	1
.9354	1227	1

System: 1,3-dimethylbenzene + tetrahydropyran; phases: Liquid
Fixed: Pressure, kPa = 101
Fixed: Temperature, K = 308.15
Property: Excess molar volume, m3/mol (Liquid); method: Direct dilatometry
Mole fraction of tetrahydropyran	Excess molar volume, m3/mol	uncertainty
.0626	-.000000006	-.00000000003
.1258	-.000000012	-.00000000006
.1731	-.000000017	-.000000000085
.2459	-.000000022	-.00000000011
.3452	-.000000028	-.00000000014
.4411	-.000000032	-.00000000016
.4801	-.000000032	-.00000000016
.5413	-.000000032	-.00000000016
.6033	-.000000032	-.00000000016
.6541	-.00000003	-.00000000015
.7113	-.000000027	-.000000000135
.7852	-.000000022	-.00000000011
.8934	-.000000012	-.00000000006
.9229	-.000000009	-.000000000045

System: 1,3-dimethylbenzene + tetrahydropyran; phases: Liquid
Fixed: Pressure, kPa = 101
Fixed: Temperature, K = 308.15
Property: Excess molar enthalpy (molar enthalpy of mixing), kJ/mol (Liquid); method: Drop calorimeter
Mole fraction of tetrahydropyran	Excess molar enthalpy (molar enthalpy of mixing), kJ/mol	uncertainty
.0474	-.0183	-.000183
.086	-.0297	-.000297
.1141	-.0361	-.000361
.1754	-.0448	-.000448
.26	-.0462	-.000462
.3488	-.0365	-.000365
.4432	-.0174	-.000174
.4765	-.0092	-.000092
.5624	.013	.00013
.6834	.0409	.000409
.7603	.0512	.000512
.8001	.0527	.000527
.8744	.0467	.000467
.9453	.0269	.000269

System: 1,3-dimethylbenzene + tetrahydropyran; phases: Liquid
Fixed: Pressure, kPa = 101
Fixed: Temperature, K = 308.15
Property: Speed of sound, m/s (Liquid); method: Linear variable-path acoustic interferometer
Mole fraction of tetrahydropyran	Speed of sound, m/s	uncertainty
.0923	1277	1
.1515	1273	1
.2161	1269	1
.285	1264	1
.3278	1261	1
.3611	1259	1
.4081	1256	1
.4621	1253	1
.5179	1250	1
.5568	1248	1
.6179	1244	1
.7078	1239	1
.7889	1235	1
.8646	1231	1
