Measured thermophysical data. Excess molar enthalpies for mixtures of supercritical CO2 and ethyl acetate and their role in supercritical fluid applications
Source: J. Chem. Thermodyn., 2012, 10.1016/j.jct.2012.02.034
Compound 1: carbon dioxide, CO2, purity 99.98%
Compound 2: ethyl ethanoate, C4H8O2, purity 99.9%

System: carbon dioxide + ethyl ethanoate; phases: Fluid (supercritical or subcritical phases)
Fixed: Temperature, K = 313.15
Property: Excess molar enthalpy (molar enthalpy of mixing), kJ/mol (Fluid (supercritical or subcritical phases)); method: Flow calorimetry
Pressure, kPa	Mole fraction of carbon dioxide	Excess molar enthalpy (molar enthalpy of mixing), kJ/mol	uncertainty
9000	.087	-.453	-.00453
9000	.172	-.947	-.00947
9000	.256	-1.361	-.01361
9000	.381	-1.924	-.01924
9000	.462	-2.196	-.02196
9000	.542	-2.524	-.02524
9000	.66	-2.861	-.02861
9000	.737	-3.042	-.03042
9000	.814	-2.983	-.02983
9000	.889	-2.66	-.0266
9000	.926	-2.262	-.02262
9000	.963	-1.584	-.01584
12000	.123	-.419	-.00419
12000	.235	-.776	-.00776
12000	.338	-1.015	-.01015
12000	.432	-1.166	-.01166
12000	.519	-1.288	-.01288
12000	.599	-1.368	-.01368
12000	.673	-1.403	-.01403
12000	.742	-1.349	-.01349
12000	.806	-1.265	-.01265
12000	.866	-1.099	-.01099
12000	.949	-.669	-.00669
12000	.975	-.371	-.00371
15000	.132	-.362	-.00362
15000	.25	-.632	-.00632
15000	.356	-.871	-.00871
15000	.452	-1.013	-.01013
15000	.539	-1.148	-.01148
15000	.618	-1.194	-.01194
15000	.724	-1.151	-.01151
15000	.788	-1.023	-.01023
15000	.818	-.948	-.00948
15000	.875	-.762	-.00762
15000	.927	-.518	-.00518
15000	.953	-.375	-.00375
18000	.071	-.258	-.00258
18000	.137	-.424	-.00424
18000	.259	-.693	-.00693
18000	.367	-.843	-.00843
18000	.463	-.938	-.00938
18000	.55	-.99	-.0099
18000	.629	-1.005	-.01005
18000	.7	-.942	-.00942
18000	.825	-.754	-.00754
18000	.88	-.607	-.00607
18000	.931	-.414	-.00414
18000	.955	-.312	-.00312
