Measured thermophysical data. Thermodynamic properties of chiral fenchones in some solutions at T = 298.15 K
Source: J. Chem. Thermodyn., 2011, 10.1016/j.jct.2010.12.004
Compound 1: ethanol, C2H6O
Compound 2: cyclohexane, C6H12
Compound 3: benzene, C6H6
Compound 4: carbon tetrachloride, CCl4
Compound 5: (-)-fenchone, C10H16O
Compound 6: (1S)-1,3,3-trimethylbicyclo[2.2.1]heptan-2-one, C10H16O

System: ethanol + (1S)-1,3,3-trimethylbicyclo[2.2.1]heptan-2-one; phases: Liquid
Fixed: Pressure, kPa = 101
Fixed: Temperature, K = 298.15
Property: Excess molar enthalpy (molar enthalpy of mixing), kJ/mol (Liquid); method: Heat-Conduction Microcalorimetry
Mole fraction of (1S)-1,3,3-trimethylbicyclo[2.2.1]heptan-2-one	Excess molar enthalpy (molar enthalpy of mixing), kJ/mol	uncertainty
.02964	.1211	.00006055
.05757	.2289	.00011445
.08393	.3225	.00016125
.1089	.405	.0002025
.1325	.4781	.00023905
.1509	.5774	.0002887
.1594	.6005	.00030025
.1688	.6256	.0003128
.1794	.6528	.0003264
.1915	.6826	.0003413
.2053	.7162	.0003581
.2212	.7531	.00037655
.2398	.7953	.00039765
.262	.8446	.0004223
.2789	.8778	.0004389
.2983	.9122	.0004561
.3205	.9465	.00047325
.3462	.9831	.00049155
.3765	1.022	.000511
.4125	1.062	.000531
.4562	1.097	.0005485
.5103	1.118	.000559
.5313	1.119	.0005595
.5544	1.117	.0005585
.5754	1.113	.0005565
.5945	1.106	.000553
.612	1.096	.000548
.6335	1.084	.000542
.6479	1.073	.0005365
.6629	1.059	.0005295
.6787	1.042	.000521
.6952	1.022	.000511
.7126	.9973	.00049865
.7309	.968	.000484
.7501	.9328	.0004664
.7618	.9111	.00045555
.7804	.8717	.00043585
.7999	.8249	.00041245
.8204	.7707	.00038535
.842	.7079	.00035395
.8648	.6328	.0003164
.8888	.5442	.0002721
.9142	.4388	.0002194
.9411	.3139	.00015695
.9697	.1668	.0000834

System: cyclohexane + (1S)-1,3,3-trimethylbicyclo[2.2.1]heptan-2-one; phases: Liquid
Fixed: Pressure, kPa = 101
Fixed: Temperature, K = 298.15
Property: Excess molar enthalpy (molar enthalpy of mixing), kJ/mol (Liquid); method: Heat-Conduction Microcalorimetry
Mole fraction of (1S)-1,3,3-trimethylbicyclo[2.2.1]heptan-2-one	Excess molar enthalpy (molar enthalpy of mixing), kJ/mol	uncertainty
.00754	.0264	.0000132
.01498	.05124	.00002562
.0223	.07455	.000037275
.02951	.09675	.000048375
.03111	.1392	.0000696
.0325	.1451	.00007255
.03403	.1512	.0000756
.03571	.1578	.0000789
.03756	.165	.0000825
.03961	.1727	.00008635
.0419	.1813	.00009065
.04448	.1908	.0000954
.04738	.201	.0001005
.0507	.2125	.00010625
.05205	.2165	.00010825
.05461	.2249	.00011245
.05744	.2334	.0001167
.06058	.2429	.00012145
.06408	.253	.0001265
.06801	.2637	.00013185
.07246	.2752	.0001376
.07752	.2881	.00014405
.08335	.3019	.00015095
.09013	.3178	.0001589
.0981	.3373	.00016865
.1029	.3496	.0001748
.1082	.3625	.00018125
.1141	.3757	.00018785
.1206	.3892	.0001946
.1279	.4036	.0002018
.1362	.4185	.00020925
.1456	.4336	.0002168
.1564	.4489	.00022445
.1648	.4573	.00022865
.173	.4747	.00023735
.182	.4907	.00024535
.192	.5067	.00025335
.2031	.5233	.00026165
.2157	.5408	.0002704
.2298	.5586	.0002793
.246	.5772	.0002886
.2647	.5962	.0002981
.2863	.6151	.00030755
.293	.6196	.0003098
.3085	.6377	.00031885
.3257	.6496	.0003248
.345	.6594	.0003297
.3667	.6652	.0003326
.3913	.6667	.00033335
.4194	.6662	.0003331
.4519	.662	.000331
.4899	.6523	.00032615
.5348	.6341	.00031705
.5598	.627	.0003135
.6041	.5901	.00029505
.6561	.539	.0002695
.7178	.4697	.00023485
.7923	.372	.000186
.8664	.2591	.00012955
.8781	.2392	.0001196
.8902	.2182	.0001091
.9026	.1959	.00009795
.9153	.1724	.0000862
.9284	.1479	.00007395
.9419	.1215	.00006075
.9558	.09303	.000046515
.9701	.06323	.000031615
.9848	.03179	.000015895

System: benzene + (1S)-1,3,3-trimethylbicyclo[2.2.1]heptan-2-one; phases: Liquid
Fixed: Pressure, kPa = 101
Fixed: Temperature, K = 298.15
Property: Excess molar enthalpy (molar enthalpy of mixing), kJ/mol (Liquid); method: Heat-Conduction Microcalorimetry
Mole fraction of (1S)-1,3,3-trimethylbicyclo[2.2.1]heptan-2-one	Excess molar enthalpy (molar enthalpy of mixing), kJ/mol	uncertainty
.02567	-.01422	-.00000711
.05005	-.02774	-.00001387
.07325	-.04152	-.00002076
.09533	-.05478	-.00002739
.1164	-.06718	-.00003359
.1365	-.07861	-.000039305
.1557	-.08894	-.00004447
.1741	-.0982	-.0000491
.1917	-.1064	-.0000532
.2085	-.1135	-.00005675
.2355	-.1234	-.0000617
.2576	-.1339	-.00006695
.2785	-.1432	-.0000716
.2983	-.151	-.0000755
.317	-.1575	-.00007875
.3347	-.163	-.0000815
.3516	-.1674	-.0000837
.3676	-.171	-.0000855
.3828	-.1739	-.00008695
.3973	-.176	-.000088
.4219	-.1807	-.00009035
.442	-.183	-.0000915
.4607	-.1847	-.00009235
.4782	-.1856	-.0000928
.4946	-.1858	-.0000929
.51	-.1854	-.0000927
.5244	-.1845	-.00009225
.5381	-.1831	-.00009155
.551	-.1814	-.0000907
.5632	-.1794	-.0000897
.5819	-.1776	-.0000888
.5992	-.176	-.000088
.615	-.1736	-.0000868
.6297	-.1711	-.00008555
.6433	-.1686	-.0000843
.6559	-.166	-.000083
.6676	-.1633	-.00008165
.6786	-.1604	-.0000802
.6889	-.1575	-.00007875
.6985	-.1546	-.0000773
.7111	-.1484	-.0000742
.7226	-.1447	-.00007235
.7332	-.1411	-.00007055
.7431	-.1378	-.0000689
.7523	-.1344	-.0000672
.7608	-.1312	-.0000656
.7687	-.128	-.000064
.7762	-.1249	-.00006245
.7832	-.122	-.000061
.7897	-.1191	-.00005955
.7992	-.1136	-.0000568
.8078	-.1098	-.0000549
.8158	-.1062	-.0000531
.8231	-.103	-.0000515
.8298	-.09987	-.000049935
.8361	-.09688	-.00004844
.8419	-.09406	-.00004703
.8473	-.09137	-.000045685
.8523	-.08882	-.00004441
.8571	-.08639	-.000043195
.8558	-.08598	-.00004299
.8618	-.08282	-.00004141
.8673	-.07989	-.000039945
.8724	-.07715	-.000038575
.8772	-.07458	-.00003729
.8815	-.07217	-.000036085
.8856	-.06988	-.00003494
.8894	-.06772	-.00003386
.893	-.06568	-.00003284
.921	-.03676	-.00001838

System: carbon tetrachloride + (1S)-1,3,3-trimethylbicyclo[2.2.1]heptan-2-one; phases: Liquid
Fixed: Pressure, kPa = 101
Fixed: Temperature, K = 298.15
Property: Excess molar enthalpy (molar enthalpy of mixing), kJ/mol (Liquid); method: Heat-Conduction Microcalorimetry
Mole fraction of (1S)-1,3,3-trimethylbicyclo[2.2.1]heptan-2-one	Excess molar enthalpy (molar enthalpy of mixing), kJ/mol	uncertainty
.02731	-.06253	-.000031265
.05316	-.1103	-.00005515
.07767	-.1481	-.00007405
.101	-.1795	-.00008975
.1231	-.206	-.000103
.1442	-.2281	-.00011405
.1642	-.2465	-.00012325
.1776	-.2527	-.00012635
.2013	-.2851	-.00014255
.2237	-.3071	-.00015355
.2449	-.3226	-.0001613
.265	-.3337	-.00016685
.284	-.3418	-.0001709
.302	-.3478	-.0001739
.3192	-.3524	-.0001762
.3356	-.3558	-.0001779
.3443	-.3661	-.00018305
.3613	-.3716	-.0001858
.3774	-.3758	-.0001879
.3927	-.379	-.0001895
.4073	-.3814	-.0001907
.4165	-.3859	-.00019295
.5922	-.3692	-.0001846
.624	-.3634	-.0001817
.6594	-.3504	-.0001752
.6991	-.3275	-.00016375
.7439	-.2935	-.00014675
.7948	-.2464	-.0001232
.8531	-.188	-.000094
.9207	-.1144	-.0000572
