Measured thermophysical data. (Liquid + liquid) equilibrium data of (water + phosphoric acid + solvents) systems at T = (308.2 and 318.2) K
Source: J. Chem. Thermodyn., 2012, 10.1016/j.jct.2012.04.011
Compound 1: phosphoric acid, H3O4P, purity 99%
Compound 2: cyclohexane, C6H12, purity 99%
Compound 3: methylcyclohexane, C7H14, purity 99%
Compound 4: phenylmethane, C7H8, purity 99%
Compound 5: water, H2O, purity 99.9%

System: cyclohexane; phases: Liquid
Fixed: Pressure, kPa = 101.325
Property: Refractive index (Na D-line) (Liquid); method: Standard Abbe refractometry
Temperature, K	Refractive index (Na D-line)	uncertainty
298.2	1.4234	.0001

System: cyclohexane; phases: Liquid
Fixed: Pressure, kPa = 101.325
Property: Mass density, kg/m3 (Liquid); method: Vibrating tube method
Temperature, K	Mass density, kg/m3	uncertainty
298.15	773.78	.01

System: methylcyclohexane; phases: Liquid
Fixed: Pressure, kPa = 101.325
Property: Refractive index (Na D-line) (Liquid); method: Standard Abbe refractometry
Temperature, K	Refractive index (Na D-line)	uncertainty
298.2	1.4198	.0001

System: methylcyclohexane; phases: Liquid
Fixed: Pressure, kPa = 101.325
Property: Mass density, kg/m3 (Liquid); method: Vibrating tube method
Temperature, K	Mass density, kg/m3	uncertainty
298.15	764.92	.01

System: phenylmethane; phases: Liquid
Fixed: Pressure, kPa = 101.325
Property: Refractive index (Na D-line) (Liquid); method: Standard Abbe refractometry
Temperature, K	Refractive index (Na D-line)	uncertainty
298.2	1.4938	.0001

System: phenylmethane; phases: Liquid
Fixed: Pressure, kPa = 101.325
Property: Mass density, kg/m3 (Liquid); method: Vibrating tube method
Temperature, K	Mass density, kg/m3	uncertainty
298.15	862.02	.01

System: water; phases: Liquid
Fixed: Pressure, kPa = 101.325
Property: Refractive index (Na D-line) (Liquid); method: Standard Abbe refractometry
Temperature, K	Refractive index (Na D-line)	uncertainty
298.2	1.3325	.0001

System: water; phases: Liquid
Fixed: Pressure, kPa = 101.325
Property: Mass density, kg/m3 (Liquid); method: Vibrating tube method
Temperature, K	Mass density, kg/m3	uncertainty
298.15	997.07	.01

System: cyclohexane + phosphoric acid + water; phases: Liquid, Liquid
Fixed: Pressure, kPa = 101
Property: Mass fraction of phosphoric acid (Liquid); method: Titration method
Temperature, K	Mass fraction of water	Mass fraction of phosphoric acid	uncertainty
308.2	1	0	
308.2	.005	0	
308.2	.011	.037	
308.2	.011	.053	
308.2	.012	.085	
308.2	.013	.096	
308.2	.871	.128	
308.2	.803	.196	
308.2	.748	.251	
308.2	.664	.335	
308.2	.601	.397	
308.2	.513	.484	
308.2	.417	.579	
308.2	.304	.692	
308.2	.238	.758	
308.2	.149	.846	
318.2	.005	0	
318.2	.011	.026	
318.2	.012	.067	
318.2	.013	.091	
318.2	.89	.109	
318.2	.014	.112	
318.2	.014	.129	
318.2	.78	.218	
318.2	.751	.247	
318.2	.679	.319	
318.2	.614	.383	
318.2	.497	.499	
318.2	.427	.568	
318.2	.277	.717	
318.2	.213	.781	
318.2	.149	.844	

System: cyclohexane + phosphoric acid + water; phases: Liquid mixture 2, Liquid mixture 1
Property: Mass fraction of water (Liquid mixture 2); method: Index of refraction calibration data
Property: Mass fraction of phosphoric acid (Liquid mixture 1); method: Index of refraction calibration data
Property: Mass fraction of cyclohexane (Liquid mixture 1); method: Index of refraction calibration data
Temperature, K	Pressure, kPa	Mass fraction of phosphoric acid	Mass fraction of water	uncertainty	Mass fraction of phosphoric acid	uncertainty	Mass fraction of cyclohexane	uncertainty
308.2	101.325	.043	.011		.203		.001	
308.2	101.325	.061	.011		.313		.001	
308.2	101.325	.077	.012		.388		.002	
308.2	101.325	.102	.013		.459		.003	
308.2	101.325	.121	.013		.509		.004	
318.2	101.325	.045	.012		.199		.001	
318.2	101.325	.063	.012		.309		.002	
318.2	101.325	.08	.013		.384		.003	
318.2	101.325	.105	.014		.457		.004	
318.2	101.325	.124	.014		.506		.005	

System: methylcyclohexane + phosphoric acid + water; phases: Liquid, Liquid
Fixed: Pressure, kPa = 101
Property: Mass fraction of phosphoric acid (Liquid); method: Titration method
Temperature, K	Mass fraction of water	Mass fraction of phosphoric acid	uncertainty
308.2	1	0	
308.2	.003	.036	
308.2	.004	.061	
308.2	.004	.076	
308.2	.005	.099	
308.2	.006	.119	
308.2	.87	.129	
308.2	.707	.292	
308.2	.698	.301	
308.2	.581	.418	
308.2	.499	.499	
308.2	.452	.545	
308.2	.416	.579	
308.2	.373	.621	
308.2	.216	.778	
308.2	.149	.844	
318.2	.003	0	
318.2	.004	.045	
318.2	.005	.057	
318.2	.006	.082	
318.2	.006	.1	
318.2	.007	.12	
318.2	.863	.136	
318.2	.718	.281	
318.2	.624	.374	
318.2	.497	.499	
318.2	.533	.462	
318.2	.496	.498	
318.2	.466	.527	
318.2	.407	.585	
318.2	.213	.778	
318.2	.148	.842	

System: methylcyclohexane + phosphoric acid + water; phases: Liquid mixture 2, Liquid mixture 1
Property: Mass fraction of water (Liquid mixture 2); method: Index of refraction calibration data
Property: Mass fraction of phosphoric acid (Liquid mixture 1); method: Index of refraction calibration data
Property: Mass fraction of methylcyclohexane (Liquid mixture 1); method: Index of refraction calibration data
Temperature, K	Pressure, kPa	Mass fraction of phosphoric acid	Mass fraction of water	uncertainty	Mass fraction of phosphoric acid	uncertainty	Mass fraction of methylcyclohexane	uncertainty
308.2	101.325	.042	.005		.24		.002	
308.2	101.325	.059	.006		.371		.003	
308.2	101.325	.075	.007		.458		.005	
308.2	101.325	.098	.007		.539		.007	
308.2	101.325	.118	.008		.601		.008	
318.2	101.325	.043	.006		.24		.002	
318.2	101.325	.061	.007		.373		.004	
318.2	101.325	.077	.007		.458		.005	
318.2	101.325	.099	.008		.54		.008	
318.2	101.325	.12	.009		.601		.01	

System: phenylmethane + phosphoric acid + water; phases: Liquid, Liquid
Fixed: Pressure, kPa = 101
Property: Mass fraction of phosphoric acid (Liquid); method: Titration method
Temperature, K	Mass fraction of water	Mass fraction of phosphoric acid	uncertainty
308.2	1	0	
308.2	.005	.031	
308.2	.006	.055	
308.2	.007	.071	
308.2	.007	.089	
308.2	.008	.122	
308.2	.901	.098	
308.2	.802	.196	
308.2	.709	.289	
308.2	.591	.405	
308.2	.548	.447	
308.2	.521	.473	
308.2	.492	.501	
308.2	.406	.586	
308.2	.211	.781	
308.2	.149	.842	
318.2	.005	0	
318.2	.005	.023	
318.2	.007	.064	
318.2	.007	.083	
318.2	.008	.103	
318.2	.009	.124	
318.2	.882	.117	
318.2	.767	.231	
318.2	.696	.301	
318.2	.6	.396	
318.2	.522	.473	
318.2	.493	.501	
318.2	.464	.529	
318.2	.427	.564	
318.2	.293	.697	
318.2	.148	.84	

System: phenylmethane + phosphoric acid + water; phases: Liquid mixture 2, Liquid mixture 1
Property: Mass fraction of water (Liquid mixture 2); method: Index of refraction calibration data
Property: Mass fraction of phosphoric acid (Liquid mixture 1); method: Index of refraction calibration data
Property: Mass fraction of phenylmethane (Liquid mixture 1); method: Index of refraction calibration data
Temperature, K	Pressure, kPa	Mass fraction of phosphoric acid	Mass fraction of water	uncertainty	Mass fraction of phosphoric acid	uncertainty	Mass fraction of phenylmethane	uncertainty
308.2	101.325	.04	.003		.236		.001	
308.2	101.325	.058	.004		.367		.001	
308.2	101.325	.071	.004		.454		.001	
308.2	101.325	.095	.005		.535		.003	
308.2	101.325	.114	.006		.593		.006	
318.2	101.325	.041	.004		.237		.001	
318.2	101.325	.059	.005		.369		.002	
318.2	101.325	.073	.006		.456		.005	
318.2	101.325	.096	.006		.539		.007	
318.2	101.325	.115	.007		.593		.009	
318.2	101.325	.041	.004		.237		.001	

System: cyclohexane + water; phases: Liquid, Liquid
Property: Mass fraction of water (Liquid); method: Titration method
Temperature, K	Pressure, kPa	Mass fraction of water	uncertainty
308.2	101.325	.005	
318.2	101.325	.005	
308.2	10233.825	.005	
318.2	10233.825	.005	

System: methylcyclohexane + water; phases: Liquid, Liquid
Property: Mass fraction of water (Liquid); method: Titration method
Temperature, K	Pressure, kPa	Mass fraction of water	uncertainty
318.2	101.325	.003	
318.2	10233.825	.003	

System: phenylmethane + water; phases: Liquid, Liquid
Property: Mass fraction of water (Liquid); method: Titration method
Temperature, K	Pressure, kPa	Mass fraction of water	uncertainty
318.2	101.325	.005	
318.2	10233.825	.005	
