Measured thermophysical data. Solubility determination and modelling of 4-nitro-1,2-phenylenediamine in eleven organic solvents from T = (283.15 to 318.15) K and thermodynamic properties of solutions
Source: J. Chem. Thermodyn., 2017, 10.1016/j.jct.2016.11.014
Compound 1: 2-amino-4-nitroaniline, C6H7N3O2, purity 98.2%
Compound 2: methanol, CH4O, purity 99.6%
Compound 3: ethanol, C2H6O, purity 99.5%
Compound 4: n-propanol, C3H8O, purity 99.5%
Compound 5: isopropanol, C3H8O, purity 99.5%
Compound 6: acetone, C3H6O, purity 99.4%
Compound 7: 2-butanone, C4H8O, purity 99.6%
Compound 8: acetonitrile, C2H3N, purity 99.4%
Compound 9: ethyl acetate, C4H8O2, purity 99.5%
Compound 10: n-butanol, C4H10O, purity 99.3%
Compound 11: toluene, C7H8, purity 99.4%
Compound 12: 1,4-dioxane, C4H8O2, purity 99.5%

System: 2-amino-4-nitroaniline; phases: Crystal, Liquid, Air at 1 atmosphere
Property: Normal melting temperature, K (Crystal); method: DSC/DTA
Normal melting temperature, K	uncertainty
472.4	.5

System: 2-amino-4-nitroaniline; phases: Crystal, Liquid, Air at 1 atmosphere
Property: Molar enthalpy of transition or fusion, kJ/mol (Crystal); method: DSC
Molar enthalpy of transition or fusion, kJ/mol	uncertainty
36.28	.4

System: methanol + 2-amino-4-nitroaniline; phases: Liquid, Crystal
Fixed: Pressure, kPa = 101.2
Property: Mole fraction of 2-amino-4-nitroaniline (Liquid); method: Chromatography
Temperature, K	Mole fraction of 2-amino-4-nitroaniline	uncertainty
283.15	.001109	
285.65	.0012	
288.15	.001301	
290.65	.001415	
293.15	.001527	
295.65	.001667	
298.15	.0018	
300.65	.00194	
303.15	.002079	
305.65	.002233	
308.15	.002376	
310.65	.002538	
313.15	.002693	
315.65	.002874	
318.15	.003085	

System: ethanol + 2-amino-4-nitroaniline; phases: Liquid, Crystal
Fixed: Pressure, kPa = 101.2
Property: Mole fraction of 2-amino-4-nitroaniline (Liquid); method: Chromatography
Temperature, K	Mole fraction of 2-amino-4-nitroaniline	uncertainty
283.15	.0008707	
285.65	.0009465	
288.15	.00102	
290.65	.001111	
293.15	.00119	
295.65	.001285	
298.15	.001388	
300.65	.001488	
303.15	.001599	
305.65	.001709	
308.15	.001823	
310.65	.001948	
313.15	.002093	
315.65	.002233	
318.15	.002422	

System: n-propanol + 2-amino-4-nitroaniline; phases: Liquid, Crystal
Fixed: Pressure, kPa = 101.2
Property: Mole fraction of 2-amino-4-nitroaniline (Liquid); method: Chromatography
Temperature, K	Mole fraction of 2-amino-4-nitroaniline	uncertainty
283.15	.0005697	
285.65	.0006244	
288.15	.0006791	
290.65	.0007453	
293.15	.0008109	
295.65	.0008886	
298.15	.0009701	
300.65	.00105	
303.15	.001151	
305.65	.001257	
308.15	.001363	
310.65	.001486	
313.15	.001618	
315.65	.00175	
318.15	.001889	

System: isopropanol + 2-amino-4-nitroaniline; phases: Liquid, Crystal
Fixed: Pressure, kPa = 101.2
Property: Mole fraction of 2-amino-4-nitroaniline (Liquid); method: Chromatography
Temperature, K	Mole fraction of 2-amino-4-nitroaniline	uncertainty
283.15	.0006756	
285.65	.0007328	
288.15	.0008001	
290.65	.0008629	
293.15	.0009333	
295.65	.001006	
298.15	.001086	
300.65	.001169	
303.15	.001271	
305.65	.001378	
308.15	.00148	
310.65	.001593	
313.15	.001725	
315.65	.001871	
318.15	.00202	

System: acetone + 2-amino-4-nitroaniline; phases: Liquid, Crystal
Fixed: Pressure, kPa = 101.2
Property: Mole fraction of 2-amino-4-nitroaniline (Liquid); method: Chromatography
Temperature, K	Mole fraction of 2-amino-4-nitroaniline	uncertainty
283.15	.02575	
285.65	.02637	
288.15	.027	
290.65	.02777	
293.15	.02844	
295.65	.02916	
298.15	.02993	
300.65	.03062	
303.15	.03146	
305.65	.03223	
308.15	.03305	
310.65	.03391	
313.15	.03474	
315.65	.03564	
318.15	.03655	

System: 2-butanone + 2-amino-4-nitroaniline; phases: Liquid, Crystal
Fixed: Pressure, kPa = 101.2
Property: Mole fraction of 2-amino-4-nitroaniline (Liquid); method: Chromatography
Temperature, K	Mole fraction of 2-amino-4-nitroaniline	uncertainty
283.15	.02131	
285.65	.02191	
288.15	.02253	
290.65	.02316	
293.15	.02381	
295.65	.02451	
298.15	.02523	
300.65	.02599	
303.15	.02675	
305.65	.02755	
308.15	.02837	
310.65	.02921	
313.15	.03009	
315.65	.03103	
318.15	.03196	

System: acetonitrile + 2-amino-4-nitroaniline; phases: Liquid, Crystal
Fixed: Pressure, kPa = 101.2
Property: Mole fraction of 2-amino-4-nitroaniline (Liquid); method: Chromatography
Temperature, K	Mole fraction of 2-amino-4-nitroaniline	uncertainty
283.15	.002443	
285.65	.002628	
288.15	.002859	
290.65	.003139	
293.15	.003434	
295.65	.003743	
298.15	.00408	
300.65	.004422	
303.15	.004797	
305.65	.005195	
308.15	.005631	
310.65	.006097	
313.15	.006608	
315.65	.007187	
318.15	.007806	

System: 2-amino-4-nitroaniline + ethyl acetate; phases: Liquid, Crystal
Fixed: Pressure, kPa = 101.2
Property: Mole fraction of 2-amino-4-nitroaniline (Liquid); method: Chromatography
Temperature, K	Mole fraction of 2-amino-4-nitroaniline	uncertainty
283.15	.00379	
285.65	.004084	
288.15	.004359	
290.65	.004683	
293.15	.005014	
295.65	.005349	
298.15	.005731	
300.65	.006178	
303.15	.006646	
305.65	.007082	
308.15	.007544	
310.65	.00808	
313.15	.008653	
315.65	.009192	
318.15	.009789	

System: n-butanol + 2-amino-4-nitroaniline; phases: Liquid, Crystal
Fixed: Pressure, kPa = 101.2
Property: Mole fraction of 2-amino-4-nitroaniline (Liquid); method: Chromatography
Temperature, K	Mole fraction of 2-amino-4-nitroaniline	uncertainty
283.15	.0004478	
285.65	.0005045	
288.15	.0005677	
290.65	.0006328	
293.15	.000703	
295.65	.0007786	
298.15	.0008652	
300.65	.0009493	
303.15	.001041	
305.65	.001141	
308.15	.001248	
310.65	.001353	
313.15	.001481	
315.65	.001613	
318.15	.001769	

System: 2-amino-4-nitroaniline + toluene; phases: Liquid, Crystal
Fixed: Pressure, kPa = 101.2
Property: Mole fraction of 2-amino-4-nitroaniline (Liquid); method: Chromatography
Temperature, K	Mole fraction of 2-amino-4-nitroaniline	uncertainty
283.15	.00003312	
285.65	.00003885	
288.15	.00004569	
290.65	.00005292	
293.15	.00006042	
295.65	.00006915	
298.15	.00007866	
300.65	.00008923	
303.15	.0001008	
305.65	.000113	
308.15	.0001258	
310.65	.0001409	
313.15	.0001587	
315.65	.0001772	
318.15	.0001989	

System: 2-amino-4-nitroaniline + 1,4-dioxane; phases: Liquid, Crystal
Fixed: Pressure, kPa = 101.2
Property: Mole fraction of 2-amino-4-nitroaniline (Liquid); method: Chromatography
Temperature, K	Mole fraction of 2-amino-4-nitroaniline	uncertainty
283.15	.005448	
285.65	.006027	
288.15	.006637	
290.65	.007212	
293.15	.007888	
295.65	.008618	
298.15	.009429	
300.65	.01022	
303.15	.0112	
305.65	.01224	
308.15	.0133	
310.65	.01446	
313.15	.01571	
315.65	.01694	
318.15	.01867	
