Measured thermophysical data. 1,2-Propanediol. Comprehensive experimental and theoretical study
Source: J. Chem. Thermodyn., 2009, 10.1016/j.jct.2009.04.019
Compound 1: (S)-(+)-1,2-propanediol, C3H8O2
Compound 2: 1,2-propanediol, C3H8O2
Compound 3: carbon dioxide, CO2
Compound 4: water, H2O
Compound 5: oxygen, O2

System: (S)-(+)-1,2-propanediol; phases: Liquid, Gas
Property: Vapor or sublimation pressure, kPa (Liquid); method: Transpiration method
Temperature, K	Vapor or sublimation pressure, kPa	uncertainty
293.5	.00968	
297.4	.01371	
301.4	.01968	
303.3	.02341	
305.4	.02776	
310.4	.04222	
310.4	.04205	
313.4	.05485	
315.4	.06624	
318.4	.08522	
320.4	.09922	
320.5	.09891	
323.4	.12841	
323.5	.13178	
324.5	.13494	
325.3	.14061	
326.5	.15038	
327.3	.16757	
328.4	.18405	
328.5	.18244	
331.4	.23464	
333.3	.26158	
335.4	.303	
338.4	.36846	

System: 1,2-propanediol; phases: Liquid, Gas
Property: Vapor or sublimation pressure, kPa (Liquid); method: Transpiration method
Temperature, K	Vapor or sublimation pressure, kPa	uncertainty
293.5	.01187	
298.4	.01891	
303.4	.02968	
306.3	.03848	
309.3	.04816	
312.3	.06434	
313.3	.06784	
316.3	.08971	
316.3	.0869	
318.3	.09934	
320.4	.11726	
321.3	.12756	
322.5	.13972	
323.5	.15629	
325.4	.17344	
326.4	.18467	
327.4	.19884	
328.6	.21547	
329.5	.23991	
283.5	.00427	
288.2	.00685	
298.2	.01924	
301.3	.025	
306.4	.0369	
310.4	.05059	
312.3	.06424	
313.2	.06711	
316.2	.09048	
319.3	.113	
322.3	.13912	
325.3	.17467	
328.3	.21783	
331.3	.27574	

Reaction: -1 1,2-propanediol + 3 carbon dioxide + 4 water + -4 oxygen
Property: Specific internal energy of reaction at constant volume, J/g
-23989.6
