Measured thermophysical data. Thermodynamic aspects of solubility and partitioning processes of some sulfonamides in the solvents modeling biological media
Source: J. Chem. Thermodyn., 2014, 10.1016/j.jct.2013.09.027
Compound 1: water, H2O
Compound 2: octanol, C8H18O
Compound 3: 4-amino-N-(2-chloro-4-methylphenyl)benzenesulfonamide, C13H13ClN2O2S, purity 99%
Compound 4: 4-amino-N-(4-chloro-2-methylphenyl)benzenesulfonamide, C13H13ClN2O2S, purity 99%
Compound 5: 4-amino-N-(2,4,5-trichlorophenyl)benzenesulfonamide, C12H9Cl3N2O2S, purity 99%
Compound 6: 4-amino-2-chloro-N-(2-chlorophenyl)benzenesulfonamide, C12H10Cl2N2O2S, purity 99%
Compound 7: 4-amino-2-chloro-N-(4-chlorophenyl)benzenesulfonamide, C12H10Cl2N2O2S, purity 99%
Compound 8: 4-amino-N-(4-chlorophenyl)-2-methylbenzenesulfonamide, C13H13ClN2O2S, purity 99%
Compound 9: 4-amino-N-(2-chlorophenyl)-2-methylbenzenesulfonamide, C13H13ClN2O2S, purity 99%
Compound 10: 4-amino-2-methyl-N-(2-nitrophenyl)benzenesulfonamide, C13H13N3O4S, purity 99%
Compound 11: 4-amino-N-(3-chloro-4-methylphenyl)benzenesulfonamide, C13H13ClN2O2S, purity 99%

System: water + 4-amino-N-(2-chloro-4-methylphenyl)benzenesulfonamide; phases: Liquid, Crystal
Fixed: Pressure, kPa = 100
Property: Mole fraction of 4-amino-N-(2-chloro-4-methylphenyl)benzenesulfonamide (Liquid); method: Spectrophotometry
Temperature, K	Mole fraction of 4-amino-N-(2-chloro-4-methylphenyl)benzenesulfonamide	uncertainty
295.15	.000000706	.00000002118
298.15	.000000765	.00000002295
303.15	.000000936	.00000002808
310.15	.00000118	.0000000354
315.15	.00000145	.0000000435

System: water + 4-amino-N-(4-chloro-2-methylphenyl)benzenesulfonamide; phases: Liquid, Crystal
Fixed: Pressure, kPa = 100
Property: Mole fraction of 4-amino-N-(4-chloro-2-methylphenyl)benzenesulfonamide (Liquid); method: Spectrophotometry
Temperature, K	Mole fraction of 4-amino-N-(4-chloro-2-methylphenyl)benzenesulfonamide	uncertainty
293.15	.00000125	.0000000375
298.15	.00000161	.0000000483
303.15	.00000211	.0000000633
310.15	.00000308	.0000000924
315.15	.00000374	.0000001122

System: water + 4-amino-N-(2,4,5-trichlorophenyl)benzenesulfonamide; phases: Liquid, Crystal
Fixed: Pressure, kPa = 100
Property: Mole fraction of 4-amino-N-(2,4,5-trichlorophenyl)benzenesulfonamide (Liquid); method: Spectrophotometry
Temperature, K	Mole fraction of 4-amino-N-(2,4,5-trichlorophenyl)benzenesulfonamide	uncertainty
293.15	.000000222	.00000000666
298.15	.000000251	.00000000753
303.15	.000000274	.00000000822
310.15	.000000307	.00000000921
315.15	.000000333	.00000000999

System: water + 4-amino-2-chloro-N-(2-chlorophenyl)benzenesulfonamide; phases: Liquid, Crystal
Fixed: Pressure, kPa = 100
Property: Mole fraction of 4-amino-2-chloro-N-(2-chlorophenyl)benzenesulfonamide (Liquid); method: Spectrophotometry
Temperature, K	Mole fraction of 4-amino-2-chloro-N-(2-chlorophenyl)benzenesulfonamide	uncertainty
293.15	.000000105	.00000000315
298.15	.000000119	.00000000357
303.15	.000000135	.00000000405
310.15	.000000155	.00000000465
315.15	.000000175	.00000000525

System: water + 4-amino-2-chloro-N-(4-chlorophenyl)benzenesulfonamide; phases: Liquid, Crystal
Fixed: Pressure, kPa = 100
Property: Mole fraction of 4-amino-2-chloro-N-(4-chlorophenyl)benzenesulfonamide (Liquid); method: Spectrophotometry
Temperature, K	Mole fraction of 4-amino-2-chloro-N-(4-chlorophenyl)benzenesulfonamide	uncertainty
293.15	.000000405	.00000001215
298.15	.000000472	.00000001416
303.15	.000000562	.00000001686
310.15	.000000686	.00000002058
315.15	.000000812	.00000002436

System: water + 4-amino-N-(4-chlorophenyl)-2-methylbenzenesulfonamide; phases: Liquid, Crystal
Fixed: Pressure, kPa = 100
Property: Mole fraction of 4-amino-N-(4-chlorophenyl)-2-methylbenzenesulfonamide (Liquid); method: Spectrophotometry
Temperature, K	Mole fraction of 4-amino-N-(4-chlorophenyl)-2-methylbenzenesulfonamide	uncertainty
293.15	.000000479	.00000001437
298.15	.000000671	.00000002013
303.15	.000000904	.00000002712
310.15	.00000135	.0000000405
315.15	.00000168	.0000000504

System: water + 4-amino-N-(2-chlorophenyl)-2-methylbenzenesulfonamide; phases: Liquid, Crystal
Fixed: Pressure, kPa = 100
Property: Mole fraction of 4-amino-N-(2-chlorophenyl)-2-methylbenzenesulfonamide (Liquid); method: Spectrophotometry
Temperature, K	Mole fraction of 4-amino-N-(2-chlorophenyl)-2-methylbenzenesulfonamide	uncertainty
293.15	.000000139	.00000000417
298.15	.000000157	.00000000471
303.15	.000000174	.00000000522
310.15	.000000207	.00000000621
315.15	.000000232	.00000000696

System: water + 4-amino-2-methyl-N-(2-nitrophenyl)benzenesulfonamide; phases: Liquid, Crystal
Fixed: Pressure, kPa = 100
Property: Mole fraction of 4-amino-2-methyl-N-(2-nitrophenyl)benzenesulfonamide (Liquid); method: Spectrophotometry
Temperature, K	Mole fraction of 4-amino-2-methyl-N-(2-nitrophenyl)benzenesulfonamide	uncertainty
293.15	.000000441	.00000001323
298.15	.000000517	.00000001551
303.15	.000000579	.00000001737
310.15	.000000802	.00000002406
315.15	.000000935	.00000002805

System: water + 4-amino-N-(3-chloro-4-methylphenyl)benzenesulfonamide; phases: Liquid, Crystal
Fixed: Pressure, kPa = 100
Property: Mole fraction of 4-amino-N-(3-chloro-4-methylphenyl)benzenesulfonamide (Liquid); method: Spectrophotometry
Temperature, K	Mole fraction of 4-amino-N-(3-chloro-4-methylphenyl)benzenesulfonamide	uncertainty
293.15	.000000126	.00000000378
298.15	.000000153	.00000000459
303.15	.000000179	.00000000537
310.15	.000000225	.00000000675
315.15	.000000256	.00000000768

System: octanol + 4-amino-N-(2-chloro-4-methylphenyl)benzenesulfonamide; phases: Liquid, Crystal
Fixed: Pressure, kPa = 100
Property: Mole fraction of 4-amino-N-(2-chloro-4-methylphenyl)benzenesulfonamide (Liquid); method: Spectrophotometry
Temperature, K	Mole fraction of 4-amino-N-(2-chloro-4-methylphenyl)benzenesulfonamide	uncertainty
293.15	.00133	.0000399
298.15	.00158	.0000474
303.15	.0018	.000054
310.15	.00221	.0000663
315.15	.00259	.0000777

System: octanol + 4-amino-N-(4-chloro-2-methylphenyl)benzenesulfonamide; phases: Liquid, Crystal
Fixed: Pressure, kPa = 100
Property: Mole fraction of 4-amino-N-(4-chloro-2-methylphenyl)benzenesulfonamide (Liquid); method: Spectrophotometry
Temperature, K	Mole fraction of 4-amino-N-(4-chloro-2-methylphenyl)benzenesulfonamide	uncertainty
293.15	.00426	.0001278
298.15	.00489	.0001467
303.15	.00556	.0001668
310.15	.00675	.0002025
315.15	.00786	.0002358

System: octanol + 4-amino-N-(2,4,5-trichlorophenyl)benzenesulfonamide; phases: Liquid, Crystal
Fixed: Pressure, kPa = 100
Property: Mole fraction of 4-amino-N-(2,4,5-trichlorophenyl)benzenesulfonamide (Liquid); method: Spectrophotometry
Temperature, K	Mole fraction of 4-amino-N-(2,4,5-trichlorophenyl)benzenesulfonamide	uncertainty
293.15	.00097	.0000291
298.15	.00109	.0000327
303.15	.00118	.0000354
310.15	.00146	.0000438
315.15	.00179	.0000537

System: octanol + 4-amino-2-chloro-N-(2-chlorophenyl)benzenesulfonamide; phases: Liquid, Crystal
Fixed: Pressure, kPa = 100
Property: Mole fraction of 4-amino-2-chloro-N-(2-chlorophenyl)benzenesulfonamide (Liquid); method: Spectrophotometry
Temperature, K	Mole fraction of 4-amino-2-chloro-N-(2-chlorophenyl)benzenesulfonamide	uncertainty
293.15	.0000585	.000001755
298.15	.000074	.00000222
303.15	.0000937	.000002811
310.15	.000128	.00000384
315.15	.000164	.00000492

System: octanol + 4-amino-2-chloro-N-(4-chlorophenyl)benzenesulfonamide; phases: Liquid, Crystal
Fixed: Pressure, kPa = 100
Property: Mole fraction of 4-amino-2-chloro-N-(4-chlorophenyl)benzenesulfonamide (Liquid); method: Spectrophotometry
Temperature, K	Mole fraction of 4-amino-2-chloro-N-(4-chlorophenyl)benzenesulfonamide	uncertainty
293.15	.0021	.000063
298.15	.00248	.0000744
303.15	.00287	.0000861
310.15	.00349	.0001047
315.15	.00391	.0001173

System: octanol + 4-amino-N-(4-chlorophenyl)-2-methylbenzenesulfonamide; phases: Liquid, Crystal
Fixed: Pressure, kPa = 100
Property: Mole fraction of 4-amino-N-(4-chlorophenyl)-2-methylbenzenesulfonamide (Liquid); method: Spectrophotometry
Temperature, K	Mole fraction of 4-amino-N-(4-chlorophenyl)-2-methylbenzenesulfonamide	uncertainty
293.15	.00319	.0000957
298.15	.00356	.0001068
303.15	.00393	.0001179
310.15	.00465	.0001395
315.15	.00519	.0001557

System: octanol + 4-amino-N-(2-chlorophenyl)-2-methylbenzenesulfonamide; phases: Liquid, Crystal
Fixed: Pressure, kPa = 100
Property: Mole fraction of 4-amino-N-(2-chlorophenyl)-2-methylbenzenesulfonamide (Liquid); method: Spectrophotometry
Temperature, K	Mole fraction of 4-amino-N-(2-chlorophenyl)-2-methylbenzenesulfonamide	uncertainty
293.15	.0000897	.000002691
298.15	.000115	.00000345
303.15	.000143	.00000429
310.15	.000192	.00000576
315.15	.000242	.00000726

System: octanol + 4-amino-2-methyl-N-(2-nitrophenyl)benzenesulfonamide; phases: Liquid, Crystal
Fixed: Pressure, kPa = 100
Property: Mole fraction of 4-amino-2-methyl-N-(2-nitrophenyl)benzenesulfonamide (Liquid); method: Spectrophotometry
Temperature, K	Mole fraction of 4-amino-2-methyl-N-(2-nitrophenyl)benzenesulfonamide	uncertainty
293.15	.000152	.00000456
298.15	.000198	.00000594
303.15	.000247	.00000741
310.15	.000345	.00001035
315.15	.000449	.00001347

System: octanol + 4-amino-N-(3-chloro-4-methylphenyl)benzenesulfonamide; phases: Liquid, Crystal
Fixed: Pressure, kPa = 100
Property: Mole fraction of 4-amino-N-(3-chloro-4-methylphenyl)benzenesulfonamide (Liquid); method: Spectrophotometry
Temperature, K	Mole fraction of 4-amino-N-(3-chloro-4-methylphenyl)benzenesulfonamide	uncertainty
293.15	.000491	.00001473
298.15	.000552	.00001656
303.15	.00064	.0000192
310.15	.000801	.00002403
315.15	.000897	.00002691
