Measured thermophysical data. The study of molecular interactions of ascorbic acid and sodium ascorbate with water at temperatures (278.15, 288.15 and 298.15) K
Source: J. Chem. Thermodyn., 2013, 10.1016/j.jct.2013.08.016
Compound 1: L-ascorbic acid, C6H8O6, purity 99.7%
Compound 2: sodium L-ascorbate, C6H7NaO6, purity 98%
Compound 3: water, H2O

System: water; phases: Liquid
Property: Mass density, kg/m3 (Liquid); method: Pycnometric method
Temperature, K	Pressure, kPa	Mass density, kg/m3	uncertainty
278.15	101.3	999.96	
288.15	101.3	999.1	
298.15	101.3	997.05	

System: water; phases: Liquid
Property: Speed of sound, m/s (Liquid); method: Single path-length method
Temperature, K	Pressure, kPa	Speed of sound, m/s	uncertainty
278.15	101.3	1426.2	1
288.15	101.3	1465.9	1
298.15	101.3	1496.7	1

System: water; phases: Liquid
Property: Viscosity, Pa*s (Liquid); method: Capillary tube (Ostwald; Ubbelohde) method
Temperature, K	Pressure, kPa	Viscosity, Pa*s	uncertainty
278.15	101.3	.0015192	.000015192
288.15	101.3	.0011382	.000011382
298.15	101.3	.0008903	.000008903

System: water; phases: Liquid
Fixed: Pressure, kPa = 101.325
Property: Refractive index (Na D-line) (Liquid); method: Standard Abbe refractometry
Temperature, K	Refractive index (Na D-line)	uncertainty
278.15	1.3339	.0002
288.15	1.3334	.0002
298.15	1.3325	.0002

System: L-ascorbic acid + water; phases: Liquid
Fixed: Pressure, kPa = 101.3
Property: Mass density, kg/m3 (Liquid); method: Pycnometric method
Temperature, K	Molality, mol/kg of L-ascorbic acid	Mass density, kg/m3	uncertainty
278.15	0	999.96	
278.15	.0502	1003.69	
278.15	.0997	1007.29	
278.15	.1384	1010.1	
278.15	.1964	1014.25	
278.15	.2338	1016.85	
278.15	.2927	1020.96	
278.15	.3392	1024.27	
278.15	.4069	1028.56	
278.15	.4383	1030.63	
278.15	.4932	1034.36	
278.15	.5541	1038.24	
278.15	.6251	1042.79	
278.15	.711	1048.36	
278.15	.7457	1050.45	
288.15	0	999.1	
288.15	.0496	1002.68	
288.15	.1009	1006.33	
288.15	.1408	1009.14	
288.15	.1952	1012.94	
288.15	.2426	1016.2	
288.15	.2997	1020.14	
288.15	.3402	1022.83	
288.15	.3936	1026.48	
288.15	.4492	1030.03	
288.15	.5096	1034.09	
288.15	.5782	1038.38	
288.15	.6302	1041.56	
288.15	.6984	1046.01	
288.15	.7426	1048.42	
298.15	0	997.05	
298.15	.0502	1000.6	
298.15	.1017	1004.18	
298.15	.1409	1006.8	
298.15	.1988	1010.73	
298.15	.2402	1013.54	
298.15	.2987	1017.33	
298.15	.3421	1020.12	
298.15	.4046	1024.34	
298.15	.4536	1027.31	
298.15	.5119	1030.98	
298.15	.5788	1035.16	
298.15	.6259	1038.06	
298.15	.6974	1042.37	
298.15	.7486	1045.37	

System: L-ascorbic acid + water; phases: Liquid
Fixed: Pressure, kPa = 101.3
Property: Speed of sound, m/s (Liquid); method: Single path-length method
Temperature, K	Molality, mol/kg of L-ascorbic acid	Speed of sound, m/s	uncertainty
278.15	0	1426.2	1
278.15	.0502	1429.5	1
278.15	.0997	1432.8	1
278.15	.1384	1434.7	1
278.15	.1964	1438.5	1
278.15	.2338	1440.5	1
278.15	.2927	1443.6	1
278.15	.3392	1445.3	1
278.15	.4069	1448.9	1
278.15	.4383	1451.3	1
278.15	.4932	1454.6	1
278.15	.5541	1458.2	1
278.15	.6251	1463.2	1
278.15	.711	1467.3	1
278.15	.7457	1469.1	1
288.15	0	1465.9	1
288.15	.0496	1468.6	1
288.15	.1009	1471.2	1
288.15	.1408	1473.2	1
288.15	.1952	1476.3	1
288.15	.2426	1479	1
288.15	.2997	1481.7	1
288.15	.3402	1483.8	1
288.15	.3936	1487.6	1
288.15	.4492	1489.1	1
288.15	.5096	1492.7	1
288.15	.5782	1496.4	1
288.15	.6302	1499.1	1
288.15	.6984	1501.6	1
288.15	.7426	1503.6	1
298.15	0	1496.7	1
298.15	.0502	1498.9	1
298.15	.1017	1501.5	1
298.15	.1409	1503.4	1
298.15	.1988	1505.2	1
298.15	.2402	1506.7	1
298.15	.2987	1508.9	1
298.15	.3421	1510.9	1
298.15	.4046	1514.2	1
298.15	.4536	1518.2	1
298.15	.5119	1520	1
298.15	.5788	1521.8	1
298.15	.6259	1523.6	1
298.15	.6974	1525.5	1
298.15	.7486	1527.3	1

System: L-ascorbic acid + water; phases: Liquid
Fixed: Pressure, kPa = 101.3
Property: Viscosity, Pa*s (Liquid); method: Capillary tube (Ostwald; Ubbelohde) method
Temperature, K	Molality, mol/kg of L-ascorbic acid	Viscosity, Pa*s	uncertainty
278.15	0	.0015192	.000015192
278.15	.0502	.0015655	.000015655
278.15	.0997	.0016056	.000016056
278.15	.1384	.0016337	.000016337
278.15	.1964	.0016682	.000016682
278.15	.2338	.0016991	.000016991
278.15	.2927	.0017369	.000017369
278.15	.3392	.0017703	.000017703
278.15	.4069	.0018129	.000018129
278.15	.4383	.0018416	.000018416
278.15	.4932	.001874	.00001874
278.15	.5541	.0019211	.000019211
278.15	.6251	.0019741	.000019741
278.15	.711	.0020331	.000020331
278.15	.7457	.0020498	.000020498
288.15	0	.0011382	.000011382
288.15	.0496	.0011652	.000011652
288.15	.1009	.0011842	.000011842
288.15	.1408	.0012047	.000012047
288.15	.1952	.0012356	.000012356
288.15	.2426	.0012571	.000012571
288.15	.2997	.0012815	.000012815
288.15	.3402	.0012877	.000012877
288.15	.3936	.0013254	.000013254
288.15	.4492	.0013526	.000013526
288.15	.5096	.001386	.00001386
288.15	.5782	.0014239	.000014239
288.15	.6302	.0014444	.000014444
288.15	.6984	.0014749	.000014749
288.15	.7426	.0014945	.000014945
298.15	0	.0008903	.000008903
298.15	.0502	.0009072	.000009072
298.15	.1017	.0009235	.000009235
298.15	.1409	.000935	.00000935
298.15	.1988	.0009544	.000009544
298.15	.2402	.0009688	.000009688
298.15	.2987	.0009928	.000009928
298.15	.3421	.0010074	.000010074
298.15	.4046	.0010285	.000010285
298.15	.4536	.0010458	.000010458
298.15	.5119	.0010681	.000010681
298.15	.5788	.0010928	.000010928
298.15	.6259	.0011113	.000011113
298.15	.6974	.0011405	.000011405
298.15	.7486	.0011637	.000011637

System: L-ascorbic acid + water; phases: Liquid
Fixed: Pressure, kPa = 101.3
Property: Refractive index (Na D-line) (Liquid); method: Standard Abbe refractometry
Temperature, K	Molality, mol/kg of L-ascorbic acid	Refractive index (Na D-line)	uncertainty
278.15	0	1.3339	.0002
278.15	.0502	1.3353	.0002
278.15	.0997	1.3365	.0002
278.15	.1384	1.3378	.0002
278.15	.1964	1.3394	.0002
278.15	.2338	1.3405	.0002
278.15	.2927	1.3419	.0002
278.15	.3392	1.3434	.0002
278.15	.4069	1.3448	.0002
278.15	.4383	1.3459	.0002
278.15	.4932	1.3472	.0002
278.15	.5541	1.3489	.0002
278.15	.6251	1.351	.0002
278.15	.711	1.3533	.0002
278.15	.7457	1.3544	.0002
288.15	0	1.3334	.0002
288.15	.0496	1.3348	.0002
288.15	.1009	1.3364	.0002
288.15	.1408	1.3378	.0002
288.15	.1952	1.339	.0002
288.15	.2426	1.34	.0002
288.15	.2997	1.3417	.0002
288.15	.3402	1.3428	.0002
288.15	.3936	1.3441	.0002
288.15	.4492	1.3456	.0002
288.15	.5096	1.3471	.0002
288.15	.5782	1.3489	.0002
288.15	.6302	1.3499	.0002
288.15	.6984	1.352	.0002
288.15	.7426	1.3529	.0002
298.15	0	1.3325	.0002
298.15	.0502	1.3339	.0002
298.15	.1017	1.3354	.0002
298.15	.1409	1.3365	.0002
298.15	.1988	1.338	.0002
298.15	.2402	1.3391	.0002
298.15	.2987	1.3407	.0002
298.15	.3421	1.3418	.0002
298.15	.4046	1.3431	.0002
298.15	.4536	1.3443	.0002
298.15	.5119	1.3461	.0002
298.15	.5788	1.3478	.0002
298.15	.6259	1.3497	.0002
298.15	.6974	1.3508	.0002
298.15	.7486	1.3518	.0002

System: sodium L-ascorbate + water; phases: Liquid
Fixed: Pressure, kPa = 101.3
Property: Mass density, kg/m3 (Liquid); method: Pycnometric method
Temperature, K	Molality, mol/kg of sodium L-ascorbate	Mass density, kg/m3	uncertainty
278.15	0	999.96	
278.15	.0495	1005.25	
278.15	.102	1010.89	
278.15	.1378	1014.72	
278.15	.2009	1021.3	
278.15	.2329	1024.63	
278.15	.2951	1030.95	
278.15	.3361	1035.04	
278.15	.3968	1041.02	
278.15	.4287	1044.29	
278.15	.4929	1050.46	
278.15	.5436	1055.28	
278.15	.6275	1063.15	
278.15	.6583	1065.96	
278.15	.7407	1073.42	
288.15	0	999.1	
288.15	.0403	1003.38	
288.15	.1263	1012.42	
288.15	.1604	1015.94	
288.15	.2478	1024.69	
288.15	.301	1029.91	
288.15	.3509	1034.82	
288.15	.4457	1043.86	
288.15	.5156	1050.33	
288.15	.5987	1057.95	
288.15	.6446	1062.31	
288.15	.6909	1066.4	
288.15	.7466	1071.4	
298.15	0	997.05	
298.15	.0503	1002.31	
298.15	.1005	1007.49	
298.15	.1492	1012.47	
298.15	.1993	1017.5	
298.15	.2452	1022.1	
298.15	.301	1027.58	
298.15	.3456	1031.8	
298.15	.4112	1038.01	
298.15	.4397	1040.84	
298.15	.4892	1045.65	
298.15	.5491	1051.09	
298.15	.6035	1056.1	
298.15	.6697	1062.08	
298.15	.7314	1067.47	

System: sodium L-ascorbate + water; phases: Liquid
Fixed: Pressure, kPa = 101.3
Property: Speed of sound, m/s (Liquid); method: Single path-length method
Temperature, K	Molality, mol/kg of sodium L-ascorbate	Speed of sound, m/s	uncertainty
278.15	0	1426.2	1
278.15	.0495	1432.4	1
278.15	.102	1438.9	1
278.15	.1378	1443.6	1
278.15	.2009	1451.6	1
278.15	.2329	1456.6	1
278.15	.2951	1463.8	1
278.15	.3361	1469.1	1
278.15	.3968	1478.2	1
278.15	.4287	1480	1
278.15	.4929	1489.1	1
278.15	.5436	1494.6	1
278.15	.6275	1503.6	1
278.15	.6583	1509.1	1
278.15	.7407	1518.2	1
288.15	0	1465.9	1
288.15	.0403	1470.4	1
288.15	.1263	1479.2	1
288.15	.1604	1483.6	1
288.15	.2478	1494.4	1
288.15	.301	1499.1	1
288.15	.3509	1505.9	1
288.15	.4457	1518.2	1
288.15	.5156	1525.5	1
288.15	.5987	1532.7	1
288.15	.6446	1540	1
288.15	.6909	1545.5	1
288.15	.7466	1552	1
298.15	0	1496.7	1
298.15	.0503	1501.9	1
298.15	.1005	1507.2	1
298.15	.1492	1512.6	1
298.15	.1993	1518.1	1
298.15	.2452	1522.5	1
298.15	.301	1527.6	1
298.15	.3456	1533.1	1
298.15	.4112	1539.9	1
298.15	.4397	1542	1
298.15	.4892	1547.2	1
298.15	.5491	1554.4	1
298.15	.6035	1559.1	1
298.15	.6697	1565.3	1
298.15	.7314	1572.6	1

System: sodium L-ascorbate + water; phases: Liquid
Fixed: Pressure, kPa = 101.3
Property: Viscosity, Pa*s (Liquid); method: Capillary tube (Ostwald; Ubbelohde) method
Temperature, K	Molality, mol/kg of sodium L-ascorbate	Viscosity, Pa*s	uncertainty
278.15	0	.0015192	.000015192
278.15	.0495	.001564	.00001564
278.15	.102	.0016097	.000016097
278.15	.1378	.0016328	.000016328
278.15	.2009	.0016929	.000016929
278.15	.2329	.0017266	.000017266
278.15	.2951	.0017866	.000017866
278.15	.3361	.0018277	.000018277
278.15	.3968	.0018907	.000018907
278.15	.4287	.001925	.00001925
278.15	.4929	.001995	.00001995
278.15	.5436	.0020521	.000020521
278.15	.6275	.0021522	.000021522
278.15	.6583	.0021918	.000021918
278.15	.7407	.0022914	.000022914
288.15	0	.0011382	.000011382
288.15	.0403	.0011674	.000011674
288.15	.1263	.0012091	.000012091
288.15	.1604	.0012398	.000012398
288.15	.2478	.0013026	.000013026
288.15	.301	.0013391	.000013391
288.15	.3509	.0013704	.000013704
288.15	.4457	.00145	.0000145
288.15	.5156	.0015044	.000015044
288.15	.5987	.0015754	.000015754
288.15	.6446	.0016081	.000016081
288.15	.6909	.0016523	.000016523
288.15	.7466	.0017077	.000017077
298.15	0	.0008903	.000008903
298.15	.0503	.0009169	.000009169
298.15	.1005	.0009381	.000009381
298.15	.1492	.0009628	.000009628
298.15	.1993	.0009898	.000009898
298.15	.2452	.0010075	.000010075
298.15	.301	.0010404	.000010404
298.15	.3456	.0010625	.000010625
298.15	.4112	.0010969	.000010969
298.15	.4397	.0011131	.000011131
298.15	.4892	.0011459	.000011459
298.15	.5491	.0011828	.000011828
298.15	.6035	.0012232	.000012232
298.15	.6697	.0012575	.000012575
298.15	.7314	.0013009	.000013009

System: sodium L-ascorbate + water; phases: Liquid
Fixed: Pressure, kPa = 101.3
Property: Refractive index (Na D-line) (Liquid); method: Standard Abbe refractometry
Temperature, K	Molality, mol/kg of sodium L-ascorbate	Refractive index (Na D-line)	uncertainty
278.15	0	1.3339	.0002
278.15	.0495	1.3359	.0002
278.15	.102	1.338	.0002
278.15	.1378	1.3388	.0002
278.15	.2009	1.3411	.0002
278.15	.2329	1.3428	.0002
278.15	.2951	1.3448	.0002
278.15	.3361	1.3461	.0002
278.15	.3968	1.3485	.0002
278.15	.4287	1.3498	.0002
278.15	.4929	1.3519	.0002
278.15	.5436	1.3536	.0002
278.15	.6275	1.3564	.0002
278.15	.6583	1.3571	.0002
278.15	.7407	1.3602	.0002
288.15	0	1.3334	.0002
288.15	.0403	1.3351	.0002
288.15	.1263	1.3373	.0002
288.15	.1604	1.3392	.0002
288.15	.2478	1.3423	.0002
288.15	.301	1.3439	.0002
288.15	.3509	1.346	.0002
288.15	.4457	1.3493	.0002
288.15	.5156	1.3502	.0002
288.15	.5987	1.3543	.0002
288.15	.6446	1.3558	.0002
288.15	.6909	1.3572	.0002
288.15	.7466	1.3592	.0002
298.15	0	1.3325	.0002
298.15	.0503	1.3344	.0002
298.15	.1005	1.3362	.0002
298.15	.1492	1.3378	.0002
298.15	.1993	1.3397	.0002
298.15	.2452	1.3414	.0002
298.15	.301	1.3434	.0002
298.15	.3456	1.3449	.0002
298.15	.4112	1.347	.0002
298.15	.4397	1.3479	.0002
298.15	.4892	1.3495	.0002
298.15	.5491	1.3516	.0002
298.15	.6035	1.3534	.0002
298.15	.6697	1.3553	.0002
298.15	.7314	1.3571	.0002
