Measured thermophysical data. Experiments and model for the viscosity of carbonated 2-amino-2-methyl-1-propanol and piperazine aqueous solution
Source: J. Chem. Thermodyn., 2014, 10.1016/j.jct.2013.08.025
Compound 1: 2-amino-2-methyl-1-propanol, C4H11NO, purity 99.5%
Compound 2: piperazine, C4H10N2, purity 99.5%
Compound 3: water, H2O

System: piperazine + 2-amino-2-methyl-1-propanol + water; phases: Liquid
Fixed: Pressure, kPa = 101
Property: Viscosity, Pa*s (Liquid); method: Concentric cylinders viscometry
Temperature, K	Mass fraction of 2-amino-2-methyl-1-propanol	Mass fraction of piperazine	Viscosity, Pa*s	uncertainty
298.15	.25	.05	.00392	.000196
303.15	.25	.05	.00331	.0001655
313.15	.25	.05	.00243	.0001215
323.15	.25	.05	.00187	.0000935
298.15	.3	.05	.00483	.0002415
303.15	.3	.05	.00401	.0002005
313.15	.3	.05	.00318	.000159
323.15	.3	.05	.00275	.0001375
298.15	.35	.05	.00608	.000304
303.15	.35	.05	.00514	.000257
313.15	.35	.05	.00422	.000211
323.15	.35	.05	.00335	.0001675
298.15	.2	.1	.00393	.0001965
303.15	.2	.1	.00347	.0001735
313.15	.2	.1	.0025	.000125
323.15	.2	.1	.00199	.0000995
298.15	.25	.1	.00538	.000269
303.15	.25	.1	.00473	.0002365
313.15	.25	.1	.00382	.000191
323.15	.25	.1	.00308	.000154
298.15	.3	.1	.00731	.0003655
303.15	.3	.1	.00654	.000327
313.15	.3	.1	.00521	.0002605
323.15	.3	.1	.00396	.000198
