Measured thermophysical data. Thermochemical and structural properties of DMAN- "proton sponges"
Source: J. Chem. Thermodyn., 2012, 10.1016/j.jct.2012.05.013
Compound 1: 1,8-bis(dimethylamino)naphthalene, C14H18N2
Compound 2: carbon dioxide, CO2
Compound 3: nitrogen, diatomic, N2
Compound 4: water, H2O
Compound 5: oxygen, O2

System: 1,8-bis(dimethylamino)naphthalene; phases: Crystal, Liquid, Gas
Property: Triple point temperature, K (Crystal); method: DSC/DTA
Triple point temperature, K	uncertainty
322.2	.9

System: 1,8-bis(dimethylamino)naphthalene; phases: Crystal, Liquid, Gas
Property: Molar enthalpy of transition or fusion, kJ/mol (Crystal); method: DSC/DTA
Molar enthalpy of transition or fusion, kJ/mol	uncertainty
17.5	.6

System: 1,8-bis(dimethylamino)naphthalene; phases: Crystal, Gas
Property: Molar enthalpy of vaporization or sublimation, kJ/mol (Crystal); method: Static calorimetry
Temperature, K	Molar enthalpy of vaporization or sublimation, kJ/mol	uncertainty
298.15	93.9	

System: 1,8-bis(dimethylamino)naphthalene; phases: Liquid, Gas
Property: Vapor or sublimation pressure, kPa (Liquid); method: Closed cell (Static) method
Temperature, K	Vapor or sublimation pressure, kPa	uncertainty
322.96	.00189	.000002
327.93	.00285	.000002
332.9	.00428	.000002
337.88	.00638	.000002
342.85	.00921	.000002
347.82	.01325	.000002
352.78	.018665	.000002
357.73	.026223	.000002
362.69	.036427	.000002
367.65	.049397	.000002
372.6	.06696	.000002
377.55	.089525	.000002
382.51	.11842	.000002

Reaction: -1 1,8-bis(dimethylamino)naphthalene + 14 carbon dioxide + 1 nitrogen, diatomic + 9 water + -18.5 oxygen
Property: Specific internal energy of reaction at constant volume, J/g
-38263.1
