Measured thermophysical data. Interaction of some hydrophobic amino acids, peptides, and protein with aqueous 3-chloro-1,2-propanediol and 3-chloro-1-propanol: Biophysical studies
Source: J. Chem. Thermodyn., 2011, 10.1016/j.jct.2010.11.015
Compound 1: glycine, C2H5NO2, purity 99%
Compound 2: L-alanine, C3H7NO2, purity 99%
Compound 3: N-[(2,4-dinitrophenyl)]-DL-2-aminobutanoic acid, C10H11N3O6, purity 99%
Compound 4: (S)-3-amino-2-methylbutanoic acid, C5H11NO2, purity 98%
Compound 5: L-leucine, C6H13NO2, purity 98%
Compound 6: iminodiacetic acid, C4H7NO4, purity 99%
Compound 7: 3-chloro-1-propanol, C3H7ClO, purity 95%
Compound 8: 3-chloro-1,2-propanediol, C3H7ClO2, purity 98%
Compound 9: glycylglycylglycine, C6H11N3O4, purity 99%
Compound 10: water, H2O, purity 99.8%

System: glycine + 3-chloro-1,2-propanediol; phases: Liquid
Fixed: Temperature, K = 298.15
Fixed: Pressure, kPa = 101
Property: Mass density, kg/m3 (Liquid); method: Vibrating tube method
Molality, mol/kg of glycine	Mass density, kg/m3	uncertainty
0	1026.352	.05
.21773	1033.097	.05
.24961	1034.063	.05
.28511	1035.143	.05
.34988	1037.084	.05
.44128	1039.736	.05
.4673	1040.489	.05
.51908	1041.998	.05
.53533	1042.415	.05
.62067	1044.867	.05
.81096	1050.174	.05

System: glycine + 3-chloro-1,2-propanediol; phases: Liquid
Fixed: Pressure, kPa = 101
Fixed: Temperature, K = 298.15
Property: Speed of sound, m/s (Liquid); method: Sing-around technique in a fixed-path interferometer
Molality, mol/kg of glycine	Speed of sound, m/s	uncertainty
0	1539.72	1
.21773	1552.32	1
.24961	1554	1
.28511	1555.76	1
.34988	1559.14	1
.44128	1563.79	1
.4673	1564.84	1
.51908	1567.53	1
.53533	1568.27	1
.62067	1572.77	1
.81096	1582.51	1

System: L-alanine + 3-chloro-1,2-propanediol; phases: Liquid
Fixed: Temperature, K = 298.15
Fixed: Pressure, kPa = 101
Property: Mass density, kg/m3 (Liquid); method: Vibrating tube method
Molality, mol/kg of L-alanine	Mass density, kg/m3	uncertainty
0	1026.279	.05
.22328	1032.335	.05
.2315	1032.542	.05
.4099	1037.228	.05
.4213	1037.494	.05
.48391	1039.091	.05
.499	1039.458	.05
.60101	1042.042	.05
.6118	1042.296	.05
.69154	1044.276	.05

System: L-alanine + 3-chloro-1,2-propanediol; phases: Liquid
Fixed: Pressure, kPa = 101
Fixed: Temperature, K = 298.15
Property: Speed of sound, m/s (Liquid); method: Sing-around technique in a fixed-path interferometer
Molality, mol/kg of L-alanine	Speed of sound, m/s	uncertainty
0	1538.95	1
.22328	1553.35	1
.2315	1553.86	1
.4099	1565.62	1
.4213	1566.34	1
.48391	1570.34	1
.499	1570.57	1
.60101	1574.23	1
.6118	1578.22	1
.69154	1583.83	1

System: 3-chloro-1,2-propanediol + N-[(2,4-dinitrophenyl)]-DL-2-aminobutanoic acid; phases: Liquid
Fixed: Temperature, K = 298.15
Fixed: Pressure, kPa = 101
Property: Mass density, kg/m3 (Liquid); method: Vibrating tube method
Molality, mol/kg of N-[(2,4-dinitrophenyl)]-DL-2-aminobutanoic acid	Mass density, kg/m3	uncertainty
0	1025.787	.05
.13517	1029.266	.05
.13723	1029.319	.05
.18358	1030.499	.05
.20792	1031.122	.05
.26927	1032.684	.05
.3456	1034.637	.05
.44789	1037.21	.05

System: 3-chloro-1,2-propanediol + N-[(2,4-dinitrophenyl)]-DL-2-aminobutanoic acid; phases: Liquid
Fixed: Pressure, kPa = 101
Fixed: Temperature, K = 298.15
Property: Speed of sound, m/s (Liquid); method: Sing-around technique in a fixed-path interferometer
Molality, mol/kg of N-[(2,4-dinitrophenyl)]-DL-2-aminobutanoic acid	Speed of sound, m/s	uncertainty
0	1538.38	1
.13517	1549.2	1
.13723	1549.36	1
.18358	1553.1	1
.20792	1554.93	1
.26927	1559.79	1
.3456	1565.94	1
.44789	1574.11	1

System: (S)-3-amino-2-methylbutanoic acid + 3-chloro-1,2-propanediol; phases: Liquid
Fixed: Temperature, K = 298.15
Fixed: Pressure, kPa = 101
Property: Mass density, kg/m3 (Liquid); method: Vibrating tube method
Molality, mol/kg of (S)-3-amino-2-methylbutanoic acid	Mass density, kg/m3	uncertainty
0	1026.425	.05
.046	1027.619	.05
.0541	1027.818	.05
.0755	1028.362	.05
.0778	1028.393	.05
.0822	1028.508	.05
.0931	1028.775	.05
.112	1029.228	.05

System: (S)-3-amino-2-methylbutanoic acid + 3-chloro-1,2-propanediol; phases: Liquid
Fixed: Pressure, kPa = 101
Fixed: Temperature, K = 298.15
Property: Speed of sound, m/s (Liquid); method: Sing-around technique in a fixed-path interferometer
Molality, mol/kg of (S)-3-amino-2-methylbutanoic acid	Speed of sound, m/s	uncertainty
0	1539.26	1
.046	1543.76	1
.0541	1544.53	1
.0755	1546.56	1
.0778	1546.77	1
.0822	1547.13	1
.0931	1548.19	1
.112	1548.78	1

System: L-leucine + 3-chloro-1,2-propanediol; phases: Liquid
Fixed: Temperature, K = 298.15
Fixed: Pressure, kPa = 101
Property: Mass density, kg/m3 (Liquid); method: Vibrating tube method
Molality, mol/kg of L-leucine	Mass density, kg/m3	uncertainty
0	1027.611	.05
.03825	1028.472	.05
.04674	1028.64	.05
.04736	1028.65	.05
.05123	1028.751	.05
.05159	1028.762	.05
.05752	1028.883	.05

System: L-leucine + 3-chloro-1,2-propanediol; phases: Liquid
Fixed: Pressure, kPa = 101
Fixed: Temperature, K = 298.15
Property: Speed of sound, m/s (Liquid); method: Sing-around technique in a fixed-path interferometer
Molality, mol/kg of L-leucine	Speed of sound, m/s	uncertainty
0	1540.76	1
.03825	1544.97	1
.04674	1545.79	1
.04736	1545.93	1
.05123	1546.1	1
.05159	1546.41	1
.05752	1547.09	1

System: glycine + 3-chloro-1-propanol; phases: Liquid
Fixed: Temperature, K = 298.15
Fixed: Pressure, kPa = 101
Property: Mass density, kg/m3 (Liquid); method: Vibrating tube method
Molality, mol/kg of glycine	Mass density, kg/m3	uncertainty
0	1012.087	.05
.23486	1019.184	.05
.35519	1022.832	.05
.36435	1023.09	.05
.45258	1025.717	.05
.56713	1029.034	.05
.57765	1029.437	.05
.65333	1031.543	.05
.67418	1032.159	.05
.87501	1037.834	.05

System: glycine + 3-chloro-1-propanol; phases: Liquid
Fixed: Pressure, kPa = 101
Fixed: Temperature, K = 298.15
Property: Speed of sound, m/s (Liquid); method: Sing-around technique in a fixed-path interferometer
Molality, mol/kg of glycine	Speed of sound, m/s	uncertainty
0	1539.37	1
.23486	1551.09	1
.35519	1556.86	1
.36435	1557.34	1
.45258	1561.46	1
.56713	1567.11	1
.57765	1567.5	1
.65333	1571.11	1
.67418	1572.15	1
.87501	1581.54	1

System: L-alanine + 3-chloro-1-propanol; phases: Liquid
Fixed: Temperature, K = 298.15
Fixed: Pressure, kPa = 101
Property: Mass density, kg/m3 (Liquid); method: Vibrating tube method
Molality, mol/kg of L-alanine	Mass density, kg/m3	uncertainty
0	1012.054	.05
.198	1017.45	.05
.23665	1018.509	.05
.31828	1020.715	.05
.45827	1024.458	.05
.55281	1026.884	.05
.7128	1030.963	.05
.76258	1032.147	.05
.89853	1035.528	.05

System: L-alanine + 3-chloro-1-propanol; phases: Liquid
Fixed: Pressure, kPa = 101
Fixed: Temperature, K = 298.15
Property: Speed of sound, m/s (Liquid); method: Sing-around technique in a fixed-path interferometer
Molality, mol/kg of L-alanine	Speed of sound, m/s	uncertainty
0	1539.17	1
.198	1551.44	1
.23665	1553.83	1
.31828	1558.81	1
.45827	1567.13	1
.55281	1572.69	1
.7128	1581.91	1
.76258	1584.8	1
.89853	1592.55	1

System: 3-chloro-1-propanol + N-[(2,4-dinitrophenyl)]-DL-2-aminobutanoic acid; phases: Liquid
Fixed: Temperature, K = 298.15
Fixed: Pressure, kPa = 101
Property: Mass density, kg/m3 (Liquid); method: Vibrating tube method
Molality, mol/kg of N-[(2,4-dinitrophenyl)]-DL-2-aminobutanoic acid	Mass density, kg/m3	uncertainty
0	1012.731	.05
.15897	1016.907	.05
.21317	1018.288	.05
.23726	1018.907	.05
.31117	1020.805	.05
.45597	1024.394	.05
.54042	1026.494	.05
.63952	1028.894	.05
.74491	1031.361	.05

System: 3-chloro-1-propanol + N-[(2,4-dinitrophenyl)]-DL-2-aminobutanoic acid; phases: Liquid
Fixed: Pressure, kPa = 101
Fixed: Temperature, K = 298.15
Property: Speed of sound, m/s (Liquid); method: Sing-around technique in a fixed-path interferometer
Molality, mol/kg of N-[(2,4-dinitrophenyl)]-DL-2-aminobutanoic acid	Speed of sound, m/s	uncertainty
0	1540.68	1
.15897	1552.8	1
.21317	1556.92	1
.23726	1558.72	1
.31117	1564.27	1
.45597	1574.7	1
.54042	1580.78	1
.63952	1587.8	1
.74491	1595.11	1

System: (S)-3-amino-2-methylbutanoic acid + 3-chloro-1-propanol; phases: Liquid
Fixed: Temperature, K = 298.15
Fixed: Pressure, kPa = 101
Property: Mass density, kg/m3 (Liquid); method: Vibrating tube method
Molality, mol/kg of (S)-3-amino-2-methylbutanoic acid	Mass density, kg/m3	uncertainty
0	1011.881	.05
.06145	1013.378	.05
.06827	1013.539	.05
.06995	1013.583	.05
.07168	1013.619	.05
.07395	1013.687	.05
.08617	1013.982	.05
.08758	1014.014	.05
.09144	1014.109	.05

System: (S)-3-amino-2-methylbutanoic acid + 3-chloro-1-propanol; phases: Liquid
Fixed: Pressure, kPa = 101
Fixed: Temperature, K = 298.15
Property: Speed of sound, m/s (Liquid); method: Sing-around technique in a fixed-path interferometer
Molality, mol/kg of (S)-3-amino-2-methylbutanoic acid	Speed of sound, m/s	uncertainty
0	1538.81	1
.06145	1544.13	1
.06827	1544.84	1
.06995	1544.92	1
.07168	1545.19	1
.07395	1545.34	1
.08617	1546.54	1
.08758	1546.57	1
.09144	1546.93	1

System: L-leucine + 3-chloro-1-propanol; phases: Liquid
Fixed: Temperature, K = 298.15
Fixed: Pressure, kPa = 101
Property: Mass density, kg/m3 (Liquid); method: Vibrating tube method
Molality, mol/kg of L-leucine	Mass density, kg/m3	uncertainty
0	1011.727	.05
.02811	1012.278	.05
.02897	1012.292	.05
.03223	1012.348	.05
.0341	1012.384	.05
.03867	1012.482	.05
.04454	1012.597	.05
.06598	1013.01	.05

System: L-leucine + 3-chloro-1-propanol; phases: Liquid
Fixed: Pressure, kPa = 101
Fixed: Temperature, K = 298.15
Property: Speed of sound, m/s (Liquid); method: Sing-around technique in a fixed-path interferometer
Molality, mol/kg of L-leucine	Speed of sound, m/s	uncertainty
0	1538.46	1
.02811	1541.14	1
.02897	1541.21	1
.03223	1542.53	1
.0341	1541.68	1
.03867	1542.1	1
.04454	1542.7	1
.06598	1544.73	1

System: glycine + 3-chloro-1,2-propanediol + water; phases: Liquid
Fixed: Pressure, kPa = 101
Fixed: Amount concentration (molarity), mol/dm3 of 3-chloro-1,2-propanediol = .5
Fixed: Temperature, K = 298.15
Property: Molar enthalpy of mixing with solvent, kJ/mol of glycine (Liquid); method: Titration Calorimetry
Molality, mol/kg of glycine	Molar enthalpy of mixing with solvent, kJ/mol of glycine	uncertainty
.0014	-.1048	-.000524
.0028	-.0669	-.0003345
.00418	-.0255	-.0001275
.00555	-.0102	-.000051
.00692	-.0011	-.0000055
.00827	.0455	.0002275
.00961	.0986	.000493
.01095	.1377	.0006885
.01227	.1683	.0008415
.01358	.1918	.000959
.01489	.2113	.0010565
.01618	.2269	.0011345
.01746	.2393	.0011965
.01874	.2523	.0012615
.02	.2614	.001307
.02126	.2699	.0013495
.0225	.2757	.0013785
.02374	.2745	.0013725
.02496	.2743	.0013715
.02618	.2717	.0013585
.02738	.2711	.0013555
.02857	.2687	.0013435
.02976	.267	.001335
.03093	.2634	.001317
.0321	.2602	.001301

System: L-alanine + 3-chloro-1,2-propanediol + water; phases: Liquid
Fixed: Pressure, kPa = 101
Fixed: Amount concentration (molarity), mol/dm3 of 3-chloro-1,2-propanediol = .5
Fixed: Temperature, K = 298.15
Property: Molar enthalpy of mixing with solvent, kJ/mol of L-alanine (Liquid); method: Titration Calorimetry
Molality, mol/kg of L-alanine	Molar enthalpy of mixing with solvent, kJ/mol of L-alanine	uncertainty
.0014	-.1875	-.0009375
.0028	-.1086	-.000543
.00418	-.1053	-.0005265
.00555	-.0484	-.000242
.00692	.014	.00007
.00827	.0558	.000279
.00961	.0822	.000411
.01095	.1046	.000523
.01226	.1151	.0005755
.01358	.1246	.000623
.01489	.1323	.0006615
.01618	.135	.000675
.01746	.1376	.000688
.01874	.1389	.0006945
.02	.1413	.0007065
.02126	.1421	.0007105
.0225	.1397	.0006985
.02374	.1409	.0007045
.02496	.1395	.0006975
.02618	.1377	.0006885
.02738	.138	.00069
.02857	.1359	.0006795
.02976	.1338	.000669
.03093	.133	.000665
.0321	.132	.00066

System: 3-chloro-1,2-propanediol + water + N-[(2,4-dinitrophenyl)]-DL-2-aminobutanoic acid; phases: Liquid
Fixed: Pressure, kPa = 101
Fixed: Amount concentration (molarity), mol/dm3 of 3-chloro-1,2-propanediol = .5
Fixed: Temperature, K = 298.15
Property: Molar enthalpy of mixing with solvent, kJ/mol of N-[(2,4-dinitrophenyl)]-DL-2-aminobutanoic acid (Liquid); method: Titration Calorimetry
Molality, mol/kg of N-[(2,4-dinitrophenyl)]-DL-2-aminobutanoic acid	Molar enthalpy of mixing with solvent, kJ/mol of N-[(2,4-dinitrophenyl)]-DL-2-aminobutanoic acid	uncertainty
.0014	-.0448	-.000224
.0028	.0034	.000017
.00418	.0177	.0000885
.00555	.0597	.0002985
.00692	.0879	.0004395
.00827	.1043	.0005215
.00961	.1169	.0005845
.01095	.1229	.0006145
.01227	.1274	.000637
.01358	.1291	.0006455
.01489	.1309	.0006545
.01618	.1295	.0006475
.01746	.1301	.0006505
.01874	.1288	.000644
.02	.1268	.000634
.02126	.1238	.000619
.0225	.1213	.0006065
.02374	.1214	.000607
.02496	.121	.000605
.02618	.119	.000595
.02738	.1179	.0005895
.02857	.114	.00057
.02976	.1141	.0005705
.03093	.1113	.0005565
.0321	.1097	.0005485

System: (S)-3-amino-2-methylbutanoic acid + 3-chloro-1,2-propanediol + water; phases: Liquid
Fixed: Pressure, kPa = 101
Fixed: Amount concentration (molarity), mol/dm3 of 3-chloro-1,2-propanediol = .5
Fixed: Temperature, K = 298.15
Property: Molar enthalpy of mixing with solvent, kJ/mol of (S)-3-amino-2-methylbutanoic acid (Liquid); method: Titration Calorimetry
Molality, mol/kg of (S)-3-amino-2-methylbutanoic acid	Molar enthalpy of mixing with solvent, kJ/mol of (S)-3-amino-2-methylbutanoic acid	uncertainty
.00035	.6276	.003138
.0007	.6578	.003289
.00104	.6901	.0034505
.00139	.7126	.003563
.00173	.7222	.003611
.00207	.7602	.003801
.0024	.7824	.003912
.00274	.8122	.004061
.00307	.8339	.0041695
.0034	.8526	.004263
.00372	.8733	.0043665
.00405	.8952	.004476
.00437	.9129	.0045645
.00468	.9306	.004653
.005	.943	.004715
.00531	.9342	.004671
.00563	.9189	.0045945
.00593	.9113	.0045565
.00624	.8868	.004434
.00654	.8828	.004414
.00684	.8698	.004349
.00714	.8529	.0042645
.00744	.8444	.004222
.00773	.8277	.0041385
.00802	.8164	.004082

System: L-leucine + 3-chloro-1,2-propanediol + water; phases: Liquid
Fixed: Pressure, kPa = 101
Fixed: Amount concentration (molarity), mol/dm3 of 3-chloro-1,2-propanediol = .5
Fixed: Temperature, K = 298.15
Property: Molar enthalpy of mixing with solvent, kJ/mol of L-leucine (Liquid); method: Titration Calorimetry
Molality, mol/kg of L-leucine	Molar enthalpy of mixing with solvent, kJ/mol of L-leucine	uncertainty
.00035	.1381	.0006905
.0007	.14	.0007
.00104	.1351	.0006755
.00139	.1568	.000784
.00173	.1858	.000929
.00207	.2269	.0011345
.0024	.2866	.001433
.00274	.3264	.001632
.00307	.3826	.001913
.0034	.4058	.002029
.00372	.4393	.0021965
.00405	.5143	.0025715
.00437	.5439	.0027195
.00468	.5715	.0028575
.005	.6094	.003047
.00531	.62	.0031
.00563	.6519	.0032595
.00593	.66679	.00333395
.00624	.6558	.003279
.00654	.6738	.003369
.00684	.6531	.0032655
.00714	.6742	.003371
.00744	.6455	.0032275
.00773	.6371	.0031855
.00802	.6458	.003229

System: 3-chloro-1,2-propanediol + iminodiacetic acid + water; phases: Liquid
Fixed: Pressure, kPa = 101
Fixed: Amount concentration (molarity), mol/dm3 of 3-chloro-1,2-propanediol = .5
Fixed: Temperature, K = 298.15
Property: Molar enthalpy of mixing with solvent, kJ/mol of iminodiacetic acid (Liquid); method: Titration Calorimetry
Molality, mol/kg of iminodiacetic acid	Molar enthalpy of mixing with solvent, kJ/mol of iminodiacetic acid	uncertainty
.00035	.7037	.0035185
.0007	.6962	.003481
.00104	.6998	.003499
.00139	.6847	.0034235
.00173	.666	.00333
.00207	.6599	.0032995
.0024	.628	.00314
.00274	.6094	.003047
.00307	.5936	.002968
.0034	.5654	.002827
.00372	.5368	.002684
.00405	.5271	.0026355
.00437	.5091	.0025455
.00468	.4912	.002456
.005	.461	.002305
.00531	.4573	.0022865
.00563	.4424	.002212
.00593	.4384	.002192
.00624	.4155	.0020775
.00654	.4226	.002113
.00684	.4109	.0020545
.00714	.3824	.001912
.00744	.3903	.0019515
.00773	.3751	.0018755
.00802	.3691	.0018455

System: 3-chloro-1,2-propanediol + glycylglycylglycine + water; phases: Liquid
Fixed: Pressure, kPa = 101
Fixed: Amount concentration (molarity), mol/dm3 of 3-chloro-1,2-propanediol = .5
Fixed: Temperature, K = 298.15
Property: Molar enthalpy of mixing with solvent, kJ/mol of glycylglycylglycine (Liquid); method: Titration Calorimetry
Molality, mol/kg of glycylglycylglycine	Molar enthalpy of mixing with solvent, kJ/mol of glycylglycylglycine	uncertainty
.00035	.5356	.002678
.0007	.5117	.0025585
.00104	.5075	.0025375
.00139	.5184	.002592
.00173	.5154	.002577
.00207	.5016	.002508
.0024	.5032	.002516
.00274	.4823	.0024115
.00307	.4654	.002327
.0034	.4613	.0023065
.00372	.4167	.0020835
.00405	.4262	.002131
.00437	.4119	.0020595
.00468	.3736	.001868
.005	.3623	.0018115
.00531	.3613	.0018065
.00563	.3486	.001743
.00593	.3326	.001663
.00624	.313	.001565
.00654	.3099	.0015495
.00684	.3253	.0016265
.00714	.2869	.0014345
.00744	.2951	.0014755
.00773	.2728	.001364
.00802	.2646	.001323

System: glycine + 3-chloro-1-propanol + water; phases: Liquid
Fixed: Pressure, kPa = 101
Fixed: Amount concentration (molarity), mol/dm3 of 3-chloro-1-propanol = .5
Fixed: Temperature, K = 298.15
Property: Molar enthalpy of mixing with solvent, kJ/mol of glycine (Liquid); method: Titration Calorimetry
Molality, mol/kg of glycine	Molar enthalpy of mixing with solvent, kJ/mol of glycine	uncertainty
.00175	-.5197	-.0025985
.00261	-.4238	-.002119
.00347	-.3351	-.0016755
.00432	-.2548	-.001274
.00517	-.1845	-.0009225
.00601	-.1238	-.000619
.00684	-.0774	-.000387
.00767	-.0276	-.000138
.00849	.0096	.000048
.0093	.028	.00014
.01011	.0586	.000293
.01092	.0761	.0003805
.01171	.0833	.0004165
.0125	.1013	.0005065
.01329	.1079	.0005395
.01406	.1096	.000548
.01484	.1222	.000611
.0156	.1255	.0006275
.01636	.1222	.000611
.01711	.1264	.000632
.01786	.1243	.0006215
.0186	.1272	.000636
.01933	.1289	.0006445
.02006	.1284	.000642

System: L-alanine + 3-chloro-1-propanol + water; phases: Liquid
Fixed: Pressure, kPa = 101
Fixed: Amount concentration (molarity), mol/dm3 of 3-chloro-1-propanol = .5
Fixed: Temperature, K = 298.15
Property: Molar enthalpy of mixing with solvent, kJ/mol of L-alanine (Liquid); method: Titration Calorimetry
Molality, mol/kg of L-alanine	Molar enthalpy of mixing with solvent, kJ/mol of L-alanine	uncertainty
.0028	-1.0849	-.0054245
.00418	-.9979	-.0049895
.00555	-.8305	-.0041525
.00692	-.6845	-.0034225
.00827	-.5602	-.002801
.00961	-.4577	-.0022885
.01095	-.3749	-.0018745
.01227	-.3054	-.001527
.01358	-.2515	-.0012575
.01489	-.2063	-.0010315
.01618	-.1682	-.000841
.01746	-.1393	-.0006965
.01874	-.1125	-.0005625
.02	-.0908	-.000454
.02126	-.0724	-.000362
.0225	-.0569	-.0002845
.02374	-.0435	-.0002175
.02496	-.0293	-.0001465
.02618	-.0172	-.000086
.02738	-.0071	-.0000355
.02857	.0021	.0000105
.02976	.01	.00005
.03093	.0192	.000096
.0321	.028	.00014

System: 3-chloro-1-propanol + water + N-[(2,4-dinitrophenyl)]-DL-2-aminobutanoic acid; phases: Liquid
Fixed: Pressure, kPa = 101
Fixed: Amount concentration (molarity), mol/dm3 of 3-chloro-1-propanol = .5
Fixed: Temperature, K = 298.15
Property: Molar enthalpy of mixing with solvent, kJ/mol of N-[(2,4-dinitrophenyl)]-DL-2-aminobutanoic acid (Liquid); method: Titration Calorimetry
Molality, mol/kg of N-[(2,4-dinitrophenyl)]-DL-2-aminobutanoic acid	Molar enthalpy of mixing with solvent, kJ/mol of N-[(2,4-dinitrophenyl)]-DL-2-aminobutanoic acid	uncertainty
.0028	.0782	.000391
.00418	.1569	.0007845
.00555	.2205	.0011025
.00692	.2715	.0013575
.00827	.3125	.0015625
.00961	.3435	.0017175
.01095	.3682	.001841
.01227	.3845	.0019225
.01358	.3983	.0019915
.01489	.4079	.0020395
.01618	.4151	.0020755
.01746	.4184	.002092
.01874	.4226	.002113
.02	.4247	.0021235
.02126	.4255	.0021275
.0225	.4263	.0021315
.02374	.4259	.0021295
.02496	.4255	.0021275
.02618	.4276	.002138
.02738	.4255	.0021275
.02857	.4251	.0021255
.02976	.4243	.0021215
.03093	.4234	.002117
.0321	.4222	.002111

System: (S)-3-amino-2-methylbutanoic acid + 3-chloro-1-propanol + water; phases: Liquid
Fixed: Pressure, kPa = 101
Fixed: Amount concentration (molarity), mol/dm3 of 3-chloro-1-propanol = .5
Fixed: Temperature, K = 298.15
Property: Molar enthalpy of mixing with solvent, kJ/mol of (S)-3-amino-2-methylbutanoic acid (Liquid); method: Titration Calorimetry
Molality, mol/kg of (S)-3-amino-2-methylbutanoic acid	Molar enthalpy of mixing with solvent, kJ/mol of (S)-3-amino-2-methylbutanoic acid	uncertainty
.0007	-.5912	-.002956
.00104	-.5657	-.0028285
.00139	-.5326	-.002663
.00173	-.5067	-.0025335
.00207	-.4732	-.002366
.0024	-.4385	-.0021925
.00274	-.4121	-.0020605
.00307	-.3824	-.001912
.0034	-.3477	-.0017385
.00372	-.3192	-.001596
.00405	-.29	-.00145
.00437	-.2724	-.001362
.00468	-.2402	-.001201
.005	-.2084	-.001042
.00531	-.1858	-.000929
.00563	-.1573	-.0007865
.00593	-.1322	-.000661
.00624	-.0975	-.0004875
.00654	-.0703	-.0003515
.00684	-.046	-.00023
.00714	-.018	-.00009
.00744	.0029	.0000145
.00773	.0331	.0001655
.00802	.0615	.0003075

System: L-leucine + 3-chloro-1-propanol + water; phases: Liquid
Fixed: Pressure, kPa = 101
Fixed: Amount concentration (molarity), mol/dm3 of 3-chloro-1-propanol = .5
Fixed: Temperature, K = 298.15
Property: Molar enthalpy of mixing with solvent, kJ/mol of L-leucine (Liquid); method: Titration Calorimetry
Molality, mol/kg of L-leucine	Molar enthalpy of mixing with solvent, kJ/mol of L-leucine	uncertainty
.0007	-2.097	-.010485
.00104	-2.0322	-.010161
.00139	-1.9644	-.009822
.00173	-1.9046	-.009523
.00207	-1.8294	-.009147
.0024	-1.7636	-.008818
.00274	-1.7033	-.0085165
.00307	-1.6385	-.0081925
.0034	-1.5732	-.007866
.00372	-1.51	-.00755
.00405	-1.4498	-.007249
.00437	-1.3966	-.006983
.00468	-1.3347	-.0066735
.005	-1.2744	-.006372
.00531	-1.2217	-.0061085
.00563	-1.1661	-.0058305
.00593	-1.1184	-.005592
.00624	-1.0577	-.0052885
.00654	-1.01	-.00505
.00684	-.9581	-.0047905
.00714	-.91	-.00455
.00744	-.8636	-.004318
.00773	-.8104	-.004052

System: iminodiacetic acid + 3-chloro-1-propanol + water; phases: Liquid
Fixed: Pressure, kPa = 101
Fixed: Amount concentration (molarity), mol/dm3 of 3-chloro-1-propanol = .5
Fixed: Temperature, K = 298.15
Property: Molar enthalpy of mixing with solvent, kJ/mol of iminodiacetic acid (Liquid); method: Titration Calorimetry
Molality, mol/kg of iminodiacetic acid	Molar enthalpy of mixing with solvent, kJ/mol of iminodiacetic acid	uncertainty
.007	-2.3366	-.011683
.0104	-2.2916	-.011458
.0139	-2.228	-.01114
.0173	-2.1772	-.010886
.0207	-2.1164	-.010582
.024	-2.0643	-.0103215
.0274	-2.0084	-.010042
.0307	-1.9533	-.0097665
.034	-1.9015	-.0095075
.0372	-1.8514	-.009257
.0405	-1.8029	-.0090145
.0437	-1.761	-.008805
.0468	-1.7164	-.008582
.05	-1.6643	-.0083215
.0531	-1.6326	-.008163
.0563	-1.5926	-.007963
.0593	-1.5647	-.0078235
.0624	-1.5138	-.007569
.0654	-1.4845	-.0074225
.0684	-1.4444	-.007222
.0714	-1.4083	-.0070415
.0744	-1.3756	-.006878
.0773	-1.3365	-.0066825
.0802	-1.2989	-.0064945

System: glycylglycylglycine + 3-chloro-1-propanol + water; phases: Liquid
Fixed: Pressure, kPa = 101
Fixed: Amount concentration (molarity), mol/dm3 of 3-chloro-1-propanol = .5
Fixed: Temperature, K = 298.15
Property: Molar enthalpy of mixing with solvent, kJ/mol of glycylglycylglycine (Liquid); method: Titration Calorimetry
Molality, mol/kg of glycylglycylglycine	Molar enthalpy of mixing with solvent, kJ/mol of glycylglycylglycine	uncertainty
.0007	-2.2267	-.0111335
.00104	-2.1581	-.0107905
.00139	-2.1135	-.0105675
.00173	-2.0422	-.010211
.00207	-1.9995	-.0099975
.0024	-1.9158	-.009579
.00274	-1.8846	-.009423
.00307	-1.8027	-.0090135
.0034	-1.7622	-.008811
.00372	-1.6835	-.0084175
.00405	-1.6471	-.0082355
.00437	-1.6017	-.0080085
.00468	-1.5499	-.0077495
.005	-1.4919	-.0074595
.00531	-1.4546	-.007273
.00563	-1.412	-.00706
.00593	-1.3836	-.006918
.00624	-1.3299	-.0066495
.00654	-1.3008	-.006504
.00684	-1.2659	-.0063295
.00714	-1.2364	-.006182
.00744	-1.206	-.00603
.00773	-1.1651	-.0058255
.00802	-1.1249	-.0056245
