Measured thermophysical data. Mixing and decomposition behavior of {[4bmpy][Tf2N] + [emim][EtSO4]} and {[4bmpy][Tf2N] + [emim][TFES]} ionic liquid mixtures
Source: J. Chem. Thermodyn., 2015, 10.1016/j.jct.2014.10.022
Compound 1: 1-butyl-4-methylpyridinium bis((trifluoromethyl)sulfonyl)amide, C12H16F6N2O4S2, purity 99%
Compound 2: 1-ethyl-3-methylimidazolium ethyl sulfate, C8H16N2O4S, purity 99%
Compound 3: 1-ethyl-3-methylimidazolium 1,1,2,2-tetrafluoroethanesulfonate, C8H12F4N2O3S, purity 99%

System: 1-butyl-4-methylpyridinium bis((trifluoromethyl)sulfonyl)amide; phases: Liquid
Property: Molar heat capacity at constant pressure, J/K/mol (Liquid); method: Small sample (50 mg) scanning calorimetry
Temperature, K	Pressure, kPa	Molar heat capacity at constant pressure, J/K/mol	uncertainty
296.2	100	636	5
300.2	100	637	5
304.2	100	638	5
308.2	100	640	5
312.2	100	644	5
316.2	100	648	5
320.2	100	651	5
324.2	100	654	5
328.2	100	658	5
332.2	100	662	5
336.2	100	667	5
340.2	100	671	5
344.2	100	677	5
348.2	100	684	5
352.2	100	690	5
356.2	100	697	5
360.2	100	703	5
364.2	100	710	5
368.2	100	716	5
372.2	100	724	5

System: 1-ethyl-3-methylimidazolium ethyl sulfate; phases: Liquid
Property: Molar heat capacity at constant pressure, J/K/mol (Liquid); method: Small sample (50 mg) scanning calorimetry
Temperature, K	Pressure, kPa	Molar heat capacity at constant pressure, J/K/mol	uncertainty
296.2	100	388	5
300.2	100	390	5
304.2	100	391	5
308.2	100	393	5
312.2	100	396	5
316.2	100	398	5
320.2	100	401	5
324.2	100	403	5
328.2	100	406	5
332.2	100	409	5
336.2	100	413	5
340.2	100	416	5
344.2	100	420	5
348.2	100	423	5
352.2	100	427	5
356.2	100	431	5
360.2	100	435	5
364.2	100	439	5
368.2	100	443	5
372.2	100	448	5

System: 1-ethyl-3-methylimidazolium 1,1,2,2-tetrafluoroethanesulfonate; phases: Liquid
Property: Molar heat capacity at constant pressure, J/K/mol (Liquid); method: Small sample (50 mg) scanning calorimetry
Temperature, K	Pressure, kPa	Molar heat capacity at constant pressure, J/K/mol	uncertainty
296.2	100	483	5
300.2	100	485	5
304.2	100	487	5
308.2	100	490	5
312.2	100	494	5
316.2	100	497	5
320.2	100	500	5
324.2	100	503	5
328.2	100	507	5
332.2	100	512	5
336.2	100	516	5
340.2	100	520	5
344.2	100	525	5
348.2	100	530	5
352.2	100	535	5
356.2	100	541	5
360.2	100	546	5
364.2	100	552	5
368.2	100	557	5
372.2	100	563	5

System: 1-ethyl-3-methylimidazolium ethyl sulfate + 1-butyl-4-methylpyridinium bis((trifluoromethyl)sulfonyl)amide; phases: Liquid
Fixed: Pressure, kPa = 100
Property: Mass density, kg/m3 (Liquid); method: Vibrating tube method
Temperature, K	Mole fraction of 1-butyl-4-methylpyridinium bis((trifluoromethyl)sulfonyl)amide	Mass density, kg/m3	uncertainty
293.15	.0513	1255	.4
293.15	.114	1270.4	.4
293.15	.2224	1294.7	.4
293.15	.3337	1317.4	.4
293.15	.442	1337.6	.4
293.15	.5521	1356.5	.4
293.15	.6659	1374	.4
293.15	.774	1389.2	.4
293.15	.8823	1402.9	.4
293.15	.9525	1411.2	.4
303.15	.0513	1247.9	.4
303.15	.114	1262.9	.4
303.15	.2224	1287	.4
303.15	.3337	1309.5	.4
303.15	.442	1329.4	.4
303.15	.5521	1348	.4
303.15	.6659	1365.2	.4
303.15	.774	1380.2	.4
303.15	.8823	1393.8	.4
303.15	.9525	1401.9	.4
313.15	.0513	1241	.4
313.15	.114	1255.8	.4
313.15	.2224	1279.5	.4
313.15	.3337	1301.7	.4
313.15	.442	1321.2	.4
313.15	.5521	1339.5	.4
313.15	.6659	1356.5	.4
313.15	.774	1371.3	.4
313.15	.8823	1384.7	.4
313.15	.9525	1392.6	.4
323.15	.0513	1234.1	.4
323.15	.114	1248.7	.4
323.15	.2224	1272	.4
323.15	.3337	1293.8	.4
323.15	.442	1313	.4
323.15	.5521	1331.1	.4
323.15	.6659	1347.9	.4
323.15	.774	1362.5	.4
323.15	.8823	1375.6	.4
323.15	.9525	1383.5	.4
333.15	.0513	1227.2	.4
333.15	.114	1241.7	.4
333.15	.2224	1264.6	.4
333.15	.3337	1286	.4
333.15	.442	1304.6	.4
333.15	.5521	1322.5	.4
333.15	.6659	1339.2	.4
333.15	.774	1353.6	.4
333.15	.8823	1366.5	.4
333.15	.9525	1374.4	.4
343.15	.0513	1220.4	.4
343.15	.114	1234.5	.4
343.15	.2224	1257.2	.4
343.15	.3337	1278.1	.4
343.15	.442	1296.2	.4
343.15	.5521	1313.8	.4
343.15	.6659	1330.6	.4
343.15	.774	1344.8	.4
343.15	.8823	1357.5	.4
343.15	.9525	1365.2	.4
353.15	.0513	1213.5	.4
353.15	.114	1227.5	.4
353.15	.2224	1249.7	.4
353.15	.3337	1270.2	.4
353.15	.442	1288	.4
353.15	.5521	1305.3	.4
353.15	.6659	1321.8	.4
353.15	.774	1336	.4
353.15	.8823	1348.6	.4
353.15	.9525	1356.1	.4

System: 1-ethyl-3-methylimidazolium ethyl sulfate + 1-butyl-4-methylpyridinium bis((trifluoromethyl)sulfonyl)amide; phases: Liquid
Fixed: Pressure, kPa = 100
Property: Viscosity, Pa*s (Liquid); method: Falling or rolling sphere viscometry
Temperature, K	Mole fraction of 1-butyl-4-methylpyridinium bis((trifluoromethyl)sulfonyl)amide	Viscosity, Pa*s	uncertainty
293.15	.0513	.1335	.001602
293.15	.114	.1416	.0016992
293.15	.2224	.1496	.0017952
293.15	.3337	.1508	.0018096
293.15	.442	.145	.00174
293.15	.5521	.1329	.0015948
293.15	.6659	.1168	.0014016
293.15	.774	.1008	.0012096
293.15	.8823	.0868	.0010416
293.15	.9525	.0787	.0009444
303.15	.0513	.0811	.0009732
303.15	.114	.0855	.001026
303.15	.2224	.0896	.0010752
303.15	.3337	.0901	.0010812
303.15	.442	.0865	.001038
303.15	.5521	.0798	.0009576
303.15	.6659	.0708	.0008496
303.15	.774	.0622	.0007464
303.15	.8823	.054	.000648
303.15	.9525	.0493	.0005916
313.15	.0513	.0531	.0006372
313.15	.114	.0557	.0006684
313.15	.2224	.0579	.0006948
313.15	.3337	.0581	.0006972
313.15	.442	.0559	.0006708
313.15	.5521	.0517	.0006204
313.15	.6659	.0462	.0005544
313.15	.774	.0411	.0004932
313.15	.8823	.036	.000432
313.15	.9525	.033	.000396
323.15	.0513	.0368	.0004416
323.15	.114	.0383	.0004596
323.15	.2224	.0396	.0004752
323.15	.3337	.0398	.0004776
323.15	.442	.0382	.0004584
323.15	.5521	.0355	.000426
323.15	.6659	.0319	.0003828
323.15	.774	.0286	.0003432
323.15	.8823	.0253	.0003036
323.15	.9525	.0233	.0002796
333.15	.0513	.0267	.0003204
333.15	.114	.0277	.0003324
333.15	.2224	.0284	.0003408
333.15	.3337	.0285	.000342
333.15	.442	.0274	.0003288
333.15	.5521	.0255	.000306
333.15	.6659	.0231	.0002772
333.15	.774	.0209	.0002508
333.15	.8823	.0186	.0002232
333.15	.9525	.0172	.0002064
343.15	.0513	.0199	.0002388
343.15	.114	.0206	.0002472
343.15	.2224	.021	.000252
343.15	.3337	.021	.000252
343.15	.442	.0202	.0002424
343.15	.5521	.0189	.0002268
343.15	.6659	.0171	.0002052
343.15	.774	.0156	.0001872
343.15	.8823	.014	.000168
343.15	.9525	.013	.000156
353.15	.0513	.0154	.0001848
353.15	.114	.0159	.0001908
353.15	.2224	.0161	.0001932
353.15	.3337	.0161	.0001932
353.15	.442	.0155	.000186
353.15	.5521	.0145	.000174
353.15	.6659	.0133	.0001596
353.15	.774	.0122	.0001464
353.15	.8823	.011	.000132
353.15	.9525	.0103	.0001236

System: 1-ethyl-3-methylimidazolium ethyl sulfate + 1-butyl-4-methylpyridinium bis((trifluoromethyl)sulfonyl)amide; phases: Liquid
Fixed: Pressure, kPa = 100
Property: Refractive index (Na D-line) (Liquid); method: Rudolph J357 Automatic Digital Refractomet
Temperature, K	Mole fraction of 1-butyl-4-methylpyridinium bis((trifluoromethyl)sulfonyl)amide	Refractive index (Na D-line)	uncertainty
293.15	.0513	1.4769	.0002
293.15	.114	1.4738	.0002
293.15	.2224	1.469	.0002
293.15	.3337	1.4647	.0002
293.15	.442	1.4611	.0002
293.15	.5521	1.458	.0002
293.15	.6659	1.4552	.0002
293.15	.774	1.4528	.0002
293.15	.8823	1.4504	.0002
293.15	.9525	1.4489	.0002
303.15	.0513	1.4742	.0002
303.15	.114	1.471	.0002
303.15	.2224	1.4661	.0002
303.15	.3337	1.4619	.0002
303.15	.442	1.4581	.0002
303.15	.5521	1.455	.0002
303.15	.6659	1.4522	.0002
303.15	.774	1.4497	.0002
303.15	.8823	1.4472	.0002
303.15	.9525	1.4458	.0002
313.15	.0513	1.4714	.0002
313.15	.114	1.4683	.0002
313.15	.2224	1.4634	.0002
313.15	.3337	1.459	.0002
313.15	.442	1.4552	.0002
313.15	.5521	1.4521	.0002
313.15	.6659	1.4493	.0002
313.15	.774	1.4466	.0002
313.15	.8823	1.4442	.0002
313.15	.9525	1.4428	.0002
323.15	.0513	1.4687	.0002
323.15	.114	1.4655	.0002
323.15	.2224	1.4606	.0002
323.15	.3337	1.4562	.0002
323.15	.442	1.4524	.0002
323.15	.5521	1.4493	.0002
323.15	.6659	1.4463	.0002
323.15	.774	1.4436	.0002
323.15	.8823	1.4412	.0002
323.15	.9525	1.4398	.0002
333.15	.0513	1.4658	.0002
333.15	.114	1.4628	.0002
333.15	.2224	1.4576	.0002
333.15	.3337	1.4534	.0002
333.15	.442	1.4495	.0002
333.15	.5521	1.4464	.0002
333.15	.6659	1.4434	.0002
333.15	.774	1.4406	.0002
333.15	.8823	1.4382	.0002
333.15	.9525	1.4368	.0002
343.15	.0513	1.4631	.0002
343.15	.114	1.4601	.0002
343.15	.2224	1.4548	.0002
343.15	.3337	1.4505	.0002
343.15	.442	1.4466	.0002
343.15	.5521	1.4435	.0002
343.15	.6659	1.4404	.0002
343.15	.774	1.4376	.0002
343.15	.8823	1.4353	.0002
343.15	.9525	1.4338	.0002
353.15	.0513	1.4604	.0002
353.15	.114	1.4573	.0002
353.15	.2224	1.4519	.0002
353.15	.3337	1.4476	.0002
353.15	.442	1.4436	.0002
353.15	.5521	1.4405	.0002
353.15	.6659	1.4374	.0002
353.15	.774	1.4346	.0002
353.15	.8823	1.4322	.0002
353.15	.9525	1.4307	.0002

System: 1-ethyl-3-methylimidazolium ethyl sulfate + 1-butyl-4-methylpyridinium bis((trifluoromethyl)sulfonyl)amide; phases: Liquid
Fixed: Pressure, kPa = 100
Property: Molar heat capacity at constant pressure, J/K/mol (Liquid); method: Small sample (50 mg) scanning calorimetry
Temperature, K	Mass fraction of 1-butyl-4-methylpyridinium bis((trifluoromethyl)sulfonyl)amide	Molar heat capacity at constant pressure, J/K/mol	uncertainty
296.2	0	388	5
300.2	0	390	5
304.2	0	391	5
308.2	0	393	5
312.2	0	396	5
316.2	0	398	5
320.2	0	401	5
324.2	0	403	5
328.2	0	406	5
332.2	0	409	5
336.2	0	413	5
340.2	0	416	5
344.2	0	420	5
348.2	0	423	5
352.2	0	427	5
356.2	0	431	5
360.2	0	435	5
364.2	0	439	5
368.2	0	443	5
372.2	0	448	5
296.2	.25	436	5
300.2	.25	436	5
304.2	.25	437	5
308.2	.25	438	5
312.2	.25	441	5
316.2	.25	443	5
320.2	.25	445	5
324.2	.25	448	5
328.2	.25	451	5
332.2	.25	454	5
336.2	.25	457	5
340.2	.25	461	5
344.2	.25	464	5
348.2	.25	468	5
352.2	.25	472	5
356.2	.25	476	5
360.2	.25	481	5
364.2	.25	485	5
368.2	.25	489	5
372.2	.25	494	5
296.2	.5	492	5
300.2	.5	493	5
304.2	.5	494	5
308.2	.5	495	5
312.2	.5	498	5
316.2	.5	500	5
320.2	.5	503	5
324.2	.5	505	5
328.2	.5	508	5
332.2	.5	511	5
336.2	.5	515	5
340.2	.5	518	5
344.2	.5	522	5
348.2	.5	526	5
352.2	.5	530	5
356.2	.5	535	5
360.2	.5	539	5
364.2	.5	544	5
368.2	.5	548	5
372.2	.5	553	5
296.2	.75	559	5
300.2	.75	560	5
304.2	.75	560	5
308.2	.75	560	5
312.2	.75	563	5
316.2	.75	565	5
320.2	.75	566	5
324.2	.75	568	5
328.2	.75	572	5
332.2	.75	576	5
336.2	.75	581	5
340.2	.75	584	5
344.2	.75	587	5
348.2	.75	593	5
352.2	.75	597	5
356.2	.75	602	5
360.2	.75	606	5
364.2	.75	611	5
368.2	.75	615	5
372.2	.75	621	5
296.2	1	636	5
300.2	1	637	5
304.2	1	638	5
308.2	1	640	5
312.2	1	644	5
316.2	1	648	5
320.2	1	651	5
324.2	1	654	5
328.2	1	658	5
332.2	1	662	5
336.2	1	667	5
340.2	1	671	5
344.2	1	677	5
348.2	1	684	5
352.2	1	690	5
356.2	1	697	5
360.2	1	703	5
364.2	1	710	5
368.2	1	716	5
372.2	1	724	5

System: 1-butyl-4-methylpyridinium bis((trifluoromethyl)sulfonyl)amide + 1-ethyl-3-methylimidazolium 1,1,2,2-tetrafluoroethanesulfonate; phases: Liquid
Fixed: Pressure, kPa = 100
Property: Mass density, kg/m3 (Liquid); method: Vibrating tube method
Temperature, K	Mole fraction of 1-butyl-4-methylpyridinium bis((trifluoromethyl)sulfonyl)amide	Mass density, kg/m3	uncertainty
293.15	.0504	1434.3	.4
293.15	.112	1432.6	.4
293.15	.2211	1429.8	.4
293.15	.3324	1427.1	.4
293.15	.4432	1424.6	.4
293.15	.5529	1422.7	.4
293.15	.6631	1421	.4
293.15	.774	1419.3	.4
293.15	.8828	1418	.4
293.15	.9517	1417.2	.4
303.15	.0504	1425.8	.4
303.15	.112	1424	.4
303.15	.2211	1421.1	.4
303.15	.3324	1418.3	.4
303.15	.4432	1415.6	.4
303.15	.5529	1413.7	.4
303.15	.6631	1411.9	.4
303.15	.774	1410.1	.4
303.15	.8828	1408.8	.4
303.15	.9517	1407.9	.4
313.15	.0504	1417.3	.4
313.15	.112	1415.4	.4
313.15	.2211	1412.4	.4
313.15	.3324	1409.5	.4
313.15	.4432	1406.7	.4
313.15	.5529	1404.7	.4
313.15	.6631	1402.8	.4
313.15	.774	1401	.4
313.15	.8828	1399.5	.4
313.15	.9517	1398.7	.4
323.15	.0504	1408.8	.4
323.15	.112	1406.9	.4
323.15	.2211	1403.7	.4
323.15	.3324	1400.6	.4
323.15	.4432	1397.7	.4
323.15	.5529	1395.6	.4
323.15	.6631	1393.7	.4
323.15	.774	1391.9	.4
323.15	.8828	1390.3	.4
323.15	.9517	1389.4	.4
333.15	.0504	1400.4	.4
333.15	.112	1398.4	.4
333.15	.2211	1395	.4
333.15	.3324	1391.8	.4
333.15	.4432	1388.9	.4
333.15	.5529	1386.7	.4
333.15	.6631	1384.7	.4
333.15	.774	1382.8	.4
333.15	.8828	1381.2	.4
333.15	.9517	1380.2	.4
343.15	.0504	1392.1	.4
343.15	.112	1389.9	.4
343.15	.2211	1386.4	.4
343.15	.3324	1383.1	.4
343.15	.4432	1379.9	.4
343.15	.5529	1377.7	.4
343.15	.6631	1375.7	.4
343.15	.774	1373.7	.4
343.15	.8828	1372.1	.4
343.15	.9517	1371.1	.4
353.15	.0504	1383.7	.4
353.15	.112	1381.5	.4
353.15	.2211	1377.9	.4
353.15	.3324	1374.4	.4
353.15	.4432	1371.2	.4
353.15	.5529	1368.8	.4
353.15	.6631	1366.8	.4
353.15	.774	1364.8	.4
353.15	.8828	1363	.4
353.15	.9517	1362	.4

System: 1-butyl-4-methylpyridinium bis((trifluoromethyl)sulfonyl)amide + 1-ethyl-3-methylimidazolium 1,1,2,2-tetrafluoroethanesulfonate; phases: Liquid
Fixed: Pressure, kPa = 100
Property: Viscosity, Pa*s (Liquid); method: Falling or rolling sphere viscometry
Temperature, K	Mole fraction of 1-butyl-4-methylpyridinium bis((trifluoromethyl)sulfonyl)amide	Viscosity, Pa*s	uncertainty
293.15	.0504	.1159	.0013908
293.15	.112	.1139	.0013668
293.15	.2211	.1111	.0013332
293.15	.3324	.1065	.001278
293.15	.4432	.101	.001212
293.15	.5529	.0951	.0011412
293.15	.6631	.0891	.0010692
293.15	.774	.0845	.001014
293.15	.8828	.0789	.0009468
293.15	.9517	.0753	.0009036
303.15	.0504	.072	.000864
303.15	.112	.0708	.0008496
303.15	.2211	.0695	.000834
303.15	.3324	.0661	.0007932
303.15	.4432	.0627	.0007524
303.15	.5529	.0594	.0007128
303.15	.6631	.0558	.0006696
303.15	.774	.0529	.0006348
303.15	.8828	.0497	.0005964
303.15	.9517	.0476	.0005712
313.15	.0504	.0477	.0005724
313.15	.112	.047	.000564
313.15	.2211	.0457	.0005484
313.15	.3324	.0438	.0005256
313.15	.4432	.0417	.0005004
313.15	.5529	.0395	.000474
313.15	.6631	.0375	.00045
313.15	.774	.0354	.0004248
313.15	.8828	.0332	.0003984
313.15	.9517	.0317	.0003804
323.15	.0504	.0333	.0003996
323.15	.112	.0328	.0003936
323.15	.2211	.0317	.0003804
323.15	.3324	.0306	.0003672
323.15	.4432	.0292	.0003504
323.15	.5529	.0276	.0003312
323.15	.6631	.0265	.000318
323.15	.774	.025	.0003
323.15	.8828	.0234	.0002808
323.15	.9517	.0224	.0002688
333.15	.0504	.0243	.0002916
333.15	.112	.024	.000288
333.15	.2211	.0232	.0002784
333.15	.3324	.0224	.0002688
333.15	.4432	.0215	.000258
333.15	.5529	.0203	.0002436
333.15	.6631	.0195	.000234
333.15	.774	.0184	.0002208
333.15	.8828	.0173	.0002076
333.15	.9517	.0166	.0001992
343.15	.0504	.0182	.0002184
343.15	.112	.018	.000216
343.15	.2211	.0173	.0002076
343.15	.3324	.0168	.0002016
343.15	.4432	.0162	.0001944
343.15	.5529	.0152	.0001824
343.15	.6631	.0147	.0001764
343.15	.774	.0139	.0001668
343.15	.8828	.013	.000156
343.15	.9517	.0125	.00015
353.15	.0504	.0142	.0001704
353.15	.112	.014	.000168
353.15	.2211	.0135	.000162
353.15	.3324	.0131	.0001572
353.15	.4432	.0126	.0001512
353.15	.5529	.0119	.0001428
353.15	.6631	.0116	.0001392
353.15	.774	.0109	.0001308
353.15	.8828	.0103	.0001236
353.15	.9517	.0099	.0001188

System: 1-butyl-4-methylpyridinium bis((trifluoromethyl)sulfonyl)amide + 1-ethyl-3-methylimidazolium 1,1,2,2-tetrafluoroethanesulfonate; phases: Liquid
Fixed: Pressure, kPa = 100
Property: Refractive index (Na D-line) (Liquid); method: Rudolph J357 Automatic Digital Refractomet
Temperature, K	Mole fraction of 1-butyl-4-methylpyridinium bis((trifluoromethyl)sulfonyl)amide	Refractive index (Na D-line)	uncertainty
293.15	.0504	1.4415	.0002
293.15	.112	1.442	.0002
293.15	.2211	1.4429	.0002
293.15	.3324	1.4437	.0002
293.15	.4432	1.4446	.0002
293.15	.5529	1.4453	.0002
293.15	.6631	1.446	.0002
293.15	.774	1.4467	.0002
293.15	.8828	1.4473	.0002
293.15	.9517	1.4477	.0002
303.15	.0504	1.4388	.0002
303.15	.112	1.4393	.0002
303.15	.2211	1.4401	.0002
303.15	.3324	1.4409	.0002
303.15	.4432	1.4417	.0002
303.15	.5529	1.4424	.0002
303.15	.6631	1.4431	.0002
303.15	.774	1.4436	.0002
303.15	.8828	1.4443	.0002
303.15	.9517	1.4446	.0002
313.15	.0504	1.4361	.0002
313.15	.112	1.4366	.0002
313.15	.2211	1.4374	.0002
313.15	.3324	1.4381	.0002
313.15	.4432	1.4389	.0002
313.15	.5529	1.4395	.0002
313.15	.6631	1.4401	.0002
313.15	.774	1.4407	.0002
313.15	.8828	1.4413	.0002
313.15	.9517	1.4416	.0002
323.15	.0504	1.4334	.0002
323.15	.112	1.4338	.0002
323.15	.2211	1.4346	.0002
323.15	.3324	1.4353	.0002
323.15	.4432	1.436	.0002
323.15	.5529	1.4366	.0002
323.15	.6631	1.4372	.0002
323.15	.774	1.4377	.0002
323.15	.8828	1.4383	.0002
323.15	.9517	1.4386	.0002
333.15	.0504	1.4308	.0002
333.15	.112	1.4311	.0002
333.15	.2211	1.4319	.0002
333.15	.3324	1.4325	.0002
333.15	.4432	1.4332	.0002
333.15	.5529	1.4338	.0002
333.15	.6631	1.4342	.0002
333.15	.774	1.4347	.0002
333.15	.8828	1.4353	.0002
333.15	.9517	1.4356	.0002
343.15	.0504	1.4281	.0002
343.15	.112	1.4284	.0002
343.15	.2211	1.4291	.0002
343.15	.3324	1.4297	.0002
343.15	.4432	1.4303	.0002
343.15	.5529	1.4309	.0002
343.15	.6631	1.4314	.0002
343.15	.774	1.4318	.0002
343.15	.8828	1.4323	.0002
343.15	.9517	1.4326	.0002
353.15	.0504	1.4254	.0002
353.15	.112	1.4257	.0002
353.15	.2211	1.4264	.0002
353.15	.3324	1.427	.0002
353.15	.4432	1.4275	.0002
353.15	.5529	1.428	.0002
353.15	.6631	1.4284	.0002
353.15	.774	1.4288	.0002
353.15	.8828	1.4293	.0002
353.15	.9517	1.4296	.0002

System: 1-butyl-4-methylpyridinium bis((trifluoromethyl)sulfonyl)amide + 1-ethyl-3-methylimidazolium 1,1,2,2-tetrafluoroethanesulfonate; phases: Liquid
Fixed: Pressure, kPa = 100
Property: Molar heat capacity at constant pressure, J/K/mol (Liquid); method: Small sample (50 mg) scanning calorimetry
Temperature, K	Mass fraction of 1-butyl-4-methylpyridinium bis((trifluoromethyl)sulfonyl)amide	Molar heat capacity at constant pressure, J/K/mol	uncertainty
296.2	0	483	5
300.2	0	485	5
304.2	0	487	5
308.2	0	490	5
312.2	0	494	5
316.2	0	497	5
320.2	0	500	5
324.2	0	503	5
328.2	0	507	5
332.2	0	512	5
336.2	0	516	5
340.2	0	520	5
344.2	0	525	5
348.2	0	530	5
352.2	0	535	5
356.2	0	541	5
360.2	0	546	5
364.2	0	552	5
368.2	0	557	5
372.2	0	563	5
296.2	.25	518	5
300.2	.25	520	5
304.2	.25	522	5
308.2	.25	524	5
312.2	.25	527	5
316.2	.25	530	5
320.2	.25	533	5
324.2	.25	536	5
328.2	.25	540	5
332.2	.25	544	5
336.2	.25	548	5
340.2	.25	552	5
344.2	.25	557	5
348.2	.25	562	5
352.2	.25	567	5
356.2	.25	572	5
360.2	.25	577	5
364.2	.25	582	5
368.2	.25	588	5
372.2	.25	594	5
296.2	.5	554	5
300.2	.5	555	5
304.2	.5	557	5
308.2	.5	559	5
312.2	.5	563	5
316.2	.5	566	5
320.2	.5	569	5
324.2	.5	572	5
328.2	.5	576	5
332.2	.5	580	5
336.2	.5	585	5
340.2	.5	589	5
344.2	.5	594	5
348.2	.5	599	5
352.2	.5	604	5
356.2	.5	610	5
360.2	.5	615	5
364.2	.5	621	5
368.2	.5	627	5
372.2	.5	633	5
296.2	.75	594	5
300.2	.75	595	5
304.2	.75	596	5
308.2	.75	598	5
312.2	.75	602	5
316.2	.75	605	5
320.2	.75	608	5
324.2	.75	611	5
328.2	.75	615	5
332.2	.75	619	5
336.2	.75	623	5
340.2	.75	628	5
344.2	.75	633	5
348.2	.75	639	5
352.2	.75	644	5
356.2	.75	650	5
360.2	.75	655	5
364.2	.75	661	5
368.2	.75	666	5
372.2	.75	672	5
296.2	1	636	5
300.2	1	637	5
304.2	1	638	5
308.2	1	640	5
312.2	1	644	5
316.2	1	648	5
320.2	1	651	5
324.2	1	654	5
328.2	1	658	5
332.2	1	662	5
336.2	1	667	5
340.2	1	671	5
344.2	1	677	5
348.2	1	684	5
352.2	1	690	5
356.2	1	697	5
360.2	1	703	5
364.2	1	710	5
368.2	1	716	5
372.2	1	724	5
