Measured thermophysical data. Effect of temperature and composition on the density, refractive index,  and excess quantities of binary mixtures of 2,4,6,8-tetramethyl-2,4,6,8-  tetraethenylcyclotetrasiloxane with aromatic hydrocarbons
Source: J. Chem. Thermodyn., 2013, 10.1016/j.jct.2012.08.010
Compound 1: 2,4,6,8-tetramethyl-2,4,6,8-tetrathenylcycloterasiloxane, C12H24O4Si4
Compound 2: .alpha.-methyltoluene, C8H10
Compound 3: 1,2-xylene, C8H10
Compound 4: m-xylene, C8H10
Compound 5: 1,4-xylene, C8H10

System: 2,4,6,8-tetramethyl-2,4,6,8-tetrathenylcycloterasiloxane; phases: Liquid
Fixed: Pressure, kPa = 101.325
Property: Mass density, kg/m3 (Liquid); method: Vibrating tube method
Temperature, K	Mass density, kg/m3	uncertainty
293.15	987.65	.05

System: 2,4,6,8-tetramethyl-2,4,6,8-tetrathenylcycloterasiloxane; phases: Liquid
Fixed: Pressure, kPa = 101.325
Property: Refractive index (Na D-line) (Liquid); method: Standard Abbe refractometry
Temperature, K	Refractive index (Na D-line)	uncertainty
293.15	1.43415	.00004

System: .alpha.-methyltoluene; phases: Liquid
Fixed: Pressure, kPa = 101.325
Property: Mass density, kg/m3 (Liquid); method: Vibrating tube method
Temperature, K	Mass density, kg/m3	uncertainty
298.15	862.55	.05

System: .alpha.-methyltoluene; phases: Liquid
Fixed: Pressure, kPa = 101.325
Property: Refractive index (Na D-line) (Liquid); method: Standard Abbe refractometry
Temperature, K	Refractive index (Na D-line)	uncertainty
298.15	1.49297	.00004

System: 1,2-xylene; phases: Liquid
Fixed: Pressure, kPa = 101.325
Property: Mass density, kg/m3 (Liquid); method: Vibrating tube method
Temperature, K	Mass density, kg/m3	uncertainty
298.15	875.67	.05

System: 1,2-xylene; phases: Liquid
Fixed: Pressure, kPa = 101.325
Property: Refractive index (Na D-line) (Liquid); method: Standard Abbe refractometry
Temperature, K	Refractive index (Na D-line)	uncertainty
298.15	1.50257	.00004

System: m-xylene; phases: Liquid
Fixed: Pressure, kPa = 101.325
Property: Mass density, kg/m3 (Liquid); method: Vibrating tube method
Temperature, K	Mass density, kg/m3	uncertainty
298.15	859.83	.05

System: m-xylene; phases: Liquid
Fixed: Pressure, kPa = 101.325
Property: Refractive index (Na D-line) (Liquid); method: Standard Abbe refractometry
Temperature, K	Refractive index (Na D-line)	uncertainty
298.15	1.49444	.00004

System: 1,4-xylene; phases: Liquid
Fixed: Pressure, kPa = 101.325
Property: Mass density, kg/m3 (Liquid); method: Vibrating tube method
Temperature, K	Mass density, kg/m3	uncertainty
298.15	856.62	.05

System: 1,4-xylene; phases: Liquid
Fixed: Pressure, kPa = 101.325
Property: Refractive index (Na D-line) (Liquid); method: Standard Abbe refractometry
Temperature, K	Refractive index (Na D-line)	uncertainty
298.15	1.49298	.00004

System: .alpha.-methyltoluene + 2,4,6,8-tetramethyl-2,4,6,8-tetrathenylcycloterasiloxane; phases: Liquid
Fixed: Pressure, kPa = 101
Property: Mass density, kg/m3 (Liquid); method: Vibrating tube method
Temperature, K	Mole fraction of 2,4,6,8-tetramethyl-2,4,6,8-tetrathenylcycloterasiloxane	Mass density, kg/m3	uncertainty
288.15	0	871.31	.05
288.15	.0501	887.7	.05
288.15	.1045	902.53	.05
288.15	.1504	913.16	.05
288.15	.2005	923.2	.05
288.15	.2502	931.85	.05
288.15	.3023	939.76	.05
288.15	.3443	945.44	.05
288.15	.3988	952.02	.05
288.15	.4491	957.43	.05
288.15	.499	962.24	.05
288.15	.5497	966.67	.05
288.15	.5979	970.47	.05
288.15	.6498	974.27	.05
288.15	.6946	977.23	.05
288.15	.7486	980.54	.05
288.15	.7994	983.4	.05
288.15	.8489	985.97	.05
288.15	.9467	990.55	.05
288.15	1	992.74	.05
298.15	0	862.55	.05
298.15	.0501	878.79	.05
298.15	.1045	893.47	.05
298.15	.1504	904	.05
298.15	.2005	913.94	.05
298.15	.2502	922.49	.05
298.15	.3023	930.31	.05
298.15	.3443	935.9	.05
298.15	.3988	942.4	.05
298.15	.4491	947.75	.05
298.15	.499	952.49	.05
298.15	.5497	956.86	.05
298.15	.5979	960.6	.05
298.15	.6498	964.35	.05
298.15	.6946	967.27	.05
298.15	.7486	970.52	.05
298.15	.7994	973.34	.05
298.15	.8489	975.86	.05
298.15	.9467	980.33	.05
298.15	1	982.54	.05
308.15	0	853.75	.05
308.15	.0501	869.83	.05
308.15	.1045	884.37	.05
308.15	.1504	894.77	.05
308.15	.2005	904.59	.05
308.15	.2502	913.05	.05
308.15	.3023	920.8	.05
308.15	.3443	926.4	.05
308.15	.3988	932.8	.05
308.15	.4491	938.01	.05
308.15	.499	942.68	.05
308.15	.5497	946.99	.05
308.15	.5979	950.7	.05
308.15	.6498	954.39	.05
308.15	.6946	957.29	.05
308.15	.7486	960.48	.05
308.15	.7994	963.28	.05
308.15	.8489	965.78	.05
308.15	.9467	970.21	.05
308.15	1	972.34	.05
318.15	0	844.87	.05
318.15	.0501	860.83	.05
318.15	.1045	875.24	.05
318.15	.1504	885.58	.05
318.15	.2005	895.29	.05
318.15	.2502	903.69	.05
318.15	.3023	911.36	.05
318.15	.3443	916.84	.05
318.15	.3988	923.14	.05
318.15	.4491	928.31	.05
318.15	.499	932.88	.05
318.15	.5497	937.14	.05
318.15	.5979	940.8	.05
318.15	.6498	944.46	.05
318.15	.6946	947.3	.05
318.15	.7486	950.44	.05
318.15	.7994	953.21	.05
318.15	.8489	955.67	.05
318.15	.9467	960.03	.05
318.15	1	962.14	.05
328.15	0	835.93	.05
328.15	.0501	851.79	.05
328.15	.1045	866.11	.05
328.15	.1504	876.37	.05
328.15	.2005	885.99	.05
328.15	.2502	894.31	.05
328.15	.3023	901.91	.05
328.15	.3443	907.26	.05
328.15	.3988	913.48	.05
328.15	.4491	918.61	.05
328.15	.499	923.08	.05
328.15	.5497	927.3	.05
328.15	.5979	930.9	.05
328.15	.6498	934.51	.05
328.15	.6946	937.32	.05
328.15	.7486	940.38	.05
328.15	.7994	943.13	.05
328.15	.8489	945.56	.05
328.15	.9467	949.84	.05
328.15	1	951.94	.05

System: .alpha.-methyltoluene + 2,4,6,8-tetramethyl-2,4,6,8-tetrathenylcycloterasiloxane; phases: Liquid
Fixed: Pressure, kPa = 101
Property: Refractive index (Na D-line) (Liquid); method: Standard Abbe refractometry
Temperature, K	Volume fraction of 2,4,6,8-tetramethyl-2,4,6,8-tetrathenylcycloterasiloxane	Refractive index (Na D-line)	uncertainty
288.15	0	1.49834	.00004
288.15	.1306	1.49051	.00004
288.15	.2495	1.48332	.00004
288.15	.3353	1.47811	.00004
288.15	.4168	1.47313	.00004
288.15	.4874	1.46879	.00004
288.15	.5524	1.46478	.00004
288.15	.5993	1.46188	.00004
288.15	.6539	1.45851	.00004
288.15	.699	1.4557	.00004
288.15	.7394	1.4532	.00004
288.15	.7767	1.45085	.00004
288.15	.809	1.44885	.00004
288.15	.8409	1.44681	.00004
288.15	.8663	1.44522	.00004
288.15	.8945	1.44344	.00004
288.15	.9191	1.44188	.00004
288.15	.9412	1.44049	.00004
288.15	.9806	1.43796	.00004
288.15	1	1.43674	.00004
298.15	0	1.49297	.00004
298.15	.1307	1.48523	.00004
298.15	.2495	1.47811	.00004
298.15	.3353	1.47292	.00004
298.15	.4168	1.46801	.00004
298.15	.4875	1.4637	.00004
298.15	.5525	1.45974	.00004
298.15	.5994	1.45688	.00004
298.15	.654	1.45353	.00004
298.15	.699	1.45075	.00004
298.15	.7394	1.44826	.00004
298.15	.7767	1.44594	.00004
298.15	.809	1.44397	.00004
298.15	.8409	1.44197	.00004
298.15	.8663	1.44039	.00004
298.15	.8945	1.43862	.00004
298.15	.9191	1.43709	.00004
298.15	.9412	1.4357	.00004
298.15	.9806	1.43323	.00004
298.15	1	1.43202	.00004
308.15	0	1.48747	.00004
308.15	.1307	1.47983	.00004
308.15	.2496	1.47276	.00004
308.15	.3354	1.46765	.00004
308.15	.4168	1.46276	.00004
308.15	.4875	1.45851	.00004
308.15	.5525	1.4546	.00004
308.15	.5994	1.4518	.00004
308.15	.654	1.44849	.00004
308.15	.6991	1.44574	.00004
308.15	.7395	1.44331	.00004
308.15	.7767	1.44103	.00004
308.15	.809	1.43906	.00004
308.15	.841	1.43711	.00004
308.15	.8663	1.43554	.00004
308.15	.8946	1.43382	.00004
308.15	.9191	1.4323	.00004
308.15	.9412	1.43092	.00004
308.15	.9806	1.42848	.00004
308.15	1	1.4273	.00004
318.15	0	1.48202	.00004
318.15	.1307	1.47444	.00004
318.15	.2496	1.46745	.00004
318.15	.3354	1.46234	.00004
318.15	.4169	1.45752	.00004
318.15	.4875	1.45331	.00004
318.15	.5525	1.44944	.00004
318.15	.5994	1.4467	.00004
318.15	.654	1.44344	.00004
318.15	.6991	1.44073	.00004
318.15	.7395	1.43832	.00004
318.15	.7768	1.43607	.00004
318.15	.8091	1.43412	.00004
318.15	.841	1.43222	.00004
318.15	.8663	1.43067	.00004
318.15	.8946	1.42898	.00004
318.15	.9191	1.42747	.00004
318.15	.9412	1.42613	.00004
318.15	.9806	1.42373	.00004
318.15	1	1.42257	.00004
328.15	0	1.47649	.00004
328.15	.1307	1.46899	.00004
328.15	.2496	1.46201	.00004
328.15	.3354	1.45699	.00004
328.15	.4169	1.45223	.00004
328.15	.4875	1.44807	.00004
328.15	.5525	1.44422	.00004
328.15	.5994	1.44159	.00004
328.15	.654	1.43836	.00004
328.15	.6991	1.43564	.00004
328.15	.7395	1.4333	.00004
328.15	.7768	1.43112	.00004
328.15	.8091	1.4292	.00004
328.15	.841	1.42729	.00004
328.15	.8663	1.42578	.00004
328.15	.8946	1.42413	.00004
328.15	.9191	1.42266	.00004
328.15	.9412	1.42133	.00004
328.15	.9806	1.41899	.00004
328.15	1	1.41785	.00004

System: 1,2-xylene + 2,4,6,8-tetramethyl-2,4,6,8-tetrathenylcycloterasiloxane; phases: Liquid
Fixed: Pressure, kPa = 101
Property: Mass density, kg/m3 (Liquid); method: Vibrating tube method
Temperature, K	Mole fraction of 2,4,6,8-tetramethyl-2,4,6,8-tetrathenylcycloterasiloxane	Mass density, kg/m3	uncertainty
288.15	0	884.07	.05
288.15	.0501	899.27	.05
288.15	.1045	912.95	.05
288.15	.1503	922.61	.05
288.15	.2004	931.72	.05
288.15	.2501	939.54	.05
288.15	.3022	946.69	.05
288.15	.3443	951.7	.05
288.15	.3987	957.55	.05
288.15	.4487	962.3	.05
288.15	.499	966.62	.05
288.15	.549	970.42	.05
288.15	.598	973.72	.05
288.15	.6483	976.93	.05
288.15	.6945	979.61	.05
288.15	.7483	982.42	.05
288.15	.7987	984.81	.05
288.15	.8489	987.06	.05
288.15	.9426	990.76	.05
288.15	1	992.74	.05
298.15	0	875.67	.05
298.15	.0501	890.61	.05
298.15	.1045	904.03	.05
298.15	.1503	913.54	.05
298.15	.2004	922.5	.05
298.15	.2501	930.19	.05
298.15	.3022	937.18	.05
298.15	.3443	942.14	.05
298.15	.3987	947.88	.05
298.15	.4487	952.55	.05
298.15	.499	956.77	.05
298.15	.549	960.52	.05
298.15	.598	963.78	.05
298.15	.6483	966.95	.05
298.15	.6945	969.55	.05
298.15	.7483	972.33	.05
298.15	.7987	974.7	.05
298.15	.8489	976.91	.05
298.15	.9426	980.56	.05
298.15	1	982.54	.05
308.15	0	867.3	.05
308.15	.0501	882.01	.05
308.15	.1045	895.21	.05
308.15	.1503	904.57	.05
308.15	.2004	913.37	.05
308.15	.2501	920.94	.05
308.15	.3022	927.81	.05
308.15	.3443	932.7	.05
308.15	.3987	938.35	.05
308.15	.4487	942.93	.05
308.15	.499	947.08	.05
308.15	.549	950.76	.05
308.15	.598	954.02	.05
308.15	.6483	957.08	.05
308.15	.6945	959.65	.05
308.15	.7483	962.38	.05
308.15	.7987	964.71	.05
308.15	.8489	966.88	.05
308.15	.9426	970.47	.05
308.15	1	972.34	.05
318.15	0	858.81	.05
318.15	.0501	873.28	.05
318.15	.1045	886.26	.05
318.15	.1503	895.48	.05
318.15	.2004	904.14	.05
318.15	.2501	911.57	.05
318.15	.3022	918.32	.05
318.15	.3443	923.13	.05
318.15	.3987	928.69	.05
318.15	.4487	933.19	.05
318.15	.499	937.26	.05
318.15	.549	940.89	.05
318.15	.598	944.1	.05
318.15	.6483	947.12	.05
318.15	.6945	949.64	.05
318.15	.7483	952.33	.05
318.15	.7987	954.64	.05
318.15	.8489	956.77	.05
318.15	.9426	960.3	.05
318.15	1	962.14	.05
328.15	0	850.24	.05
328.15	.0501	864.53	.05
328.15	.1045	877.4	.05
328.15	.1503	886.45	.05
328.15	.2004	894.98	.05
328.15	.2501	902.32	.05
328.15	.3022	909.02	.05
328.15	.3443	913.69	.05
328.15	.3987	919.16	.05
328.15	.4487	923.59	.05
328.15	.499	927.63	.05
328.15	.549	931.18	.05
328.15	.598	934.32	.05
328.15	.6483	937.26	.05
328.15	.6945	939.74	.05
328.15	.7483	942.34	.05
328.15	.7987	944.57	.05
328.15	.8489	946.68	.05
328.15	.9426	950.08	.05
328.15	1	951.94	.05

System: 1,2-xylene + 2,4,6,8-tetramethyl-2,4,6,8-tetrathenylcycloterasiloxane; phases: Liquid
Fixed: Pressure, kPa = 101
Property: Refractive index (Na D-line) (Liquid); method: Standard Abbe refractometry
Temperature, K	Volume fraction of 2,4,6,8-tetramethyl-2,4,6,8-tetrathenylcycloterasiloxane	Refractive index (Na D-line)	uncertainty
288.15	0	1.50775	.00004
288.15	.1323	1.49868	.00004
288.15	.2522	1.49036	.00004
288.15	.3383	1.4844	.00004
288.15	.4201	1.47866	.00004
288.15	.4909	1.47364	.00004
288.15	.5559	1.46898	.00004
288.15	.6028	1.4657	.00004
288.15	.6571	1.46179	.00004
288.15	.7017	1.45858	.00004
288.15	.7422	1.4556	.00004
288.15	.7787	1.45298	.00004
288.15	.8113	1.45065	.00004
288.15	.842	1.44839	.00004
288.15	.8679	1.44648	.00004
288.15	.8958	1.44445	.00004
288.15	.9198	1.44269	.00004
288.15	.942	1.44102	.00004
288.15	.9794	1.43827	.00004
288.15	1	1.43674	.00004
298.15	0	1.50257	.00004
298.15	.1324	1.49359	.00004
298.15	.2524	1.48535	.00004
298.15	.3385	1.47939	.00004
298.15	.4203	1.4737	.00004
298.15	.4911	1.46872	.00004
298.15	.5561	1.46412	.00004
298.15	.603	1.46081	.00004
298.15	.6573	1.45693	.00004
298.15	.7019	1.45375	.00004
298.15	.7423	1.45081	.00004
298.15	.7788	1.44819	.00004
298.15	.8114	1.44585	.00004
298.15	.8421	1.4436	.00004
298.15	.868	1.44172	.00004
298.15	.8958	1.43977	.00004
298.15	.9199	1.43795	.00004
298.15	.9421	1.4363	.00004
298.15	.9794	1.43354	.00004
298.15	1	1.43202	.00004
308.15	0	1.49724	.00004
308.15	.1325	1.48836	.00004
308.15	.2526	1.48017	.00004
308.15	.3387	1.47425	.00004
308.15	.4205	1.46859	.00004
308.15	.4913	1.46366	.00004
308.15	.5563	1.45909	.00004
308.15	.6032	1.45581	.00004
308.15	.6575	1.45196	.00004
308.15	.7021	1.44881	.00004
308.15	.7425	1.4459	.00004
308.15	.779	1.44332	.00004
308.15	.8116	1.441	.00004
308.15	.8422	1.43878	.00004
308.15	.8681	1.43691	.00004
308.15	.8959	1.43489	.00004
308.15	.9199	1.43317	.00004
308.15	.9421	1.43154	.00004
308.15	.9794	1.42881	.00004
308.15	1	1.4273	.00004
318.15	0	1.49201	.00004
318.15	.1326	1.48315	.00004
318.15	.2527	1.47503	.00004
318.15	.3389	1.46915	.00004
318.15	.4207	1.46354	.00004
318.15	.4915	1.45862	.00004
318.15	.5565	1.45412	.00004
318.15	.6034	1.45086	.00004
318.15	.6577	1.44704	.00004
318.15	.7022	1.44393	.00004
318.15	.7426	1.44105	.00004
318.15	.7791	1.43846	.00004
318.15	.8117	1.4362	.00004
318.15	.8423	1.43396	.00004
318.15	.8682	1.43215	.00004
318.15	.896	1.43012	.00004
318.15	.92	1.4284	.00004
318.15	.9421	1.42678	.00004
318.15	.9794	1.42407	.00004
318.15	1	1.42257	.00004
328.15	0	1.48661	.00004
328.15	.1326	1.4779	.00004
328.15	.2528	1.46957	.00004
328.15	.339	1.46397	.00004
328.15	.4208	1.45836	.00004
328.15	.4916	1.45349	.00004
328.15	.5567	1.44897	.00004
328.15	.6035	1.44567	.00004
328.15	.6578	1.44199	.00004
328.15	.7023	1.43887	.00004
328.15	.7427	1.43597	.00004
328.15	.7792	1.43343	.00004
328.15	.8118	1.43123	.00004
328.15	.8423	1.42902	.00004
328.15	.8683	1.42718	.00004
328.15	.896	1.42526	.00004
328.15	.92	1.42355	.00004
328.15	.9422	1.42195	.00004
328.15	.9794	1.41933	.00004
328.15	1	1.41785	.00004

System: m-xylene + 2,4,6,8-tetramethyl-2,4,6,8-tetrathenylcycloterasiloxane; phases: Liquid
Fixed: Pressure, kPa = 101
Property: Mass density, kg/m3 (Liquid); method: Vibrating tube method
Temperature, K	Mole fraction of 2,4,6,8-tetramethyl-2,4,6,8-tetrathenylcycloterasiloxane	Mass density, kg/m3	uncertainty
288.15	0	868.39	.05
288.15	.05	885.05	.05
288.15	.1062	900.56	.05
288.15	.1505	910.91	.05
288.15	.2005	921.17	.05
288.15	.2501	930.07	.05
288.15	.3023	938.25	.05
288.15	.3442	944.08	.05
288.15	.3985	950.83	.05
288.15	.4491	956.41	.05
288.15	.499	961.37	.05
288.15	.5495	965.9	.05
288.15	.5981	969.84	.05
288.15	.6498	973.72	.05
288.15	.6946	976.79	.05
288.15	.7483	980.15	.05
288.15	.7983	983.05	.05
288.15	.8489	985.74	.05
288.15	.9463	990.44	.05
288.15	1	992.74	.05
298.15	0	859.83	.05
298.15	.05	876.18	.05
298.15	.1062	891.58	.05
298.15	.1505	901.78	.05
298.15	.2005	911.87	.05
298.15	.2501	920.57	.05
298.15	.3023	928.62	.05
298.15	.3442	934.35	.05
298.15	.3985	941.02	.05
298.15	.4491	946.51	.05
298.15	.499	951.41	.05
298.15	.5495	955.89	.05
298.15	.5981	959.8	.05
298.15	.6498	963.58	.05
298.15	.6946	966.61	.05
298.15	.7483	969.99	.05
298.15	.7983	972.9	.05
298.15	.8489	975.61	.05
298.15	.9463	980.3	.05
298.15	1	982.54	.05
308.15	0	851.25	.05
308.15	.05	867.36	.05
308.15	.1062	882.48	.05
308.15	.1505	892.55	.05
308.15	.2005	902.51	.05
308.15	.2501	911.13	.05
308.15	.3023	919.04	.05
308.15	.3442	924.72	.05
308.15	.3985	931.29	.05
308.15	.4491	936.74	.05
308.15	.499	941.59	.05
308.15	.5495	946	.05
308.15	.5981	949.86	.05
308.15	.6498	953.57	.05
308.15	.6946	956.57	.05
308.15	.7483	959.9	.05
308.15	.7983	962.78	.05
308.15	.8489	965.47	.05
308.15	.9463	970.11	.05
308.15	1	972.34	.05
318.15	0	842.58	.05
318.15	.05	858.49	.05
318.15	.1062	873.4	.05
318.15	.1505	883.33	.05
318.15	.2005	893.18	.05
318.15	.2501	901.66	.05
318.15	.3023	909.46	.05
318.15	.3442	915.05	.05
318.15	.3985	921.55	.05
318.15	.4491	926.91	.05
318.15	.499	931.69	.05
318.15	.5495	936.07	.05
318.15	.5981	939.92	.05
318.15	.6498	943.62	.05
318.15	.6946	946.59	.05
318.15	.7483	949.87	.05
318.15	.7983	952.69	.05
318.15	.8489	955.35	.05
318.15	.9463	959.94	.05
318.15	1	962.14	.05
328.15	0	833.85	.05
328.15	.05	849.53	.05
328.15	.1062	864.24	.05
328.15	.1505	874.04	.05
328.15	.2005	883.77	.05
328.15	.2501	892.14	.05
328.15	.3023	899.85	.05
328.15	.3442	905.37	.05
328.15	.3985	911.8	.05
328.15	.4491	917.12	.05
328.15	.499	921.85	.05
328.15	.5495	926.17	.05
328.15	.5981	929.94	.05
328.15	.6498	933.58	.05
328.15	.6946	936.5	.05
328.15	.7483	939.74	.05
328.15	.7983	942.58	.05
328.15	.8489	945.21	.05
328.15	.9463	949.75	.05
328.15	1	951.94	.05

System: m-xylene + 2,4,6,8-tetramethyl-2,4,6,8-tetrathenylcycloterasiloxane; phases: Liquid
Fixed: Pressure, kPa = 101
Property: Refractive index (Na D-line) (Liquid); method: Standard Abbe refractometry
Temperature, K	Volume fraction of 2,4,6,8-tetramethyl-2,4,6,8-tetrathenylcycloterasiloxane	Refractive index (Na D-line)	uncertainty
288.15	0	1.49969	.00004
288.15	.1301	1.4916	.00004
288.15	.2524	1.48392	.00004
288.15	.3347	1.47877	.00004
288.15	.4159	1.47367	.00004
288.15	.4865	1.46917	.00004
288.15	.5517	1.46505	.00004
288.15	.5985	1.46211	.00004
288.15	.653	1.45885	.00004
288.15	.6984	1.45591	.00004
288.15	.7389	1.45344	.00004
288.15	.776	1.45106	.00004
288.15	.8087	1.44894	.00004
288.15	.8405	1.44691	.00004
288.15	.866	1.44524	.00004
288.15	.8941	1.44346	.00004
288.15	.9183	1.44189	.00004
288.15	.941	1.44046	.00004
288.15	.9804	1.43797	.00004
288.15	1	1.43674	.00004
298.15	0	1.49444	.00004
298.15	.1302	1.48641	.00004
298.15	.2525	1.4788	.00004
298.15	.3347	1.47372	.00004
298.15	.416	1.46865	.00004
298.15	.4866	1.46426	.00004
298.15	.5518	1.46017	.00004
298.15	.5986	1.45726	.00004
298.15	.6531	1.454	.00004
298.15	.6984	1.45105	.00004
298.15	.7389	1.44845	.00004
298.15	.7761	1.4461	.00004
298.15	.8087	1.44408	.00004
298.15	.8405	1.44212	.00004
298.15	.866	1.44048	.00004
298.15	.8941	1.4387	.00004
298.15	.9183	1.43717	.00004
298.15	.941	1.43574	.00004
298.15	.9804	1.43324	.00004
298.15	1	1.43202	.00004
308.15	0	1.48894	.00004
308.15	.1302	1.48109	.00004
308.15	.2525	1.47359	.00004
308.15	.3348	1.46856	.00004
308.15	.4161	1.46354	.00004
308.15	.4867	1.45917	.00004
308.15	.5519	1.45513	.00004
308.15	.5987	1.45223	.00004
308.15	.6532	1.44903	.00004
308.15	.6985	1.4461	.00004
308.15	.739	1.44355	.00004
308.15	.7761	1.44125	.00004
308.15	.8088	1.43919	.00004
308.15	.8406	1.43727	.00004
308.15	.8661	1.43566	.00004
308.15	.8942	1.43391	.00004
308.15	.9183	1.4324	.00004
308.15	.941	1.43098	.00004
308.15	.9804	1.4285	.00004
308.15	1	1.4273	.00004
318.15	0	1.48355	.00004
318.15	.1303	1.47582	.00004
318.15	.2526	1.46841	.00004
318.15	.3349	1.46342	.00004
318.15	.4162	1.45843	.00004
318.15	.4867	1.45413	.00004
318.15	.5519	1.45015	.00004
318.15	.5988	1.44727	.00004
318.15	.6533	1.44383	.00004
318.15	.6986	1.44117	.00004
318.15	.7391	1.43865	.00004
318.15	.7762	1.43639	.00004
318.15	.8088	1.43434	.00004
318.15	.8406	1.43244	.00004
318.15	.8661	1.43085	.00004
318.15	.8942	1.42911	.00004
318.15	.9184	1.42763	.00004
318.15	.9411	1.42622	.00004
318.15	.9804	1.42377	.00004
318.15	1	1.42257	.00004
328.15	0	1.4782	.00004
328.15	.1303	1.47053	.00004
328.15	.2526	1.46321	.00004
328.15	.335	1.45825	.00004
328.15	.4163	1.45333	.00004
328.15	.4868	1.44908	.00004
328.15	.552	1.44511	.00004
328.15	.5988	1.44229	.00004
328.15	.6533	1.43851	.00004
328.15	.6986	1.43604	.00004
328.15	.7391	1.43374	.00004
328.15	.7762	1.43152	.00004
328.15	.8089	1.42952	.00004
328.15	.8407	1.42761	.00004
328.15	.8661	1.42604	.00004
328.15	.8942	1.42434	.00004
328.15	.9184	1.42285	.00004
328.15	.9411	1.42145	.00004
328.15	.9804	1.41904	.00004
328.15	1	1.41785	.00004

System: 1,4-xylene + 2,4,6,8-tetramethyl-2,4,6,8-tetrathenylcycloterasiloxane; phases: Liquid
Fixed: Pressure, kPa = 101
Property: Mass density, kg/m3 (Liquid); method: Vibrating tube method
Temperature, K	Mole fraction of 2,4,6,8-tetramethyl-2,4,6,8-tetrathenylcycloterasiloxane	Mass density, kg/m3	uncertainty
288.15	0	865.3	.05
288.15	.0501	882.57	.05
288.15	.1045	898.18	.05
288.15	.1528	909.95	.05
288.15	.2005	919.97	.05
288.15	.25	929.05	.05
288.15	.3017	937.34	.05
288.15	.3444	943.41	.05
288.15	.3985	950.18	.05
288.15	.4489	955.85	.05
288.15	.4989	960.92	.05
288.15	.5495	965.55	.05
288.15	.5985	969.61	.05
288.15	.649	973.48	.05
288.15	.6941	976.62	.05
288.15	.7484	980.08	.05
288.15	.7992	983.04	.05
288.15	.8375	985.13	.05
288.15	.9462	990.42	.05
288.15	1	992.74	.05
298.15	0	856.62	.05
298.15	.0501	873.71	.05
298.15	.1045	889.15	.05
298.15	.1528	900.78	.05
298.15	.2005	910.61	.05
298.15	.25	919.68	.05
298.15	.3017	927.86	.05
298.15	.3444	933.87	.05
298.15	.3985	940.53	.05
298.15	.4489	946.14	.05
298.15	.4989	951.15	.05
298.15	.5495	955.72	.05
298.15	.5985	959.72	.05
298.15	.649	963.54	.05
298.15	.6941	966.59	.05
298.15	.7484	970.08	.05
298.15	.7992	972.97	.05
298.15	.8375	975.04	.05
298.15	.9462	980.26	.05
298.15	1	982.54	.05
308.15	0	847.97	.05
308.15	.0501	864.79	.05
308.15	.1045	879.99	.05
308.15	.1528	891.46	.05
308.15	.2005	901.17	.05
308.15	.25	910.08	.05
308.15	.3017	918.16	.05
308.15	.3444	924.09	.05
308.15	.3985	930.74	.05
308.15	.4489	936.28	.05
308.15	.4989	941.23	.05
308.15	.5495	945.76	.05
308.15	.5985	949.73	.05
308.15	.649	953.51	.05
308.15	.6941	956.55	.05
308.15	.7484	959.96	.05
308.15	.7992	962.87	.05
308.15	.8375	964.91	.05
308.15	.9462	970.11	.05
308.15	1	972.34	.05
318.15	0	839.21	.05
318.15	.0501	855.81	.05
318.15	.1045	870.82	.05
318.15	.1528	882.13	.05
318.15	.2005	891.84	.05
318.15	.25	900.53	.05
318.15	.3017	908.52	.05
318.15	.3444	914.37	.05
318.15	.3985	920.97	.05
318.15	.4489	926.45	.05
318.15	.4989	931.34	.05
318.15	.5495	935.82	.05
318.15	.5985	939.75	.05
318.15	.649	943.48	.05
318.15	.6941	946.5	.05
318.15	.7484	949.86	.05
318.15	.7992	952.74	.05
318.15	.8375	954.76	.05
318.15	.9462	959.92	.05
318.15	1	962.14	.05
328.15	0	830.39	.05
328.15	.0501	846.77	.05
328.15	.1045	861.58	.05
328.15	.1528	872.74	.05
328.15	.2005	882.31	.05
328.15	.25	890.92	.05
328.15	.3017	898.83	.05
328.15	.3444	904.6	.05
328.15	.3985	911.16	.05
328.15	.4489	916.57	.05
328.15	.4989	921.41	.05
328.15	.5495	925.84	.05
328.15	.5985	929.74	.05
328.15	.649	933.43	.05
328.15	.6941	936.42	.05
328.15	.7484	939.75	.05
328.15	.7992	942.62	.05
328.15	.8375	944.62	.05
328.15	.9462	949.73	.05
328.15	1	951.94	.05

System: 1,4-xylene + 2,4,6,8-tetramethyl-2,4,6,8-tetrathenylcycloterasiloxane; phases: Liquid
Fixed: Pressure, kPa = 101
Property: Refractive index (Na D-line) (Liquid); method: Standard Abbe refractometry
Temperature, K	Volume fraction of 2,4,6,8-tetramethyl-2,4,6,8-tetrathenylcycloterasiloxane	Refractive index (Na D-line)	uncertainty
288.15	0	1.49836	.00004
288.15	.13	1.49061	.00004
288.15	.2483	1.48349	.00004
288.15	.3379	1.47804	.00004
288.15	.4151	1.47284	.00004
288.15	.4853	1.46901	.00004
288.15	.5501	1.46502	.00004
288.15	.5978	1.46207	.00004
288.15	.6522	1.45876	.00004
288.15	.6974	1.45592	.00004
288.15	.738	1.45339	.00004
288.15	.7753	1.45103	.00004
288.15	.8083	1.44898	.00004
288.15	.8395	1.44696	.00004
288.15	.8652	1.44534	.00004
288.15	.8938	1.44353	.00004
288.15	.9184	1.44195	.00004
288.15	.9358	1.44086	.00004
288.15	.9803	1.43802	.00004
288.15	1	1.43674	.00004
298.15	0	1.49298	.00004
298.15	.13	1.48533	.00004
298.15	.2483	1.47825	.00004
298.15	.338	1.47286	.00004
298.15	.4151	1.46772	.00004
298.15	.4854	1.46393	.00004
298.15	.5501	1.45998	.00004
298.15	.5979	1.45705	.00004
298.15	.6522	1.45378	.00004
298.15	.6975	1.45098	.00004
298.15	.7381	1.44845	.00004
298.15	.7754	1.44612	.00004
298.15	.8084	1.44409	.00004
298.15	.8396	1.44211	.00004
298.15	.8653	1.44053	.00004
298.15	.8939	1.43869	.00004
298.15	.9185	1.43716	.00004
298.15	.9358	1.43605	.00004
298.15	.9803	1.43326	.00004
298.15	1	1.43202	.00004
308.15	0	1.48743	.00004
308.15	.13	1.47996	.00004
308.15	.2484	1.47298	.00004
308.15	.338	1.46767	.00004
308.15	.4152	1.46256	.00004
308.15	.4855	1.45883	.00004
308.15	.5502	1.45494	.00004
308.15	.5979	1.45204	.00004
308.15	.6523	1.44878	.00004
308.15	.6975	1.446	.00004
308.15	.7381	1.44353	.00004
308.15	.7754	1.44126	.00004
308.15	.8084	1.4392	.00004
308.15	.8396	1.43729	.00004
308.15	.8653	1.4357	.00004
308.15	.8939	1.43391	.00004
308.15	.9185	1.43239	.00004
308.15	.9359	1.43132	.00004
308.15	.9803	1.42853	.00004
308.15	1	1.4273	.00004
318.15	0	1.48202	.00004
318.15	.1301	1.47462	.00004
318.15	.2484	1.46772	.00004
318.15	.3381	1.46245	.00004
318.15	.4152	1.45742	.00004
318.15	.4855	1.45373	.00004
318.15	.5503	1.4499	.00004
318.15	.598	1.44702	.00004
318.15	.6523	1.4438	.00004
318.15	.6976	1.44108	.00004
318.15	.7381	1.43861	.00004
318.15	.7755	1.43636	.00004
318.15	.8084	1.43432	.00004
318.15	.8396	1.43244	.00004
318.15	.8653	1.43087	.00004
318.15	.8939	1.42911	.00004
318.15	.9185	1.42761	.00004
318.15	.9359	1.42653	.00004
318.15	.9803	1.42379	.00004
318.15	1	1.42257	.00004
328.15	0	1.47654	.00004
328.15	.1301	1.46923	.00004
328.15	.2484	1.46244	.00004
328.15	.3381	1.45725	.00004
328.15	.4152	1.45229	.00004
328.15	.4855	1.44864	.00004
328.15	.5503	1.44483	.00004
328.15	.598	1.44202	.00004
328.15	.6523	1.43879	.00004
328.15	.6976	1.43612	.00004
328.15	.7382	1.43369	.00004
328.15	.7755	1.43148	.00004
328.15	.8085	1.42949	.00004
328.15	.8396	1.42761	.00004
328.15	.8653	1.42605	.00004
328.15	.8939	1.42343	.00004
328.15	.9185	1.42282	.00004
328.15	.9359	1.42178	.00004
328.15	.9803	1.41906	.00004
328.15	1	1.41785	.00004
