Measured thermophysical data. Surface tension of non-ideal binary and ternary liquid mixtures at various temperatures and p = 81.5 kPa
Source: J. Chem. Thermodyn., 2011, 10.1016/j.jct.2010.09.003
Compound 1: methylnitrile, C2H3N, purity 99.9%
Compound 2: ethylene glycol, C2H6O2, purity 99.5%
Compound 3: water, H2O, purity 99.8%

System: methylnitrile; phases: Liquid, Gas
Property: Surface tension liquid-gas, N/m (Liquid); method: Ring tensiometer
Temperature, K	Surface tension liquid-gas, N/m	uncertainty
283.15	.02973	.00001
298.15	.0282	.00001
308.15	.02747	.00001

System: ethylene glycol; phases: Liquid, Gas
Property: Surface tension liquid-gas, N/m (Liquid); method: Ring tensiometer
Temperature, K	Surface tension liquid-gas, N/m	uncertainty
283.15	.04927	.00001
298.15	.04822	.00001
308.15	.04729	.00001

System: water; phases: Liquid, Gas
Property: Surface tension liquid-gas, N/m (Liquid); method: Ring tensiometer
Temperature, K	Surface tension liquid-gas, N/m	uncertainty
283.15	.07447	.00001
298.15	.07206	.00001
308.15	.07041	.00001

System: ethylene glycol + water; phases: Liquid, Gas
Property: Surface tension liquid-gas, N/m (Liquid); method: Ring tensiometer
Temperature, K	Mole fraction of ethylene glycol	Surface tension liquid-gas, N/m	uncertainty
283.15	.0078	.0735	.00001
283.15	.0132	.07259	.00001
283.15	.0216	.07119	.00001
283.15	.0334	.0699	.00001
283.15	.0498	.06863	.00001
283.15	.0632	.06715	.00001
283.15	.0875	.06499	.00001
283.15	.1152	.0639	.00001
283.15	.1436	.06216	.00001
283.15	.1635	.0608	.00001
283.15	.2002	.05926	.00001
283.15	.2509	.05772	.00001
283.15	.2895	.05646	.00001
283.15	.4112	.05453	.00001
283.15	.4753	.05316	.00001
283.15	.6668	.05162	.00001
283.15	.7562	.05082	.00001
283.15	.8958	.04984	.00001
298.15	.0083	.07118	.00001
298.15	.0144	.07041	.00001
298.15	.0246	.06925	.00001
298.15	.0351	.06812	.00001
298.15	.0466	.06695	.00001
298.15	.0556	.06614	.00001
298.15	.0899	.06374	.00001
298.15	.1042	.06268	.00001
298.15	.1342	.06116	.00001
298.15	.1624	.05999	.00001
298.15	.1989	.0585	.00001
298.15	.2499	.05689	.00001
298.15	.2996	.05565	.00001
298.15	.401	.05363	.00001
298.15	.4999	.05222	.00001
298.15	.65	.05065	.00001
298.15	.75	.04982	.00001
298.15	.8987	.04868	.00001
308.15	.008	.06914	.00001
308.15	.0141	.06826	.00001
308.15	.0253	.06681	.00001
308.15	.0353	.06567	.00001
308.15	.0511	.0641	.00001
308.15	.0556	.0637	.00001
308.15	.0905	.06109	.00001
308.15	.1113	.05986	.00001
308.15	.1445	.05826	.00001
308.15	.1602	.05762	.00001
308.15	.2132	.05584	.00001
308.15	.2485	.0549	.00001
308.15	.3201	.05339	.00001
308.15	.4126	.05195	.00001
308.15	.5054	.05084	.00001
308.15	.6501	.04952	.00001
308.15	.7406	.04884	.00001
308.15	.8875	.04791	.00001

System: methylnitrile + ethylene glycol; phases: Liquid, Gas
Property: Surface tension liquid-gas, N/m (Liquid); method: Ring tensiometer
Temperature, K	Mole fraction of methylnitrile	Surface tension liquid-gas, N/m	uncertainty
283.15	.0102	.04792	.00001
283.15	.0202	.0465	.00001
283.15	.0349	.04485	.00001
283.15	.0488	.04185	.00001
283.15	.0611	.0411	.00001
283.15	.0851	.039	.00001
283.15	.0936	.03818	.00001
283.15	.102	.03699	.00001
283.15	.1141	.0368	.00001
283.15	.126	.03572	.00001
283.15	.1413	.034	.00001
283.15	.1561	.03322	.00001
283.15	.1765	.03267	.00001
283.15	.1902	.03245	.00001
283.15	.2426	.03201	.00001
283.15	.29	.03175	.00001
283.15	.3379	.03168	.00001
283.15	.3895	.03149	.00001
283.15	.4202	.03144	.00001
283.15	.5197	.03105	.00001
283.15	.7564	.03055	.00001
283.15	.9008	.03001	.00001
298.15	.0109	.04782	.00001
298.15	.0199	.04746	.00001
298.15	.0361	.04685	.00001
298.15	.072	.04545	.00001
298.15	.0845	.04497	.00001
298.15	.1012	.04423	.00001
298.15	.1599	.04049	.00001
298.15	.1992	.04013	.00001
298.15	.2999	.03635	.00001
298.15	.1402	.0427	.00001
298.15	.2569	.03776	.00001
298.15	.35	.0349	.00001
298.15	.4345	.033	.00001
298.15	.4888	.03225	.00001
298.15	.5699	.03153	.00001
298.15	.6321	.03101	.00001
298.15	.7099	.03049	.00001
298.15	.7765	.03017	.00001
298.15	.8499	.02971	.00001
308.15	.0202	.04645	.00001
308.15	.0349	.04563	.00001
308.15	.0674	.04375	.00001
308.15	.0851	.0428	.00001
308.15	.1021	.04175	.00001
308.15	.1568	.03926	.00001
308.15	.1852	.03785	.00001
308.15	.1987	.03718	.00001
308.15	.2426	.0355	.00001
308.15	.2976	.03405	.00001
308.15	.4144	.03164	.00001
308.15	.4734	.03085	.00001
308.15	.5101	.03041	.00001
308.15	.6453	.02895	.00001
308.15	.7654	.02853	.00001
308.15	.9352	.02783	.00001

System: methylnitrile + water; phases: Liquid, Gas
Property: Surface tension liquid-gas, N/m (Liquid); method: Ring tensiometer
Temperature, K	Mole fraction of methylnitrile	Surface tension liquid-gas, N/m	uncertainty
283.15	.0051	.0706	.00001
283.15	.0101	.06718	.00001
283.15	.0151	.06436	.00001
283.15	.0217	.06123	.00001
283.15	.0298	.05799	.00001
283.15	.0377	.05536	.00001
283.15	.0486	.05234	.00001
283.15	.0593	.04947	.00001
283.15	.0871	.04454	.00001
283.15	.1011	.0423	.00001
283.15	.1431	.03803	.00001
283.15	.1615	.03551	.00001
283.15	.1847	.03435	.00001
283.15	.2068	.0339	.00001
283.15	.2327	.03351	.00001
283.15	.3098	.03289	.00001
283.15	.3971	.03256	.00001
283.15	.4878	.03229	.00001
283.15	.6557	.03206	.00001
283.15	.8056	.03126	.00001
283.15	.9592	.02983	.00001
298.15	.0149	.06236	.00001
298.15	.0298	.05592	.00001
298.15	.0516	.04939	.00001
298.15	.0653	.04596	.00001
298.15	.086	.0422	.00001
298.15	.095	.04054	.00001
298.15	.1023	.03963	.00001
298.15	.1227	.03797	.00001
298.15	.1403	.03642	.00001
298.15	.157	.03568	.00001
298.15	.1855	.03397	.00001
298.15	.195	.03411	.00001
298.15	.2541	.03292	.00001
298.15	.3256	.03234	.00001
298.15	.3959	.03168	.00001
298.15	.4851	.03145	.00001
298.15	.5913	.03095	.00001
298.15	.693	.03037	.00001
298.15	.7968	.02946	.00001
308.15	.0217	.06053	.00001
308.15	.0298	.059	.00001
308.15	.0377	.05556	.00001
308.15	.0727	.04805	.00001
308.15	.0871	.04583	.00001
308.15	.1304	.04009	.00001
308.15	.1431	.03879	.00001
308.15	.1615	.03694	.00001
308.15	.1847	.0357	.00001
308.15	.2068	.0339	.00001
308.15	.2327	.03351	.00001
308.15	.3098	.03104	.00001
308.15	.3971	.03005	.00001
308.15	.4999	.02911	.00001
308.15	.6557	.02841	.00001
308.15	.7775	.02821	.00001
308.15	.9592	.02805	.00001

System: methylnitrile + ethylene glycol + water; phases: Liquid, Gas
Fixed: Temperature, K = 298.15
Property: Surface tension liquid-gas, N/m (Liquid); method: Ring tensiometer
Mole fraction of ethylene glycol	Mole fraction of water	Surface tension liquid-gas, N/m	uncertainty
.0039	.9917	.06912	.00001
.0101	.9852	.06796	.00001
.0096	.9753	.06221	.00001
.0205	.9645	.06179	.00001
.0427	.9508	.06459	.00001
.05	.8995	.04998	.00001
.1002	.8798	.05686	.00001
.0513	.7991	.03633	.00001
.1492	.7003	.03757	.00001
.1999	.7	.04219	.00001
.0499	.5994	.03216	.00001
.1519	.6121	.03422	.00001
.3508	.5995	.04914	.00001
.249	.6012	.03893	.00001
.0493	.5015	.03155	.00001
.1491	.5045	.03244	.00001
.2451	.5089	.03464	.00001
.4409	.512	.04882	.00001
.0505	.3982	.03118	.00001
.1489	.4051	.03172	.00001
.2492	.4031	.03271	.00001
.3507	.4001	.03544	.00001
.4649	.4931	.0493	.00001
.0503	.3008	.03066	.00001
.148	.3104	.03105	.00001
.2528	.3067	.03197	.00001
.3506	.2996	.03322	.00001
.4525	.3004	.03627	.00001
.5424	.3009	.04085	.00001
.5928	.3482	.04739	.00001
.0499	.1995	.03013	.00001
.15	.1989	.0307	.00001
.2497	.2008	.03114	.00001
.3509	.205	.03216	.00001
.4446	.2088	.03388	.00001
.5473	.2037	.0369	.00001
.6508	.1968	.04165	.00001
.7484	.2021	.04753	.00001
.0499	.1004	.0295	.00001
.152	.0996	.03032	.00001
.2499	.1011	.03091	.00001
.3499	.1006	.03152	.00001
.4502	.1016	.03261	.00001
.5531	.0993	.03448	.00001
.6476	.0981	.03716	.00001
.8415	.0981	.04659	.00001
.0501	.0503	.02909	.00001
.2026	.066	.03037	.00001
.4024	.0517	.03184	.00001
.4994	.0507	.03285	.00001
.7988	.0508	.04217	.00001
.9011	.0498	.04701	.00001
