Measured thermophysical data. Effect of alkanolammonium formates ionic liquids on vapour liquid equilibria  of binary systems containing water, methanol, and ethanol
Source: J. Chem. Thermodyn., 2012, 10.1016/j.jct.2012.05.001
Compound 1: monoethanolamine formate, C3H9NO3
Compound 2: diethanolammonium formate, C5H13NO4
Compound 3: methanol, CH4O
Compound 4: ethyl alcohol, C2H6O
Compound 5: water, H2O, purity 99.9%

System: monoethanolamine formate; phases: Liquid
Fixed: Pressure, kPa = 101.325
Property: Mass density, kg/m3 (Liquid); method: Vibrating tube method
Temperature, K	Mass density, kg/m3	uncertainty
293.15	1178.5	.2
298.15	1175.1	.2
303.15	1171.7	.2
323.15	1158.1	.2
343.15	1144.3	.2

System: monoethanolamine formate; phases: Liquid
Fixed: Pressure, kPa = 101.325
Property: Viscosity, Pa*s (Liquid); method: Falling or rolling sphere viscometry
Temperature, K	Viscosity, Pa*s	uncertainty
293.15	.067609	.000005
298.15	.052013	.000005
303.15	.04051	.000005
323.15	.018188	.000005
343.15	.009698	.000005

System: diethanolammonium formate; phases: Liquid
Fixed: Pressure, kPa = 101.325
Property: Mass density, kg/m3 (Liquid); method: Vibrating tube method
Temperature, K	Mass density, kg/m3	uncertainty
293.15	1205	.2
298.15	1201.7	.2
303.15	1198.3	.2
323.15	1185	.2
343.15	1171.7	.2

System: diethanolammonium formate; phases: Liquid
Fixed: Pressure, kPa = 101.325
Property: Viscosity, Pa*s (Liquid); method: Falling or rolling sphere viscometry
Temperature, K	Viscosity, Pa*s	uncertainty
293.15	.807597	.000005
298.15	.533412	.000005
303.15	.369633	.000005
323.15	.106157	.000005
343.15	.041093	.000005

System: ethyl alcohol + water + monoethanolamine formate; phases: Liquid, Gas
Property: Vapor or sublimation pressure, kPa (Liquid); method: Closed cell (Static) method
Temperature, K	Mole fraction of water	Mole fraction of ethyl alcohol	Vapor or sublimation pressure, kPa	uncertainty
301.93	.1013	.7527	8.42	.04
316.48	.1013	.7527	18.17	.04
326.03	.1013	.7527	28.94	.04
333.85	.1013	.7527	41.42	.04
340.4	.1013	.7527	55.08	.04
345.22	.1013	.7527	67.57	.04
350.63	.1013	.7527	84.23	.04
355.01	.1013	.7527	100.13	.04
305.91	.4061	.4767	10.29	.04
315.75	.4061	.4767	17.21	.04
327.43	.4061	.4767	30.46	.04
334.41	.4061	.4767	41.9	.04
341.02	.4061	.4767	55.82	.04
345.9	.4061	.4767	68.44	.04
350.72	.4061	.4767	83.23	.04
355.48	.4061	.4767	100.43	.04
319.57	.6513	.2548	19.44	.04
328.54	.6513	.2548	29.91	.04
336.29	.6513	.2548	42.4	.04
342.39	.6513	.2548	55.19	.04
347.4	.6513	.2548	67.9	.04
352.77	.6513	.2548	84.09	.04
357.21	.6513	.2548	99.91	.04
332.46	.8153	.1063	29.37	.04
339.67	.8153	.1063	41.07	.04
345.84	.8153	.1063	53.16	.04
351.8	.8153	.1063	67.87	.04
356.69	.8153	.1063	82.31	.04
361.57	.8153	.1063	99.29	.04
327.79	.912	.0188	16.51	.04
339.11	.912	.0188	27.84	.04
348.09	.912	.0188	40.98	.04
355.76	.912	.0188	56.08	.04
360.61	.912	.0188	67.76	.04
365.72	.912	.0188	82.06	.04
371.11	.912	.0188	99.8	.04

System: methanol + water + monoethanolamine formate; phases: Liquid, Gas
Property: Vapor or sublimation pressure, kPa (Liquid); method: Closed cell (Static) method
Temperature, K	Mole fraction of water	Mole fraction of methanol	Vapor or sublimation pressure, kPa	uncertainty
292.12	.0762	.814	10.24	.04
302.37	.0762	.814	17.61	.04
312.47	.0762	.814	28.92	.04
320.14	.0762	.814	41.14	.04
326.64	.0762	.814	54.57	.04
332.09	.0762	.814	68.57	.04
337	.0762	.814	83.55	.04
341.8	.0762	.814	100.77	.04
297.26	.3361	.567	11.08	.04
307.76	.3361	.567	19.05	.04
316.43	.3361	.567	28.91	.04
324.66	.3361	.567	41.92	.04
330.89	.3361	.567	54.86	.04
336	.3361	.567	67.85	.04
341.21	.3361	.567	83.62	.04
346.11	.3361	.567	101.12	.04
302.53	.5861	.3295	11.39	.04
311.78	.5861	.3295	18.03	.04
322.96	.5861	.3295	30.22	.04
330.02	.5861	.3295	41.2	.04
336.47	.5861	.3295	54.23	.04
342.17	.5861	.3295	68.44	.04
347.08	.5861	.3295	83.18	.04
352.12	.5861	.3295	100.8	.04
315.31	.7791	.1461	14.74	.04
320.62	.7791	.1461	18.99	.04
331.04	.7791	.1461	30.72	.04
338.41	.7791	.1461	42.14	.04
344.6	.7791	.1461	54.2	.04
350.17	.7791	.1461	67.58	.04
355.19	.7791	.1461	82.17	.04
360	.7791	.1461	98.06	.04
318.56	.9046	.0268	11.02	.04
331.02	.9046	.0268	19.91	.04
339.78	.9046	.0268	29.18	.04
348.58	.9046	.0268	41.91	.04
355.82	.9046	.0268	56.17	.04
361.13	.9046	.0268	69.02	.04
366.51	.9046	.0268	84.45	.04
371.13	.9046	.0268	99.98	.04

System: ethyl alcohol + methanol + monoethanolamine formate; phases: Liquid, Gas
Property: Vapor or sublimation pressure, kPa (Liquid); method: Closed cell (Static) method
Temperature, K	Mole fraction of methanol	Mole fraction of ethyl alcohol	Vapor or sublimation pressure, kPa	uncertainty
312.97	.0596	.7876	15.85	.04
317.67	.0596	.7876	20.16	.04
324.8	.0596	.7876	28.45	.04
332.47	.0596	.7876	40.42	.04
339.31	.0596	.7876	54.52	.04
344.17	.0596	.7876	66.91	.04
348.22	.0596	.7876	79.07	.04
353.75	.0596	.7876	98.58	.04
310.11	.2779	.5796	16.85	.04
313.89	.2779	.5796	20.33	.04
321.21	.2779	.5796	28.84	.04
329.05	.2779	.5796	41.17	.04
335.91	.2779	.5796	55.48	.04
340.38	.2779	.5796	66.96	.04
345.55	.2779	.5796	82.6	.04
349.99	.2779	.5796	98.82	.04
309.5	.5123	.3563	19.81	.04
312.63	.5123	.3563	23.06	.04
317.63	.5123	.3563	29.2	.04
324.76	.5123	.3563	40.32	.04
331.25	.5123	.3563	53.39	.04
336.72	.5123	.3563	67.05	.04
341.91	.5123	.3563	82.48	.04
346.39	.5123	.3563	98.15	.04
301.24	.7129	.1652	15.27	.04
306.26	.7129	.1652	19.66	.04
314.78	.7129	.1652	29.61	.04
322.35	.7129	.1652	41.74	.04
328.35	.7129	.1652	54.21	.04
333.49	.7129	.1652	67.31	.04
338.33	.7129	.1652	82.01	.04
343.12	.7129	.1652	99.11	.04
303.18	.8535	.0312	18.85	.04
306.09	.8535	.0312	21.76	.04
311.26	.8535	.0312	27.9	.04
318.75	.8535	.0312	39.33	.04
325.43	.8535	.0312	52.63	.04
331.24	.8535	.0312	67.12	.04
336.07	.8535	.0312	81.47	.04
340.82	.8535	.0312	98.21	.04

System: ethyl alcohol + water + diethanolammonium formate; phases: Liquid, Gas
Property: Vapor or sublimation pressure, kPa (Liquid); method: Closed cell (Static) method
Temperature, K	Mole fraction of water	Mole fraction of ethyl alcohol	Vapor or sublimation pressure, kPa	uncertainty
302.96	.1058	.7861	9.29	.04
312.05	.1058	.7861	15.15	.04
316.57	.1058	.7861	19.09	.04
324.15	.1058	.7861	27.66	.04
332.83	.1058	.7861	41.24	.04
340	.1058	.7861	56.38	.04
348.52	.1058	.7861	80.24	.04
353.58	.1058	.7861	97.94	.04
307.72	.4205	.4936	11.83	.04
310.86	.4205	.4936	14.02	.04
317.48	.4205	.4936	19.7	.04
324.56	.4205	.4936	27.89	.04
332.68	.4205	.4936	40.48	.04
339.85	.4205	.4936	55.28	.04
348.05	.4205	.4936	77.79	.04
353.84	.4205	.4936	98	.04
308.46	.6696	.2619	11.2	.04
313.27	.6696	.2619	14.41	.04
320.31	.6696	.2619	20.54	.04
325.82	.6696	.2619	26.84	.04
334.32	.6696	.2619	39.78	.04
341.94	.6696	.2619	55.58	.04
351.23	.6696	.2619	80.99	.04
356.18	.6696	.2619	98.23	.04
309.38	.8392	.1057	9.68	.04
316.49	.8392	.1057	14.14	.04
322.76	.8392	.1057	19.31	.04
330.67	.8392	.1057	27.91	.04
339.19	.8392	.1057	40.78	.04
345.98	.8392	.1057	54.46	.04
355.29	.8392	.1057	79.15	.04
360.85	.8392	.1057	97.68	.04
315.19	.9308	.0192	9.34	.04
324.01	.9308	.0192	14.6	.04
331.06	.9308	.0192	20.35	.04
338.98	.9308	.0192	29.06	.04
347.93	.9308	.0192	42.47	.04
354.63	.9308	.0192	55.91	.04
363.61	.9308	.0192	79.18	.04
369.59	.9308	.0192	98.63	.04

System: methanol + water + diethanolammonium formate; phases: Liquid, Gas
Property: Vapor or sublimation pressure, kPa (Liquid); method: Closed cell (Static) method
Temperature, K	Mole fraction of water	Mole fraction of methanol	Vapor or sublimation pressure, kPa	uncertainty
303.13	.0796	.84	18.57	.04
305.74	.0796	.84	21.13	.04
310.99	.0796	.84	27.24	.04
314.28	.0796	.84	31.77	.04
322.47	.0796	.84	45.9	.04
329.2	.0796	.84	61.22	.04
335.81	.0796	.84	80.28	.04
340.72	.0796	.84	97.39	.04
300.67	.3459	.5835	13.17	.04
305.07	.3459	.5835	16.49	.04
310.45	.3459	.5835	21.53	.04
317.45	.3459	.5835	29.96	.04
326.97	.3459	.5835	45.88	.04
333.36	.3459	.5835	60.19	.04
340.08	.3459	.5835	79.09	.04
345.2	.3459	.5835	96.83	.04
302.45	.6007	.3379	11.07	.04
308.65	.6007	.3379	15.33	.04
314.91	.6007	.3379	20.84	.04
323.45	.6007	.3379	31.05	.04
331.72	.6007	.3379	44.69	.04
339.03	.6007	.3379	60.7	.04
345.62	.6007	.3379	78.96	.04
350.84	.6007	.3379	96.58	.04
305.55	.8021	.1452	8.66	.04
313.88	.8021	.1452	13.44	.04
322.76	.8021	.1452	20.88	.04
332.16	.8021	.1452	32.12	.04
340.2	.8021	.1452	45.44	.04
347.22	.8021	.1452	60.61	.04
353.99	.8021	.1452	79.06	.04
359.36	.8021	.1452	96.85	.04
315.95	.9231	.0273	9.25	.04
324.65	.9231	.0273	14.25	.04
332.35	.9231	.0273	20.51	.04
342.2	.9231	.0273	31.87	.04
350.52	.9231	.0273	45.22	.04
357.81	.9231	.0273	60.47	.04
365.05	.9231	.0273	79.65	.04
370.36	.9231	.0273	96.7	.04

System: ethyl alcohol + methanol + diethanolammonium formate; phases: Liquid, Gas
Property: Vapor or sublimation pressure, kPa (Liquid); method: Closed cell (Static) method
Temperature, K	Mole fraction of methanol	Mole fraction of ethyl alcohol	Vapor or sublimation pressure, kPa	uncertainty
309.29	.0624	.8243	13.56	.04
312.59	.0624	.8243	16.1	.04
319.28	.0624	.8243	22.49	.04
327.7	.0624	.8243	33.49	.04
333.77	.0624	.8243	44.03	.04
339.55	.0624	.8243	56.52	.04
346.72	.0624	.8243	75.97	.04
352.78	.0624	.8243	96.52	.04
302.25	.2901	.6046	10.77	.04
309.01	.2901	.6046	15.28	.04
317.11	.2901	.6046	22.98	.04
325.21	.2901	.6046	33.63	.04
331.36	.2901	.6046	44.24	.04
337.25	.2901	.6046	57	.04
344.15	.2901	.6046	75.8	.04
350.36	.2901	.6046	96.83	.04
301.73	.5326	.3707	13.23	.04
306.25	.5326	.3707	16.7	.04
312.15	.5326	.3707	22.37	.04
320.49	.5326	.3707	33.13	.04
326.73	.5326	.3707	43.83	.04
332.82	.5326	.3707	56.97	.04
339.07	.5326	.3707	73.74	.04
345.96	.5326	.3707	96.82	.04
296.67	.7392	.1713	12.1	.04
301.57	.7392	.1713	15.63	.04
308.51	.7392	.1713	22.11	.04
317.2	.7392	.1713	33.31	.04
323.29	.7392	.1713	43.75	.04
329.5	.7392	.1713	57.18	.04
336.1	.7392	.1713	75.2	.04
342.41	.7392	.1713	96.55	.04
300.03	.8832	.0323	16.06	.04
305.05	.8832	.0323	20.68	.04
308.57	.8832	.0323	24.56	.04
314.61	.8832	.0323	32.63	.04
321	.8832	.0323	43.5	.04
327.19	.8832	.0323	56.88	.04
334.32	.8832	.0323	76.51	.04
340.21	.8832	.0323	96.56	.04
