Measured thermophysical data. Phase diagrams for (water + 1, 2-butanediol or 1, 2-propanediol + 2-ethyl-1-hexanol)  systems: Experimental data and UNIQUAC
Source: J. Chem. Thermodyn., 2013, 10.1016/j.jct.2012.06.001
Compound 1: 1,2-butanediol, C4H10O2, purity 99%
Compound 2: 1,2-dihydroxypropane, C3H8O2, purity 99%
Compound 3: 2-ethyl-1-hexanol, C8H18O, purity 99%
Compound 4: water, H2O

System: 2-ethyl-1-hexanol + 1,2-butanediol + water; phases: Liquid mixture 1, Liquid mixture 2
Property: Mass fraction of water (Liquid mixture 1); method: Chromatography
Property: Mass fraction of 1,2-butanediol (Liquid mixture 2); method: Chromatography
Property: Mass fraction of water (Liquid mixture 2); method: Chromatography
Temperature, K	Pressure, kPa	Mass fraction of 1,2-butanediol	Mass fraction of water	uncertainty	Mass fraction of 1,2-butanediol	uncertainty	Mass fraction of water	uncertainty
298.2	101	.1495	.8495	.0005	.0533	.0005	.0311	.0005
298.2	101	.1997	.7988	.0005	.0876	.0005	.0372	.0005
298.2	101	.2609	.7368	.0005	.1205	.0005	.039	.0005
298.2	101	.3263	.67	.0005	.2104	.0005	.0578	.0005
298.2	101	.3753	.6084	.0005	.2877	.0005	.0848	.0005

System: 1,2-dihydroxypropane + 2-ethyl-1-hexanol + water; phases: Liquid mixture 2, Liquid mixture 1
Property: Mass fraction of water (Liquid mixture 2); method: Chromatography
Property: Mass fraction of water (Liquid mixture 1); method: Chromatography
Property: Mass fraction of 1,2-dihydroxypropane (Liquid mixture 1); method: Chromatography
Temperature, K	Pressure, kPa	Mass fraction of 1,2-dihydroxypropane	Mass fraction of water	uncertainty	Mass fraction of water	uncertainty	Mass fraction of 1,2-dihydroxypropane	uncertainty
298.2	101	.0081	.0294	.0005	.7901	.0005	.199	.0005
298.2	101	.0143	.0305	.0005	.7328	.0005	.2565	.0005
298.2	101	.031	.0335	.0005	.6632	.0005	.3295	.0005
298.2	101	.0527	.0375	.0005	.5811	.0005	.413	.0005
298.2	101	.0775	.0416	.0005	.4852	.0005	.5106	.0005
