Measured thermophysical data. Solubility and thermodynamic function of a bioactive compound bergenin in various pharmaceutically acceptable neat solvents at different temperatures
Source: J. Chem. Thermodyn., 2016, 10.1016/j.jct.2016.05.003
Compound 1: Bergenin, C14H16O9, purity 95%
Compound 2: ethanol, C2H6O, purity 99%
Compound 3: ethylene glycol, C2H6O2, purity 99%
Compound 4: 2-(2-ethoxyethoxy)ethanol, C6H14O3, purity 99%
Compound 5: propylene glycol, C3H8O2, purity 99%
Compound 6: isopropanol, C3H8O, purity 99%
Compound 7: 1-butanol, C4H10O, purity 99%
Compound 8: 2-butanol, C4H10O, purity 99%
Compound 9: DMSO, C2H6OS, purity 99%
Compound 10: ethyl acetate, C4H8O2, purity 99%
Compound 11: water, H2O, purity 99.8%

System: Bergenin + water; phases: Liquid, Crystal
Fixed: Pressure, kPa = 100
Property: Mole fraction of Bergenin (Liquid); method: Chromatography
Temperature, K	Mole fraction of Bergenin	uncertainty
298.15	.0000757	
303.15	.0000993	
308.15	.000125	
313.15	.000155	
318.15	.000187	

System: ethanol + Bergenin; phases: Liquid, Crystal
Fixed: Pressure, kPa = 100
Property: Mole fraction of Bergenin (Liquid); method: Chromatography
Temperature, K	Mole fraction of Bergenin	uncertainty
298.15	.00469	
303.15	.00537	
308.15	.00612	
313.15	.00687	
318.15	.00777	

System: isopropanol + Bergenin; phases: Liquid, Crystal
Fixed: Pressure, kPa = 100
Property: Mole fraction of Bergenin (Liquid); method: Chromatography
Temperature, K	Mole fraction of Bergenin	uncertainty
298.15	.00129	
303.15	.00139	
308.15	.00149	
313.15	.00159	
318.15	.00169	

System: ethylene glycol + Bergenin; phases: Liquid, Crystal
Fixed: Pressure, kPa = 100
Property: Mole fraction of Bergenin (Liquid); method: Chromatography
Temperature, K	Mole fraction of Bergenin	uncertainty
298.15	.00774	
303.15	.00859	
308.15	.00944	
313.15	.0105	
318.15	.0117	

System: propylene glycol + Bergenin; phases: Liquid, Crystal
Fixed: Pressure, kPa = 100
Property: Mole fraction of Bergenin (Liquid); method: Chromatography
Temperature, K	Mole fraction of Bergenin	uncertainty
298.15	.00777	
303.15	.00873	
308.15	.00966	
313.15	.0108	
318.15	.0119	

System: 2-(2-ethoxyethoxy)ethanol + Bergenin; phases: Liquid, Crystal
Fixed: Pressure, kPa = 100
Property: Mole fraction of Bergenin (Liquid); method: Chromatography
Temperature, K	Mole fraction of Bergenin	uncertainty
298.15	.0145	
303.15	.0166	
308.15	.0186	
313.15	.0207	
318.15	.0228	

System: 1-butanol + Bergenin; phases: Liquid, Crystal
Fixed: Pressure, kPa = 100
Property: Mole fraction of Bergenin (Liquid); method: Chromatography
Temperature, K	Mole fraction of Bergenin	uncertainty
298.15	.000379	
303.15	.000404	
308.15	.000431	
313.15	.000458	
318.15	.000492	

System: 2-butanol + Bergenin; phases: Liquid, Crystal
Fixed: Pressure, kPa = 100
Property: Mole fraction of Bergenin (Liquid); method: Chromatography
Temperature, K	Mole fraction of Bergenin	uncertainty
298.15	.000384	
303.15	.00041	
308.15	.00044	
313.15	.000473	
318.15	.000514	

System: ethyl acetate + Bergenin; phases: Liquid, Crystal
Fixed: Pressure, kPa = 100
Property: Mole fraction of Bergenin (Liquid); method: Chromatography
Temperature, K	Mole fraction of Bergenin	uncertainty
298.15	.000228	
303.15	.000311	
308.15	.000405	
313.15	.000526	
318.15	.000671	

System: DMSO + Bergenin; phases: Liquid, Crystal
Fixed: Pressure, kPa = 100
Property: Mole fraction of Bergenin (Liquid); method: Chromatography
Temperature, K	Mole fraction of Bergenin	uncertainty
298.15	.0171	
303.15	.0184	
308.15	.02	
313.15	.0214	
318.15	.023	
