Measured thermophysical data. (Ternary liquid + liquid) equilibria for (water + acetone + alpha-pinene, or beta-pinene,  or limonene) mixtures
Source: J. Chem. Thermodyn., 2010, 10.1016/j.jct.2010.06.004
Compound 1: 2,6,6-trimethylbicyclo[3.1.1]hept-2-ene, C10H16, purity 99%
Compound 2: nopinen, C10H16, purity 99%
Compound 3: d-limonene, C10H16, purity 98%
Compound 4: water, H2O, purity 99.99%
Compound 5: propanone, C3H6O, purity 99.8%

System: propanone + 2,6,6-trimethylbicyclo[3.1.1]hept-2-ene + water; phases: Liquid mixture 1, Liquid mixture 2
Fixed: Pressure, kPa = 101
Property: Mole fraction of water (Liquid mixture 1); method: Chromatography
Property: Mole fraction of propanone (Liquid mixture 2); method: Chromatography
Property: Mole fraction of water (Liquid mixture 2); method: Chromatography
Temperature, K	Mole fraction of propanone	Mole fraction of water	uncertainty	Mole fraction of propanone	uncertainty	Mole fraction of water	uncertainty
288.15	0	1	.001	0	.001	0	.001
288.15	.1666	.8332	.001	.185	.001	.0079	.001
288.15	.2449	.7546	.001	.2614	.001	.0093	.001
288.15	.3471	.6502	.001	.3594	.001	.018	.001
288.15	.4058	.5885	.001	.4246	.001	.0264	.001
288.15	.5238	.4569	.001	.5016	.001	.0411	.001
288.15	.6291	.3042	.001	.5987	.001	.0873	.001
298.15	0	1	.001	0	.001	.004	.001
298.15	.0856	.9144	.001	.1095	.001	.0027	.001
298.15	.2646	.7345	.001	.3163	.001	.014	.001
298.15	.3631	.6329	.001	.4047	.001	.023	.001
298.15	.4648	.5224	.001	.5095	.001	.0472	.001
298.15	.6114	.3305	.001	.6233	.001	.1092	.001
308.15	0	1	.001	0	.001	.0053	.001
308.15	.133	.867	.001	.1996	.001	.009	.001
308.15	.2367	.7625	.001	.3431	.001	.0172	.001
308.15	.3682	.6261	.001	.4949	.001	.0494	.001
308.15	.4815	.5009	.001	.573	.001	.086	.001
308.15	.5469	.4099	.001	.6153	.001	.1373	.001

System: propanone + nopinen + water; phases: Liquid mixture 1, Liquid mixture 2
Fixed: Temperature, K = 298.15
Fixed: Pressure, kPa = 101
Property: Mole fraction of water (Liquid mixture 1); method: Chromatography
Property: Mole fraction of propanone (Liquid mixture 2); method: Chromatography
Property: Mole fraction of water (Liquid mixture 2); method: Chromatography
Mole fraction of propanone	Mole fraction of water	uncertainty	Mole fraction of propanone	uncertainty	Mole fraction of water	uncertainty
0	1	.001	0	.001	.0058	.001
.0924	.9067	.001	.148	.001	.0175	.001
.172	.8272	.001	.2587	.001	.0319	.001
.2796	.7187	.001	.453	.001	.0333	.001
.3411	.655	.001	.5108	.001	.0431	.001
.425	.5644	.001	.5945	.001	.0834	.001
.4947	.4822	.001	.6334	.001	.1371	.001
.5359	.428	.001	.6435	.001	.1732	.001

System: propanone + d-limonene + water; phases: Liquid mixture 1, Liquid mixture 2
Fixed: Temperature, K = 298.15
Fixed: Pressure, kPa = 101
Property: Mole fraction of water (Liquid mixture 1); method: Chromatography
Property: Mole fraction of propanone (Liquid mixture 2); method: Chromatography
Property: Mole fraction of water (Liquid mixture 2); method: Chromatography
Mole fraction of propanone	Mole fraction of water	uncertainty	Mole fraction of propanone	uncertainty	Mole fraction of water	uncertainty
0	1	.001	0	.001	.0052	.001
.0854	.9134	.001	.1536	.001	.0079	.001
.1401	.8594	.001	.266	.001	.0093	.001
.2272	.7722	.001	.4192	.001	.0268	.001
.2805	.7174	.001	.4984	.001	.0406	.001
.3454	.6502	.001	.5873	.001	.0732	.001
.4198	.5696	.001	.6432	.001	.1273	.001
.5091	.4614	.001	.6429	.001	.225	.001
