Measured thermophysical data. The partial molar heat capacity, expansion, isentropic, and isothermal compressions of thymidine in aqueous solution at T = 298.15 K
Source: J. Chem. Thermodyn., 2011, 10.1016/j.jct.2011.07.002
Compound 1: thymidine, C10H14N2O5, purity 99%
Compound 2: water, H2O, purity 99.9%

System: thymidine + water; phases: Liquid
Fixed: Pressure, kPa = 101
Property: Mass density, kg/m3 (Liquid); method: Vibrating tube method
Temperature, K	Molality, mol/kg of thymidine	Mass density, kg/m3	uncertainty
288.15	.13357	1009.068	.006
288.15	.12195	1008.22	.006
288.15	.10772	1007.175	.006
288.15	.0935	1006.13	.006
288.15	.08071	1005.179	.006
288.15	.06905	1004.304	.006
288.15	.05418	1003.199	.006
288.15	.04107	1002.216	.006
288.15	.02897	1001.3	.006
298.15	.09266	1003.858	.006
298.15	.08286	1003.148	.006
298.15	.0743	1002.527	.006
298.15	.06455	1001.815	.006
298.15	.05597	1001.19	.006
298.15	.04752	1000.565	.006
298.15	.04153	1000.127	.006
298.15	.03798	999.866	.006
298.15	.03005	999.279	.006
298.15	.02049	998.571	.006
303.15	.11985	1004.35	.006
303.15	.10772	1003.485	.006
303.15	.09431	1002.518	.006
303.15	.08175	1001.62	.006
303.15	.06905	1000.703	.006
303.15	.05795	999.898	.006
303.15	.04737	999.127	.006
303.15	.03767	998.422	.006
303.15	.02802	997.714	.006
313.15	.11985	1000.775	.006
313.15	.10786	999.926	.006
313.15	.09431	998.979	.006
313.15	.08175	998.094	.006
313.15	.0689	997.176	.006
313.15	.05795	996.397	.006
313.15	.04737	995.64	.006
313.15	.03767	994.944	.006

System: thymidine + water; phases: Liquid
Fixed: Pressure, kPa = 101
Fixed: Temperature, K = 298.15
Property: Speed of sound, m/s (Liquid); method: unknown
Molality, mol/kg of thymidine	Speed of sound, m/s	uncertainty
.09266	1503.094	.5
.08286	1502.43	.5
.0743	1501.851	.5
.06455	1501.184	.5
.05597	1500.604	.5
.04752	1500.022	.5
.04153	1499.605	.5
.03798	1499.359	.5
.03005	1498.809	.5
.02049	1498.141	.5

System: thymidine + water; phases: Liquid
Fixed: Pressure, kPa = 101
Fixed: Temperature, K = 298.15
Property: Molar heat capacity at constant pressure, J/K/mol (Liquid); method: Flow calorimetry
Molality, mol/kg of thymidine	Molar heat capacity at constant pressure, J/K/mol	uncertainty
.13357	455.5	1.7
.12195	453.8	2.4
.10784	453.3	2.2
.0935	452.9	2.4
.08071	452	2.7
.06918	452.8	2.9
.05418	447.6	3.7
.04107	449.7	3.2
.02897	450.9	4.2
