Measured thermophysical data. Vapour pressures, osmotic and activity coefficients for binary mixtures containing (1-ethylpyridinium ethylsulfate + several alcohols) at T = 323.15 K
Source: J. Chem. Thermodyn., 2010, 10.1016/j.jct.2009.12.001
Compound 1: 1-ethylpyridinium ethylsulfate, C9H15NO4S
Compound 2: propan-1-ol, C3H8O, purity 99.9%
Compound 3: 2-propanol, C3H8O, purity 99.8%
Compound 4: butan-1-ol, C4H10O, purity 99.9%
Compound 5: butan-2-ol, C4H10O, purity 99.5%
Compound 6: pentan-1-ol, C5H12O, purity 99%

System: propan-1-ol + 1-ethylpyridinium ethylsulfate; phases: Liquid, Gas
Fixed: Temperature, K = 323.15
Property: Osmotic coefficient (Liquid); method: Vapor Pressure Osmometer
Molality, mol/kg of 1-ethylpyridinium ethylsulfate	Osmotic coefficient	uncertainty
.0584	.853	.006
.073	.824	.006
.1074	.768	.006
.2108	.684	.006
.3057	.635	.006
.4128	.603	.006
.5105	.586	.006
.7918	.561	.006
1.1078	.547	.006
1.3475	.54	.006
1.6971	.528	.006
2.2174	.505	.006
2.7265	.487	.006
3.22	.474	.006

System: 2-propanol + 1-ethylpyridinium ethylsulfate; phases: Liquid, Gas
Fixed: Temperature, K = 323.15
Property: Osmotic coefficient (Liquid); method: Vapor Pressure Osmometer
Molality, mol/kg of 1-ethylpyridinium ethylsulfate	Osmotic coefficient	uncertainty
.0578	.948	.006
.1042	.871	.006
.2018	.772	.006
.3112	.695	.006
.3991	.664	.006
.5034	.607	.006
.6891	.564	.006
.9837	.533	.006
1.2869	.506	.006
1.6841	.49	.006
2.0749	.47	.006
2.5138	.449	.006
2.9154	.432	.006
3.3379	.417	.006

System: butan-1-ol + 1-ethylpyridinium ethylsulfate; phases: Liquid, Gas
Fixed: Temperature, K = 323.15
Property: Osmotic coefficient (Liquid); method: Vapor Pressure Osmometer
Molality, mol/kg of 1-ethylpyridinium ethylsulfate	Osmotic coefficient	uncertainty
.0564	.758	.006
.0836	.694	.006
.1146	.652	.006
.2084	.578	.006
.2995	.536	.006
.3996	.508	.006
.5015	.495	.006
.7046	.467	.006
.9934	.44	.006
1.2888	.429	.006
1.6879	.418	.006
2.0937	.402	.006
2.4934	.388	.006
2.8859	.38	.006
3.3014	.374	.006

System: butan-2-ol + 1-ethylpyridinium ethylsulfate; phases: Liquid, Gas
Fixed: Temperature, K = 323.15
Property: Osmotic coefficient (Liquid); method: Vapor Pressure Osmometer
Molality, mol/kg of 1-ethylpyridinium ethylsulfate	Osmotic coefficient	uncertainty
.0597	.82	.006
.0791	.784	.006
.1061	.759	.006
.1993	.665	.006
.313	.575	.006
.4056	.515	.006
.5166	.482	.006
.7016	.452	.006
1.0061	.429	.006
1.291	.421	.006
1.7296	.406	.006
2.1039	.392	.006
2.5118	.383	.006
2.915	.378	.006
3.2942	.374	.006

System: pentan-1-ol + 1-ethylpyridinium ethylsulfate; phases: Liquid, Gas
Fixed: Temperature, K = 323.15
Property: Osmotic coefficient (Liquid); method: Vapor Pressure Osmometer
Molality, mol/kg of 1-ethylpyridinium ethylsulfate	Osmotic coefficient	uncertainty
.0539	.761	.006
.0802	.679	.006
.1082	.605	.006
.2024	.521	.006
.3151	.465	.006
.4053	.435	.006
.511	.416	.006
.7996	.376	.006
1.1045	.359	.006
1.4143	.355	.006
1.7187	.347	.006
2.2301	.335	.006
2.724	.332	.006
3.2058	.33	.006
