Measured thermophysical data. Excess molar enthalpies of ethane-1,2-diamine plus primary and secondary alkanols (C1-C4) and correlation with Redlich-Kister, Wilson, NRTL and UNIQUAC models at T = 298 K
Source: J. Chem. Thermodyn., 2017, 10.1016/j.jct.2016.12.036
Compound 1: 1,2-ethanediamine, C2H8N2, purity 99.5%
Compound 2: methanol, CH4O, purity 99.5%
Compound 3: ethanol, C2H6O, purity 99.8%
Compound 4: propan-1-ol, C3H8O, purity 99.8%
Compound 5: propan-2-ol, C3H8O, purity 99.5%
Compound 6: butan-1-ol, C4H10O, purity 99.8%
Compound 7: butan-2-ol, C4H10O, purity 99%

System: 1,2-ethanediamine; phases: Liquid
Property: Viscosity, Pa*s (Liquid); method: Capillary tube (Ostwald; Ubbelohde) method
Temperature, K	Pressure, kPa	Viscosity, Pa*s	uncertainty
298.15	81.5	.001385	

System: 1,2-ethanediamine; phases: Liquid
Property: Mass density, kg/m3 (Liquid); method: Vibrating tube method
Temperature, K	Pressure, kPa	Mass density, kg/m3	uncertainty
298.15	81.5	892.8	

System: 1,2-ethanediamine; phases: Liquid
Property: Refractive index (Na D-line) (Liquid); method: Standard Abbe refractometry
Temperature, K	Pressure, kPa	Refractive index (Na D-line)	uncertainty
298.15	81.5	1.4537	

System: methanol; phases: Liquid
Property: Viscosity, Pa*s (Liquid); method: Capillary tube (Ostwald; Ubbelohde) method
Temperature, K	Pressure, kPa	Viscosity, Pa*s	uncertainty
298.15	81.5	.000573	

System: methanol; phases: Liquid
Property: Mass density, kg/m3 (Liquid); method: Vibrating tube method
Temperature, K	Pressure, kPa	Mass density, kg/m3	uncertainty
298.15	81.5	786.7	

System: methanol; phases: Liquid
Property: Refractive index (Na D-line) (Liquid); method: Standard Abbe refractometry
Temperature, K	Pressure, kPa	Refractive index (Na D-line)	uncertainty
298.15	81.5	1.3263	

System: ethanol; phases: Liquid
Property: Viscosity, Pa*s (Liquid); method: Capillary tube (Ostwald; Ubbelohde) method
Temperature, K	Pressure, kPa	Viscosity, Pa*s	uncertainty
298.15	81.5	.001093	

System: ethanol; phases: Liquid
Property: Mass density, kg/m3 (Liquid); method: Vibrating tube method
Temperature, K	Pressure, kPa	Mass density, kg/m3	uncertainty
298.15	81.5	785.2	

System: ethanol; phases: Liquid
Property: Refractive index (Na D-line) (Liquid); method: Standard Abbe refractometry
Temperature, K	Pressure, kPa	Refractive index (Na D-line)	uncertainty
298.15	81.5	1.3588	

System: propan-1-ol; phases: Liquid
Property: Viscosity, Pa*s (Liquid); method: Capillary tube (Ostwald; Ubbelohde) method
Temperature, K	Pressure, kPa	Viscosity, Pa*s	uncertainty
298.15	81.5	.001943	

System: propan-1-ol; phases: Liquid
Property: Mass density, kg/m3 (Liquid); method: Vibrating tube method
Temperature, K	Pressure, kPa	Mass density, kg/m3	uncertainty
298.15	81.5	799.5	

System: propan-1-ol; phases: Liquid
Property: Refractive index (Na D-line) (Liquid); method: Standard Abbe refractometry
Temperature, K	Pressure, kPa	Refractive index (Na D-line)	uncertainty
298.15	81.5	1.3825	

System: propan-2-ol; phases: Liquid
Property: Viscosity, Pa*s (Liquid); method: Capillary tube (Ostwald; Ubbelohde) method
Temperature, K	Pressure, kPa	Viscosity, Pa*s	uncertainty
298.15	81.5	.002067	

System: propan-2-ol; phases: Liquid
Property: Mass density, kg/m3 (Liquid); method: Vibrating tube method
Temperature, K	Pressure, kPa	Mass density, kg/m3	uncertainty
298.15	81.5	781	

System: propan-2-ol; phases: Liquid
Property: Refractive index (Na D-line) (Liquid); method: Standard Abbe refractometry
Temperature, K	Pressure, kPa	Refractive index (Na D-line)	uncertainty
298.15	81.5	1.3745	

System: butan-1-ol; phases: Liquid
Property: Viscosity, Pa*s (Liquid); method: Capillary tube (Ostwald; Ubbelohde) method
Temperature, K	Pressure, kPa	Viscosity, Pa*s	uncertainty
298.15	81.5	.002572	

System: butan-1-ol; phases: Liquid
Property: Mass density, kg/m3 (Liquid); method: Vibrating tube method
Temperature, K	Pressure, kPa	Mass density, kg/m3	uncertainty
298.15	81.5	806	

System: butan-1-ol; phases: Liquid
Property: Refractive index (Na D-line) (Liquid); method: Standard Abbe refractometry
Temperature, K	Pressure, kPa	Refractive index (Na D-line)	uncertainty
298.15	81.5	1.3967	

System: butan-2-ol; phases: Liquid
Property: Viscosity, Pa*s (Liquid); method: Capillary tube (Ostwald; Ubbelohde) method
Temperature, K	Pressure, kPa	Viscosity, Pa*s	uncertainty
298.15	81.5	.00305	

System: butan-2-ol; phases: Liquid
Property: Mass density, kg/m3 (Liquid); method: Vibrating tube method
Temperature, K	Pressure, kPa	Mass density, kg/m3	uncertainty
298.15	81.5	802.5	

System: butan-2-ol; phases: Liquid
Property: Refractive index (Na D-line) (Liquid); method: Standard Abbe refractometry
Temperature, K	Pressure, kPa	Refractive index (Na D-line)	uncertainty
298.15	81.5	1.3945	

System: methanol + 1,2-ethanediamine; phases: Liquid
Fixed: Temperature, K = 298
Fixed: Pressure, kPa = 81.5
Property: Excess molar enthalpy (molar enthalpy of mixing), kJ/mol (Liquid); method: Isoperibol calorimetry
Mole fraction of 1,2-ethanediamine	Excess molar enthalpy (molar enthalpy of mixing), kJ/mol	uncertainty
.0995	-2.0328	
.1972	-3.4784	
.295	-4.2317	
.3909	-4.3948	
.4934	-4.0819	
.5948	-3.4912	
.6953	-2.7419	
.7971	-1.8796	
.8994	-.9433	

System: ethanol + 1,2-ethanediamine; phases: Liquid
Fixed: Temperature, K = 298
Fixed: Pressure, kPa = 81.5
Property: Excess molar enthalpy (molar enthalpy of mixing), kJ/mol (Liquid); method: Isoperibol calorimetry
Mole fraction of 1,2-ethanediamine	Excess molar enthalpy (molar enthalpy of mixing), kJ/mol	uncertainty
.1003	-1.4807	
.201	-2.509	
.301	-3.0119	
.4042	-3.0734	
.4958	-2.877	
.5987	-2.444	
.7006	-1.8897	
.8007	-1.2743	
.8987	-.6421	

System: propan-1-ol + 1,2-ethanediamine; phases: Liquid
Fixed: Temperature, K = 298
Fixed: Pressure, kPa = 81.5
Property: Excess molar enthalpy (molar enthalpy of mixing), kJ/mol (Liquid); method: Isoperibol calorimetry
Mole fraction of 1,2-ethanediamine	Excess molar enthalpy (molar enthalpy of mixing), kJ/mol	uncertainty
.1	-1.2839	
.199	-2.2118	
.3043	-2.7205	
.4066	-2.7617	
.5106	-2.4859	
.5944	-2.1206	
.697	-1.6193	
.7983	-1.0627	
.8996	-.5073	

System: propan-2-ol + 1,2-ethanediamine; phases: Liquid
Fixed: Temperature, K = 298
Fixed: Pressure, kPa = 81.5
Property: Excess molar enthalpy (molar enthalpy of mixing), kJ/mol (Liquid); method: Isoperibol calorimetry
Mole fraction of 1,2-ethanediamine	Excess molar enthalpy (molar enthalpy of mixing), kJ/mol	uncertainty
.1001	-.876	
.2	-1.5584	
.3007	-1.9323	
.4033	-1.9985	
.5073	-1.8215	
.5963	-1.5191	
.6988	-1.1516	
.7998	-.7475	
.8998	-.3533	

System: butan-1-ol + 1,2-ethanediamine; phases: Liquid
Fixed: Temperature, K = 298
Fixed: Pressure, kPa = 81.5
Property: Excess molar enthalpy (molar enthalpy of mixing), kJ/mol (Liquid); method: Isoperibol calorimetry
Mole fraction of 1,2-ethanediamine	Excess molar enthalpy (molar enthalpy of mixing), kJ/mol	uncertainty
.1003	-1.1504	
.2002	-2.035	
.3011	-2.4862	
.4024	-2.5117	
.5053	-2.2382	
.6097	-1.7928	
.6983	-1.3062	
.8	-.8037	
.8999	-.3567	

System: butan-2-ol + 1,2-ethanediamine; phases: Liquid
Fixed: Temperature, K = 298
Fixed: Pressure, kPa = 81.5
Property: Excess molar enthalpy (molar enthalpy of mixing), kJ/mol (Liquid); method: Isoperibol calorimetry
Mole fraction of 1,2-ethanediamine	Excess molar enthalpy (molar enthalpy of mixing), kJ/mol	uncertainty
.0999	-.8527	
.1999	-1.5444	
.3009	-1.9287	
.4025	-1.9797	
.5055	-1.7735	
.6098	-1.414	
.6982	-.993	
.7999	-.5986	
.9	-.2516	
