Measured thermophysical data. Solubility of disodium 4,4'-dinitrostilbene-2,2'-disulfonate and sodium 4-nitrotoluene-2-sulfonate in aqueous organic solutions and its application feasibility in oxidation stage of DSD acid synthesis
Source: J. Chem. Thermodyn., 2014, 10.1016/j.jct.2013.11.007
Compound 1: sodium 6,6'-(ethene-1,2-diyl)bis(3-nitrobenzenesulfonate), C14H8N2Na2O10S2
Compound 2: sodium 2-methyl-5-nitrobenzenesulfonate, C7H6NNaO5S
Compound 3: ethylene glycol, monoethyl ether, C4H10O2, purity 99.96%
Compound 4: ethylene glycol, monobutyl ether, C6H14O2, purity 99.93%
Compound 5: water, H2O

System: ethylene glycol, monoethyl ether + sodium 6,6'-(ethene-1,2-diyl)bis(3-nitrobenzenesulfonate) + water; phases: Liquid, Crystal
Fixed: Pressure, kPa = 100
Property: Solid-liquid equilibrium temperature, K (Liquid); method: laser monitoring technique
Solvent: Mass fraction of ethylene glycol, monoethyl ether	Mole fraction of sodium 6,6'-(ethene-1,2-diyl)bis(3-nitrobenzenesulfonate)	Solid-liquid equilibrium temperature, K	uncertainty
0	.001299	284.85	.3
0	.001696	290.35	.3
0	.001973	293.05	.3
0	.002278	296.45	.3
0	.003023	301.45	.3
0	.00353	304.55	.3
0	.003937	307.75	.3
0	.004336	309.85	.3
0	.004984	312.05	.3
0	.005951	316.25	.3
0	.006744	319.25	.3
0	.00756	321.95	.3
.1998	.001615	287.35	.3
.1998	.001849	291.15	.3
.1998	.002399	294.95	.3
.1998	.003008	299.45	.3
.1998	.003637	303.35	.3
.1998	.004506	307.65	.3
.1998	.005424	311.45	.3
.1998	.006434	315.25	.3
.1998	.007581	318.95	.3
.1998	.00908	323.05	.3
.1998	.01047	326.35	.3
.1998	.01237	331.15	.3
.4	.001555	279.55	.3
.4	.001794	284.25	.3
.4	.002367	288.95	.3
.4	.003162	293.75	.3
.4	.003566	296.95	.3
.4	.004446	301.15	.3
.4	.005351	305.25	.3
.4	.00644	310.45	.3
.4	.007363	314.15	.3
.4	.008631	318.15	.3
.4	.01221	324.95	.3
.4	.01374	329.95	.3
.6001	.002198	285.65	.3
.6001	.002717	290.85	.3
.6001	.003365	295.75	.3
.6001	.004287	301.55	.3
.6001	.005205	307.15	.3
.6001	.005912	314.25	.3
.6001	.006614	318.25	.3
.6001	.007518	321.75	.3
.6001	.008465	327.65	.3
.6001	.009694	332.05	.3
.8002	.001956	280.55	.3
.8002	.002259	284.55	.3
.8002	.002662	288.35	.3
.8002	.002722	288.85	.3
.8002	.003183	293.35	.3
.8002	.003564	297.75	.3
.8002	.004104	303.55	.3
.8002	.004629	309.85	.3
.8002	.005028	314.05	.3
.8002	.005477	317.95	.3
.8002	.006083	323.15	.3
.8002	.007006	328.55	.3

System: ethylene glycol, monoethyl ether + sodium 2-methyl-5-nitrobenzenesulfonate + water; phases: Liquid, Crystal
Fixed: Pressure, kPa = 100
Property: Solid-liquid equilibrium temperature, K (Liquid); method: laser monitoring technique
Solvent: Mass fraction of ethylene glycol, monoethyl ether	Mole fraction of sodium 2-methyl-5-nitrobenzenesulfonate	Solid-liquid equilibrium temperature, K	uncertainty
0	.006137	290.15	.3
0	.007009	294.35	.3
0	.007852	298.25	.3
0	.008808	302.45	.3
0	.0104	306.15	.3
0	.01222	310.85	.3
0	.01415	317	.3
0	.01863	327.15	.3
0	.02035	331.45	.3
.1998	.003104	278.35	.3
.1998	.004204	282.45	.3
.1998	.005498	287.55	.3
.1998	.0067	291.6	.3
.1998	.007984	295.55	.3
.1998	.009472	299.65	.3
.1998	.01082	304.25	.3
.1998	.01206	307.7	.3
.1998	.01228	308.05	.3
.1998	.01417	312.45	.3
.1998	.01583	317.15	.3
.1998	.0175	321.35	.3
.1998	.01913	325.15	.3
.4	.005141	280.35	.3
.4	.006482	284.55	.3
.4	.00807	289.35	.3
.4	.009582	293.65	.3
.4	.01139	297.95	.3
.4	.01292	301.65	.3
.4	.01487	306.15	.3
.4	.01688	310.55	.3
.4	.01904	314.85	.3
.4	.0215	319.15	.3
.4	.02372	323.65	.3
.4	.02662	328.65	.3
.6001	.009527	284.25	.3
.6001	.01372	293.35	.3
.6001	.01596	299.55	.3
.6001	.01761	304.35	.3
.6001	.01921	308.25	.3
.6001	.02101	311.95	.3
.6001	.02303	316.4	.3
.6001	.02524	320.55	.3
.6001	.02772	325.45	.3
.6001	.02985	329.5	.3
.6001	.03178	333.35	.3
.8002	.01117	279.95	.3
.8002	.01248	286.85	.3
.8002	.01426	294.4	.3
.8002	.01567	299.65	.3
.8002	.01737	306.15	.3
.8002	.01771	306.75	.3
.8002	.01906	310.25	.3
.8002	.01978	310.75	.3
.8002	.02185	319.55	.3
.8002	.02347	322.95	.3
.8002	.01426	295.4	.3

System: ethylene glycol, monobutyl ether + sodium 6,6'-(ethene-1,2-diyl)bis(3-nitrobenzenesulfonate) + water; phases: Liquid, Crystal
Fixed: Pressure, kPa = 100
Property: Solid-liquid equilibrium temperature, K (Liquid); method: laser monitoring technique
Solvent: Mass fraction of ethylene glycol, monobutyl ether	Mole fraction of sodium 6,6'-(ethene-1,2-diyl)bis(3-nitrobenzenesulfonate)	Solid-liquid equilibrium temperature, K	uncertainty
.2	.00006495	280.2	.3
.2	.0001419	284.35	.3
.2	.0002297	288.15	.3
.2	.0002409	292.55	.3
.2	.0004163	297.75	.3
.2	.0008137	301.95	.3
.2	.001231	306.35	.3
.2	.001699	311.55	.3
.2	.002209	316.55	.3
.2	.002812	320.15	.3
.2	.003479	324.85	.3
.2	.004526	328.55	.3
.4002	.0005125	281.75	.3
.4002	.00122	286.65	.3
.4002	.001926	291.72	.3
.4002	.002568	295.55	.3
.4002	.003618	300.1	.3
.4002	.00355	300.55	.3
.4002	.004197	304.75	.3
.4002	.004849	308.75	.3
.4002	.005639	312.45	.3
.4002	.006474	316.05	.3
.4002	.007818	319.85	.3
.4002	.00876	323.95	.3
.4002	.009752	327.65	.3
.4002	.01089	331.65	.3
.5999	.00102	282.35	.3
.5999	.001489	286.05	.3
.5999	.002073	290.1	.3
.5999	.002775	293.95	.3
.5999	.003613	297.95	.3
.5999	.00464	302.05	.3
.5999	.005803	306.05	.3
.5999	.007141	310.4	.3
.5999	.008611	315.65	.3
.5999	.01022	321.55	.3
.5999	.01112	325.05	.3
.5999	.01223	329.3	.3
.5999	.01251	330.4	.3
.8	.001616	283.35	.3
.8	.002398	287.75	.3
.8	.003221	294.75	.3
.8	.003574	298.25	.3
.8	.004167	304.15	.3
.8	.004713	309.15	.3
.8	.0056	314.55	.3
.8	.006485	320.75	.3
.8	.00744	325.25	.3
.8	.008602	332.15	.3

System: ethylene glycol, monobutyl ether + sodium 2-methyl-5-nitrobenzenesulfonate + water; phases: Liquid, Crystal
Fixed: Pressure, kPa = 100
Property: Solid-liquid equilibrium temperature, K (Liquid); method: laser monitoring technique
Solvent: Mass fraction of ethylene glycol, monobutyl ether	Mole fraction of sodium 2-methyl-5-nitrobenzenesulfonate	Solid-liquid equilibrium temperature, K	uncertainty
.2	.004618	284.05	.3
.2	.005867	287.95	.3
.2	.007352	291.85	.3
.2	.009258	296.35	.3
.2	.01196	301.55	.3
.2	.01417	305.95	.3
.2	.01696	311.45	.3
.2	.01963	317.15	.3
.2	.02231	324.65	.3
.2	.02462	329.15	.3
.4002	.009268	280.25	.3
.4002	.01137	285.75	.3
.4002	.01299	290.7	.3
.4002	.01466	295.15	.3
.4002	.01675	299.95	.3
.4002	.01903	305.65	.3
.4002	.02156	312.45	.3
.4002	.02393	318.75	.3
.4002	.02609	323.45	.3
.4002	.02842	328.95	.3
.4002	.03034	332.45	.3
.5999	.01133	280.15	.3
.5999	.01377	287.25	.3
.5999	.0157	292.45	.3
.5999	.01781	297.05	.3
.5999	.02009	302.65	.3
.5999	.02236	309.65	.3
.5999	.02435	314.85	.3
.5999	.0264	320.15	.3
.5999	.02843	325.3	.3
.5999	.03059	330.25	.3
.8	.01199	289.85	.3
.8	.01284	292.65	.3
.8	.01422	296.35	.3
.8	.01602	303.3	.3
.8	.0173	309	.3
.8	.01825	311.95	.3
.8	.01984	316.95	.3
.8	.02166	323.1	.3
.8	.02301	329.2	.3
.8	.02463	334.9	.3

System: sodium 6,6'-(ethene-1,2-diyl)bis(3-nitrobenzenesulfonate) + water; phases: Liquid, Crystal
Property: Solid-liquid equilibrium temperature, K (Liquid); method: laser monitoring technique
Mole fraction of sodium 6,6'-(ethene-1,2-diyl)bis(3-nitrobenzenesulfonate)	Pressure, kPa	Solid-liquid equilibrium temperature, K	uncertainty
.001299	100	284.85	.3
.001696	100	290.35	.3
.001973	100	293.05	.3
.002278	100	296.45	.3
.003023	100	301.45	.3
.00353	100	304.55	.3
.003937	100	307.75	.3
.004336	100	309.85	.3
.004984	100	312.05	.3
.005951	100	316.25	.3
.006744	100	319.25	.3
.00756	100	321.95	.3

System: sodium 2-methyl-5-nitrobenzenesulfonate + water; phases: Liquid, Crystal
Property: Solid-liquid equilibrium temperature, K (Liquid); method: laser monitoring technique
Mole fraction of sodium 2-methyl-5-nitrobenzenesulfonate	Pressure, kPa	Solid-liquid equilibrium temperature, K	uncertainty
.006137	100	290.15	.3
.007009	100	294.35	.3
.007852	100	298.25	.3
.008808	100	302.45	.3
.0104	100	306.15	.3
.01222	100	310.85	.3
.01415	100	317	.3
.01863	100	327.15	.3
.02035	100	331.45	.3
