Measured thermophysical data. Excess molar enthalpies of binary mixtures containing 2-decanone or dipentyl ether with long-chain n-alkanes at T = 298.15 K
Source: J. Chem. Thermodyn., 2011, 10.1016/j.jct.2010.11.004
Compound 1: 2-decanone, C10H20O, purity 99%
Compound 2: dipentyl ether, C10H22O, purity 99%
Compound 3: dodecane, C12H26, purity 99%
Compound 4: tetradecane, C14H30, purity 99%
Compound 5: cetane, C16H34, purity 99%

System: 2-decanone; phases: Liquid
Fixed: Pressure, kPa = 101.325
Property: Mass density, kg/m3 (Liquid); method: Vibrating tube method
Temperature, K	Mass density, kg/m3	uncertainty
298.15	820.63	.05

System: dipentyl ether; phases: Liquid
Fixed: Pressure, kPa = 101.325
Property: Mass density, kg/m3 (Liquid); method: Vibrating tube method
Temperature, K	Mass density, kg/m3	uncertainty
298.15	779.1	.05

System: dodecane; phases: Liquid
Fixed: Pressure, kPa = 101.325
Property: Mass density, kg/m3 (Liquid); method: Vibrating tube method
Temperature, K	Mass density, kg/m3	uncertainty
298.15	745.28	.05

System: tetradecane; phases: Liquid
Fixed: Pressure, kPa = 101.325
Property: Mass density, kg/m3 (Liquid); method: Vibrating tube method
Temperature, K	Mass density, kg/m3	uncertainty
298.15	760.2	.05

System: cetane; phases: Liquid
Fixed: Pressure, kPa = 101.325
Property: Mass density, kg/m3 (Liquid); method: Vibrating tube method
Temperature, K	Mass density, kg/m3	uncertainty
298.15	770.31	.05

System: dodecane + 2-decanone; phases: Liquid
Fixed: Pressure, kPa = 101
Fixed: Temperature, K = 298.15
Property: Excess molar enthalpy (molar enthalpy of mixing), kJ/mol (Liquid); method: ISOTHERMAL TITRATION CALORIMETRY
Mole fraction of 2-decanone	Excess molar enthalpy (molar enthalpy of mixing), kJ/mol	uncertainty
.0258	.133	.000665
.0503	.247	.001235
.0736	.344	.00172
.0958	.427	.002135
.1169	.499	.002495
.1371	.56	.0028
.1612	.629	.003145
.1841	.685	.003425
.2057	.733	.003665
.2262	.773	.003865
.2456	.807	.004035
.2641	.835	.004175
.2847	.862	.00431
.3042	.884	.00442
.3226	.904	.00452
.3401	.918	.00459
.3567	.93	.00465
.3725	.938	.00469
.3897	.945	.004725
.406	.949	.004745
.4215	.952	.00476
.4362	.952	.00476
.4501	.951	.004755
.4634	.949	.004745
.4782	.946	.00473
.4923	.941	.004705
.5055	.936	.00468
.5182	.929	.004645
.5302	.922	.00461
.5416	.914	.00457
.5543	.905	.004525
.5663	.895	.004475
.5777	.884	.00442
.5885	.873	.004365
.5987	.863	.004315
.6049	.854	.00427
.6179	.84	.0042
.6311	.825	.004125
.6448	.806	.00403
.6592	.787	.003935
.6742	.766	.00383
.6899	.744	.00372
.704	.722	.00361
.7187	.699	.003495
.7341	.673	.003365
.7501	.644	.00322
.7668	.611	.003055
.7843	.575	.002875
.8	.543	.002715
.8163	.508	.00254
.8334	.467	.002335
.8511	.428	.00214
.8696	.384	.00192
.889	.334	.00167
.9057	.287	.001435
.9231	.239	.001195
.9412	.185	.000925
.96	.129	.000645
.9796	.066	.00033

System: tetradecane + 2-decanone; phases: Liquid
Fixed: Pressure, kPa = 101
Fixed: Temperature, K = 298.15
Property: Excess molar enthalpy (molar enthalpy of mixing), kJ/mol (Liquid); method: ISOTHERMAL TITRATION CALORIMETRY
Mole fraction of 2-decanone	Excess molar enthalpy (molar enthalpy of mixing), kJ/mol	uncertainty
.0282	.151	.000755
.0549	.278	.00139
.0805	.385	.001925
.1041	.475	.002375
.1268	.553	.002765
.1484	.62	.0031
.1741	.691	.003455
.1983	.752	.00376
.2212	.803	.004015
.2427	.846	.00423
.2632	.882	.00441
.2825	.911	.004555
.6408	.896	.00448
.6504	.883	.004415
.6594	.87	.00435
.668	.857	.004285
.6762	.844	.00422
.684	.831	.004155
.7031	.79	.00395
.7191	.763	.003815
.7334	.737	.003685
.3044	.941	.004705
.325	.964	.00482
.3444	.983	.004915
.3628	.997	.004985
.3801	1.008	.00504
.3965	1.017	.005085
.4145	1.023	.005115
.4313	1.027	.005135
.4472	1.029	.005145
.4623	1.028	.00514
.4765	1.026	.00513
.4901	1.023	.005115
.7483	.709	.003545
.7638	.678	.00339
.7799	.644	.00322
.7968	.606	.00303
.8144	.565	.002825
.8298	.527	.002635
.8458	.486	.00243
.8624	.442	.00221
.8797	.393	.001965
.5029	1.019	.005095
.5151	1.014	.00507
.5292	1.007	.005035
.5425	.998	.00499
.555	.989	.004945
.5669	.979	.004895
.5782	.969	.004845
.5889	.958	.00479
.5991	.948	.00474
.6088	.937	.004685
.6201	.924	.00462
.6308	.91	.00455
.8977	.341	.001705
.9133	.293	.001465
.9294	.242	.00121
.9461	.189	.000945
.9634	.13	.00065
.9814	.067	.000335

System: cetane + 2-decanone; phases: Liquid
Fixed: Pressure, kPa = 101
Fixed: Temperature, K = 298.15
Property: Excess molar enthalpy (molar enthalpy of mixing), kJ/mol (Liquid); method: ISOTHERMAL TITRATION CALORIMETRY
Mole fraction of 2-decanone	Excess molar enthalpy (molar enthalpy of mixing), kJ/mol	uncertainty
.0372	.201	.001005
.0716	.364	.00182
.1038	.497	.002485
.1337	.607	.003035
.1617	.698	.00349
.188	.773	.003865
.2169	.849	.004245
.2437	.909	.004545
.2688	.959	.004795
.2923	.999	.004995
.3143	1.031	.005155
.335	1.057	.005285
.3574	1.081	.005405
.3784	1.099	.005495
.3981	1.112	.00556
.4166	1.121	.005605
.434	1.128	.00564
.4503	1.131	.005655
.4686	1.131	.005655
.4857	1.13	.00565
.5017	1.126	.00563
.5168	1.12	.0056
.531	1.113	.005565
.5443	1.105	.005525
.559	1.094	.00547
.5728	1.083	.005415
.5858	1.071	.005355
.598	1.058	.00529
.6095	1.045	.005225
.6204	1.032	.00516
.6324	1.017	.005085
.6436	1.002	.00501
.6542	.986	.00493
.6641	.97	.00485
.6735	.954	.00477
.6824	.939	.004695
.6964	.906	.00453
.7102	.88	.0044
.7245	.854	.00427
.7393	.826	.00413
.7521	.8	.004
.7655	.77	.00385
.7793	.738	.00369
.7936	.703	.003515
.8084	.665	.003325
.8238	.623	.003115
.8372	.586	.00293
.8511	.546	.00273
.8654	.501	.002505
.8802	.455	.002275
.8955	.404	.00202
.9114	.35	.00175
.9251	.302	.00151
.9391	.25	.00125
.9537	.193	.000965
.9686	.133	.000665
.9841	.068	.00034

System: dodecane + dipentyl ether; phases: Liquid
Fixed: Pressure, kPa = 101
Fixed: Temperature, K = 298.15
Property: Excess molar enthalpy (molar enthalpy of mixing), kJ/mol (Liquid); method: ISOTHERMAL TITRATION CALORIMETRY
Mole fraction of dipentyl ether	Excess molar enthalpy (molar enthalpy of mixing), kJ/mol	uncertainty
.0242	.019	.000095
.0473	.037	.000185
.0693	.051	.000255
.0903	.065	.000325
.1104	.077	.000385
.1296	.088	.00044
.148	.098	.00049
.1657	.107	.000535
.1869	.117	.000585
.2071	.126	.00063
.2262	.134	.00067
.2445	.141	.000705
.2619	.147	.000735
.2786	.152	.00076
.2989	.158	.00079
.3181	.163	.000815
.3363	.167	.000835
.3535	.171	.000855
.3699	.174	.00087
.3855	.177	.000885
.4003	.178	.00089
.4144	.179	.000895
.431	.181	.000905
.4466	.181	.000905
.4614	.182	.00091
.4754	.182	.00091
.4887	.182	.00091
.5014	.181	.000905
.5129	.181	.000905
.5241	.181	.000905
.5358	.18	.0009
.5481	.18	.0009
.5609	.179	.000895
.5743	.178	.00089
.5884	.177	.000885
.6031	.175	.000875
.6161	.173	.000865
.6297	.171	.000855
.644	.168	.00084
.6589	.166	.00083
.6745	.162	.00081
.6908	.158	.00079
.7056	.153	.000765
.721	.148	.00074
.7371	.143	.000715
.7539	.137	.000685
.7715	.131	.000655
.79	.123	.000615
.8057	.117	.000585
.8221	.109	.000545
.8391	.101	.000505
.8569	.092	.00046
.8754	.082	.00041
.8947	.07	.00035
.9107	.061	.000305
.9273	.051	.000255
.9445	.04	.0002
.9623	.027	.000135
.9808	.014	.00007

System: tetradecane + dipentyl ether; phases: Liquid
Fixed: Pressure, kPa = 101
Fixed: Temperature, K = 298.15
Property: Excess molar enthalpy (molar enthalpy of mixing), kJ/mol (Liquid); method: ISOTHERMAL TITRATION CALORIMETRY
Mole fraction of dipentyl ether	Excess molar enthalpy (molar enthalpy of mixing), kJ/mol	uncertainty
.0299	.029	.000145
.0581	.054	.00027
.0847	.076	.00038
.1099	.095	.000475
.1337	.111	.000555
.1562	.127	.000635
.1776	.14	.0007
.198	.151	.000755
.22	.164	.00082
.2447	.174	.00087
.266	.184	.00092
.5962	.223	.001115
.6092	.221	.001105
.6228	.218	.00109
.6369	.214	.00107
.6502	.212	.00106
.664	.208	.00104
.6784	.204	.00102
.6934	.199	.000995
.7092	.194	.00097
.7256	.188	.00094
.7398	.182	.00091
.7546	.176	.00088
.7699	.169	.000845
.7859	.16	.0008
.2862	.192	.00096
.3054	.198	.00099
.3235	.203	.001015
.3407	.208	.00104
.357	.212	.00106
.3761	.217	.001085
.394	.22	.0011
.411	.222	.00111
.427	.224	.00112
.4422	.225	.001125
.4566	.226	.00113
.8026	.151	.000755
.8199	.141	.000705
.8353	.131	.000655
.8513	.121	.000605
.8679	.11	.00055
.8852	.098	.00049
.9032	.085	.000425
.918	.074	.00037
.9333	.061	.000305
.9491	.047	.000235
.9655	.032	.00016
.9824	.017	.000085
.4702	.227	.001135
.4832	.227	.001135
.4927	.227	.001135
.5031	.228	.00114
.5139	.228	.00114
.5253	.229	.001145
.5371	.228	.00114
.5494	.228	.00114
.5604	.227	.001135
.5718	.226	.00113
.5838	.224	.00112

System: cetane + dipentyl ether; phases: Liquid
Fixed: Pressure, kPa = 101
Fixed: Temperature, K = 298.15
Property: Excess molar enthalpy (molar enthalpy of mixing), kJ/mol (Liquid); method: ISOTHERMAL TITRATION CALORIMETRY
Mole fraction of dipentyl ether	Excess molar enthalpy (molar enthalpy of mixing), kJ/mol	uncertainty
.0349	.037	.000185
.0674	.069	.000345
.0979	.096	.00048
.1264	.12	.0006
.1531	.14	.0007
.1783	.158	.00079
.2066	.177	.000885
.233	.193	.000965
.2577	.207	.001035
.2809	.219	.001095
.3027	.228	.00114
.5087	.269	.001345
.5158	.27	.00135
.5271	.27	.00135
.5389	.269	.001345
.5491	.269	.001345
.5598	.268	.00134
.5706	.267	.001335
.5823	.265	.001325
.5943	.263	.001315
.6067	.261	.001305
.6197	.258	.00129
.7648	.194	.00097
.7795	.185	.000925
.7984	.174	.00087
.8182	.163	.000815
.8315	.152	.00076
.8512	.139	.000695
.8718	.126	.00063
.8935	.111	.000555
.9162	.095	.000475
.9292	.082	.00041
.9425	.068	.00034
.3231	.236	.00118
.3459	.244	.00122
.3673	.25	.00125
.3873	.256	.00128
.4061	.26	.0013
.4238	.263	.001315
.4405	.265	.001325
.4593	.267	.001335
.4768	.268	.00134
.4933	.269	.001345
.6333	.254	.00127
.645	.251	.001255
.6527	.247	.001235
.6699	.242	.00121
.6831	.237	.001185
.6968	.231	.001155
.7111	.224	.00112
.7238	.217	.001085
.737	.211	.001055
.7506	.203	.001015
.9563	.052	.00026
.9704	.036	.00018
.985	.019	.000095
