Measured thermophysical data. Measurement of high pressure densities and atmospheric pressure viscosities of alkyl phosphate anion ionic liquids and correlation with the epsilon*-modified Sanchez-Lacombe equation of state
Source: J. Chem. Thermodyn., 2017, 10.1016/j.jct.2016.09.013
Compound 1: 1-ethyl-3-methylimidazolium dimethylphosphate, C8H17N2O4P, purity 98.0%
Compound 2: 1-butyl-3-methylimidazolium dimethylphosphate, C10H21N2O4P, purity 98.0%

System: 1-ethyl-3-methylimidazolium dimethylphosphate; phases: Liquid
Fixed: Pressure, kPa = 101.325
Property: Mass density, kg/m3 (Liquid); method: Vibrating tube method
Temperature, K	Mass density, kg/m3	uncertainty
303.15	1214.4	
313.15	1207.6	
323.15	1200.9	
333.15	1194.3	
343.15	1187.6	
353.15	1181.1	
363.15	1174.5	
373.15	1168.1	

System: 1-ethyl-3-methylimidazolium dimethylphosphate; phases: Liquid
Fixed: Pressure, kPa = 101.325
Property: Viscosity, Pa*s (Liquid); method: Concentric cylinders viscometry
Temperature, K	Viscosity, Pa*s	uncertainty
303.15	.186	
313.15	.1075	
323.15	.0671	
333.15	.04464	
343.15	.03127	
353.15	.02285	
363.15	.01729	
373.15	.01347	

System: 1-ethyl-3-methylimidazolium dimethylphosphate; phases: Liquid
Property: Mass density, kg/m3 (Liquid); method: Bellows volumetry
Temperature, K	Pressure, kPa	Mass density, kg/m3	uncertainty
312	10000	1212.6	
312	20000	1216.9	
312	30000	1221	
312	40000	1224.9	
312	50000	1228.8	
312	60000	1232.5	
331.7	10000	1199.7	
331.7	20000	1204.1	
331.7	30000	1208.5	
331.7	40000	1212.6	
331.7	50000	1216.6	
331.7	60000	1220.4	
331.7	70000	1224.1	
331.7	80000	1227.8	
331.7	90000	1231.3	
331.7	100000	1234.7	
331.7	110000	1238.1	
331.7	120000	1241.3	
331.7	130000	1244.5	
331.7	140000	1247.6	
331.7	150000	1250.8	
331.7	160000	1253.7	
331.7	170000	1256.7	
331.7	180000	1259.5	
331.7	190000	1262.3	
331.7	200000	1265.2	
351.7	10000	1186.8	
351.7	20000	1191.5	
351.7	30000	1196	
351.7	40000	1200.3	
351.7	50000	1204.5	
351.7	60000	1208.5	
351.7	70000	1212.4	
351.7	80000	1216.2	
351.7	90000	1219.8	
351.7	100000	1223.3	
351.7	110000	1226.9	
351.7	120000	1230.4	
351.7	130000	1233.6	
351.7	140000	1236.9	
351.7	150000	1240	
351.7	160000	1243.2	
351.7	170000	1246.2	
351.7	180000	1249.1	
351.7	190000	1252	
351.7	200000	1255	
372.4	10000	1174.1	
372.4	20000	1179	
372.4	30000	1182.8	
372.4	40000	1188.3	
372.4	50000	1192.6	
372.4	60000	1196.9	
372.4	70000	1200.9	
372.4	80000	1204.9	
372.4	90000	1208.7	
372.4	100000	1212.4	
372.4	110000	1216	
372.4	120000	1219.5	
372.4	130000	1223	
372.4	140000	1226.3	
372.4	150000	1229.6	
372.4	160000	1232.8	
372.4	170000	1235.9	
372.4	180000	1238.9	
372.4	190000	1242	
372.4	200000	1244.9	
391.9	10000	1161.7	
391.9	20000	1166.8	
391.9	30000	1171.8	
391.9	40000	1176.6	
391.9	50000	1181.2	
391.9	60000	1185.6	
391.9	70000	1189.9	
391.9	80000	1194	
391.9	90000	1198	
391.9	100000	1201.8	
391.9	110000	1205.6	
391.9	120000	1209.1	
391.9	130000	1212.7	
391.9	140000	1216.1	
391.9	150000	1219.5	
391.9	160000	1222.8	
391.9	170000	1226	
391.9	180000	1229.1	
391.9	190000	1232.2	
391.9	200000	1235.3	

System: 1-butyl-3-methylimidazolium dimethylphosphate; phases: Liquid
Fixed: Pressure, kPa = 101.325
Property: Mass density, kg/m3 (Liquid); method: Vibrating tube method
Temperature, K	Mass density, kg/m3	uncertainty
293.15	1167.3	
303.15	1160.2	
313.15	1153.4	
323.15	1146.8	
333.15	1140.3	
343.15	1133.7	
353.15	1127.2	
363.15	1120.7	
373.15	1114.2	

System: 1-butyl-3-methylimidazolium dimethylphosphate; phases: Liquid
Fixed: Pressure, kPa = 101.325
Property: Viscosity, Pa*s (Liquid); method: Concentric cylinders viscometry
Temperature, K	Viscosity, Pa*s	uncertainty
293.15	.7604	
303.15	.3693	
313.15	.1988	
323.15	.1164	
333.15	.07297	
343.15	.04845	
353.15	.03376	
363.15	.02448	
373.15	.01837	

System: 1-butyl-3-methylimidazolium dimethylphosphate; phases: Liquid
Property: Mass density, kg/m3 (Liquid); method: Bellows volumetry
Temperature, K	Pressure, kPa	Mass density, kg/m3	uncertainty
311.4	10000	1159.3	
311.4	20000	1163.7	
311.4	30000	1168.1	
311.4	40000	1172.2	
311.4	50000	1176.4	
311.4	60000	1180.3	
311.4	70000	1183.9	
311.4	80000	1187.7	
311.4	90000	1191.3	
311.4	100000	1194.7	
311.4	110000	1198.1	
311.4	120000	1201.4	
311.4	130000	1204.7	
311.4	140000	1207.7	
311.4	150000	1210.8	
311.4	160000	1213.7	
311.4	170000	1216.7	
311.4	180000	1219.6	
311.4	190000	1222.5	
311.4	200000	1225.3	
331.3	10000	1146.1	
331.3	20000	1150.8	
331.3	30000	1155.4	
331.3	40000	1159.8	
331.3	50000	1164.2	
331.3	60000	1168.3	
331.3	70000	1172.1	
331.3	80000	1176	
331.3	90000	1179.6	
331.3	100000	1183.1	
331.3	110000	1186.6	
331.3	120000	1190.1	
331.3	130000	1193.4	
331.3	140000	1196.6	
331.3	150000	1199.8	
331.3	160000	1202.9	
331.3	170000	1205.9	
331.3	180000	1208.9	
331.3	190000	1212.6	
331.3	200000	1214.8	
351.6	10000	1133.7	
351.6	20000	1138.4	
351.6	30000	1143.3	
351.6	40000	1147.9	
351.6	50000	1152.4	
351.6	60000	1156.7	
351.6	70000	1160.9	
351.6	80000	1164.9	
351.6	90000	1168.6	
351.6	100000	1172.3	
351.6	110000	1175.9	
351.6	120000	1179.7	
351.6	130000	1183.1	
351.6	140000	1186.4	
351.6	150000	1189.6	
351.6	160000	1192.8	
351.6	170000	1196.1	
351.6	180000	1199.1	
351.6	190000	1202.1	
351.6	200000	1205.1	
371.6	10000	1120.8	
371.6	20000	1126.1	
371.6	30000	1131.3	
371.6	40000	1136.2	
371.6	50000	1140.9	
371.6	60000	1145.4	
371.6	70000	1149.7	
371.6	80000	1153.9	
371.6	90000	1157.9	
371.6	100000	1161.8	
371.6	110000	1165.7	
371.6	120000	1169.4	
371.6	130000	1173.1	
371.6	140000	1176.4	
371.6	150000	1179.7	
371.6	160000	1183	
371.6	170000	1186.3	
371.6	180000	1189.4	
371.6	190000	1192.5	
371.6	200000	1195.6	
