Measured thermophysical data. Thermodynamic models for determination of 3-chloro-N-phenylphthalimide solubility in binary solvent mixtures of (acetone, ethyl acetate or 1,4-dioxane + methanol)
Source: J. Chem. Thermodyn., 2016, 10.1016/j.jct.2016.04.007
Compound 1: 3-chloro-N-phenylphthalimide, C14H8ClNO2, purity 97.7%
Compound 2: methanol, CH4O, purity 99.3%
Compound 3: ethyl acetate, C4H8O2, purity 99.5%
Compound 4: acetone, C3H6O, purity 99.4%
Compound 5: 1,4-dioxane, C4H8O2, purity 99.5%

System: methanol + acetone + 3-chloro-N-phenylphthalimide; phases: Liquid, Crystal
Fixed: Pressure, kPa = 101.3
Property: Mole fraction of 3-chloro-N-phenylphthalimide (Liquid); method: Chromatography
Temperature, K	Solvent: Mass fraction of acetone	Mole fraction of 3-chloro-N-phenylphthalimide	uncertainty
288.15	.101	.0002331	
290.65	.101	.0002655	
293.15	.101	.0002987	
295.65	.101	.0003338	
298.15	.101	.0003715	
300.65	.101	.0004095	
303.15	.101	.0004445	
305.65	.101	.0004865	
308.15	.101	.0005299	
310.65	.101	.0005813	
313.15	.101	.0006449	
315.65	.101	.000711	
318.15	.101	.0007869	
320.65	.101	.0008559	
323.15	.101	.0009385	
288.15	.1996	.0003997	
290.65	.1996	.0004429	
293.15	.1996	.000488	
295.65	.1996	.0005352	
298.15	.1996	.0005845	
300.65	.1996	.0006339	
303.15	.1996	.0006778	
305.65	.1996	.0007318	
308.15	.1996	.0007949	
310.65	.1996	.0008637	
313.15	.1996	.0009554	
315.65	.1996	.001053	
318.15	.1996	.001163	
320.65	.1996	.00128	
323.15	.1996	.00142	
288.15	.3018	.0005587	
290.65	.3018	.0006361	
293.15	.3018	.0007139	
295.65	.3018	.0007933	
298.15	.3018	.0008776	
300.65	.3018	.0009675	
303.15	.3018	.001052	
305.65	.3018	.001136	
308.15	.3018	.001232	
310.65	.3018	.001342	
313.15	.3018	.001462	
315.65	.3018	.001591	
318.15	.3018	.001731	
320.65	.3018	.001886	
323.15	.3018	.002078	
288.15	.4042	.0008208	
290.65	.4042	.0009121	
293.15	.4042	.001004	
295.65	.4042	.001108	
298.15	.4042	.00124	
300.65	.4042	.001373	
303.15	.4042	.001508	
305.65	.4042	.001636	
308.15	.4042	.001776	
310.65	.4042	.00192	
313.15	.4042	.002101	
315.65	.4042	.002268	
318.15	.4042	.002468	
320.65	.4042	.002688	
323.15	.4042	.002975	
288.15	.5025	.001274	
290.65	.5025	.001402	
293.15	.5025	.00153	
295.65	.5025	.001652	
298.15	.5025	.001799	
300.65	.5025	.001949	
303.15	.5025	.002099	
305.65	.5025	.002266	
308.15	.5025	.002439	
310.65	.5025	.002617	
313.15	.5025	.002818	
315.65	.5025	.003028	
318.15	.5025	.003251	
320.65	.5025	.003571	
323.15	.5025	.003977	
288.15	.6017	.001627	
290.65	.6017	.001787	
293.15	.6017	.001941	
295.65	.6017	.002119	
298.15	.6017	.002323	
300.65	.6017	.002489	
303.15	.6017	.002661	
305.65	.6017	.002853	
308.15	.6017	.00311	
310.65	.6017	.003375	
313.15	.6017	.003639	
315.65	.6017	.004	
318.15	.6017	.004334	
320.65	.6017	.004718	
323.15	.6017	.0052	
288.15	.7019	.001992	
290.65	.7019	.002192	
293.15	.7019	.002372	
295.65	.7019	.002588	
298.15	.7019	.002807	
300.65	.7019	.003017	
303.15	.7019	.003225	
305.65	.7019	.003477	
308.15	.7019	.003749	
310.65	.7019	.004018	
313.15	.7019	.004341	
315.65	.7019	.004649	
318.15	.7019	.005007	
320.65	.7019	.00542	
323.15	.7019	.005944	
288.15	.8019	.00236	
290.65	.8019	.002579	
293.15	.8019	.002822	
295.65	.8019	.00306	
298.15	.8019	.003318	
300.65	.8019	.003574	
303.15	.8019	.003828	
305.65	.8019	.004074	
308.15	.8019	.004353	
310.65	.8019	.004612	
313.15	.8019	.004979	
315.65	.8019	.005391	
318.15	.8019	.005816	
320.65	.8019	.006278	
323.15	.8019	.006779	
288.15	.9009	.00257	
290.65	.9009	.002874	
293.15	.9009	.003159	
295.65	.9009	.003493	
298.15	.9009	.003818	
300.65	.9009	.004172	
303.15	.9009	.004505	
305.65	.9009	.004826	
308.15	.9009	.005173	
310.65	.9009	.005548	
313.15	.9009	.005916	
315.65	.9009	.006416	
318.15	.9009	.006898	
320.65	.9009	.007469	
323.15	.9009	.008197	

System: methanol + ethyl acetate + 3-chloro-N-phenylphthalimide; phases: Liquid, Crystal
Fixed: Pressure, kPa = 101.3
Property: Mole fraction of 3-chloro-N-phenylphthalimide (Liquid); method: Chromatography
Temperature, K	Solvent: Mass fraction of ethyl acetate	Mole fraction of 3-chloro-N-phenylphthalimide	uncertainty
288.15	.102	.0002167	
290.65	.102	.0002438	
293.15	.102	.0002713	
295.65	.102	.0003036	
298.15	.102	.0003398	
300.65	.102	.00038	
303.15	.102	.0004274	
305.65	.102	.0004799	
308.15	.102	.0005414	
310.65	.102	.0005999	
313.15	.102	.0006757	
315.65	.102	.0007473	
318.15	.102	.0008363	
320.65	.102	.000922	
323.15	.102	.001046	
288.15	.2011	.0003168	
290.65	.2011	.0003701	
293.15	.2011	.0004338	
295.65	.2011	.0004953	
298.15	.2011	.0005625	
300.65	.2011	.0006268	
303.15	.2011	.0007034	
305.65	.2011	.0007724	
308.15	.2011	.0008578	
310.65	.2011	.0009334	
313.15	.2011	.001036	
315.65	.2011	.001136	
318.15	.2011	.001251	
320.65	.2011	.001378	
323.15	.2011	.001514	
288.15	.3	.0005102	
290.65	.3	.0005845	
293.15	.3	.0006759	
295.65	.3	.0007509	
298.15	.3	.0008322	
300.65	.3	.0009164	
303.15	.3	.0009973	
305.65	.3	.001084	
308.15	.3	.00118	
310.65	.3	.001289	
313.15	.3	.001397	
315.65	.3	.001494	
318.15	.3	.001605	
320.65	.3	.001716	
323.15	.3	.001866	
288.15	.3981	.0006381	
290.65	.3981	.0007348	
293.15	.3981	.0008383	
295.65	.3981	.0009418	
298.15	.3981	.001046	
300.65	.3981	.00115	
303.15	.3981	.001254	
305.65	.3981	.00138	
308.15	.3981	.001528	
310.65	.3981	.00166	
313.15	.3981	.0018	
315.65	.3981	.00195	
318.15	.3981	.002102	
320.65	.3981	.002253	
323.15	.3981	.00243	
288.15	.4994	.001043	
290.65	.4994	.001165	
293.15	.4994	.001288	
295.65	.4994	.001428	
298.15	.4994	.001584	
300.65	.4994	.001728	
303.15	.4994	.001897	
305.65	.4994	.002063	
308.15	.4994	.002253	
310.65	.4994	.002423	
313.15	.4994	.002624	
315.65	.4994	.002834	
318.15	.4994	.003074	
320.65	.4994	.003326	
323.15	.4994	.003636	
288.15	.5987	.001405	
290.65	.5987	.001583	
293.15	.5987	.001762	
295.65	.5987	.001959	
298.15	.5987	.002122	
300.65	.5987	.002302	
303.15	.5987	.002526	
305.65	.5987	.002705	
308.15	.5987	.002935	
310.65	.5987	.003129	
313.15	.5987	.003351	
315.65	.5987	.003595	
318.15	.5987	.003863	
320.65	.5987	.004109	
323.15	.5987	.004442	
288.15	.6997	.001795	
290.65	.6997	.002029	
293.15	.6997	.00231	
295.65	.6997	.002544	
298.15	.6997	.002836	
300.65	.6997	.003114	
303.15	.6997	.003378	
305.65	.6997	.003657	
308.15	.6997	.00392	
310.65	.6997	.004197	
313.15	.6997	.004478	
315.65	.6997	.004827	
318.15	.6997	.005143	
320.65	.6997	.005523	
323.15	.6997	.006072	
288.15	.7991	.002467	
290.65	.7991	.002735	
293.15	.7991	.002998	
295.65	.7991	.003235	
298.15	.7991	.003527	
300.65	.7991	.003834	
303.15	.7991	.004132	
305.65	.7991	.004465	
308.15	.7991	.004815	
310.65	.7991	.005202	
313.15	.7991	.005609	
315.65	.7991	.006034	
318.15	.7991	.006564	
320.65	.7991	.007197	
323.15	.7991	.007931	
288.15	.8998	.002638	
290.65	.8998	.002931	
293.15	.8998	.003247	
295.65	.8998	.003578	
298.15	.8998	.00391	
300.65	.8998	.004258	
303.15	.8998	.004616	
305.65	.8998	.005005	
308.15	.8998	.005409	
310.65	.8998	.005781	
313.15	.8998	.006135	
315.65	.8998	.00657	
318.15	.8998	.006987	
320.65	.8998	.007626	
323.15	.8998	.008432	

System: methanol + 1,4-dioxane + 3-chloro-N-phenylphthalimide; phases: Liquid, Crystal
Fixed: Pressure, kPa = 101.3
Property: Mole fraction of 3-chloro-N-phenylphthalimide (Liquid); method: Chromatography
Temperature, K	Solvent: Mass fraction of 1,4-dioxane	Mole fraction of 3-chloro-N-phenylphthalimide	uncertainty
288.15	.0998	.000306	
290.65	.0998	.0003253	
293.15	.0998	.0003529	
295.65	.0998	.000385	
298.15	.0998	.0004188	
300.65	.0998	.00047	
303.15	.0998	.0005309	
305.65	.0998	.000615	
308.15	.0998	.0006984	
310.65	.0998	.0008049	
313.15	.0998	.000915	
315.65	.0998	.001026	
318.15	.0998	.001121	
320.65	.0998	.001236	
323.15	.0998	.001341	
288.15	.1996	.0005798	
290.65	.1996	.000606	
293.15	.1996	.0006323	
295.65	.1996	.0006685	
298.15	.1996	.0007249	
300.65	.1996	.0007974	
303.15	.1996	.0008872	
305.65	.1996	.000987	
308.15	.1996	.001106	
310.65	.1996	.001243	
313.15	.1996	.00143	
315.65	.1996	.001593	
318.15	.1996	.001748	
320.65	.1996	.001911	
323.15	.1996	.0021	
288.15	.2999	.0008311	
290.65	.2999	.0009473	
293.15	.2999	.00107	
295.65	.2999	.001167	
298.15	.2999	.001291	
300.65	.2999	.001439	
303.15	.2999	.001594	
305.65	.2999	.001739	
308.15	.2999	.001929	
310.65	.2999	.002111	
313.15	.2999	.00231	
315.65	.2999	.002489	
318.15	.2999	.002706	
320.65	.2999	.002933	
323.15	.2999	.00317	
288.15	.4004	.001344	
290.65	.4004	.001491	
293.15	.4004	.001618	
295.65	.4004	.001753	
298.15	.4004	.001902	
300.65	.4004	.002076	
303.15	.4004	.002272	
305.65	.4004	.002467	
308.15	.4004	.002688	
310.65	.4004	.002886	
313.15	.4004	.003155	
315.65	.4004	.003436	
318.15	.4004	.003778	
320.65	.4004	.00409	
323.15	.4004	.004487	
288.15	.4998	.00183	
290.65	.4998	.001952	
293.15	.4998	.002162	
295.65	.4998	.00235	
298.15	.4998	.002626	
300.65	.4998	.00291	
303.15	.4998	.003217	
305.65	.4998	.003582	
308.15	.4998	.003864	
310.65	.4998	.004116	
313.15	.4998	.004515	
315.65	.4998	.004878	
318.15	.4998	.005308	
320.65	.4998	.005841	
323.15	.4998	.006517	
288.15	.6002	.002275	
290.65	.6002	.00253	
293.15	.6002	.002738	
295.65	.6002	.003	
298.15	.6002	.003238	
300.65	.6002	.003516	
303.15	.6002	.003802	
305.65	.6002	.004171	
308.15	.6002	.004493	
310.65	.6002	.004889	
313.15	.6002	.005323	
315.65	.6002	.005843	
318.15	.6002	.006468	
320.65	.6002	.007288	
323.15	.6002	.008105	
288.15	.7004	.005134	
290.65	.7004	.005341	
293.15	.7004	.005602	
295.65	.7004	.005987	
298.15	.7004	.006374	
300.65	.7004	.006755	
303.15	.7004	.007172	
305.65	.7004	.007737	
308.15	.7004	.008428	
310.65	.7004	.009106	
313.15	.7004	.01	
315.65	.7004	.01097	
318.15	.7004	.01203	
320.65	.7004	.01334	
323.15	.7004	.01463	
288.15	.7988	.005869	
290.65	.7988	.006427	
293.15	.7988	.007005	
295.65	.7988	.007567	
298.15	.7988	.008299	
300.65	.7988	.008916	
303.15	.7988	.009663	
305.65	.7988	.01036	
308.15	.7988	.01115	
310.65	.7988	.01197	
313.15	.7988	.01296	
315.65	.7988	.01403	
318.15	.7988	.01518	
320.65	.7988	.01655	
323.15	.7988	.01805	
288.15	.8996	.007469	
290.65	.8996	.008186	
293.15	.8996	.008778	
295.65	.8996	.009437	
298.15	.8996	.01009	
300.65	.8996	.01087	
303.15	.8996	.01181	
305.65	.8996	.01281	
308.15	.8996	.0136	
310.65	.8996	.01469	
313.15	.8996	.0159	
315.65	.8996	.017	
318.15	.8996	.01821	
320.65	.8996	.01975	
323.15	.8996	.02148	
