Measured thermophysical data. Thermodynamics of fuels with a bio-synthetic component (IV): (Vapor + liquid)  equilibrium data for the ternary mixture (ethyl 1,1-dimethylethyl ether  + 1-hexene + toluene) at T = 313.15 K
Source: J. Chem. Thermodyn., 2009, 10.1016/j.jct.2008.09.020
Compound 1: tert-butyl ethyl ether, C6H14O
Compound 2: 1-hexene, C6H12
Compound 3: toluene, C7H8

System: tert-butyl ethyl ether; phases: Liquid, Gas
Property: Vapor or sublimation pressure, kPa (Liquid); method: Ebulliometric method (Recirculating still)
Temperature, K	Vapor or sublimation pressure, kPa	uncertainty
313.15	31.634	.005
313.15	31.639	.005

System: 1-hexene; phases: Liquid, Gas
Property: Vapor or sublimation pressure, kPa (Liquid); method: Ebulliometric method (Recirculating still)
Temperature, K	Vapor or sublimation pressure, kPa	uncertainty
313.15	44.959	.005
313.15	44.944	.005

System: toluene; phases: Liquid, Gas
Property: Vapor or sublimation pressure, kPa (Liquid); method: Ebulliometric method (Recirculating still)
Temperature, K	Vapor or sublimation pressure, kPa	uncertainty
313.15	7.869	.005
313.15	7.872	.005

System: toluene + 1-hexene + tert-butyl ethyl ether; phases: Liquid, Gas
Fixed: Temperature, K = 313.15
Property: Vapor or sublimation pressure, kPa (Liquid); method: Ebulliometric method (Recirculating still)
Mole fraction of tert-butyl ethyl ether	Mole fraction of 1-hexene	Vapor or sublimation pressure, kPa	uncertainty
1	0	31.634	.005
.6978	.3022	36.001	.005
.68	.2945	35.314	.005
.6625	.2869	34.644	.005
.6277	.2718	33.332	.005
.5928	.2567	32.022	.005
.5574	.2414	30.697	.005
.5223	.2262	29.397	.005
.4873	.211	28.104	.005
.4521	.1958	26.795	.005
.4175	.1808	25.493	.005
.3824	.1656	24.189	.005
.3475	.1505	22.869	.005
0	1	44.959	.005
.2996	.7004	41.249	.005
.292	.6824	40.448	.005
.2845	.6649	39.674	.005
.2698	.6307	38.167	.005
.2543	.5944	36.584	.005
.2394	.5595	35.07	.005
.2247	.5251	33.576	.005
.2096	.4899	32.048	.005
.1944	.4545	30.518	.005
.1794	.4195	29.01	.005
.1643	.384	27.468	.005
.1492	.3487	25.92	.005
0	0	7.869	.005
.2994	0	15.721	.005
.2909	.0283	16.736	.005
.2821	.058	17.78	.005
.2695	.1	19.194	.005
.2538	.1524	20.916	.005
.2392	.2011	22.478	.005
.2248	.2495	23.982	.005
.2096	.3	25.506	.005
.1948	.3496	26.958	.005
.1797	.4002	28.432	.005
.167	.4425	29.63	.005
.1608	.4632	30.211	.005
1	0	31.639	.005
.6991	0	24.875	.005
.6787	.0292	25.529	.005
.6597	.0563	26.145	.005
.6281	.1017	27.154	.005
.5932	.1516	28.242	.005
.5586	.2011	29.303	.005
.5247	.2495	30.329	.005
.489	.3006	31.398	.005
.4541	.3506	32.422	.005
.4191	.4006	33.435	.005
.3847	.4499	34.418	.005
.3495	.5002	35.406	.005
0	1	44.944	.005
0	.6591	33.42	.005
.0284	.6404	33.397	.005
.0584	.6206	33.354	.005
.1103	.5864	33.282	.005
.1648	.5505	33.197	.005
.2183	.5153	33.11	.005
.2708	.4807	33.023	.005
.3227	.4466	32.931	.005
.3746	.4123	32.826	.005
.4259	.3785	32.751	.005
.4762	.3454	32.661	.005
.5264	.3124	32.566	.005
0	0	7.872	.005
0	.3051	21.248	.005
.026	.2971	21.509	.005
.0515	.2894	21.758	.005
.1005	.2744	22.248	.005
.1501	.2593	22.751	.005
.2005	.244	23.262	.005
.2489	.2292	23.747	.005
.2968	.2146	24.231	.005
.348	.199	24.755	.005
.3989	.1835	25.265	.005
.4489	.1683	25.778	.005
.498	.1533	26.278	.005

System: 1-hexene + tert-butyl ethyl ether; phases: Liquid, Gas
Property: Vapor or sublimation pressure, kPa (Liquid); method: Ebulliometric method (Recirculating still)
Mole fraction of tert-butyl ethyl ether	Temperature, K	Vapor or sublimation pressure, kPa	uncertainty
.6978	313.15	36.001	.005
.2996	313.15	41.249	.005

System: toluene + tert-butyl ethyl ether; phases: Liquid, Gas
Property: Vapor or sublimation pressure, kPa (Liquid); method: Ebulliometric method (Recirculating still)
Mole fraction of tert-butyl ethyl ether	Temperature, K	Vapor or sublimation pressure, kPa	uncertainty
.2994	313.15	15.721	.005
.6991	313.15	24.875	.005

System: toluene + 1-hexene; phases: Liquid, Gas
Property: Vapor or sublimation pressure, kPa (Liquid); method: Ebulliometric method (Recirculating still)
Mole fraction of 1-hexene	Temperature, K	Vapor or sublimation pressure, kPa	uncertainty
.6591	313.15	33.42	.005
.3051	313.15	21.248	.005
