Measured thermophysical data. Standard enthalpy, entropy and Gibbs free energy of formation of "B" type carbonate fluorapatites
Source: J. Chem. Thermodyn., 2015, 10.1016/j.jct.2015.03.008
Compound 1: sodium fluoride, FNa, purity 98.5%
Compound 2: calcium phosphate, Ca3O8P2, purity 97%
Compound 3: disodium phosphate dihydrate, H5Na2O6P, purity 98%
Compound 4: phosphoric acid, H3O4P
Compound 5: water, H2O

System: phosphoric acid + sodium fluoride + water; phases: Liquid
Fixed: Temperature, K = 298.15
Fixed: Pressure, kPa = 100
Property: Molar enthalpy of solution, kJ/mol (Liquid); method: Isoperibol calorimetry
Solvent: Mass fraction of phosphoric acid	Mole fraction of sodium fluoride	Molar enthalpy of solution, kJ/mol	uncertainty
.2622	0	11.38	.14

System: phosphoric acid + water + calcium phosphate; phases: Liquid
Fixed: Temperature, K = 298.15
Fixed: Pressure, kPa = 100
Property: Molar enthalpy of solution, kJ/mol (Liquid); method: Isoperibol calorimetry
Solvent: Mass fraction of phosphoric acid	Mole fraction of calcium phosphate	Molar enthalpy of solution, kJ/mol	uncertainty
.2622	0	-118.85	1.16

System: phosphoric acid + water + disodium phosphate dihydrate; phases: Liquid
Fixed: Temperature, K = 298.15
Fixed: Pressure, kPa = 100
Property: Molar enthalpy of solution, kJ/mol (Liquid); method: Isoperibol calorimetry
Solvent: Mass fraction of phosphoric acid	Mole fraction of disodium phosphate dihydrate	Molar enthalpy of solution, kJ/mol	uncertainty
.2622	0	-6.29	.37
