Measured thermophysical data. Thermodynamics and activity coefficients at infinite dilution measurements  for organic solutes and water in the ionic liquid 1-butyl-1-methylpyrrolidinium  tetracyanoborate
Source: J. Chem. Thermodyn., 2011, 10.1016/j.jct.2011.06.007
Compound 1: 1-butyl-1-methylpyrrolidinium tetracyanoborate, C13H20BN5, purity 99%
Compound 2: pentane, C5H12, purity 99%
Compound 3: n-hexane, C6H14, purity 99%
Compound 4: 3-methylpentane, C6H14, purity 99%
Compound 5: butane, 2,2-dimethyl-, C6H14, purity 99%
Compound 6: heptane, C7H16, purity 99%
Compound 7: n-octane, C8H18, purity 99%
Compound 8: isooctane, C8H18, purity 99%
Compound 9: nonane, C9H20, purity 99%
Compound 10: n-decane, C10H22, purity 99%
Compound 11: cyclopentane, C5H10, purity 99%
Compound 12: cyclohexane, C6H12, purity 99%
Compound 13: cyclohexane, methyl-, C7H14, purity 99%
Compound 14: cycloheptane, C7H14, purity 99%
Compound 15: cyclooctane, C8H16, purity 99%
Compound 16: pentene, C5H10, purity 99%
Compound 17: 1-hexene, C6H12, purity 99%
Compound 18: 1-octene, C8H16, purity 99%
Compound 19: 1-decene, C10H20, purity 99%
Compound 20: butylacetylene, C6H10, purity 99%
Compound 21: 1-heptyne, C7H12, purity 99%
Compound 22: 1-octyne, C8H14, purity 99%
Compound 23: benzene, C6H6, purity 99%
Compound 24: toluene, C7H8, purity 99%
Compound 25: ethylbenzene, C8H10, purity 99%
Compound 26: 1,2-dimethylbenzene, C8H10, purity 99%
Compound 27: 1,3-xylene, C8H10, purity 99%
Compound 28: 1,4-xylene, C8H10, purity 99%
Compound 29: methanol, CH4O, purity 99%
Compound 30: ethanol, C2H6O, purity 99%
Compound 31: propyl alcohol, C3H8O, purity 99%
Compound 32: n-butyl alcohol, C4H10O, purity 99%
Compound 33: water, H2O, purity 99%
Compound 34: thiophene, C4H4S, purity 99%
Compound 35: oxacyclopentane, C4H8O, purity 99%
Compound 36: methyl tert-butyl ether, C5H12O, purity 99%
Compound 37: tert-amyl methyl ether, C6H14O, purity 99%
Compound 38: ethyl ether, C4H10O, purity 99%
Compound 39: ether, dipropyl, C6H14O, purity 99%
Compound 40: isopropyl ether, C6H14O, purity 99%
Compound 41: butyl oxide, C8H18O, purity 99%
Compound 42: acetone, C3H6O, purity 99%
Compound 43: methyl n-propyl ketone, C5H10O, purity 99%
Compound 44: 3-pentanone, C5H10O, purity 99%

System: 1-butyl-1-methylpyrrolidinium tetracyanoborate; phases: Liquid
Fixed: Pressure, kPa = 101.325
Property: Mass density, kg/m3 (Liquid); method: Vibrating tube method
Temperature, K	Mass density, kg/m3	uncertainty
318.15	962.29	.05
328.15	955.61	.05
338.15	949	.05
348.15	942.32	.05
358.15	935.59	.05
368.15	928.86	.05

System: pentane + 1-butyl-1-methylpyrrolidinium tetracyanoborate; phases: Liquid
Fixed: Pressure, kPa = 101
Fixed: Mole fraction of pentane = 0
Property: Activity coefficient of pentane (Liquid); method: Chromatography
Temperature, K	Activity coefficient of pentane	uncertainty
318.15	6.35	.1905
328.15	5.26	.1578
338.15	4.37	.1311
348.15	3.57	.1071
358.15	3.08	.0924
368.15	2.66	.0798

System: n-hexane + 1-butyl-1-methylpyrrolidinium tetracyanoborate; phases: Liquid
Fixed: Pressure, kPa = 101
Fixed: Mole fraction of n-hexane = 0
Property: Activity coefficient of n-hexane (Liquid); method: Chromatography
Temperature, K	Activity coefficient of n-hexane	uncertainty
318.15	13.8	.414
328.15	10.6	.318
338.15	8.47	.2541
348.15	6.65	.1995
358.15	5.51	.1653
368.15	4.56	.1368

System: 3-methylpentane + 1-butyl-1-methylpyrrolidinium tetracyanoborate; phases: Liquid
Fixed: Pressure, kPa = 101
Fixed: Mole fraction of 3-methylpentane = 0
Property: Activity coefficient of 3-methylpentane (Liquid); method: Chromatography
Temperature, K	Activity coefficient of 3-methylpentane	uncertainty
318.15	12.5	.375
328.15	9.88	.2964
338.15	7.87	.2361
348.15	6.24	.1872
358.15	5.2	.156
368.15	4.38	.1314

System: butane, 2,2-dimethyl- + 1-butyl-1-methylpyrrolidinium tetracyanoborate; phases: Liquid
Fixed: Pressure, kPa = 101
Fixed: Mole fraction of butane, 2,2-dimethyl- = 0
Property: Activity coefficient of butane, 2,2-dimethyl- (Liquid); method: Chromatography
Temperature, K	Activity coefficient of butane, 2,2-dimethyl-	uncertainty
6.35	7.63	.2289
5.26	6.45	.1935
4.37	5.29	.1587
3.57	4.27	.1281
3.08	3.64	.1092
2.66	3.19	.0957

System: heptane + 1-butyl-1-methylpyrrolidinium tetracyanoborate; phases: Liquid
Fixed: Pressure, kPa = 101
Fixed: Mole fraction of heptane = 0
Property: Activity coefficient of heptane (Liquid); method: Chromatography
Temperature, K	Activity coefficient of heptane	uncertainty
318.15	28.6	.858
328.15	20.9	.627
338.15	16	.48
348.15	12	.36
358.15	9.63	.2889
368.15	7.68	.2304

System: n-octane + 1-butyl-1-methylpyrrolidinium tetracyanoborate; phases: Liquid
Fixed: Pressure, kPa = 101
Fixed: Mole fraction of n-octane = 0
Property: Activity coefficient of n-octane (Liquid); method: Chromatography
Temperature, K	Activity coefficient of n-octane	uncertainty
318.15	57.9	1.737
328.15	40.4	1.212
338.15	29.6	.888
348.15	21.4	.642
358.15	16.7	.501
368.15	12.8	.384

System: isooctane + 1-butyl-1-methylpyrrolidinium tetracyanoborate; phases: Liquid
Fixed: Pressure, kPa = 101
Fixed: Mole fraction of isooctane = 0
Property: Activity coefficient of isooctane (Liquid); method: Chromatography
Temperature, K	Activity coefficient of isooctane	uncertainty
318.15	22.9	.687
328.15	17.2	.516
338.15	13.2	.396
348.15	10.1	.303
358.15	8.12	.2436
368.15	6.48	.1944

System: nonane + 1-butyl-1-methylpyrrolidinium tetracyanoborate; phases: Liquid
Fixed: Pressure, kPa = 101
Fixed: Mole fraction of nonane = 0
Property: Activity coefficient of nonane (Liquid); method: Chromatography
Temperature, K	Activity coefficient of nonane	uncertainty
318.15	116	3.48
328.15	77	2.31
338.15	54.3	1.629
348.15	37.6	1.128
358.15	28.3	.849
368.15	21.2	.636

System: n-decane + 1-butyl-1-methylpyrrolidinium tetracyanoborate; phases: Liquid
Fixed: Pressure, kPa = 101
Fixed: Mole fraction of n-decane = 0
Property: Activity coefficient of n-decane (Liquid); method: Chromatography
Temperature, K	Activity coefficient of n-decane	uncertainty
318.15	231	6.93
328.15	148	4.44
338.15	98.9	2.967
348.15	66.1	1.983
358.15	48.1	1.443
368.15	34.3	1.029

System: cyclopentane + 1-butyl-1-methylpyrrolidinium tetracyanoborate; phases: Liquid
Fixed: Pressure, kPa = 101
Fixed: Mole fraction of cyclopentane = 0
Property: Activity coefficient of cyclopentane (Liquid); method: Chromatography
Temperature, K	Activity coefficient of cyclopentane	uncertainty
318.15	19.9	.597
328.15	15.8	.474
338.15	12.5	.375
348.15	9.91	.2973
358.15	8.31	.2493
368.15	6.9	.207

System: cyclohexane + 1-butyl-1-methylpyrrolidinium tetracyanoborate; phases: Liquid
Fixed: Pressure, kPa = 101
Fixed: Mole fraction of cyclohexane = 0
Property: Activity coefficient of cyclohexane (Liquid); method: Chromatography
Temperature, K	Activity coefficient of cyclohexane	uncertainty
318.15	40	1.2
328.15	30.7	.921
338.15	23.4	.702
348.15	17.9	.537
358.15	14.6	.438
368.15	11.8	.354

System: cyclohexane, methyl- + 1-butyl-1-methylpyrrolidinium tetracyanoborate; phases: Liquid
Fixed: Pressure, kPa = 101
Fixed: Mole fraction of cyclohexane, methyl- = 0
Property: Activity coefficient of cyclohexane, methyl- (Liquid); method: Chromatography
Temperature, K	Activity coefficient of cyclohexane, methyl-	uncertainty
318.15	55.7	1.671
328.15	41.5	1.245
338.15	30.9	.927
348.15	23.3	.699
358.15	18.7	.561
368.15	14.9	.447

System: cycloheptane + 1-butyl-1-methylpyrrolidinium tetracyanoborate; phases: Liquid
Fixed: Pressure, kPa = 101
Fixed: Mole fraction of cycloheptane = 0
Property: Activity coefficient of cycloheptane (Liquid); method: Chromatography
Temperature, K	Activity coefficient of cycloheptane	uncertainty
318.15	125	3.75
328.15	89.5	2.685
338.15	65	1.95
348.15	47.6	1.428
358.15	37.2	1.116
368.15	29	.87

System: cyclooctane + 1-butyl-1-methylpyrrolidinium tetracyanoborate; phases: Liquid
Fixed: Pressure, kPa = 101
Fixed: Mole fraction of cyclooctane = 0
Property: Activity coefficient of cyclooctane (Liquid); method: Chromatography
Temperature, K	Activity coefficient of cyclooctane	uncertainty
318.15	329	9.87
328.15	223	6.69
338.15	157	4.71
348.15	109	3.27
358.15	82.3	2.469
368.15	61.3	1.839

System: pentene + 1-butyl-1-methylpyrrolidinium tetracyanoborate; phases: Liquid
Fixed: Pressure, kPa = 101
Fixed: Mole fraction of pentene = 0
Property: Activity coefficient of pentene (Liquid); method: Chromatography
Temperature, K	Activity coefficient of pentene	uncertainty
318.15	11.4	.342
328.15	9.23	.2769
338.15	7.27	.2181
348.15	5.89	.1767
358.15	5.02	.1506
368.15	4.14	.1242

System: 1-hexene + 1-butyl-1-methylpyrrolidinium tetracyanoborate; phases: Liquid
Fixed: Pressure, kPa = 101
Fixed: Mole fraction of 1-hexene = 0
Property: Activity coefficient of 1-hexene (Liquid); method: Chromatography
Temperature, K	Activity coefficient of 1-hexene	uncertainty
318.15	24.9	.747
328.15	18.9	.567
338.15	14.3	.429
348.15	11.1	.333
358.15	9.18	.2754
368.15	7.26	.2178

System: 1-octene + 1-butyl-1-methylpyrrolidinium tetracyanoborate; phases: Liquid
Fixed: Pressure, kPa = 101
Fixed: Mole fraction of 1-octene = 0
Property: Activity coefficient of 1-octene (Liquid); method: Chromatography
Temperature, K	Activity coefficient of 1-octene	uncertainty
318.15	102	3.06
328.15	70.3	2.109
338.15	48.9	1.467
348.15	35.7	1.071
358.15	27.3	.819
368.15	20	.6

System: 1-decene + 1-butyl-1-methylpyrrolidinium tetracyanoborate; phases: Liquid
Fixed: Pressure, kPa = 101
Fixed: Mole fraction of 1-decene = 0
Property: Activity coefficient of 1-decene (Liquid); method: Chromatography
Temperature, K	Activity coefficient of 1-decene	uncertainty
318.15	404	12.12
328.15	252	7.56
338.15	162	4.86
348.15	107	3.21
358.15	78.3	2.349
368.15	54.7	1.641

System: butylacetylene + 1-butyl-1-methylpyrrolidinium tetracyanoborate; phases: Liquid
Fixed: Pressure, kPa = 101
Fixed: Mole fraction of butylacetylene = 0
Property: Activity coefficient of butylacetylene (Liquid); method: Chromatography
Temperature, K	Activity coefficient of butylacetylene	uncertainty
318.15	99.2	2.976
328.15	69.9	2.097
338.15	50.7	1.521
348.15	37.3	1.119
358.15	28.5	.855
368.15	21.8	.654

System: 1-heptyne + 1-butyl-1-methylpyrrolidinium tetracyanoborate; phases: Liquid
Fixed: Pressure, kPa = 101
Fixed: Mole fraction of 1-heptyne = 0
Property: Activity coefficient of 1-heptyne (Liquid); method: Chromatography
Temperature, K	Activity coefficient of 1-heptyne	uncertainty
318.15	203	6.09
328.15	138	4.14
338.15	95.7	2.871
348.15	68.3	2.049
358.15	49.9	1.497
368.15	37.2	1.116

System: 1-octyne + 1-butyl-1-methylpyrrolidinium tetracyanoborate; phases: Liquid
Fixed: Pressure, kPa = 101
Fixed: Mole fraction of 1-octyne = 0
Property: Activity coefficient of 1-octyne (Liquid); method: Chromatography
Temperature, K	Activity coefficient of 1-octyne	uncertainty
318.15	404	12.12
328.15	262	7.86
338.15	175	5.25
348.15	120	3.6
358.15	85.3	2.559
368.15	61.8	1.854

System: benzene + 1-butyl-1-methylpyrrolidinium tetracyanoborate; phases: Liquid
Fixed: Pressure, kPa = 101
Fixed: Mole fraction of benzene = 0
Property: Activity coefficient of benzene (Liquid); method: Chromatography
Temperature, K	Activity coefficient of benzene	uncertainty
318.15	417	12.51
328.15	291	8.73
338.15	205	6.15
348.15	148	4.44
358.15	110	3.3
368.15	83.5	2.505

System: toluene + 1-butyl-1-methylpyrrolidinium tetracyanoborate; phases: Liquid
Fixed: Pressure, kPa = 101
Fixed: Mole fraction of toluene = 0
Property: Activity coefficient of toluene (Liquid); method: Chromatography
Temperature, K	Activity coefficient of toluene	uncertainty
318.15	925	27.75
328.15	614	18.42
338.15	413	12.39
348.15	286	8.58
358.15	206	6.18
368.15	150	4.5

System: ethylbenzene + 1-butyl-1-methylpyrrolidinium tetracyanoborate; phases: Liquid
Fixed: Pressure, kPa = 101
Fixed: Mole fraction of ethylbenzene = 0
Property: Activity coefficient of ethylbenzene (Liquid); method: Chromatography
Temperature, K	Activity coefficient of ethylbenzene	uncertainty
925	1722	51.66
614	1091	32.73
413	710	21.3
286	474	14.22
206	327	9.81
150	231	6.93

System: 1,2-dimethylbenzene + 1-butyl-1-methylpyrrolidinium tetracyanoborate; phases: Liquid
Fixed: Pressure, kPa = 101
Fixed: Mole fraction of 1,2-dimethylbenzene = 0
Property: Activity coefficient of 1,2-dimethylbenzene (Liquid); method: Chromatography
Temperature, K	Activity coefficient of 1,2-dimethylbenzene	uncertainty
318.15	2789	83.67
328.15	1734	52.02
338.15	1106	33.18
348.15	731	21.93
358.15	498	14.94
368.15	346	10.38

System: 1,3-xylene + 1-butyl-1-methylpyrrolidinium tetracyanoborate; phases: Liquid
Fixed: Pressure, kPa = 101
Fixed: Mole fraction of 1,3-xylene = 0
Property: Activity coefficient of 1,3-xylene (Liquid); method: Chromatography
Temperature, K	Activity coefficient of 1,3-xylene	uncertainty
318.15	1979	59.37
328.15	1242	37.26
338.15	801	24.03
348.15	535	16.05
358.15	368	11.04
368.15	259	7.77

System: 1,4-xylene + 1-butyl-1-methylpyrrolidinium tetracyanoborate; phases: Liquid
Fixed: Pressure, kPa = 101
Fixed: Mole fraction of 1,4-xylene = 0
Property: Activity coefficient of 1,4-xylene (Liquid); method: Chromatography
Temperature, K	Activity coefficient of 1,4-xylene	uncertainty
318.15	2001	60.03
328.15	1255	37.65
338.15	799	23.97
348.15	531	15.93
358.15	367	11.01
368.15	258	7.74

System: methanol + 1-butyl-1-methylpyrrolidinium tetracyanoborate; phases: Liquid
Fixed: Pressure, kPa = 101
Fixed: Mole fraction of methanol = 0
Property: Activity coefficient of methanol (Liquid); method: Chromatography
Temperature, K	Activity coefficient of methanol	uncertainty
318.15	230	6.9
328.15	166	4.98
338.15	121	3.63
348.15	90.4	2.712
358.15	70.4	2.112
368.15	54.1	1.623

System: ethanol + 1-butyl-1-methylpyrrolidinium tetracyanoborate; phases: Liquid
Fixed: Pressure, kPa = 101
Fixed: Mole fraction of ethanol = 0
Property: Activity coefficient of ethanol (Liquid); method: Chromatography
Temperature, K	Activity coefficient of ethanol	uncertainty
318.15	337	10.11
328.15	237	7.11
338.15	167	5.01
348.15	121	3.63
358.15	90.8	2.724
368.15	69	2.07

System: propyl alcohol + 1-butyl-1-methylpyrrolidinium tetracyanoborate; phases: Liquid
Fixed: Pressure, kPa = 101
Fixed: Mole fraction of propyl alcohol = 0
Property: Activity coefficient of propyl alcohol (Liquid); method: Chromatography
Temperature, K	Activity coefficient of propyl alcohol	uncertainty
318.15	718	21.54
328.15	482	14.46
338.15	325	9.75
348.15	226	6.78
358.15	164	4.92
368.15	120	3.6

System: n-butyl alcohol + 1-butyl-1-methylpyrrolidinium tetracyanoborate; phases: Liquid
Fixed: Pressure, kPa = 101
Fixed: Mole fraction of n-butyl alcohol = 0
Property: Activity coefficient of n-butyl alcohol (Liquid); method: Chromatography
Temperature, K	Activity coefficient of n-butyl alcohol	uncertainty
318.15	1559	46.77
328.15	1005	30.15
338.15	647	19.41
348.15	433	12.99
358.15	303	9.09
368.15	218	6.54

System: water + 1-butyl-1-methylpyrrolidinium tetracyanoborate; phases: Liquid
Fixed: Pressure, kPa = 101
Fixed: Mole fraction of water = 0
Property: Activity coefficient of water (Liquid); method: Chromatography
Temperature, K	Activity coefficient of water	uncertainty
1559	482	14.46
1005	346	10.38
647	241	7.23
433	176	5.28
303	136	4.08
218	104	3.12

System: thiophene + 1-butyl-1-methylpyrrolidinium tetracyanoborate; phases: Liquid
Fixed: Pressure, kPa = 101
Fixed: Mole fraction of thiophene = 0
Property: Activity coefficient of thiophene (Liquid); method: Chromatography
Temperature, K	Activity coefficient of thiophene	uncertainty
318.15	599	17.97
328.15	414	12.42
338.15	287	8.61
348.15	205	6.15
358.15	152	4.56
368.15	113	3.39

System: oxacyclopentane + 1-butyl-1-methylpyrrolidinium tetracyanoborate; phases: Liquid
Fixed: Pressure, kPa = 101
Fixed: Mole fraction of oxacyclopentane = 0
Property: Activity coefficient of oxacyclopentane (Liquid); method: Chromatography
Temperature, K	Activity coefficient of oxacyclopentane	uncertainty
318.15	340	10.2
328.15	243	7.29
338.15	171	5.13
348.15	126	3.78
358.15	95	2.85
368.15	72.3	2.169

System: methyl tert-butyl ether + 1-butyl-1-methylpyrrolidinium tetracyanoborate; phases: Liquid
Fixed: Pressure, kPa = 101
Fixed: Mole fraction of methyl tert-butyl ether = 0
Property: Activity coefficient of methyl tert-butyl ether (Liquid); method: Chromatography
Temperature, K	Activity coefficient of methyl tert-butyl ether	uncertainty
318.15	60.7	1.821
328.15	44.1	1.323
338.15	32.4	.972
348.15	24.7	.741
358.15	19.1	.573
368.15	15.1	.453

System: tert-amyl methyl ether + 1-butyl-1-methylpyrrolidinium tetracyanoborate; phases: Liquid
Fixed: Pressure, kPa = 101
Fixed: Mole fraction of tert-amyl methyl ether = 0
Property: Activity coefficient of tert-amyl methyl ether (Liquid); method: Chromatography
Temperature, K	Activity coefficient of tert-amyl methyl ether	uncertainty
318.15	126	3.78
328.15	87.9	2.637
338.15	62.9	1.887
348.15	46.2	1.386
358.15	34.7	1.041
368.15	26.6	.798

System: ethyl ether + 1-butyl-1-methylpyrrolidinium tetracyanoborate; phases: Liquid
Fixed: Pressure, kPa = 101
Fixed: Mole fraction of ethyl ether = 0
Property: Activity coefficient of ethyl ether (Liquid); method: Chromatography
Temperature, K	Activity coefficient of ethyl ether	uncertainty
318.15	31.2	.936
328.15	23.5	.705
338.15	18.2	.546
348.15	14.2	.426
358.15	11.4	.342
368.15	9.23	.2769

System: ether, dipropyl + 1-butyl-1-methylpyrrolidinium tetracyanoborate; phases: Liquid
Fixed: Pressure, kPa = 101
Fixed: Mole fraction of ether, dipropyl = 0
Property: Activity coefficient of ether, dipropyl (Liquid); method: Chromatography
Temperature, K	Activity coefficient of ether, dipropyl	uncertainty
318.15	85.1	2.553
328.15	60.1	1.803
338.15	43.6	1.308
348.15	32.3	.969
358.15	24.5	.735
368.15	18.9	.567

System: isopropyl ether + 1-butyl-1-methylpyrrolidinium tetracyanoborate; phases: Liquid
Fixed: Pressure, kPa = 101
Fixed: Mole fraction of isopropyl ether = 0
Property: Activity coefficient of isopropyl ether (Liquid); method: Chromatography
Temperature, K	Activity coefficient of isopropyl ether	uncertainty
318.15	37.6	1.128
328.15	27.6	.828
338.15	20.4	.612
348.15	15.6	.468
358.15	12.1	.363
368.15	9.58	.2874

System: butyl oxide + 1-butyl-1-methylpyrrolidinium tetracyanoborate; phases: Liquid
Fixed: Pressure, kPa = 101
Fixed: Mole fraction of butyl oxide = 0
Property: Activity coefficient of butyl oxide (Liquid); method: Chromatography
Temperature, K	Activity coefficient of butyl oxide	uncertainty
318.15	331	9.93
328.15	217	6.51
338.15	143	4.29
348.15	98.3	2.949
358.15	70.8	2.124
368.15	51.1	1.533

System: acetone + 1-butyl-1-methylpyrrolidinium tetracyanoborate; phases: Liquid
Fixed: Pressure, kPa = 101
Fixed: Mole fraction of acetone = 0
Property: Activity coefficient of acetone (Liquid); method: Chromatography
Temperature, K	Activity coefficient of acetone	uncertainty
318.15	345	10.35
328.15	249	7.47
338.15	179	5.37
348.15	133	3.99
358.15	102	3.06
368.15	77.2	2.316

System: methyl n-propyl ketone + 1-butyl-1-methylpyrrolidinium tetracyanoborate; phases: Liquid
Fixed: Pressure, kPa = 101
Fixed: Mole fraction of methyl n-propyl ketone = 0
Property: Activity coefficient of methyl n-propyl ketone (Liquid); method: Chromatography
Temperature, K	Activity coefficient of methyl n-propyl ketone	uncertainty
318.15	1165	34.95
328.15	769	23.07
338.15	516	15.48
348.15	359	10.77
358.15	259	7.77
368.15	188	5.64

System: 3-pentanone + 1-butyl-1-methylpyrrolidinium tetracyanoborate; phases: Liquid
Fixed: Pressure, kPa = 101
Fixed: Mole fraction of 3-pentanone = 0
Property: Activity coefficient of 3-pentanone (Liquid); method: Chromatography
Temperature, K	Activity coefficient of 3-pentanone	uncertainty
318.15	1211	36.33
328.15	799	23.97
338.15	533	15.99
348.15	368	11.04
358.15	264	7.92
368.15	193	5.79
