Measured thermophysical data. Improving a variation of the DSC technique for measuring the boiling points of pure compounds at low pressures
Source: J. Chem. Thermodyn., 2016, 10.1016/j.jct.2016.04.023
Compound 1: glycerol, C3H8O3, purity 99.5%
Compound 2: octanoic acid, C8H16O2, purity 99%
Compound 3: 1-monocaprylin, C11H22O4, purity 99%
Compound 4: n-hexadecane, C16H34, purity 99%
Compound 5: n-octadecane, C18H38, purity 99%
Compound 6: 1-octadecanol, C18H38O, purity 99%
Compound 7: tributyrin, C15H26O6, purity 99%

System: glycerol; phases: Liquid, Gas
Property: Boiling temperature at pressure P, K (Liquid); method: DSC
Pressure, kPa	Boiling temperature at pressure P, K	uncertainty
3.47	459.28	.15

System: octanoic acid; phases: Liquid, Gas
Property: Boiling temperature at pressure P, K (Liquid); method: DSC
Pressure, kPa	Boiling temperature at pressure P, K	uncertainty
3.47	417.19	.44

System: 1-monocaprylin; phases: Liquid, Gas
Property: Boiling temperature at pressure P, K (Liquid); method: DSC
Pressure, kPa	Boiling temperature at pressure P, K	uncertainty
3.47	485.05	.46

System: n-hexadecane; phases: Liquid, Gas
Property: Boiling temperature at pressure P, K (Liquid); method: DSC
Pressure, kPa	Boiling temperature at pressure P, K	uncertainty
10.37	474.05	
15.17	486.81	
18.66	493.6	
22.39	496.42	
3.47	444.06	

System: n-octadecane; phases: Liquid, Gas
Property: Boiling temperature at pressure P, K (Liquid); method: DSC
Pressure, kPa	Boiling temperature at pressure P, K	uncertainty
3.47	469.96	.46

System: 1-octadecanol; phases: Liquid, Gas
Property: Boiling temperature at pressure P, K (Liquid); method: DSC
Pressure, kPa	Boiling temperature at pressure P, K	uncertainty
3.47	499.04	.43

System: tributyrin; phases: Liquid, Gas
Property: Boiling temperature at pressure P, K (Liquid); method: DSC
Pressure, kPa	Boiling temperature at pressure P, K	uncertainty
3.47	474.55	.45
