Measured thermophysical data. Activity coefficients at infinite dilution and physicochemical properties  for organic solutes and water in the ionic liquid 1-(2-methoxyethyl)-  1-methylpiperidinium trifluorotris(perfluoroethyl)phosphate
Source: J. Chem. Thermodyn., 2013, 10.1016/j.jct.2012.08.016
Compound 1: 1-(2-methoxyethyl)-1-methylpiperidinium trifluorotris(perfluoroethyl)phosphate, C15H20F18NOP, purity 99.5%
Compound 2: pentane, C5H12, purity 99%
Compound 3: n-hexane, C6H14, purity 99%
Compound 4: 3-methylpentane, C6H14, purity 99%
Compound 5: neohexane, C6H14, purity 99%
Compound 6: n-heptane, C7H16, purity 99.5%
Compound 7: n-octane, C8H18, purity 99%
Compound 8: 2,2,4-trimethylpentane, C8H18, purity 99%
Compound 9: n-nonane, C9H20, purity 99%
Compound 10: n-decane, C10H22, purity 99%
Compound 11: cyclopentane, C5H10, purity 99%
Compound 12: cyclohexane, C6H12, purity 99%
Compound 13: cyclohexane, methyl-, C7H14, purity 99%
Compound 14: cycloheptane, C7H14, purity 99%
Compound 15: cyclooctane, C8H16, purity 99%
Compound 16: 1-pentene, C5H10, purity 98.5%
Compound 17: 1-hexene, C6H12, purity 99%
Compound 18: benzene tetrahydride, C6H10, purity 99%
Compound 19: 1-heptene, C7H14, purity 99%
Compound 20: 1-octene, C8H16, purity 98%
Compound 21: 1-decene, C10H20, purity 97%
Compound 22: n-butylacetylene, C6H10, purity 97%
Compound 23: 1-heptyne, C7H12, purity 98%
Compound 24: 1-octyne, C8H14, purity 97%
Compound 25: benzene, C6H6, purity 99.8%
Compound 26: methylbenzene, C7H8, purity 99.8%
Compound 27: .alpha.-methyltoluene, C8H10, purity 99.8%
Compound 28: 1,2-xylene, C8H10, purity 99%
Compound 29: m-xylene, C8H10, purity 99%
Compound 30: 1,4-xylene, C8H10, purity 99%
Compound 31: phenylethene, C8H8, purity 99.9%
Compound 32: (1-methylethenyl)benzene, C9H10, purity 99%
Compound 33: thiophene, C4H4S, purity 99%
Compound 34: pyridine, C5H5N, purity 99.8%
Compound 35: methyl alcohol, CH4O, purity 99.9%
Compound 36: ethanol, C2H6O, purity 99.8%
Compound 37: n-propyl alcohol, C3H8O, purity 99.9%
Compound 38: isopropanol, C3H8O, purity 99.9%
Compound 39: n-butanol, C4H10O, purity 99.8%
Compound 40: dl-2-butanol, C4H10O, purity 99.5%
Compound 41: isobutyl alcohol, C4H10O, purity 99.5%
Compound 42: 2-methyl-2-propanol, C4H10O, purity 99.7%
Compound 43: water, H2O, purity 99.9%
Compound 44: methyl acetate, C3H6O2, purity 99.8%
Compound 45: propanoic acid, methyl ester, C4H8O2, purity 99%
Compound 46: methyl n-butyrate, C5H10O2, purity 99%
Compound 47: ethyl ethanoate, C4H8O2, purity 99.8%
Compound 48: oxacyclopentane, C4H8O, purity 99.9%
Compound 49: p-dioxane, C4H8O2, purity 99.8%
Compound 50: 1,1-dimethyl-1-methoxyethane, C5H12O, purity 99.8%
Compound 51: 2-ethoxy-2-methylpropane, C6H14O, purity 99%
Compound 52: methyl tert-amyl ether, C6H14O, purity 97%
Compound 53: ether, C4H10O, purity 99.9%
Compound 54: 4-oxaheptane, C6H14O, purity 99%
Compound 55: ethane, 1-methyl-1-(1-methylethoxy)-, C6H14O, purity 99%
Compound 56: butane, 1,1'-oxybis-, C8H18O, purity 99.3%
Compound 57: acetone, C3H6O, purity 99.9%
Compound 58: propyl methyl ketone, C5H10O, purity 99%
Compound 59: 3-pentanone, C5H10O, purity 99%
Compound 60: butyraldehyde, C4H8O, purity 99%
Compound 61: acetonitrile, C2H3N, purity 99.9%
Compound 62: 1-nitropropane, C3H7NO2, purity 98.5%
Compound 63: 1-pentyne, C5H8, purity 99%

System: pentane + 1-(2-methoxyethyl)-1-methylpiperidinium trifluorotris(perfluoroethyl)phosphate; phases: Liquid
Fixed: Mole fraction of pentane = 0
Fixed: Pressure, kPa = 101
Property: Activity coefficient of pentane (Liquid); method: Chromatography
Temperature, K	Activity coefficient of pentane	uncertainty
318.15	7.05	.2115
328.15	6.86	.2058
338.15	6.72	.2016
348.15	6.56	.1968
358.15	6.42	.1926
368.15	6.32	.1896

System: n-hexane + 1-(2-methoxyethyl)-1-methylpiperidinium trifluorotris(perfluoroethyl)phosphate; phases: Liquid
Fixed: Mole fraction of n-hexane = 0
Fixed: Pressure, kPa = 101
Property: Activity coefficient of n-hexane (Liquid); method: Chromatography
Temperature, K	Activity coefficient of n-hexane	uncertainty
318.15	9.84	.2952
328.15	9.53	.2859
338.15	9.2	.276
348.15	8.98	.2694
358.15	8.73	.2619
368.15	8.5	.255

System: 3-methylpentane + 1-(2-methoxyethyl)-1-methylpiperidinium trifluorotris(perfluoroethyl)phosphate; phases: Liquid
Fixed: Mole fraction of 3-methylpentane = 0
Fixed: Pressure, kPa = 101
Property: Activity coefficient of 3-methylpentane (Liquid); method: Chromatography
Temperature, K	Activity coefficient of 3-methylpentane	uncertainty
318.15	8.61	.2583
328.15	8.35	.2505
338.15	8.13	.2439
348.15	7.92	.2376
358.15	7.72	.2316
368.15	7.55	.2265

System: neohexane + 1-(2-methoxyethyl)-1-methylpiperidinium trifluorotris(perfluoroethyl)phosphate; phases: Liquid
Fixed: Mole fraction of neohexane = 0
Fixed: Pressure, kPa = 101
Property: Activity coefficient of neohexane (Liquid); method: Chromatography
Temperature, K	Activity coefficient of neohexane	uncertainty
318.15	7.76	.2328
328.15	7.55	.2265
338.15	7.41	.2223
348.15	7.25	.2175
358.15	7.1	.213
368.15	6.98	.2094

System: n-heptane + 1-(2-methoxyethyl)-1-methylpiperidinium trifluorotris(perfluoroethyl)phosphate; phases: Liquid
Fixed: Mole fraction of n-heptane = 0
Fixed: Pressure, kPa = 101
Property: Activity coefficient of n-heptane (Liquid); method: Chromatography
Temperature, K	Activity coefficient of n-heptane	uncertainty
318.15	13.8	.414
328.15	13.2	.396
338.15	12.6	.378
348.15	12.2	.366
358.15	11.6	.348
368.15	11.2	.336

System: n-octane + 1-(2-methoxyethyl)-1-methylpiperidinium trifluorotris(perfluoroethyl)phosphate; phases: Liquid
Fixed: Mole fraction of n-octane = 0
Fixed: Pressure, kPa = 101
Property: Activity coefficient of n-octane (Liquid); method: Chromatography
Temperature, K	Activity coefficient of n-octane	uncertainty
318.15	19.3	.579
328.15	18.2	.546
338.15	17.2	.516
348.15	16.4	.492
358.15	15.6	.468
368.15	15	.45

System: 2,2,4-trimethylpentane + 1-(2-methoxyethyl)-1-methylpiperidinium trifluorotris(perfluoroethyl)phosphate; phases: Liquid
Fixed: Mole fraction of 2,2,4-trimethylpentane = 0
Fixed: Pressure, kPa = 101
Property: Activity coefficient of 2,2,4-trimethylpentane (Liquid); method: Chromatography
Temperature, K	Activity coefficient of 2,2,4-trimethylpentane	uncertainty
318.15	12.5	.375
328.15	12	.36
338.15	11.6	.348
348.15	11.2	.336
358.15	10.9	.327
368.15	10.5	.315

System: n-nonane + 1-(2-methoxyethyl)-1-methylpiperidinium trifluorotris(perfluoroethyl)phosphate; phases: Liquid
Fixed: Mole fraction of n-nonane = 0
Fixed: Pressure, kPa = 101
Property: Activity coefficient of n-nonane (Liquid); method: Chromatography
Temperature, K	Activity coefficient of n-nonane	uncertainty
318.15	26.7	.801
328.15	25	.75
338.15	23.4	.702
348.15	22.1	.663
358.15	20.9	.627
368.15	19.9	.597

System: n-decane + 1-(2-methoxyethyl)-1-methylpiperidinium trifluorotris(perfluoroethyl)phosphate; phases: Liquid
Fixed: Mole fraction of n-decane = 0
Fixed: Pressure, kPa = 101
Property: Activity coefficient of n-decane (Liquid); method: Chromatography
Temperature, K	Activity coefficient of n-decane	uncertainty
318.15	37.1	1.113
328.15	34.5	1.035
338.15	32.1	.963
348.15	30	.9
358.15	28.3	.849
368.15	26.6	.798

System: cyclopentane + 1-(2-methoxyethyl)-1-methylpiperidinium trifluorotris(perfluoroethyl)phosphate; phases: Liquid
Fixed: Mole fraction of cyclopentane = 0
Fixed: Pressure, kPa = 101
Property: Activity coefficient of cyclopentane (Liquid); method: Chromatography
Temperature, K	Activity coefficient of cyclopentane	uncertainty
318.15	4.56	.1368
328.15	4.44	.1332
338.15	4.34	.1302
348.15	4.25	.1275
358.15	4.16	.1248
368.15	4.08	.1224

System: cyclohexane + 1-(2-methoxyethyl)-1-methylpiperidinium trifluorotris(perfluoroethyl)phosphate; phases: Liquid
Fixed: Mole fraction of cyclohexane = 0
Fixed: Pressure, kPa = 101
Property: Activity coefficient of cyclohexane (Liquid); method: Chromatography
Temperature, K	Activity coefficient of cyclohexane	uncertainty
318.15	6.65	.1995
328.15	6.37	.1911
338.15	6.12	.1836
348.15	5.88	.1764
358.15	5.68	.1704
368.15	5.51	.1653

System: cyclohexane, methyl- + 1-(2-methoxyethyl)-1-methylpiperidinium trifluorotris(perfluoroethyl)phosphate; phases: Liquid
Fixed: Mole fraction of cyclohexane, methyl- = 0
Fixed: Pressure, kPa = 101
Property: Activity coefficient of cyclohexane, methyl- (Liquid); method: Chromatography
Temperature, K	Activity coefficient of cyclohexane, methyl-	uncertainty
318.15	8.6	.258
328.15	8.26	.2478
338.15	7.97	.2391
348.15	7.66	.2298
358.15	7.4	.222
368.15	7.22	.2166

System: cycloheptane + 1-(2-methoxyethyl)-1-methylpiperidinium trifluorotris(perfluoroethyl)phosphate; phases: Liquid
Fixed: Mole fraction of cycloheptane = 0
Fixed: Pressure, kPa = 101
Property: Activity coefficient of cycloheptane (Liquid); method: Chromatography
Temperature, K	Activity coefficient of cycloheptane	uncertainty
318.15	9.08	.2724
328.15	8.67	.2601
338.15	8.27	.2481
348.15	7.89	.2367
358.15	7.56	.2268
368.15	7.24	.2172

System: cyclooctane + 1-(2-methoxyethyl)-1-methylpiperidinium trifluorotris(perfluoroethyl)phosphate; phases: Liquid
Fixed: Mole fraction of cyclooctane = 0
Fixed: Pressure, kPa = 101
Property: Activity coefficient of cyclooctane (Liquid); method: Chromatography
Temperature, K	Activity coefficient of cyclooctane	uncertainty
318.15	12.4	.372
328.15	11.7	.351
338.15	11.1	.333
348.15	10.5	.315
358.15	10.1	.303
368.15	9.64	.2892

System: 1-pentene + 1-(2-methoxyethyl)-1-methylpiperidinium trifluorotris(perfluoroethyl)phosphate; phases: Liquid
Fixed: Mole fraction of 1-pentene = 0
Fixed: Pressure, kPa = 101
Property: Activity coefficient of 1-pentene (Liquid); method: Chromatography
Temperature, K	Activity coefficient of 1-pentene	uncertainty
318.15	3.57	.1071
328.15	3.57	.1071
338.15	3.58	.1074
348.15	3.58	.1074
358.15	3.58	.1074
368.15	3.59	.1077

System: 1-hexene + 1-(2-methoxyethyl)-1-methylpiperidinium trifluorotris(perfluoroethyl)phosphate; phases: Liquid
Fixed: Mole fraction of 1-hexene = 0
Fixed: Pressure, kPa = 101
Property: Activity coefficient of 1-hexene (Liquid); method: Chromatography
Temperature, K	Activity coefficient of 1-hexene	uncertainty
318.15	5.03	.1509
328.15	5	.15
338.15	4.97	.1491
348.15	4.95	.1485
358.15	4.93	.1479
368.15	4.9	.147

System: benzene tetrahydride + 1-(2-methoxyethyl)-1-methylpiperidinium trifluorotris(perfluoroethyl)phosphate; phases: Liquid
Fixed: Mole fraction of benzene tetrahydride = 0
Fixed: Pressure, kPa = 101
Property: Activity coefficient of benzene tetrahydride (Liquid); method: Chromatography
Temperature, K	Activity coefficient of benzene tetrahydride	uncertainty
318.15	3.8	.114
328.15	3.77	.1131
338.15	3.73	.1119
348.15	3.7	.111
358.15	3.68	.1104
368.15	3.66	.1098

System: 1-heptene + 1-(2-methoxyethyl)-1-methylpiperidinium trifluorotris(perfluoroethyl)phosphate; phases: Liquid
Fixed: Mole fraction of 1-heptene = 0
Fixed: Pressure, kPa = 101
Property: Activity coefficient of 1-heptene (Liquid); method: Chromatography
Temperature, K	Activity coefficient of 1-heptene	uncertainty
318.15	6.97	.2091
328.15	6.89	.2067
338.15	6.82	.2046
348.15	6.75	.2025
358.15	6.67	.2001
368.15	6.62	.1986

System: 1-octene + 1-(2-methoxyethyl)-1-methylpiperidinium trifluorotris(perfluoroethyl)phosphate; phases: Liquid
Fixed: Mole fraction of 1-octene = 0
Fixed: Pressure, kPa = 101
Property: Activity coefficient of 1-octene (Liquid); method: Chromatography
Temperature, K	Activity coefficient of 1-octene	uncertainty
318.15	9.81	.2943
328.15	9.6	.288
338.15	9.39	.2817
348.15	9.19	.2757
358.15	9.01	.2703
368.15	8.86	.2658

System: 1-decene + 1-(2-methoxyethyl)-1-methylpiperidinium trifluorotris(perfluoroethyl)phosphate; phases: Liquid
Fixed: Mole fraction of 1-decene = 0
Fixed: Pressure, kPa = 101
Property: Activity coefficient of 1-decene (Liquid); method: Chromatography
Temperature, K	Activity coefficient of 1-decene	uncertainty
318.15	18.6	.558
328.15	17.9	.537
338.15	17.3	.519
348.15	16.8	.504
358.15	16.2	.486
368.15	15.7	.471

System: n-butylacetylene + 1-(2-methoxyethyl)-1-methylpiperidinium trifluorotris(perfluoroethyl)phosphate; phases: Liquid
Fixed: Mole fraction of n-butylacetylene = 0
Fixed: Pressure, kPa = 101
Property: Activity coefficient of n-butylacetylene (Liquid); method: Chromatography
Temperature, K	Activity coefficient of n-butylacetylene	uncertainty
318.15	2.27	.0681
328.15	2.33	.0699
338.15	2.41	.0723
348.15	2.46	.0738
358.15	2.53	.0759
368.15	2.58	.0774

System: 1-heptyne + 1-(2-methoxyethyl)-1-methylpiperidinium trifluorotris(perfluoroethyl)phosphate; phases: Liquid
Fixed: Mole fraction of 1-heptyne = 0
Fixed: Pressure, kPa = 101
Property: Activity coefficient of 1-heptyne (Liquid); method: Chromatography
Temperature, K	Activity coefficient of 1-heptyne	uncertainty
318.15	3.1	.093
328.15	3.18	.0954
338.15	3.23	.0969
348.15	3.3	.099
358.15	3.35	.1005
368.15	3.41	.1023

System: 1-octyne + 1-(2-methoxyethyl)-1-methylpiperidinium trifluorotris(perfluoroethyl)phosphate; phases: Liquid
Fixed: Mole fraction of 1-octyne = 0
Fixed: Pressure, kPa = 101
Property: Activity coefficient of 1-octyne (Liquid); method: Chromatography
Temperature, K	Activity coefficient of 1-octyne	uncertainty
318.15	4.32	.1296
328.15	4.36	.1308
338.15	4.39	.1317
348.15	4.43	.1329
358.15	4.47	.1341
368.15	4.5	.135

System: benzene + 1-(2-methoxyethyl)-1-methylpiperidinium trifluorotris(perfluoroethyl)phosphate; phases: Liquid
Fixed: Mole fraction of benzene = 0
Fixed: Pressure, kPa = 101
Property: Activity coefficient of benzene (Liquid); method: Chromatography
Temperature, K	Activity coefficient of benzene	uncertainty
318.15	.546	.01638
328.15	.582	.01746
338.15	.617	.01851
348.15	.659	.01977
358.15	.693	.02079
368.15	.732	.02196

System: methylbenzene + 1-(2-methoxyethyl)-1-methylpiperidinium trifluorotris(perfluoroethyl)phosphate; phases: Liquid
Fixed: Mole fraction of methylbenzene = 0
Fixed: Pressure, kPa = 101
Property: Activity coefficient of methylbenzene (Liquid); method: Chromatography
Temperature, K	Activity coefficient of methylbenzene	uncertainty
318.15	.727	.02181
328.15	.775	.02325
338.15	.824	.02472
348.15	.881	.02643
358.15	.926	.02778
368.15	.978	.02934

System: .alpha.-methyltoluene + 1-(2-methoxyethyl)-1-methylpiperidinium trifluorotris(perfluoroethyl)phosphate; phases: Liquid
Fixed: Mole fraction of .alpha.-methyltoluene = 0
Fixed: Pressure, kPa = 101
Property: Activity coefficient of .alpha.-methyltoluene (Liquid); method: Chromatography
Temperature, K	Activity coefficient of .alpha.-methyltoluene	uncertainty
318.15	1.04	.0312
328.15	1.1	.033
338.15	1.16	.0348
348.15	1.23	.0369
358.15	1.29	.0387
368.15	1.35	.0405

System: 1,2-xylene + 1-(2-methoxyethyl)-1-methylpiperidinium trifluorotris(perfluoroethyl)phosphate; phases: Liquid
Fixed: Mole fraction of 1,2-xylene = 0
Fixed: Pressure, kPa = 101
Property: Activity coefficient of 1,2-xylene (Liquid); method: Chromatography
Temperature, K	Activity coefficient of 1,2-xylene	uncertainty
318.15	.932	.02796
328.15	.985	.02955
338.15	1.04	.0312
348.15	1.11	.0333
358.15	1.16	.0348
368.15	1.22	.0366

System: m-xylene + 1-(2-methoxyethyl)-1-methylpiperidinium trifluorotris(perfluoroethyl)phosphate; phases: Liquid
Fixed: Pressure, kPa = 101
Fixed: Mole fraction of m-xylene = 0
Property: Activity coefficient of m-xylene (Liquid); method: Chromatography
Temperature, K	Activity coefficient of m-xylene	uncertainty
318.15	.961	.02883
328.15	1.02	.0306
338.15	1.09	.0327
348.15	1.16	.0348
358.15	1.23	.0369
368.15	1.29	.0387

System: 1,4-xylene + 1-(2-methoxyethyl)-1-methylpiperidinium trifluorotris(perfluoroethyl)phosphate; phases: Liquid
Fixed: Pressure, kPa = 101
Fixed: Mole fraction of 1,4-xylene = 0
Property: Activity coefficient of 1,4-xylene (Liquid); method: Chromatography
Temperature, K	Activity coefficient of 1,4-xylene	uncertainty
318.15	.998	.02994
328.15	1.06	.0318
338.15	1.12	.0336
348.15	1.2	.036
358.15	1.26	.0378
368.15	1.33	.0399

System: phenylethene + 1-(2-methoxyethyl)-1-methylpiperidinium trifluorotris(perfluoroethyl)phosphate; phases: Liquid
Fixed: Pressure, kPa = 101
Fixed: Mole fraction of phenylethene = 0
Property: Activity coefficient of phenylethene (Liquid); method: Chromatography
Temperature, K	Activity coefficient of phenylethene	uncertainty
318.15	.66	.0198
328.15	.706	.02118
338.15	.752	.02256
348.15	.805	.02415
358.15	.849	.02547
368.15	.901	.02703

System: (1-methylethenyl)benzene + 1-(2-methoxyethyl)-1-methylpiperidinium trifluorotris(perfluoroethyl)phosphate; phases: Liquid
Fixed: Pressure, kPa = 101
Fixed: Mole fraction of (1-methylethenyl)benzene = 0
Property: Activity coefficient of (1-methylethenyl)benzene (Liquid); method: Chromatography
Temperature, K	Activity coefficient of (1-methylethenyl)benzene	uncertainty
318.15	.951	.02853
328.15	1.03	.0309
338.15	1.12	.0336
348.15	1.2	.036
358.15	1.27	.0381
368.15	1.35	.0405

System: thiophene + 1-(2-methoxyethyl)-1-methylpiperidinium trifluorotris(perfluoroethyl)phosphate; phases: Liquid
Fixed: Pressure, kPa = 101
Fixed: Mole fraction of thiophene = 0
Property: Activity coefficient of thiophene (Liquid); method: Chromatography
Temperature, K	Activity coefficient of thiophene	uncertainty
318.15	.573	.01719
328.15	.605	.01815
338.15	.637	.01911
348.15	.676	.02028
358.15	.707	.02121
368.15	.742	.02226

System: pyridine + 1-(2-methoxyethyl)-1-methylpiperidinium trifluorotris(perfluoroethyl)phosphate; phases: Liquid
Fixed: Pressure, kPa = 101
Fixed: Mole fraction of pyridine = 0
Property: Activity coefficient of pyridine (Liquid); method: Chromatography
Temperature, K	Activity coefficient of pyridine	uncertainty
318.15	.373	.01119
328.15	.397	.01191
338.15	.417	.01251
348.15	.443	.01329
358.15	.462	.01386
368.15	.488	.01464

System: methyl alcohol + 1-(2-methoxyethyl)-1-methylpiperidinium trifluorotris(perfluoroethyl)phosphate; phases: Liquid
Fixed: Pressure, kPa = 101
Fixed: Mole fraction of methyl alcohol = 0
Property: Activity coefficient of methyl alcohol (Liquid); method: Chromatography
Temperature, K	Activity coefficient of methyl alcohol	uncertainty
318.15	2.11	.0633
328.15	1.95	.0585
338.15	1.83	.0549
348.15	1.7	.051
358.15	1.57	.0471
368.15	1.49	.0447

System: ethanol + 1-(2-methoxyethyl)-1-methylpiperidinium trifluorotris(perfluoroethyl)phosphate; phases: Liquid
Fixed: Pressure, kPa = 101
Fixed: Mole fraction of ethanol = 0
Property: Activity coefficient of ethanol (Liquid); method: Chromatography
Temperature, K	Activity coefficient of ethanol	uncertainty
318.15	2.5	.075
328.15	2.3	.069
338.15	2.1	.063
348.15	1.95	.0585
358.15	1.81	.0543
368.15	1.69	.0507

System: n-propyl alcohol + 1-(2-methoxyethyl)-1-methylpiperidinium trifluorotris(perfluoroethyl)phosphate; phases: Liquid
Fixed: Pressure, kPa = 101
Fixed: Mole fraction of n-propyl alcohol = 0
Property: Activity coefficient of n-propyl alcohol (Liquid); method: Chromatography
Temperature, K	Activity coefficient of n-propyl alcohol	uncertainty
318.15	3.06	.0918
328.15	2.8	.084
338.15	2.52	.0756
348.15	2.34	.0702
358.15	2.16	.0648
368.15	2.02	.0606

System: isopropanol + 1-(2-methoxyethyl)-1-methylpiperidinium trifluorotris(perfluoroethyl)phosphate; phases: Liquid
Fixed: Pressure, kPa = 101
Fixed: Mole fraction of isopropanol = 0
Property: Activity coefficient of isopropanol (Liquid); method: Chromatography
Temperature, K	Activity coefficient of isopropanol	uncertainty
318.15	2.5	.075
328.15	2.28	.0684
338.15	2.09	.0627
348.15	1.92	.0576
358.15	1.78	.0534
368.15	1.68	.0504

System: n-butanol + 1-(2-methoxyethyl)-1-methylpiperidinium trifluorotris(perfluoroethyl)phosphate; phases: Liquid
Fixed: Pressure, kPa = 101
Fixed: Mole fraction of n-butanol = 0
Property: Activity coefficient of n-butanol (Liquid); method: Chromatography
Temperature, K	Activity coefficient of n-butanol	uncertainty
318.15	3.75	.1125
328.15	3.44	.1032
338.15	3.09	.0927
348.15	2.84	.0852
358.15	2.61	.0783
368.15	2.41	.0723

System: dl-2-butanol + 1-(2-methoxyethyl)-1-methylpiperidinium trifluorotris(perfluoroethyl)phosphate; phases: Liquid
Fixed: Pressure, kPa = 101
Fixed: Mole fraction of dl-2-butanol = 0
Property: Activity coefficient of dl-2-butanol (Liquid); method: Chromatography
Temperature, K	Activity coefficient of dl-2-butanol	uncertainty
318.15	2.79	.0837
328.15	2.58	.0774
338.15	2.34	.0702
348.15	2.18	.0654
358.15	2.03	.0609
368.15	1.91	.0573

System: isobutyl alcohol + 1-(2-methoxyethyl)-1-methylpiperidinium trifluorotris(perfluoroethyl)phosphate; phases: Liquid
Fixed: Pressure, kPa = 101
Fixed: Mole fraction of isobutyl alcohol = 0
Property: Activity coefficient of isobutyl alcohol (Liquid); method: Chromatography
Temperature, K	Activity coefficient of isobutyl alcohol	uncertainty
318.15	3.61	.1083
328.15	3.21	.0963
338.15	2.91	.0873
348.15	2.63	.0789
358.15	2.4	.072
368.15	2.24	.0672

System: 2-methyl-2-propanol + 1-(2-methoxyethyl)-1-methylpiperidinium trifluorotris(perfluoroethyl)phosphate; phases: Liquid
Fixed: Pressure, kPa = 101
Fixed: Mole fraction of 2-methyl-2-propanol = 0
Property: Activity coefficient of 2-methyl-2-propanol (Liquid); method: Chromatography
Temperature, K	Activity coefficient of 2-methyl-2-propanol	uncertainty
318.15	2.09	.0627
328.15	1.95	.0585
338.15	1.82	.0546
348.15	1.71	.0513
358.15	1.62	.0486
368.15	1.54	.0462

System: water + 1-(2-methoxyethyl)-1-methylpiperidinium trifluorotris(perfluoroethyl)phosphate; phases: Liquid
Fixed: Pressure, kPa = 101
Fixed: Mole fraction of water = 0
Property: Activity coefficient of water (Liquid); method: Chromatography
Temperature, K	Activity coefficient of water	uncertainty
318.15	7.06	.2118
328.15	6.1	.183
338.15	5.37	.1611
348.15	4.71	.1413
358.15	4.1	.123
368.15	3.7	.111

System: methyl acetate + 1-(2-methoxyethyl)-1-methylpiperidinium trifluorotris(perfluoroethyl)phosphate; phases: Liquid
Fixed: Pressure, kPa = 101
Fixed: Mole fraction of methyl acetate = 0
Property: Activity coefficient of methyl acetate (Liquid); method: Chromatography
Temperature, K	Activity coefficient of methyl acetate	uncertainty
318.15	.347	.01041
328.15	.37	.0111
338.15	.395	.01185
348.15	.423	.01269
358.15	.452	.01356
368.15	.478	.01434

System: propanoic acid, methyl ester + 1-(2-methoxyethyl)-1-methylpiperidinium trifluorotris(perfluoroethyl)phosphate; phases: Liquid
Fixed: Pressure, kPa = 101
Fixed: Mole fraction of propanoic acid, methyl ester = 0
Property: Activity coefficient of propanoic acid, methyl ester (Liquid); method: Chromatography
Temperature, K	Activity coefficient of propanoic acid, methyl ester	uncertainty
318.15	.42	.0126
328.15	.452	.01356
338.15	.482	.01446
348.15	.519	.01557
358.15	.554	.01662
368.15	.587	.01761

System: methyl n-butyrate + 1-(2-methoxyethyl)-1-methylpiperidinium trifluorotris(perfluoroethyl)phosphate; phases: Liquid
Fixed: Pressure, kPa = 101
Fixed: Mole fraction of methyl n-butyrate = 0
Property: Activity coefficient of methyl n-butyrate (Liquid); method: Chromatography
Temperature, K	Activity coefficient of methyl n-butyrate	uncertainty
318.15	.561	.01683
328.15	.598	.01794
338.15	.638	.01914
348.15	.683	.02049
358.15	.721	.02163
368.15	.76	.0228

System: ethyl ethanoate + 1-(2-methoxyethyl)-1-methylpiperidinium trifluorotris(perfluoroethyl)phosphate; phases: Liquid
Fixed: Pressure, kPa = 101
Fixed: Mole fraction of ethyl ethanoate = 0
Property: Activity coefficient of ethyl ethanoate (Liquid); method: Chromatography
Temperature, K	Activity coefficient of ethyl ethanoate	uncertainty
318.15	.426	.01278
328.15	.456	.01368
338.15	.486	.01458
348.15	.521	.01563
358.15	.554	.01662
368.15	.586	.01758

System: oxacyclopentane + 1-(2-methoxyethyl)-1-methylpiperidinium trifluorotris(perfluoroethyl)phosphate; phases: Liquid
Fixed: Pressure, kPa = 101
Fixed: Mole fraction of oxacyclopentane = 0
Property: Activity coefficient of oxacyclopentane (Liquid); method: Chromatography
Temperature, K	Activity coefficient of oxacyclopentane	uncertainty
318.15	.425	.01275
328.15	.454	.01362
338.15	.478	.01434
348.15	.512	.01536
358.15	.54	.0162
368.15	.567	.01701

System: p-dioxane + 1-(2-methoxyethyl)-1-methylpiperidinium trifluorotris(perfluoroethyl)phosphate; phases: Liquid
Fixed: Pressure, kPa = 101
Fixed: Mole fraction of p-dioxane = 0
Property: Activity coefficient of p-dioxane (Liquid); method: Chromatography
Temperature, K	Activity coefficient of p-dioxane	uncertainty
318.15	.355	.01065
328.15	.388	.01164
338.15	.418	.01254
348.15	.453	.01359
358.15	.485	.01455
368.15	.519	.01557

System: 1,1-dimethyl-1-methoxyethane + 1-(2-methoxyethyl)-1-methylpiperidinium trifluorotris(perfluoroethyl)phosphate; phases: Liquid
Fixed: Pressure, kPa = 101
Fixed: Mole fraction of 1,1-dimethyl-1-methoxyethane = 0
Property: Activity coefficient of 1,1-dimethyl-1-methoxyethane (Liquid); method: Chromatography
Temperature, K	Activity coefficient of 1,1-dimethyl-1-methoxyethane	uncertainty
318.15	1.28	.0384
328.15	1.35	.0405
338.15	1.43	.0429
348.15	1.5	.045
358.15	1.57	.0471
368.15	1.65	.0495

System: 2-ethoxy-2-methylpropane + 1-(2-methoxyethyl)-1-methylpiperidinium trifluorotris(perfluoroethyl)phosphate; phases: Liquid
Fixed: Pressure, kPa = 101
Fixed: Mole fraction of 2-ethoxy-2-methylpropane = 0
Property: Activity coefficient of 2-ethoxy-2-methylpropane (Liquid); method: Chromatography
Temperature, K	Activity coefficient of 2-ethoxy-2-methylpropane	uncertainty
318.15	2.9	.087
328.15	2.97	.0891
338.15	3.05	.0915
348.15	3.11	.0933
358.15	3.18	.0954
368.15	3.25	.0975

System: methyl tert-amyl ether + 1-(2-methoxyethyl)-1-methylpiperidinium trifluorotris(perfluoroethyl)phosphate; phases: Liquid
Fixed: Pressure, kPa = 101
Fixed: Mole fraction of methyl tert-amyl ether = 0
Property: Activity coefficient of methyl tert-amyl ether (Liquid); method: Chromatography
Temperature, K	Activity coefficient of methyl tert-amyl ether	uncertainty
318.15	1.84	.0552
328.15	1.92	.0576
338.15	2.01	.0603
348.15	2.08	.0624
358.15	2.15	.0645
368.15	2.23	.0669

System: ether + 1-(2-methoxyethyl)-1-methylpiperidinium trifluorotris(perfluoroethyl)phosphate; phases: Liquid
Fixed: Pressure, kPa = 101
Fixed: Mole fraction of ether = 0
Property: Activity coefficient of ether (Liquid); method: Chromatography
Temperature, K	Activity coefficient of ether	uncertainty
318.15	1.32	.0396
328.15	1.38	.0414
338.15	1.45	.0435
348.15	1.51	.0453
358.15	1.57	.0471
368.15	1.63	.0489

System: 4-oxaheptane + 1-(2-methoxyethyl)-1-methylpiperidinium trifluorotris(perfluoroethyl)phosphate; phases: Liquid
Fixed: Pressure, kPa = 101
Fixed: Mole fraction of 4-oxaheptane = 0
Property: Activity coefficient of 4-oxaheptane (Liquid); method: Chromatography
Temperature, K	Activity coefficient of 4-oxaheptane	uncertainty
318.15	3.21	.0963
328.15	3.26	.0978
338.15	3.33	.0999
348.15	3.37	.1011
358.15	3.42	.1026
368.15	3.48	.1044

System: ethane, 1-methyl-1-(1-methylethoxy)- + 1-(2-methoxyethyl)-1-methylpiperidinium trifluorotris(perfluoroethyl)phosphate; phases: Liquid
Fixed: Pressure, kPa = 101
Fixed: Mole fraction of ethane, 1-methyl-1-(1-methylethoxy)- = 0
Property: Activity coefficient of ethane, 1-methyl-1-(1-methylethoxy)- (Liquid); method: Chromatography
Temperature, K	Activity coefficient of ethane, 1-methyl-1-(1-methylethoxy)-	uncertainty
318.15	2.9	.087
328.15	2.99	.0897
338.15	3.08	.0924
348.15	3.16	.0948
358.15	3.23	.0969
368.15	3.3	.099

System: butane, 1,1'-oxybis- + 1-(2-methoxyethyl)-1-methylpiperidinium trifluorotris(perfluoroethyl)phosphate; phases: Liquid
Fixed: Pressure, kPa = 101
Fixed: Mole fraction of butane, 1,1'-oxybis- = 0
Property: Activity coefficient of butane, 1,1'-oxybis- (Liquid); method: Chromatography
Temperature, K	Activity coefficient of butane, 1,1'-oxybis-	uncertainty
318.15	6.55	.1965
328.15	6.5	.195
338.15	6.45	.1935
348.15	6.39	.1917
358.15	6.34	.1902
368.15	6.3	.189

System: acetone + 1-(2-methoxyethyl)-1-methylpiperidinium trifluorotris(perfluoroethyl)phosphate; phases: Liquid
Fixed: Pressure, kPa = 101
Fixed: Mole fraction of acetone = 0
Property: Activity coefficient of acetone (Liquid); method: Chromatography
Temperature, K	Activity coefficient of acetone	uncertainty
318.15	.233	.00699
328.15	.25	.0075
338.15	.269	.00807
348.15	.286	.00858
358.15	.303	.00909
368.15	.325	.00975

System: propyl methyl ketone + 1-(2-methoxyethyl)-1-methylpiperidinium trifluorotris(perfluoroethyl)phosphate; phases: Liquid
Fixed: Pressure, kPa = 101
Fixed: Mole fraction of propyl methyl ketone = 0
Property: Activity coefficient of propyl methyl ketone (Liquid); method: Chromatography
Temperature, K	Activity coefficient of propyl methyl ketone	uncertainty
318.15	.363	.01089
328.15	.389	.01167
338.15	.416	.01248
348.15	.446	.01338
358.15	.472	.01416
368.15	.503	.01509

System: 3-pentanone + 1-(2-methoxyethyl)-1-methylpiperidinium trifluorotris(perfluoroethyl)phosphate; phases: Liquid
Fixed: Pressure, kPa = 101
Fixed: Mole fraction of 3-pentanone = 0
Property: Activity coefficient of 3-pentanone (Liquid); method: Chromatography
Temperature, K	Activity coefficient of 3-pentanone	uncertainty
318.15	.361	.01083
328.15	.392	.01176
338.15	.421	.01263
348.15	.453	.01359
358.15	.482	.01446
368.15	.516	.01548

System: butyraldehyde + 1-(2-methoxyethyl)-1-methylpiperidinium trifluorotris(perfluoroethyl)phosphate; phases: Liquid
Fixed: Pressure, kPa = 101
Fixed: Mole fraction of butyraldehyde = 0
Property: Activity coefficient of butyraldehyde (Liquid); method: Chromatography
Temperature, K	Activity coefficient of butyraldehyde	uncertainty
318.15	.43	.0129
328.15	.456	.01368
338.15	.482	.01446
348.15	.514	.01542
358.15	.54	.0162
368.15	.566	.01698

System: acetonitrile + 1-(2-methoxyethyl)-1-methylpiperidinium trifluorotris(perfluoroethyl)phosphate; phases: Liquid
Fixed: Pressure, kPa = 101
Fixed: Mole fraction of acetonitrile = 0
Property: Activity coefficient of acetonitrile (Liquid); method: Chromatography
Temperature, K	Activity coefficient of acetonitrile	uncertainty
318.15	.3	.009
328.15	.315	.00945
338.15	.327	.00981
348.15	.344	.01032
358.15	.356	.01068
368.15	.371	.01113

System: 1-nitropropane + 1-(2-methoxyethyl)-1-methylpiperidinium trifluorotris(perfluoroethyl)phosphate; phases: Liquid
Fixed: Pressure, kPa = 101
Fixed: Mole fraction of 1-nitropropane = 0
Property: Activity coefficient of 1-nitropropane (Liquid); method: Chromatography
Temperature, K	Activity coefficient of 1-nitropropane	uncertainty
318.15	.495	.01485
328.15	.512	.01536
338.15	.53	.0159
348.15	.548	.01644
358.15	.566	.01698
368.15	.582	.01746

System: 1-pentyne + 1-(2-methoxyethyl)-1-methylpiperidinium trifluorotris(perfluoroethyl)phosphate; phases: Liquid
Fixed: Pressure, kPa = 101
Fixed: Mole fraction of 1-pentyne = 0
Property: Activity coefficient of 1-pentyne (Liquid); method: Chromatography
Temperature, K	Activity coefficient of 1-pentyne	uncertainty
318.15	1.62	.0486
328.15	1.69	.0507
338.15	1.76	.0528
348.15	1.81	.0543
358.15	1.87	.0561
368.15	1.93	.0579
