Measured thermophysical data. Solubility of high-value compounds in ethyl lactate: Measurements and modelling
Source: J. Chem. Thermodyn., 2012, 10.1016/j.jct.2011.12.005
Compound 1: m-thymol, C10H14O, purity 99.5%
Compound 2: caffeine, C8H10N4O2, purity 99%
Compound 3: vanillic acid, C8H8O4, purity 97%
Compound 4: 4-hydroxy-3-methoxycinnamic acid, C10H10O4, purity 99%
Compound 5: trans-3,4-dihydroxycinnamic acid, C9H8O4, purity 98%
Compound 6: ethyl lactate, C5H10O3, purity 98%
Compound 7: water, H2O, purity 99.8%

System: m-thymol; phases: Crystal, Liquid, Air at 1 atmosphere
Property: Normal melting temperature, K (Crystal); method: DSC/DTA
Normal melting temperature, K	uncertainty
322	.1

System: m-thymol; phases: Crystal, Liquid
Property: Molar enthalpy of transition or fusion, kJ/mol (Crystal); method: DSC/DTA
Temperature, K	Molar enthalpy of transition or fusion, kJ/mol	uncertainty
322	17.4	.6

System: caffeine; phases: Crystal, Liquid, Air at 1 atmosphere
Property: Normal melting temperature, K (Crystal); method: DSC/DTA
Normal melting temperature, K	uncertainty
505.4	

System: caffeine; phases: Crystal, Liquid
Property: Molar enthalpy of transition or fusion, kJ/mol (Crystal); method: DSC/DTA
Temperature, K	Molar enthalpy of transition or fusion, kJ/mol	uncertainty
505.4	17.9	.1

System: vanillic acid; phases: Crystal, Liquid, Air at 1 atmosphere
Property: Normal melting temperature, K (Crystal); method: DSC/DTA
Normal melting temperature, K	uncertainty
480.7	.2

System: vanillic acid; phases: Crystal, Liquid
Property: Molar enthalpy of transition or fusion, kJ/mol (Crystal); method: DSC/DTA
Temperature, K	Molar enthalpy of transition or fusion, kJ/mol	uncertainty
480.7	29.1	.6

System: 4-hydroxy-3-methoxycinnamic acid; phases: Crystal, Liquid, Air at 1 atmosphere
Property: Normal melting temperature, K (Crystal); method: DSC/DTA
Normal melting temperature, K	uncertainty
444.9	.4

System: 4-hydroxy-3-methoxycinnamic acid; phases: Crystal, Liquid
Property: Molar enthalpy of transition or fusion, kJ/mol (Crystal); method: DSC/DTA
Temperature, K	Molar enthalpy of transition or fusion, kJ/mol	uncertainty
444.9	31.9	.9

System: m-thymol + ethyl lactate + water; phases: Liquid, Crystal
Fixed: Pressure, kPa = 101.3
Property: Mole fraction of m-thymol (Liquid); method: Synthetic Method
Solvent: Mass fraction of water	Temperature, K	Mole fraction of m-thymol	uncertainty
.014	301.4	.6975	.0014
.014	304.3	.7281	.0014
.014	307.5	.7653	.0014
.014	307.8	.7671	.0014
.014	308.3	.7717	.0014
.014	316.5	.8893	.0014
.014	318.6	.9137	.0014
.0003	301	.6978	.0014
.0003	303.5	.7207	.0014
.0003	307.5	.7638	.0014
.0003	308.4	.7784	.0014
.0003	309.3	.7928	.0014
.0003	311	.8085	.0014
.0003	313.3	.8421	.0014
.0003	317.8	.8985	.0014

System: caffeine + ethyl lactate + water; phases: Liquid, Crystal
Fixed: Pressure, kPa = 101.3
Property: Mole fraction of caffeine (Liquid); method: Synthetic Method
Solvent: Mass fraction of water	Temperature, K	Mole fraction of caffeine	uncertainty
.014	298.2	.0192	.0001
.014	313.2	.0305	.0001
.014	328.2	.0418	.0001
.014	343.2	.0508	.0001
.0003	296.2	.0144	.0001
.0003	303.1	.0198	.0001
.0003	312.7	.0253	.0001
.0003	323	.0319	.0001
.0003	333.3	.0414	.0001

System: vanillic acid + ethyl lactate + water; phases: Liquid, Crystal
Fixed: Pressure, kPa = 101.3
Property: Mole fraction of vanillic acid (Liquid); method: Synthetic Method
Solvent: Mass fraction of water	Temperature, K	Mole fraction of vanillic acid	uncertainty
.014	298.2	.027	.0001
.014	313.2	.0355	.0001
.014	328.2	.0482	.0001
.014	343.2	.0584	.0001
.0003	296.2	.0279	.0001
.0003	303.1	.0321	.0001
.0003	312.7	.0379	.0001
.0003	323	.0444	.0001
.0003	333.3	.0545	.0001

System: trans-3,4-dihydroxycinnamic acid + ethyl lactate + water; phases: Liquid, Crystal
Fixed: Pressure, kPa = 101.3
Property: Mole fraction of trans-3,4-dihydroxycinnamic acid (Liquid); method: Synthetic Method
Solvent: Mass fraction of water	Temperature, K	Mole fraction of trans-3,4-dihydroxycinnamic acid	uncertainty
.014	298.2	.0129	.0001
.014	313.2	.0165	.0001
.014	328.2	.0203	.0001
.014	343.2	.023	.0001
.0003	296.2	.0089	.0001
.0003	303.1	.0103	.0001
.0003	312.7	.0119	.0001
.0003	323	.0142	.0001
.0003	333.3	.0171	.0001

System: ethyl lactate + 4-hydroxy-3-methoxycinnamic acid + water; phases: Liquid, Crystal
Fixed: Pressure, kPa = 101.3
Property: Mole fraction of ethyl lactate (Liquid); method: Synthetic Method
Solvent: Mass fraction of water	Temperature, K	Mole fraction of ethyl lactate	uncertainty
.014	298.2	.0803	.0001
.014	313.2	.0939	.0001
.014	328.2	.1061	.0001
.014	343.2	.1177	.0001
.0003	296.2	.0277	.0001
.0003	303.1	.0349	.0001
.0003	312.7	.0428	.0001
.0003	323	.0526	.0001
.0003	333.3	.0614	.0001
