Measured thermophysical data. The liquid-liquid coexistence curves of {x dimethyl adipate + (1 - x) n-hexane} and {x dimethyl adipate + (1 - x) n-heptane} in the critical region
Source: J. Chem. Thermodyn., 2012, 10.1016/j.jct.2011.12.024
Compound 1: dimethyl 1,6-hexanedioate, C8H14O4, purity 99%
Compound 2: heptane, C7H16, purity 99%
Compound 3: n-hexane, C6H14, purity 99%

System: dimethyl 1,6-hexanedioate; phases: Liquid
Fixed: Pressure, kPa = 101.325
Property: Mass density, kg/m3 (Liquid); method: Vibrating tube method
Temperature, K	Mass density, kg/m3	uncertainty
281.15	1073.093	.005
282.15	1072.116	.005
283.15	1071.142	.005
284.15	1070.167	.005
285.15	1069.191	.005
286.15	1068.215	.005
287.15	1067.24	.005
288.15	1066.264	.005
289.15	1065.29	.005
290.15	1064.317	.005
291.15	1063.342	.005
292.15	1062.368	.005
293.15	1061.393	.005
294.15	1060.42	.005
295.15	1059.446	.005
296.15	1058.471	.005
297.15	1057.499	.005
298.15	1056.524	.005
299.15	1055.549	.005
300.15	1054.576	.005
301.15	1053.601	.005
302.15	1052.628	.005
303.15	1051.654	.005
304.15	1050.677	.005
305.15	1049.703	.005
306.15	1048.727	.005
307.15	1047.752	.005
308.15	1046.777	.005

System: dimethyl 1,6-hexanedioate; phases: Liquid
Fixed: Pressure, kPa = 101.325
Property: Refractive index (other wavelength) (Liquid); method: Standard Abbe refractometry
Wavelength, nm	Temperature, K	Refractive index (other wavelength)	uncertainty
632.8	283.482	1.4312	.0001
632.8	284.37	1.4309	.0001
632.8	285.276	1.4305	.0001
632.8	286.097	1.4302	.0001
632.8	286.922	1.4298	.0001
632.8	287.648	1.4296	.0001
632.8	288.488	1.4292	.0001

System: n-hexane; phases: Liquid
Fixed: Pressure, kPa = 101.325
Property: Refractive index (other wavelength) (Liquid); method: Standard Abbe refractometry
Wavelength, nm	Temperature, K	Refractive index (other wavelength)	uncertainty
632.8	283.721	1.3789	.0001
632.8	284.52	1.3785	.0001
632.8	285.347	1.3781	.0001
632.8	286.214	1.3776	.0001
632.8	287.099	1.3771	.0001
632.8	287.941	1.3767	.0001
632.8	288.712	1.3762	.0001

System: heptane + dimethyl 1,6-hexanedioate; phases: Liquid, Gas
Property: Critical temperature, K (Liquid); method: Visual observation in an unstirred cell
Mole fraction of dimethyl 1,6-hexanedioate	Critical temperature, K	uncertainty
.393	294.2	.1

System: heptane + dimethyl 1,6-hexanedioate; phases: Liquid
Fixed: Wavelength, nm = 632.8
Property: Refractive index (other wavelength) (Liquid); method: Standard Abbe refractometry
Mole fraction of dimethyl 1,6-hexanedioate	Temperature, K	Refractive index (other wavelength)	uncertainty
0	289.623	1.3883	.0001
0	290.675	1.3878	.0001
0	291.71	1.3873	.0001
0	292.7	1.3868	.0001
0	293.739	1.3863	.0001
0	294.707	1.3858	.0001
0	295.773	1.3853	.0001
.1018	292.222	1.3909	.0001
.1018	293.269	1.3904	.0001
.1018	295.394	1.3893	.0001
.1018	294.374	1.3898	.0001
.1018	296.451	1.3888	.0001
.1018	297.447	1.3883	.0001
.2007	294.958	1.398	.0001
.2007	295.952	1.3975	.0001
.2007	296.908	1.3971	.0001
.2007	298.025	1.3965	.0001
.2007	299.113	1.396	.0001
.2007	300.152	1.3955	.0001
.2007	301.211	1.395	.0001
.3992	295.613	1.402	.0001
.3992	296.649	1.4016	.0001
.3992	297.636	1.4011	.0001
.3992	298.661	1.4007	.0001
.3992	299.7	1.4002	.0001
.3992	300.67	1.3997	.0001
.3992	301.743	1.3992	.0001
.4976	295.798	1.4062	.0001
.4976	296.9	1.4056	.0001
.4976	297.952	1.4052	.0001
.4976	298.924	1.4048	.0001
.4976	299.927	1.4043	.0001
.4976	300.929	1.4039	.0001
.4976	301.978	1.4034	.0001
.5999	292.852	1.412	.0001
.5999	293.869	1.4115	.0001
.5999	294.863	1.4111	.0001
.5999	295.831	1.4107	.0001
.5999	296.81	1.4103	.0001
.5999	297.865	1.4098	.0001
.7009	293.075	1.4159	.0001
.7009	294.117	1.4155	.0001
.7009	295.151	1.415	.0001
.7009	296.148	1.4146	.0001
.7009	297.23	1.4142	.0001
.7009	298.153	1.4138	.0001
.8048	293.283	1.42	.0001
.8048	294.218	1.4196	.0001
.8048	295.121	1.4192	.0001
.8048	296.094	1.4188	.0001
.8048	297.081	1.4184	.0001
.8048	298.016	1.418	.0001
.8979	293.203	1.4236	.0001
.8979	294.114	1.4232	.0001
.8979	295.008	1.4228	.0001
.8979	295.944	1.4224	.0001
.8979	296.895	1.422	.0001
.8979	297.805	1.4216	.0001
1	289.503	1.4287	.0001
1	291.652	1.4279	.0001
1	294.899	1.4265	.0001
1	296.944	1.4257	.0001

System: heptane + dimethyl 1,6-hexanedioate; phases: Liquid mixture 1, Liquid mixture 2
Fixed: Pressure, kPa = 101.325
Property: Mole fraction of dimethyl 1,6-hexanedioate (Liquid mixture 1); method: Index of refraction calibration data
Temperature, K	Mole fraction of dimethyl 1,6-hexanedioate	uncertainty
294.216	.369	.003
294.213	.364	.003
294.211	.362	.003
294.208	.359	.003
294.202	.357	.003
294.194	.355	.003
294.184	.348	.003
294.169	.343	.003
294.149	.338	.003
294.131	.333	.003
294.114	.331	.003
294.092	.328	.003
294.073	.326	.003
294.044	.321	.003
294.013	.316	.003
293.963	.313	.003
293.902	.306	.003
293.838	.3	.003
293.753	.295	.003
293.601	.284	.003
293.443	.275	.003
293.275	.266	.003
293.077	.26	.003
292.775	.249	.003
292.363	.238	.003
291.787	.224	.003
291.167	.213	.003
290.399	.199	.003
289.392	.188	.003
288.377	.174	.003
287.174	.16	.003
285.728	.148	.003
284.719	.141	.003

System: heptane + dimethyl 1,6-hexanedioate; phases: Liquid mixture 2, Liquid mixture 1
Fixed: Pressure, kPa = 101.325
Property: Mole fraction of dimethyl 1,6-hexanedioate (Liquid mixture 2); method: Index of refraction calibration data
Temperature, K	Mole fraction of dimethyl 1,6-hexanedioate	uncertainty
294.216	.421	.003
294.213	.424	.003
294.211	.426	.003
294.208	.43	.003
294.202	.433	.003
294.194	.435	.003
294.184	.439	.003
294.169	.446	.003
294.149	.451	.003
294.131	.455	.003
294.114	.459	.003
294.092	.462	.003
294.073	.466	.003
294.044	.47	.003
294.013	.475	.003
293.963	.479	.003
293.902	.487	.003
293.838	.491	.003
293.753	.5	.003
293.601	.507	.003
293.443	.517	.003
293.275	.527	.003
293.077	.535	.003
292.775	.548	.003
292.363	.56	.003
291.787	.575	.003
291.167	.593	.003
290.399	.606	.003
289.392	.624	.003
288.377	.64	.003
287.174	.655	.003
285.728	.674	.003
284.719	.685	.003

System: heptane + dimethyl 1,6-hexanedioate; phases: Liquid mixture 1, Liquid mixture 2
Property: Refractive index (other wavelength) (Liquid mixture 1); method: Standard Abbe refractometry
Temperature, K	Mole fraction of dimethyl 1,6-hexanedioate	Refractive index (other wavelength)	uncertainty
294.216	.369	1.4014	.0001
294.213	.364	1.4012	.0001
294.211	.362	1.4011	.0001
294.208	.359	1.401	.0001
294.202	.357	1.4009	.0001
294.194	.355	1.4008	.0001
294.184	.348	1.4005	.0001
294.169	.343	1.4003	.0001
294.149	.338	1.4001	.0001
294.131	.333	1.3999	.0001
294.114	.331	1.3998	.0001
294.092	.328	1.3997	.0001
294.073	.326	1.3996	.0001
294.044	.321	1.3994	.0001
294.013	.316	1.3992	.0001
293.963	.313	1.3991	.0001
293.902	.306	1.3988	.0001
293.838	.3	1.3986	.0001
293.753	.295	1.3984	.0001
293.601	.284	1.398	.0001
293.443	.275	1.3977	.0001
293.275	.266	1.3974	.0001
293.077	.26	1.3972	.0001
292.775	.249	1.3969	.0001
292.363	.238	1.3966	.0001
291.787	.224	1.3963	.0001
291.167	.213	1.3961	.0001
290.399	.199	1.3959	.0001
289.392	.188	1.3959	.0001
288.377	.174	1.3958	.0001
287.174	.16	1.3958	.0001
285.728	.148	1.396	.0001
284.719	.141	1.3962	.0001

System: heptane + dimethyl 1,6-hexanedioate; phases: Liquid mixture 2, Liquid mixture 1
Property: Refractive index (other wavelength) (Liquid mixture 2); method: Standard Abbe refractometry
Temperature, K	Mole fraction of dimethyl 1,6-hexanedioate	Refractive index (other wavelength)	uncertainty
294.216	.421	1.4014	.0001
294.213	.424	1.4012	.0001
294.211	.426	1.4011	.0001
294.208	.43	1.401	.0001
294.202	.433	1.4009	.0001
294.194	.435	1.4008	.0001
294.184	.439	1.4005	.0001
294.169	.446	1.4003	.0001
294.149	.451	1.4001	.0001
294.131	.455	1.3999	.0001
294.114	.459	1.3998	.0001
294.092	.462	1.3997	.0001
294.073	.466	1.3996	.0001
294.044	.47	1.3994	.0001
294.013	.475	1.3992	.0001
293.963	.479	1.3991	.0001
293.902	.487	1.3988	.0001
293.838	.491	1.3986	.0001
293.753	.5	1.3984	.0001
293.601	.507	1.398	.0001
293.443	.517	1.3977	.0001
293.275	.527	1.3974	.0001
293.077	.535	1.3972	.0001
292.775	.548	1.3969	.0001
292.363	.56	1.3966	.0001
291.787	.575	1.3963	.0001
291.167	.593	1.3961	.0001
290.399	.606	1.3959	.0001
289.392	.624	1.3959	.0001
288.377	.64	1.3958	.0001
287.174	.655	1.3958	.0001
285.728	.674	1.396	.0001
284.719	.685	1.3962	.0001

System: n-hexane + dimethyl 1,6-hexanedioate; phases: Liquid, Gas
Property: Critical temperature, K (Liquid); method: Visual observation in an unstirred cell
Mole fraction of dimethyl 1,6-hexanedioate	Critical temperature, K	uncertainty
.353	289.3	.1

System: n-hexane + dimethyl 1,6-hexanedioate; phases: Liquid
Fixed: Wavelength, nm = 632.8
Fixed: Temperature, K = 289.28
Property: Refractive index (other wavelength) (Liquid); method: Standard Abbe refractometry
Mole fraction of dimethyl 1,6-hexanedioate	Refractive index (other wavelength)	uncertainty
.101	1.3821	.0001
.202	1.3884	.0001
.301	1.3944	.0001
.394	1.3998	.0001
.5	1.4056	.0001
.599	1.4107	.0001
.706	1.416	.0001
.799	1.4203	.0001
.882	1.4239	.0001

System: n-hexane + dimethyl 1,6-hexanedioate; phases: Liquid mixture 1, Liquid mixture 2
Fixed: Pressure, kPa = 101.325
Property: Mole fraction of dimethyl 1,6-hexanedioate (Liquid mixture 1); method: Index of refraction calibration data
Temperature, K	Mole fraction of dimethyl 1,6-hexanedioate	uncertainty
289.248	.33	.003
289.246	.328	.003
289.247	.325	.003
289.244	.321	.003
289.235	.319	.003
289.229	.316	.003
289.225	.312	.003
289.213	.306	.003
289.202	.306	.003
289.185	.299	.003
289.167	.293	.003
289.148	.293	.003
289.129	.29	.003
289.11	.286	.003
289.08	.281	.003
289.05	.279	.003
288.996	.272	.003
288.949	.266	.003
288.886	.263	.003
288.821	.257	.003
288.682	.248	.003
288.535	.241	.003
288.381	.234	.003
288.178	.225	.003
287.875	.216	.003
287.514	.206	.003
286.928	.195	.003
286.306	.182	.003
285.498	.168	.003
284.442	.156	.003
283.434	.144	.003
282.449	.136	.003
281.298	.126	.003
280.112	.117	.003

System: n-hexane + dimethyl 1,6-hexanedioate; phases: Liquid mixture 2, Liquid mixture 1
Fixed: Pressure, kPa = 101.325
Property: Mole fraction of dimethyl 1,6-hexanedioate (Liquid mixture 2); method: Index of refraction calibration data
Temperature, K	Mole fraction of dimethyl 1,6-hexanedioate	uncertainty
289.248	.369	.003
289.246	.373	.003
289.247	.375	.003
289.244	.378	.003
289.235	.383	.003
289.229	.387	.003
289.225	.388	.003
289.213	.397	.003
289.202	.399	.003
289.185	.404	.003
289.167	.411	.003
289.148	.414	.003
289.129	.416	.003
289.11	.419	.003
289.08	.426	.003
289.05	.428	.003
288.996	.434	.003
288.949	.438	.003
288.886	.442	.003
288.821	.449	.003
288.682	.459	.003
288.535	.468	.003
288.381	.476	.003
288.178	.486	.003
287.875	.5	.003
287.514	.512	.003
286.928	.529	.003
286.306	.543	.003
285.498	.559	.003
284.442	.579	.003
283.434	.596	.003
282.449	.609	.003
281.298	.622	.003
280.112	.638	.003

System: n-hexane + dimethyl 1,6-hexanedioate; phases: Liquid mixture 1, Liquid mixture 2
Property: Refractive index (other wavelength) (Liquid mixture 1); method: Standard Abbe refractometry
Temperature, K	Mole fraction of dimethyl 1,6-hexanedioate	Refractive index (other wavelength)	uncertainty
289.248	.33	1.3961	.0001
289.246	.328	1.396	.0001
289.247	.325	1.3958	.0001
289.244	.321	1.3956	.0001
289.235	.319	1.3955	.0001
289.229	.316	1.3953	.0001
289.225	.312	1.3951	.0001
289.213	.306	1.3947	.0001
289.202	.306	1.3947	.0001
289.185	.299	1.3943	.0001
289.167	.293	1.394	.0001
289.148	.293	1.394	.0001
289.129	.29	1.3938	.0001
289.11	.286	1.3936	.0001
289.08	.281	1.3933	.0001
289.05	.279	1.3932	.0001
288.996	.272	1.3928	.0001
288.949	.266	1.3925	.0001
288.886	.263	1.3923	.0001
288.821	.257	1.392	.0001
288.682	.248	1.3915	.0001
288.535	.241	1.3912	.0001
288.381	.234	1.3908	.0001
288.178	.225	1.3904	.0001
287.875	.216	1.39	.0001
287.514	.206	1.3896	.0001
286.928	.195	1.3892	.0001
286.306	.182	1.3887	.0001
285.498	.168	1.3883	.0001
284.442	.156	1.3881	.0001
283.434	.144	1.3879	.0001
282.449	.136	1.3879	.0001
281.298	.126	1.3879	.0001
280.112	.117	1.388	.0001

System: n-hexane + dimethyl 1,6-hexanedioate; phases: Liquid mixture 2, Liquid mixture 1
Property: Refractive index (other wavelength) (Liquid mixture 2); method: Standard Abbe refractometry
Temperature, K	Mole fraction of dimethyl 1,6-hexanedioate	Refractive index (other wavelength)	uncertainty
289.248	.369	1.3984	.0001
289.246	.373	1.3986	.0001
289.247	.375	1.3987	.0001
289.244	.378	1.3989	.0001
289.235	.383	1.3992	.0001
289.229	.387	1.3994	.0001
289.225	.388	1.3995	.0001
289.213	.397	1.4	.0001
289.202	.399	1.4001	.0001
289.185	.404	1.4004	.0001
289.167	.411	1.4008	.0001
289.148	.414	1.401	.0001
289.129	.416	1.4011	.0001
289.11	.419	1.4013	.0001
289.08	.426	1.4017	.0001
289.05	.428	1.4018	.0001
288.996	.434	1.4022	.0001
288.949	.438	1.4024	.0001
288.886	.442	1.4027	.0001
288.821	.449	1.4031	.0001
288.682	.459	1.4037	.0001
288.535	.468	1.4043	.0001
288.381	.476	1.4048	.0001
288.178	.486	1.4054	.0001
287.875	.5	1.4063	.0001
287.514	.512	1.4071	.0001
286.928	.529	1.4083	.0001
286.306	.543	1.4093	.0001
285.498	.559	1.4105	.0001
284.442	.579	1.412	.0001
283.434	.596	1.4133	.0001
282.449	.609	1.4144	.0001
281.298	.622	1.4156	.0001
280.112	.638	1.4169	.0001
