Measured thermophysical data. Physico-chemical properties of binary mixtures of N,N-dimethylformamide with  1-octanol, 1-nonanol and 1-decanol at different temperatures
Source: J. Chem. Thermodyn., 2013, 10.1016/j.jct.2012.11.015
Compound 1: N,N-dimethylformamide, C3H7NO, purity 99.8%
Compound 2: 1-octanol, C8H18O, purity 99%
Compound 3: 1-nonanol, C9H20O, purity 98%
Compound 4: 1-decanol, C10H22O, purity 99%

System: N,N-dimethylformamide; phases: Liquid
Fixed: Pressure, kPa = 101.325
Property: Mass density, kg/m3 (Liquid); method: Vibrating tube method
Temperature, K	Mass density, kg/m3	uncertainty
298.15	944.29	.00005

System: N,N-dimethylformamide; phases: Liquid
Fixed: Pressure, kPa = 101.325
Property: Speed of sound, m/s (Liquid); method: Sing-around technique in a fixed-path interferometer
Temperature, K	Speed of sound, m/s	uncertainty
298.15	1457.69	.5

System: N,N-dimethylformamide; phases: Liquid
Fixed: Pressure, kPa = 101.325
Property: Refractive index (Na D-line) (Liquid); method: Standard Abbe refractometry
Temperature, K	Refractive index (Na D-line)	uncertainty
298.15	1.428	.0004

System: N,N-dimethylformamide; phases: Liquid
Property: Mass density, kg/m3 (Liquid); method: Vibrating tube method
Temperature, K	Pressure, kPa	Mass density, kg/m3	uncertainty
303.15	101	939.047	.005
308.15	101	934.721	.005
313.15	101	929.478	.005

System: 1-octanol; phases: Liquid
Fixed: Pressure, kPa = 101.325
Property: Mass density, kg/m3 (Liquid); method: Vibrating tube method
Temperature, K	Mass density, kg/m3	uncertainty
298.15	821.222	.00005

System: 1-octanol; phases: Liquid
Fixed: Pressure, kPa = 101.325
Property: Speed of sound, m/s (Liquid); method: Sing-around technique in a fixed-path interferometer
Temperature, K	Speed of sound, m/s	uncertainty
298.15	1347.82	.5

System: 1-octanol; phases: Liquid
Fixed: Pressure, kPa = 101.325
Property: Refractive index (Na D-line) (Liquid); method: Standard Abbe refractometry
Temperature, K	Refractive index (Na D-line)	uncertainty
298.15	1.4273	.0004

System: 1-octanol; phases: Liquid
Property: Mass density, kg/m3 (Liquid); method: Vibrating tube method
Temperature, K	Pressure, kPa	Mass density, kg/m3	uncertainty
303.15	101	818.209	.005
308.15	101	814.742	.005
313.15	101	810.629	.005

System: 1-nonanol; phases: Liquid
Fixed: Pressure, kPa = 101.325
Property: Mass density, kg/m3 (Liquid); method: Vibrating tube method
Temperature, K	Mass density, kg/m3	uncertainty
298.15	824.478	.00005

System: 1-nonanol; phases: Liquid
Fixed: Pressure, kPa = 101.325
Property: Speed of sound, m/s (Liquid); method: Sing-around technique in a fixed-path interferometer
Temperature, K	Speed of sound, m/s	uncertainty
298.15	1365.48	.5

System: 1-nonanol; phases: Liquid
Fixed: Pressure, kPa = 101.325
Property: Refractive index (Na D-line) (Liquid); method: Standard Abbe refractometry
Temperature, K	Refractive index (Na D-line)	uncertainty
298.15	1.4319	.0004

System: 1-nonanol; phases: Liquid
Property: Mass density, kg/m3 (Liquid); method: Vibrating tube method
Temperature, K	Pressure, kPa	Mass density, kg/m3	uncertainty
303.15	101	821.044	.005
308.15	101	817.582	.005
313.15	101	814.098	.005

System: 1-decanol; phases: Liquid
Fixed: Pressure, kPa = 101.325
Property: Mass density, kg/m3 (Liquid); method: Vibrating tube method
Temperature, K	Mass density, kg/m3	uncertainty
298.15	826.562	.00005

System: 1-decanol; phases: Liquid
Fixed: Pressure, kPa = 101.325
Property: Speed of sound, m/s (Liquid); method: Sing-around technique in a fixed-path interferometer
Temperature, K	Speed of sound, m/s	uncertainty
298.15	1380.01	.5

System: 1-decanol; phases: Liquid
Fixed: Pressure, kPa = 101.325
Property: Refractive index (Na D-line) (Liquid); method: Standard Abbe refractometry
Temperature, K	Refractive index (Na D-line)	uncertainty
298.15	1.4348	.0004

System: 1-decanol; phases: Liquid
Property: Mass density, kg/m3 (Liquid); method: Vibrating tube method
Temperature, K	Pressure, kPa	Mass density, kg/m3	uncertainty
303.15	101	822.853	.005
308.15	101	819.427	.005
313.15	101	816.383	.005

System: N,N-dimethylformamide + 1-octanol; phases: Liquid
Fixed: Pressure, kPa = 101
Property: Mass density, kg/m3 (Liquid); method: Vibrating tube method
Temperature, K	Mole fraction of N,N-dimethylformamide	Mass density, kg/m3	uncertainty
298.15	0	821.222	.005
298.15	.2198	835.186	.005
298.15	.3728	847.253	.005
298.15	.5208	861.646	.005
298.15	.6277	874.238	.005
298.15	.7118	885.914	.005
298.15	.7877	898.138	.005
298.15	.8519	909.952	.005
298.15	.9085	921.843	.005
298.15	.9556	932.914	.005
298.15	1	944.29	.005
303.15	0	818.209	.005
303.15	.2198	831.811	.005
303.15	.3728	843.584	.005
303.15	.5208	857.568	.005
303.15	.6277	869.964	.005
303.15	.7118	881.458	.005
303.15	.7877	893.435	.005
303.15	.8519	905.109	.005
303.15	.9085	916.796	.005
303.15	.9556	927.592	.005
303.15	1	939.047	.005
308.15	0	814.742	.005
308.15	.2198	828.086	.005
308.15	.3728	839.752	.005
308.15	.5208	853.623	.005
308.15	.6277	865.852	.005
308.15	.7118	877.239	.005
308.15	.7877	889.113	.005
308.15	.8519	900.709	.005
308.15	.9085	912.287	.005
308.15	.9556	923.224	.005
308.15	1	934.721	.005
313.15	0	810.629	.005
313.15	.2198	823.708	.005
313.15	.3728	835.263	.005
313.15	.5208	849.056	.005
313.15	.6277	861.125	.005
313.15	.7118	872.405	.005
313.15	.7877	884.137	.005
313.15	.8519	895.506	.005
313.15	.9085	907.01	.005
313.15	.9556	917.847	.005
313.15	1	929.478	.005

System: N,N-dimethylformamide + 1-nonanol; phases: Liquid
Fixed: Pressure, kPa = 101
Property: Mass density, kg/m3 (Liquid); method: Vibrating tube method
Temperature, K	Mole fraction of N,N-dimethylformamide	Mass density, kg/m3	uncertainty
298.15	0	824.478	.005
298.15	.2201	836.826	.005
298.15	.3969	849.646	.005
298.15	.5458	863.512	.005
298.15	.6515	875.893	.005
298.15	.7321	887.234	.005
298.15	.8042	899.18	.005
298.15	.8644	910.842	.005
298.15	.9168	922.441	.005
298.15	.9596	933.098	.005
298.15	1	944.29	.005
303.15	0	821.044	.005
303.15	.2201	833.085	.005
303.15	.3969	845.647	.005
303.15	.5458	859.175	.005
303.15	.6515	871.335	.005
303.15	.7321	882.498	.005
303.15	.8042	894.281	.005
303.15	.8644	905.742	.005
303.15	.9168	917.225	.005
303.15	.9596	927.834	.005
303.15	1	939.047	.005
308.15	0	817.582	.005
308.15	.2201	829.399	.005
308.15	.3969	841.793	.005
308.15	.5458	855.283	.005
308.15	.6515	867.284	.005
308.15	.7321	878.301	.005
308.15	.8042	889.932	.005
308.15	.8644	901.314	.005
308.15	.9168	912.742	.005
308.15	.9596	923.379	.005
308.15	1	934.721	.005
313.15	0	814.098	.005
313.15	.2201	825.49	.005
313.15	.3969	837.685	.005
313.15	.5458	851.074	.005
313.15	.6515	862.916	.005
313.15	.7321	873.711	.005
313.15	.8042	885.08	.005
313.15	.8644	896.217	.005
313.15	.9168	907.487	.005
313.15	.9596	918.072	.005
313.15	1	929.478	.005

System: N,N-dimethylformamide + 1-decanol; phases: Liquid
Fixed: Pressure, kPa = 101
Property: Mass density, kg/m3 (Liquid); method: Vibrating tube method
Temperature, K	Mole fraction of N,N-dimethylformamide	Mass density, kg/m3	uncertainty
298.15	0	826.562	.005
298.15	.2361	838.6	.005
298.15	.4193	851.13	.005
298.15	.5688	864.685	.005
298.15	.6724	876.794	.005
298.15	.7496	887.827	.005
298.15	.8185	899.61	.005
298.15	.8748	910.986	.005
298.15	.923	922.298	.005
298.15	.9632	933.094	.005
298.15	1	944.29	.005
303.15	0	822.853	.005
303.15	.2361	834.589	.005
303.15	.4193	846.845	.005
303.15	.5688	860.269	.005
303.15	.6724	872.216	.005
303.15	.7496	883.031	.005
303.15	.8185	894.603	.005
303.15	.8748	905.795	.005
303.15	.923	916.997	.005
303.15	.9632	927.772	.005
303.15	1	939.047	.005
308.15	0	819.427	.005
308.15	.2361	830.903	.005
308.15	.4193	843.033	.005
308.15	.5688	856.394	.005
308.15	.6724	868.282	.005
308.15	.7496	879.008	.005
308.15	.8185	890.399	.005
308.15	.8748	901.448	.005
308.15	.923	912.559	.005
308.15	.9632	923.333	.005
308.15	1	934.721	.005
313.15	0	816.383	.005
313.15	.2361	827.267	.005
313.15	.4193	839.221	.005
313.15	.5688	852.343	.005
313.15	.6724	863.94	.005
313.15	.7496	874.443	.005
313.15	.8185	885.574	.005
313.15	.8748	896.397	.005
313.15	.923	907.34	.005
313.15	.9632	918.051	.005
313.15	1	929.478	.005
