Measured thermophysical data. Effect of an ionic liquid on the volumetric behavior of tetradentate N2O2 type Schiff bases in DMF  at T = (308.15 to 328.15) K
Source: J. Chem. Thermodyn., 2012, 10.1016/j.jct.2012.02.020
Compound 1: 2,2'-[1,2-phenylenebis(nitrilomethylidyne)]bis-phenol, C20H16N2O2, purity 98%
Compound 2: 1-methylimidazole, C4H6N2, purity 99%
Compound 3: 1-bromopentane, C5H11Br, purity 99%
Compound 4: trimethylenediamine, C3H10N2, purity 98%
Compound 5: 1,2-diaminocyclohexane, C6H14N2, purity 98%
Compound 6: N,N-dimethylformamide, C3H7NO, purity 99%
Compound 7: o-benzenediamine, C6H8N2, purity 98%
Compound 8: 1-pentyl-3-methylimidazolium bromide, C9H17BrN2, purity 98%
Compound 9: N,N'-bis(2-hydroxybenzylidene)-1,3-propanediamine, C17H18N2O2, purity 98%
Compound 10: N,N'-bis(salicylidene)-1,2-cyclohexadiamine, C20H22N2O2, purity 98%
Compound 11: salicylaldehyde, C7H6O2, purity 99%

System: N,N-dimethylformamide + 2,2'-[1,2-phenylenebis(nitrilomethylidyne)]bis-phenol; phases: Liquid
Fixed: Pressure, kPa = 101
Property: Mass density, kg/m3 (Liquid); method: Vibrating tube method
Temperature, K	Molality, mol/kg of 2,2'-[1,2-phenylenebis(nitrilomethylidyne)]bis-phenol	Mass density, kg/m3	uncertainty
308.15	.0295	936.46	.03
308.15	.051	937.93	.03
308.15	.0697	939.23	.03
308.15	.0894	940.57	.03
308.15	.1106	942.02	.03
308.15	.1299	943.32	.03
308.15	.1465	944.46	.03
308.15	.1701	946.04	.03
308.15	.1898	947.37	.03
318.15	.0295	926.87	.03
318.15	.051	928.37	.03
318.15	.0697	929.67	.03
318.15	.0894	931.03	.03
318.15	.1106	932.48	.03
318.15	.1299	933.81	.03
318.15	.1465	934.93	.03
318.15	.1701	936.53	.03
318.15	.1898	937.88	.03
328.15	.0295	917.34	.03
328.15	.051	918.85	.03
328.15	.0697	920.16	.03
328.15	.0894	921.54	.03
328.15	.1106	923	.03
328.15	.1299	924.36	.03
328.15	.1465	925.51	.03
328.15	.1701	927.14	.03
328.15	.1898	928.51	.03

System: N,N-dimethylformamide + N,N'-bis(2-hydroxybenzylidene)-1,3-propanediamine; phases: Liquid
Fixed: Pressure, kPa = 101
Property: Mass density, kg/m3 (Liquid); method: Vibrating tube method
Temperature, K	Molality, mol/kg of N,N'-bis(2-hydroxybenzylidene)-1,3-propanediamine	Mass density, kg/m3	uncertainty
308.15	.0291	935.86	.03
308.15	.0459	936.6	.03
308.15	.0672	937.53	.03
308.15	.0857	938.34	.03
308.15	.1089	939.36	.03
308.15	.1257	940.09	.03
308.15	.143	940.84	.03
308.15	.1615	941.64	.03
308.15	.1807	942.47	.03
318.15	.0291	926.28	.03
318.15	.0459	927.03	.03
318.15	.0672	927.97	.03
318.15	.0857	928.79	.03
318.15	.1089	929.82	.03
318.15	.1257	930.56	.03
318.15	.143	931.31	.03
318.15	.1615	932.12	.03
318.15	.1807	932.96	.03
328.15	.0291	916.65	.03
328.15	.0459	917.41	.03
328.15	.0672	918.37	.03
328.15	.0857	919.2	.03
328.15	.1089	920.24	.03
328.15	.1257	920.99	.03
328.15	.143	921.75	.03
328.15	.1615	922.57	.03
328.15	.1807	923.42	.03

System: N,N'-bis(salicylidene)-1,2-cyclohexadiamine + N,N-dimethylformamide; phases: Liquid
Fixed: Pressure, kPa = 101
Property: Mass density, kg/m3 (Liquid); method: Vibrating tube method
Temperature, K	Molality, mol/kg of N,N'-bis(salicylidene)-1,2-cyclohexadiamine	Mass density, kg/m3	uncertainty
308.15	.0304	936.02	.03
308.15	.0451	936.77	.03
308.15	.069	937.99	.03
308.15	.0916	939.14	.03
308.15	.1294	941.03	.03
308.15	.1492	942.02	.03
308.15	.169	943	.03
308.15	.1889	944	.03
308.15	.2087	944.98	.03
318.15	.0304	926.44	.03
318.15	.0451	927.2	.03
318.15	.069	928.43	.03
318.15	.0916	929.59	.03
318.15	.1294	931.51	.03
318.15	.1492	932.52	.03
318.15	.169	933.51	.03
318.15	.1889	934.52	.03
318.15	.2087	935.51	.03
328.15	.0304	916.79	.03
328.15	.0451	917.55	.03
328.15	.069	918.8	.03
328.15	.0916	919.97	.03
328.15	.1294	921.91	.03
328.15	.1492	922.94	.03
328.15	.169	923.94	.03
328.15	.1889	925	.03
328.15	.2087	926	.03

System: N,N-dimethylformamide + 2,2'-[1,2-phenylenebis(nitrilomethylidyne)]bis-phenol + 1-pentyl-3-methylimidazolium bromide; phases: Liquid
Fixed: Pressure, kPa = 101
Fixed: Solvent: Molality, mol/kg of 1-pentyl-3-methylimidazolium bromide = .03
Property: Mass density, kg/m3 (Liquid); method: Vibrating tube method
Temperature, K	Molality, mol/kg of 2,2'-[1,2-phenylenebis(nitrilomethylidyne)]bis-phenol	Mass density, kg/m3	uncertainty
308.15	.0489	939.73	.03
308.15	.0672	941	.03
308.15	.1009	943.3	.03
308.15	.1081	943.79	.03
308.15	.1265	945.03	.03
308.15	.1473	946.43	.03
308.15	.1675	947.79	.03
308.15	.1923	949.46	.03
308.15	.2085	950.57	.03
308.15	.0293	938	.03
318.15	.0489	930.18	.03
318.15	.0672	931.45	.03
318.15	.1009	933.78	.03
318.15	.1081	934.27	.03
318.15	.1265	935.51	.03
318.15	.1473	936.93	.03
318.15	.1675	938.28	.03
318.15	.1923	939.96	.03
318.15	.2085	941.08	.03
318.15	.0293	928.43	.03
328.15	.0489	920.58	.03
328.15	.0672	921.86	.03
328.15	.1009	924.2	.03
328.15	.1081	924.7	.03
328.15	.1265	925.96	.03
328.15	.1473	927.37	.03
328.15	.1675	928.74	.03
328.15	.1923	930.42	.03
328.15	.2085	931.52	.03
328.15	.0293	918.83	.03

System: N,N-dimethylformamide + 1-pentyl-3-methylimidazolium bromide + N,N'-bis(2-hydroxybenzylidene)-1,3-propanediamine; phases: Liquid
Fixed: Pressure, kPa = 101
Fixed: Solvent: Molality, mol/kg of 1-pentyl-3-methylimidazolium bromide = .03
Property: Mass density, kg/m3 (Liquid); method: Vibrating tube method
Temperature, K	Molality, mol/kg of N,N'-bis(2-hydroxybenzylidene)-1,3-propanediamine	Mass density, kg/m3	uncertainty
308.15	.0472	938.79	.03
308.15	.0657	939.6	.03
308.15	.0879	940.57	.03
308.15	.1036	941.25	.03
308.15	.1224	942.08	.03
308.15	.1427	942.95	.03
308.15	.1595	943.67	.03
308.15	.175	944.35	.03
318.15	.0472	929.23	.03
318.15	.0657	930.06	.03
318.15	.0879	931.04	.03
318.15	.1036	931.74	.03
318.15	.1224	932.57	.03
318.15	.1427	933.47	.03
318.15	.1595	934.21	.03
318.15	.175	934.9	.03
328.15	.0472	919.64	.03
328.15	.0657	920.48	.03
328.15	.0879	921.48	.03
328.15	.1036	922.19	.03
328.15	.1224	923.04	.03
328.15	.1427	923.96	.03
328.15	.1595	924.73	.03
328.15	.175	925.42	.03

System: N,N'-bis(salicylidene)-1,2-cyclohexadiamine + N,N-dimethylformamide + 1-pentyl-3-methylimidazolium bromide; phases: Liquid
Fixed: Pressure, kPa = 101
Fixed: Solvent: Molality, mol/kg of 1-pentyl-3-methylimidazolium bromide = .03
Property: Mass density, kg/m3 (Liquid); method: Vibrating tube method
Temperature, K	Molality, mol/kg of N,N'-bis(salicylidene)-1,2-cyclohexadiamine	Mass density, kg/m3	uncertainty
308.15	.0293	938.61	.03
308.15	.0496	939.64	.03
308.15	.071	940.72	.03
308.15	.0986	942.11	.03
308.15	.13	943.65	.03
308.15	.1452	944.42	.03
308.15	.1715	945.71	.03
308.15	.1847	946.41	.03
308.15	.2136	947.83	.03
318.15	.0293	929.05	.03
318.15	.0496	930.1	.03
318.15	.071	931.19	.03
318.15	.0986	932.6	.03
318.15	.13	934.17	.03
318.15	.1452	934.94	.03
318.15	.1715	936.26	.03
318.15	.1847	936.96	.03
318.15	.2136	938.39	.03
328.15	.0293	919.46	.03
328.15	.0496	920.52	.03
328.15	.071	921.63	.03
328.15	.0986	923.04	.03
328.15	.13	924.65	.03
328.15	.1452	925.42	.03
328.15	.1715	926.76	.03
328.15	.1847	927.46	.03
328.15	.2136	928.92	.03
