Measured thermophysical data. Advanced calibration, adjustment, and operation of a density and sound speed analyzer
Source: J. Chem. Thermodyn., 2013, 10.1016/j.jct.2012.09.009
Compound 1: methylbenzene, C7H8, purity 98%
Compound 2: 2,2,4-trimethylpentane, C8H18, purity 98%

System: methylbenzene; phases: Liquid
Fixed: Pressure, kPa = 101.325
Property: Speed of sound, m/s (Liquid); method: Sing-around technique in a fixed-path interferometer
Temperature, K	Speed of sound, m/s	uncertainty
343.15	1117	.6
338.15	1137.2	.5
333.15	1157.7	.6
328.15	1178.2	.6
323.15	1198.9	.6
318.15	1219.9	.6
313.15	1240.9	.6
308.15	1262.2	.6
303.15	1283.6	.6
298.15	1305.1	.5
293.15	1326.9	.6
288.15	1349.1	.6
283.15	1371.5	.6
278.15	1394.1	.6

System: 2,2,4-trimethylpentane; phases: Liquid
Fixed: Pressure, kPa = 101.325
Property: Mass density, kg/m3 (Liquid); method: Vibrating tube method
Temperature, K	Mass density, kg/m3	uncertainty
343.15	649.4	.06
338.15	653.81	.06
333.15	658.19	.06
328.15	662.52	.06
323.15	666.81	.07
318.15	671.07	.07
313.15	675.28	.06
308.15	679.48	.06
303.15	683.64	.06
298.15	687.77	.06
293.15	691.89	.06
288.15	695.98	.06
283.15	700.05	.06
278.15	704.1	.06

System: 2,2,4-trimethylpentane; phases: Liquid
Fixed: Pressure, kPa = 101.325
Property: Speed of sound, m/s (Liquid); method: Sing-around technique in a fixed-path interferometer
Temperature, K	Speed of sound, m/s	uncertainty
343.15	900	.4
338.15	919.7	.4
333.15	939.7	.4
328.15	959.7	.4
323.15	980	.4
318.15	1000.5	.4
313.15	1020.9	.4
308.15	1041.6	.5
303.15	1062.4	.4
298.15	1083.1	.4
293.15	1104.3	.4
288.15	1125.4	.4
283.15	1146.8	.4
278.15	1168.4	.4
