Measured thermophysical data. Experimental study of the excess molar volume of ternary mixtures containing  {water + (1,2-propanediol, or 1,3-propanediol, or 1,2-butanediol, or 1,3-butanediol, or 1,4-butanediol, or 2,3-butanediol) + electrolytes} at a temperature of 298.15 K and atmospheric pressure
Source: J. Chem. Thermodyn., 2010, 10.1016/j.jct.2009.11.018
Compound 1: water, H2O, purity 99.8%
Compound 2: 1,2-propanediol, C3H8O2
Compound 3: trimethylene glycol, C3H8O2
Compound 4: 1,2-butanediol, C4H10O2
Compound 5: 1,3-butanediol, C4H10O2
Compound 6: butane, 1,4-dihydroxy-, C4H10O2
Compound 7: 2,3-butanediol, C4H10O2
Compound 8: sodium bromide, BrNa
Compound 9: ammonium bromide, BrH4N
Compound 10: tetraethylammonium bromide, C8H20BrN
Compound 11: 1-n-butyl-3-methylimidazolium bromide, C8H15BrN2

System: 1,2-propanediol + water; phases: Liquid
Fixed: Temperature, K = 298.15
Fixed: Pressure, kPa = 101
Property: Mass density, kg/m3 (Liquid); method: Pycnometric method
Mole fraction of 1,2-propanediol	Mass density, kg/m3	uncertainty
.0731	1016.4	1.0164
.1555	1031.1	1.0311
.2449	1037.7	1.0377
.3384	1039.6	1.0396
.4321	1039.8	1.0398
.5223	1039	1.039
.6058	1038	1.038
.6803	1036.8	1.0368
.7446	1035.9	1.0359
.7987	1035	1.035
.843	1034.5	1.0345
.8786	1033.8	1.0338
.9068	1033.4	1.0334
.9355	1033.1	1.0331

System: 1,2-propanediol + water; phases: Liquid
Fixed: Temperature, K = 298.15
Fixed: Pressure, kPa = 101
Property: Excess molar volume, m3/mol (Liquid); method: Calculated with densities of this investigation
Mole fraction of 1,2-propanediol	Excess molar volume, m3/mol	uncertainty
.0731	-.0000002192	-.000000000006576
.1555	-.0000004798	-.000000000014394
.2449	-.0000006202	-.000000000018606
.3384	-.0000006618	-.000000000019854
.4321	-.0000006525	-.000000000019575
.5223	-.0000005985	-.000000000017955
.6058	-.0000005311	-.000000000015933
.6803	-.0000004493	-.000000000013479
.7446	-.0000003731	-.000000000011193
.7987	-.0000003005	-.000000000009015
.843	-.0000002477	-.000000000007431
.8786	-.0000001891	-.000000000005673
.9068	-.0000001459	-.000000000004377
.9355	-.0000001052	-.000000000003156

System: trimethylene glycol + water; phases: Liquid
Fixed: Temperature, K = 298.15
Fixed: Pressure, kPa = 101
Property: Mass density, kg/m3 (Liquid); method: Pycnometric method
Mole fraction of trimethylene glycol	Mass density, kg/m3	uncertainty
.0731	1015.1	1.0151
.1555	1028.5	1.0285
.2449	1038.2	1.0382
.3384	1044.4	1.0444
.4321	1047.9	1.0479
.5223	1049.6	1.0496
.6058	1050.3	1.0503
.6803	1050.4	1.0504
.7446	1050.5	1.0505
.7987	1050.5	1.0505
.843	1050.4	1.0504
.8786	1050.4	1.0504
.9068	1050.2	1.0502
.9355	1049.9	1.0499

System: trimethylene glycol + water; phases: Liquid
Fixed: Temperature, K = 298.15
Fixed: Pressure, kPa = 101
Property: Excess molar volume, m3/mol (Liquid); method: Calculated with densities of this investigation
Mole fraction of trimethylene glycol	Excess molar volume, m3/mol	uncertainty
.0731	-.0000000998	-.000000000002994
.1555	-.0000002158	-.000000000006474
.2449	-.0000003274	-.000000000009822
.3384	-.0000004008	-.000000000012024
.4321	-.0000004271	-.000000000012813
.5223	-.0000004118	-.000000000012354
.6058	-.0000003653	-.000000000010959
.6803	-.0000003078	-.000000000009234
.7446	-.0000002549	-.000000000007647
.7987	-.0000002069	-.000000000006207
.843	-.000000166	-.00000000000498
.8786	-.0000001314	-.000000000003942
.9068	-.0000001067	-.000000000003201
.9355	-.0000000752	-.000000000002256

System: 1,2-butanediol + water; phases: Liquid
Fixed: Temperature, K = 298.15
Fixed: Pressure, kPa = 101
Property: Mass density, kg/m3 (Liquid); method: Pycnometric method
Mole fraction of 1,2-butanediol	Mass density, kg/m3	uncertainty
.0625	1009.5	1.0095
.1347	1015.8	1.0158
.2153	1016.4	1.0164
.3019	1014.2	1.0142
.3915	1011.6	1.0116
.4804	1009.2	1.0092
.5651	1006.9	1.0069
.6428	1005.2	1.0052
.7115	1003.6	1.0036
.7703	1002.4	1.0024
.8195	1001.4	1.0014
.8595	1000.7	1.0007
.8916	1000.2	1.0002
.9244	999.9	.9999

System: 1,2-butanediol + water; phases: Liquid
Fixed: Temperature, K = 298.15
Fixed: Pressure, kPa = 101
Property: Excess molar volume, m3/mol (Liquid); method: Calculated with densities of this investigation
Mole fraction of 1,2-butanediol	Excess molar volume, m3/mol	uncertainty
.0625	-.0000002553	-.000000000007659
.1347	-.0000004812	-.000000000014436
.2153	-.0000005993	-.000000000017979
.3019	-.0000006262	-.000000000018786
.3915	-.0000006071	-.000000000018213
.4804	-.0000005663	-.000000000016989
.5651	-.0000005001	-.000000000015003
.6428	-.0000004359	-.000000000013077
.7115	-.0000003607	-.000000000010821
.7703	-.0000002967	-.000000000008901
.8195	-.0000002339	-.000000000007017
.8595	-.0000001873	-.000000000005619
.8916	-.0000001499	-.000000000004497
.9244	-.0000001056	-.000000000003168

System: 1,3-butanediol + water; phases: Liquid
Fixed: Temperature, K = 298.15
Fixed: Pressure, kPa = 101
Property: Mass density, kg/m3 (Liquid); method: Pycnometric method
Mole fraction of 1,3-butanediol	Mass density, kg/m3	uncertainty
.0625	1008.2	1.0082
.1347	1015.9	1.0159
.2153	1019.2	1.0192
.3019	1018.8	1.0188
.3915	1016.8	1.0168
.4804	1014.4	1.0144
.5651	1012.2	1.0122
.6428	1009.9	1.0099
.7115	1007.9	1.0079
.7703	1006.2	1.0062
.8195	1004.8	1.0048
.8595	1003.8	1.0038
.8916	1003	1.003
.9244	1002.2	1.0022

System: 1,3-butanediol + water; phases: Liquid
Fixed: Temperature, K = 298.15
Fixed: Pressure, kPa = 101
Property: Excess molar volume, m3/mol (Liquid); method: Calculated with densities of this investigation
Mole fraction of 1,3-butanediol	Excess molar volume, m3/mol	uncertainty
.0625	-.0000002188	-.000000000006564
.1347	-.0000004707	-.000000000014121
.2153	-.0000006485	-.000000000019455
.3019	-.0000007478	-.000000000022434
.3915	-.0000007752	-.000000000023256
.4804	-.0000007706	-.000000000023118
.5651	-.0000007294	-.000000000021882
.6428	-.000000659	-.00000000001977
.7115	-.0000005704	-.000000000017112
.7703	-.0000004874	-.000000000014622
.8195	-.0000004009	-.000000000012027
.8595	-.0000003385	-.000000000010155
.8916	-.0000002815	-.000000000008445
.9244	-.000000205	-.00000000000615

System: butane, 1,4-dihydroxy- + water; phases: Liquid
Fixed: Temperature, K = 298.15
Fixed: Pressure, kPa = 101
Property: Mass density, kg/m3 (Liquid); method: Pycnometric method
Mole fraction of butane, 1,4-dihydroxy-	Mass density, kg/m3	uncertainty
.0625	1006.6	1.0066
.1347	1015	1.015
.2153	1019.9	1.0199
.3019	1021.6	1.0216
.3915	1021.7	1.0217
.4804	1021	1.021
.5651	1020	1.02
.6428	1018.8	1.0188
.7115	1017.5	1.0175
.7703	1016.6	1.0166
.8195	1015.7	1.0157
.8595	1015.1	1.0151
.8916	1014.7	1.0147
.9244	1014.1	1.0141

System: butane, 1,4-dihydroxy- + water; phases: Liquid
Fixed: Temperature, K = 298.15
Fixed: Pressure, kPa = 101
Property: Excess molar volume, m3/mol (Liquid); method: Calculated with densities of this investigation
Mole fraction of butane, 1,4-dihydroxy-	Excess molar volume, m3/mol	uncertainty
.0625	-.0000001119	-.000000000003357
.1347	-.0000002878	-.000000000008634
.2153	-.0000004411	-.000000000013233
.3019	-.000000526	-.00000000001578
.3915	-.0000005625	-.000000000016875
.4804	-.0000005603	-.000000000016809
.5651	-.0000005289	-.000000000015867
.6428	-.0000004768	-.000000000014304
.7115	-.0000004012	-.000000000012036
.7703	-.0000003375	-.000000000010125
.8195	-.0000002736	-.000000000008208
.8595	-.0000002285	-.000000000006855
.8916	-.0000001873	-.000000000005619
.9244	-.0000001396	-.000000000004188

System: 2,3-butanediol + water; phases: Liquid
Fixed: Temperature, K = 298.15
Fixed: Pressure, kPa = 101
Property: Mass density, kg/m3 (Liquid); method: Pycnometric method
Mole fraction of 2,3-butanediol	Mass density, kg/m3	uncertainty
.0618	1014.1	1.0141
.1379	1021.5	1.0215
.1796	1023.1	1.0231
.2179	1023.2	1.0232
.2417	1022.7	1.0227
.2696	1022	1.022
.3027	1021	1.021
.3426	1019.5	1.0195
.3913	1017.6	1.0176
.4524	1015.2	1.0152
.5308	1012.2	1.0122
.6352	1008.4	1.0084
.7805	1004.1	1.0041
.9001	1000.9	1.0009

System: 2,3-butanediol + water; phases: Liquid
Fixed: Temperature, K = 298.15
Fixed: Pressure, kPa = 101
Property: Excess molar volume, m3/mol (Liquid); method: Calculated with densities of this investigation
Mole fraction of 2,3-butanediol	Excess molar volume, m3/mol	uncertainty
.0618	-.000000371	-.00000000001113
.1379	-.0000006531	-.000000000019593
.1796	-.0000007669	-.000000000023007
.2179	-.0000008346	-.000000000025038
.2417	-.0000008589	-.000000000025767
.2696	-.0000008786	-.000000000026358
.3027	-.0000008954	-.000000000026862
.3426	-.0000008964	-.000000000026892
.3913	-.0000008822	-.000000000026466
.4524	-.0000008455	-.000000000025365
.5308	-.0000007732	-.000000000023196
.6352	-.0000006343	-.000000000019029
.7805	-.0000004156	-.000000000012468
.9001	-.0000001925	-.000000000005775

System: 1,2-propanediol + sodium bromide + water; phases: Liquid
Fixed: Temperature, K = 298.15
Fixed: Pressure, kPa = 101
Fixed: Ratio of amount of solute to mass of solution, mol/kg of sodium bromide = .1
Property: Mass density, kg/m3 (Liquid); method: Pycnometric method
Mole fraction of 1,2-propanediol	Mass density, kg/m3	uncertainty
.0256	1017.2	1.0172
.0528	1026	1.026
.0813	1033.8	1.0338
.111	1040.9	1.0409
.1419	1044.7	1.0447
.1738	1047.9	1.0479
.2065	1050.2	1.0502
.24	1052.1	1.0521
.2741	1053.3	1.0533
.3085	1054.3	1.0543
.3431	1054.7	1.0547
.3778	1054.9	1.0549
.4122	1054.7	1.0547
.4462	1054.4	1.0544
.4796	1053.9	1.0539
.5123	1053.1	1.0531
.544	1052.1	1.0521
.5748	1051.2	1.0512
.6044	1050.3	1.0503
.6327	1049.7	1.0497
.6598	1049	1.049
.6854	1048.4	1.0484
.7097	1048	1.048
.7325	1047.3	1.0473
.754	1046.9	1.0469
.774	1046.4	1.0464
.7927	1045.9	1.0459
.81	1045.5	1.0455

System: 1,2-propanediol + sodium bromide + water; phases: Liquid
Fixed: Temperature, K = 298.15
Fixed: Pressure, kPa = 101
Fixed: Ratio of amount of solute to mass of solution, mol/kg of sodium bromide = .1
Property: Excess molar volume, m3/mol (Liquid); method: Calculated with densities of this investigation
Mole fraction of 1,2-propanediol	Excess molar volume, m3/mol	uncertainty
.0256	-.0000001522	-.000000000004566
.0528	-.000000281	-.00000000000843
.0813	-.0000004116	-.000000000012348
.111	-.0000005465	-.000000000016395
.1419	-.000000621	-.00000000001863
.1738	-.0000006918	-.000000000020754
.2065	-.0000007506	-.000000000022518
.24	-.0000008028	-.000000000024084
.2741	-.000000843	-.00000000002529
.3085	-.0000008776	-.000000000026328
.3431	-.0000008977	-.000000000026931
.3778	-.0000009096	-.000000000027288
.4122	-.000000911	-.00000000002733
.4462	-.0000009065	-.000000000027195
.4796	-.0000008888	-.000000000026664
.5123	-.0000008581	-.000000000025743
.544	-.0000008159	-.000000000024477
.5748	-.0000007756	-.000000000023268
.6044	-.0000007343	-.000000000022029
.6327	-.000000702	-.00000000002106
.6598	-.0000006649	-.000000000019947
.6854	-.0000006302	-.000000000018906
.7097	-.0000006014	-.000000000018042
.7325	-.0000005609	-.000000000016827
.754	-.0000005312	-.000000000015936
.774	-.0000004963	-.000000000014889
.7927	-.0000004653	-.000000000013959
.81	-.0000004349	-.000000000013047

System: trimethylene glycol + sodium bromide + water; phases: Liquid
Fixed: Temperature, K = 298.15
Fixed: Pressure, kPa = 101
Fixed: Ratio of amount of solute to mass of solution, mol/kg of sodium bromide = .1
Property: Mass density, kg/m3 (Liquid); method: Pycnometric method
Mole fraction of trimethylene glycol	Mass density, kg/m3	uncertainty
.0383	1020.2	1.0202
.0794	1030.7	1.0307
.1368	1041.2	1.0412
.198	1048.5	1.0485
.2619	1054.1	1.0541
.3275	1057.9	1.0579
.3933	1060.3	1.0603
.4581	1061.6	1.0616
.5205	1061.9	1.0619
.5797	1062	1.062
.6346	1061.9	1.0619
.6847	1061.6	1.0616
.7298	1061.2	1.0612
.7698	1060.7	1.0607
.8048	1060.3	1.0603

System: trimethylene glycol + sodium bromide + water; phases: Liquid
Fixed: Temperature, K = 298.15
Fixed: Pressure, kPa = 101
Fixed: Ratio of amount of solute to mass of solution, mol/kg of sodium bromide = .1
Property: Excess molar volume, m3/mol (Liquid); method: Calculated with densities of this investigation
Mole fraction of trimethylene glycol	Excess molar volume, m3/mol	uncertainty
.0383	-.0000001477	-.000000000004431
.0794	-.0000002542	-.000000000007626
.1368	-.0000003823	-.000000000011469
.198	-.0000004731	-.000000000014193
.2619	-.0000005565	-.000000000016695
.3275	-.0000006127	-.000000000018381
.3933	-.0000006407	-.000000000019221
.4581	-.0000006459	-.000000000019377
.5205	-.0000006173	-.000000000018519
.5797	-.0000005823	-.000000000017469
.6346	-.0000005413	-.000000000016239
.6847	-.0000004929	-.000000000014787
.7298	-.0000004403	-.000000000013209
.7698	-.0000003808	-.000000000011424
.8048	-.0000003328	-.000000000009984

System: 1,2-butanediol + sodium bromide + water; phases: Liquid
Fixed: Temperature, K = 298.15
Fixed: Pressure, kPa = 101
Fixed: Ratio of amount of solute to mass of solution, mol/kg of sodium bromide = .1
Property: Mass density, kg/m3 (Liquid); method: Pycnometric method
Mole fraction of 1,2-butanediol	Mass density, kg/m3	uncertainty
.0325	1019	1.019
.068	1025.2	1.0252
.1061	1030	1.03
.147	1031.1	1.0311
.1901	1031.3	1.0313
.2353	1030.9	1.0309
.282	1029.6	1.0296
.3297	1028	1.028
.3779	1026.3	1.0263
.4261	1024.7	1.0247
.4736	1022.8	1.0228
.5198	1021	1.021
.5644	1019.4	1.0194
.6069	1017.8	1.0178
.6469	1016.5	1.0165
.6842	1015.3	1.0153
.7187	1014.2	1.0142
.7504	1013.4	1.0134
.7791	1012.6	1.0126

System: 1,2-butanediol + sodium bromide + water; phases: Liquid
Fixed: Temperature, K = 298.15
Fixed: Pressure, kPa = 101
Fixed: Ratio of amount of solute to mass of solution, mol/kg of sodium bromide = .1
Property: Excess molar volume, m3/mol (Liquid); method: Calculated with densities of this investigation
Mole fraction of 1,2-butanediol	Excess molar volume, m3/mol	uncertainty
.0325	-.0000002603	-.000000000007809
.068	-.0000004296	-.000000000012888
.1061	-.0000005968	-.000000000017904
.147	-.0000006956	-.000000000020868
.1901	-.000000776	-.00000000002328
.2353	-.0000008418	-.000000000025254
.282	-.0000008727	-.000000000026181
.3297	-.0000008888	-.000000000026664
.3779	-.000000887	-.00000000002661
.4261	-.0000008777	-.000000000026331
.4736	-.0000008467	-.000000000025401
.5198	-.0000008022	-.000000000024066
.5644	-.0000007549	-.000000000022647
.6069	-.0000006989	-.000000000020967
.6469	-.0000006485	-.000000000019455
.6842	-.000000599	-.00000000001797
.7187	-.0000005483	-.000000000016449
.7504	-.0000005045	-.000000000015135
.7791	-.0000004626	-.000000000013878

System: 1,3-butanediol + sodium bromide + water; phases: Liquid
Fixed: Temperature, K = 298.15
Fixed: Pressure, kPa = 101
Fixed: Ratio of amount of solute to mass of solution, mol/kg of sodium bromide = .1
Property: Mass density, kg/m3 (Liquid); method: Pycnometric method
Mole fraction of 1,3-butanediol	Mass density, kg/m3	uncertainty
.0325	1017.4	1.0174
.068	1022	1.022
.1061	1026.3	1.0263
.147	1029.5	1.0295
.1901	1031.4	1.0314
.2353	1031.6	1.0316
.282	1031	1.031
.3297	1029.9	1.0299
.3779	1028.3	1.0283
.4261	1026.7	1.0267
.4736	1025.1	1.0251
.5198	1023.5	1.0235
.5644	1022	1.022
.6069	1020.6	1.0206
.6469	1019.3	1.0193
.6842	1017.9	1.0179
.7187	1016.7	1.0167
.7504	1015.7	1.0157
.7791	1014.8	1.0148

System: 1,3-butanediol + sodium bromide + water; phases: Liquid
Fixed: Temperature, K = 298.15
Fixed: Pressure, kPa = 101
Fixed: Ratio of amount of solute to mass of solution, mol/kg of sodium bromide = .1
Property: Excess molar volume, m3/mol (Liquid); method: Calculated with densities of this investigation
Mole fraction of 1,3-butanediol	Excess molar volume, m3/mol	uncertainty
.0325	-.0000002262	-.000000000006786
.068	-.0000003521	-.000000000010563
.1061	-.0000004956	-.000000000014868
.147	-.0000006351	-.000000000019053
.1901	-.0000007566	-.000000000022698
.2353	-.0000008375	-.000000000025125
.282	-.0000008928	-.000000000026784
.3297	-.000000926	-.00000000002778
.3779	-.0000009336	-.000000000028008
.4261	-.0000009279	-.000000000027837
.4736	-.0000009115	-.000000000027345
.5198	-.0000008801	-.000000000026403
.5644	-.0000008449	-.000000000025347
.6069	-.0000008042	-.000000000024126
.6469	-.0000007543	-.000000000022629
.6842	-.0000006959	-.000000000020877
.7187	-.000000639	-.00000000001917
.7504	-.0000005881	-.000000000017643
.7791	-.0000005396	-.000000000016188

System: butane, 1,4-dihydroxy- + sodium bromide + water; phases: Liquid
Fixed: Temperature, K = 298.15
Fixed: Pressure, kPa = 101
Fixed: Ratio of amount of solute to mass of solution, mol/kg of sodium bromide = .1
Property: Mass density, kg/m3 (Liquid); method: Pycnometric method
Mole fraction of butane, 1,4-dihydroxy-	Mass density, kg/m3	uncertainty
.0325	1012.3	1.0123
.068	1017.3	1.0173
.1061	1020.9	1.0209
.147	1022.7	1.0227
.1901	1023.7	1.0237
.2353	1024.9	1.0249
.282	1024.8	1.0248
.3297	1024.1	1.0241
.3779	1023.1	1.0231
.4261	1021.9	1.0219
.4736	1020.7	1.0207
.5198	1019.4	1.0194
.5644	1018.3	1.0183
.6069	1017	1.017
.6469	1016	1.016
.6842	1014.9	1.0149
.7187	1013.9	1.0139
.7504	1013.2	1.0132
.7791	1012.5	1.0125

System: butane, 1,4-dihydroxy- + sodium bromide + water; phases: Liquid
Fixed: Temperature, K = 298.15
Fixed: Pressure, kPa = 101
Fixed: Ratio of amount of solute to mass of solution, mol/kg of sodium bromide = .1
Property: Excess molar volume, m3/mol (Liquid); method: Calculated with densities of this investigation
Mole fraction of butane, 1,4-dihydroxy-	Excess molar volume, m3/mol	uncertainty
.0325	-.0000001235	-.000000000003705
.068	-.0000002466	-.000000000007398
.1061	-.0000003632	-.000000000010896
.147	-.0000004486	-.000000000013458
.1901	-.0000005246	-.000000000015738
.2353	-.0000006162	-.000000000018486
.282	-.0000006677	-.000000000020031
.3297	-.0000006973	-.000000000020919
.3779	-.0000007053	-.000000000021159
.4261	-.0000007004	-.000000000021012
.4736	-.0000006887	-.000000000020661
.5198	-.000000663	-.00000000001989
.5644	-.0000006311	-.000000000018933
.6069	-.0000005891	-.000000000017673
.6469	-.000000548	-.00000000001644
.6842	-.0000004995	-.000000000014985
.7187	-.0000004481	-.000000000013443
.7504	-.0000004083	-.000000000012249
.7791	-.0000003684	-.000000000011052

System: 2,3-butanediol + sodium bromide + water; phases: Liquid
Fixed: Temperature, K = 298.15
Fixed: Pressure, kPa = 101
Fixed: Ratio of amount of solute to mass of solution, mol/kg of sodium bromide = .1
Property: Mass density, kg/m3 (Liquid); method: Pycnometric method
Mole fraction of 2,3-butanediol	Mass density, kg/m3	uncertainty
.0142	1011.6	1.0116
.0183	1013.1	1.0131
.0208	1013.9	1.0139
.0237	1014.7	1.0147
.027	1015.8	1.0158
.0308	1016.8	1.0168
.0353	1018.5	1.0185
.0405	1019.9	1.0199
.0465	1021.8	1.0218
.0537	1023.6	1.0236
.0722	1026.8	1.0268
.0844	1028.6	1.0286
.0993	1030.3	1.0303
.1178	1031.9	1.0319
.141	1033.2	1.0332
.1555	1034	1.034
.172	1034.4	1.0344
.1912	1034.7	1.0347
.2135	1034.9	1.0349
.24	1034.8	1.0348
.2716	1034.2	1.0342
.3099	1033	1.033
.3575	1030.9	1.0309
.4177	1028.4	1.0284
.4964	1024.9	1.0249
.6033	1020.5	1.0205
.7565	1014.7	1.0147

System: 2,3-butanediol + sodium bromide + water; phases: Liquid
Fixed: Temperature, K = 298.15
Fixed: Pressure, kPa = 101
Fixed: Ratio of amount of solute to mass of solution, mol/kg of sodium bromide = .1
Property: Excess molar volume, m3/mol (Liquid); method: Calculated with densities of this investigation
Mole fraction of 2,3-butanediol	Excess molar volume, m3/mol	uncertainty
.0142	-.0000001241	-.000000000003723
.0183	-.0000001549	-.000000000004647
.0208	-.0000001708	-.000000000005124
.0237	-.0000001871	-.000000000005613
.027	-.0000002116	-.000000000006348
.0308	-.0000002331	-.000000000006993
.0353	-.000000271	-.00000000000813
.0405	-.0000003027	-.000000000009081
.0465	-.0000003482	-.000000000010446
.0537	-.0000003923	-.000000000011769
.0722	-.0000004872	-.000000000014616
.0844	-.0000005443	-.000000000016329
.0993	-.0000006085	-.000000000018255
.1178	-.0000006775	-.000000000020325
.141	-.0000007551	-.000000000022653
.1555	-.0000008019	-.000000000024057
.172	-.0000008442	-.000000000025326
.1912	-.0000008925	-.000000000026775
.2135	-.0000009419	-.000000000028257
.24	-.0000009891	-.000000000029673
.2716	-.0000010307	-.000000000030921
.3099	-.0000010561	-.000000000031683
.3575	-.0000010571	-.000000000031713
.4177	-.0000010418	-.000000000031254
.4964	-.0000009816	-.000000000029448
.6033	-.000000854	-.00000000002562
.7565	-.0000005975	-.000000000017925

System: 1,2-propanediol + water + ammonium bromide; phases: Liquid
Fixed: Temperature, K = 298.15
Fixed: Pressure, kPa = 101
Fixed: Ratio of amount of solute to mass of solution, mol/kg of ammonium bromide = .1
Property: Mass density, kg/m3 (Liquid); method: Pycnometric method
Mole fraction of 1,2-propanediol	Mass density, kg/m3	uncertainty
.0382	1016.9	1.0169
.0793	1027.1	1.0271
.1231	1035.4	1.0354
.1692	1040.9	1.0409
.2172	1045.3	1.0453
.2666	1047.7	1.0477
.317	1048.8	1.0488
.3676	1049.3	1.0493
.4179	1049.2	1.0492
.4673	1048.9	1.0489
.5152	1048.2	1.0482
.5612	1047.4	1.0474
.6049	1046.5	1.0465
.6458	1045.6	1.0456
.6839	1044.8	1.0448
.7191	1044.1	1.0441
.7511	1043.4	1.0434
.7802	1042.8	1.0428

System: 1,2-propanediol + water + ammonium bromide; phases: Liquid
Fixed: Temperature, K = 298.15
Fixed: Pressure, kPa = 101
Fixed: Ratio of amount of solute to mass of solution, mol/kg of ammonium bromide = .1
Property: Excess molar volume, m3/mol (Liquid); method: Calculated with densities of this investigation
Mole fraction of 1,2-propanediol	Excess molar volume, m3/mol	uncertainty
.0382	-.0000001722	-.000000000005166
.0793	-.0000003219	-.000000000009657
.1231	-.0000004688	-.000000000014064
.1692	-.0000005797	-.000000000017391
.2172	-.0000006834	-.000000000020502
.2666	-.0000007496	-.000000000022488
.317	-.000000783	-.00000000002349
.3676	-.0000008013	-.000000000024039
.4179	-.0000007992	-.000000000023976
.4673	-.0000007895	-.000000000023685
.5152	-.0000007606	-.000000000022818
.5612	-.0000007194	-.000000000021582
.6049	-.0000006714	-.000000000020142
.6458	-.0000006223	-.000000000018669
.6839	-.0000005731	-.000000000017193
.7191	-.0000005256	-.000000000015768
.7511	-.0000004826	-.000000000014478
.7802	-.0000004384	-.000000000013152

System: trimethylene glycol + water + ammonium bromide; phases: Liquid
Fixed: Temperature, K = 298.15
Fixed: Pressure, kPa = 101
Fixed: Ratio of amount of solute to mass of solution, mol/kg of ammonium bromide = .1
Property: Mass density, kg/m3 (Liquid); method: Pycnometric method
Mole fraction of trimethylene glycol	Mass density, kg/m3	uncertainty
.0382	1016.1	1.0161
.0793	1025.5	1.0255
.1231	1031.8	1.0318
.1692	1040.4	1.0404
.2172	1045.8	1.0458
.2666	1050.1	1.0501
.317	1053.3	1.0533
.3676	1055.4	1.0554
.4179	1057	1.057
.4673	1057.8	1.0578
.5152	1058.3	1.0583
.5612	1058.5	1.0585
.6049	1058.4	1.0584
.6458	1058.3	1.0583
.6839	1058.1	1.0581
.7191	1057.9	1.0579
.7511	1057.8	1.0578
.7802	1057.5	1.0575

System: trimethylene glycol + water + ammonium bromide; phases: Liquid
Fixed: Temperature, K = 298.15
Fixed: Pressure, kPa = 101
Fixed: Ratio of amount of solute to mass of solution, mol/kg of ammonium bromide = .1
Property: Excess molar volume, m3/mol (Liquid); method: Calculated with densities of this investigation
Mole fraction of trimethylene glycol	Excess molar volume, m3/mol	uncertainty
.0382	-.0000001083	-.000000000003249
.0793	-.0000001884	-.000000000005652
.1231	-.0000002276	-.000000000006828
.1692	-.0000003526	-.000000000010578
.2172	-.0000004248	-.000000000012744
.2666	-.000000487	-.00000000001461
.317	-.0000005312	-.000000000015936
.3676	-.0000005577	-.000000000016731
.4179	-.0000005708	-.000000000017124
.4673	-.0000005637	-.000000000016911
.5152	-.0000005461	-.000000000016383
.5612	-.0000005201	-.000000000015603
.6049	-.0000004829	-.000000000014487
.6458	-.0000004492	-.000000000013476
.6839	-.0000004114	-.000000000012342
.7191	-.0000003733	-.000000000011199
.7511	-.0000003409	-.000000000010227
.7802	-.0000003039	-.000000000009117

System: 1,2-butanediol + water + ammonium bromide; phases: Liquid
Fixed: Temperature, K = 298.15
Fixed: Pressure, kPa = 101
Fixed: Ratio of amount of solute to mass of solution, mol/kg of ammonium bromide = .1
Property: Mass density, kg/m3 (Liquid); method: Pycnometric method
Mole fraction of 1,2-butanediol	Mass density, kg/m3	uncertainty
.0325	1013.6	1.0136
.0679	1021.3	1.0213
.1061	1026	1.026
.1469	1026.9	1.0269
.19	1027	1.027
.2351	1026.5	1.0265
.2818	1025.1	1.0251
.3295	1023.7	1.0237
.3777	1021.9	1.0219
.4259	1020.2	1.0202
.4733	1018.4	1.0184
.5196	1016.8	1.0168
.5641	1015.2	1.0152
.6066	1013.9	1.0139
.6466	1012.5	1.0125
.684	1011.3	1.0113
.7185	1010.3	1.0103
.7501	1009.5	1.0095
.7789	1008.8	1.0088

System: 1,2-butanediol + water + ammonium bromide; phases: Liquid
Fixed: Temperature, K = 298.15
Fixed: Pressure, kPa = 101
Fixed: Ratio of amount of solute to mass of solution, mol/kg of ammonium bromide = .1
Property: Excess molar volume, m3/mol (Liquid); method: Calculated with densities of this investigation
Mole fraction of 1,2-butanediol	Excess molar volume, m3/mol	uncertainty
.0325	-.0000002014	-.000000000006042
.0679	-.0000003989	-.000000000011967
.1061	-.0000005598	-.000000000016794
.1469	-.0000006481	-.000000000019443
.19	-.0000007221	-.000000000021663
.2351	-.0000007772	-.000000000023316
.2818	-.0000008011	-.000000000024033
.3295	-.0000008129	-.000000000024387
.3777	-.0000008053	-.000000000024159
.4259	-.0000007823	-.000000000023469
.4733	-.0000007483	-.000000000022449
.5196	-.0000007106	-.000000000021318
.5641	-.0000006578	-.000000000019734
.6066	-.0000006116	-.000000000018348
.6466	-.0000005534	-.000000000016602
.684	-.0000004947	-.000000000014841
.7185	-.0000004479	-.000000000013437
.7501	-.0000004049	-.000000000012147
.7789	-.0000003642	-.000000000010926

System: 1,3-butanediol + water + ammonium bromide; phases: Liquid
Fixed: Temperature, K = 298.15
Fixed: Pressure, kPa = 101
Fixed: Ratio of amount of solute to mass of solution, mol/kg of ammonium bromide = .1
Property: Mass density, kg/m3 (Liquid); method: Pycnometric method
Mole fraction of 1,3-butanediol	Mass density, kg/m3	uncertainty
.0325	1012.7	1.0127
.0679	1018.3	1.0183
.1061	1022.2	1.0222
.1469	1025.5	1.0255
.19	1027.4	1.0274
.2351	1027.8	1.0278
.2818	1027.1	1.0271
.3295	1026	1.026
.3777	1024.7	1.0247
.4259	1023.3	1.0233
.4733	1021.9	1.0219
.5196	1020.3	1.0203
.5641	1018.9	1.0189
.6066	1017.5	1.0175
.6466	1016.3	1.0163
.684	1015.1	1.0151
.7185	1014	1.014
.7501	1013.1	1.0131
.7789	1012.3	1.0123

System: 1,3-butanediol + water + ammonium bromide; phases: Liquid
Fixed: Temperature, K = 298.15
Fixed: Pressure, kPa = 101
Fixed: Ratio of amount of solute to mass of solution, mol/kg of ammonium bromide = .1
Property: Excess molar volume, m3/mol (Liquid); method: Calculated with densities of this investigation
Mole fraction of 1,3-butanediol	Excess molar volume, m3/mol	uncertainty
.0325	-.0000001806	-.000000000005418
.0679	-.0000003242	-.000000000009726
.1061	-.0000004565	-.000000000013695
.1469	-.0000005933	-.000000000017799
.19	-.0000007132	-.000000000021396
.2351	-.000000796	-.00000000002388
.2818	-.0000008431	-.000000000025293
.3295	-.0000008718	-.000000000026154
.3777	-.0000008847	-.000000000026541
.4259	-.0000008842	-.000000000026526
.4733	-.0000008733	-.000000000026199
.5196	-.0000008425	-.000000000025275
.5641	-.0000008095	-.000000000024285
.6066	-.0000007635	-.000000000022905
.6466	-.000000725	-.00000000002175
.684	-.0000006755	-.000000000020265
.7185	-.0000006231	-.000000000018693
.7501	-.0000005744	-.000000000017232
.7789	-.0000005312	-.000000000015936

System: butane, 1,4-dihydroxy- + water + ammonium bromide; phases: Liquid
Fixed: Temperature, K = 298.15
Fixed: Pressure, kPa = 101
Fixed: Ratio of amount of solute to mass of solution, mol/kg of ammonium bromide = .1
Property: Mass density, kg/m3 (Liquid); method: Pycnometric method
Mole fraction of butane, 1,4-dihydroxy-	Mass density, kg/m3	uncertainty
.0325	1010	1.01
.0679	1013.8	1.0138
.1061	1017.3	1.0173
.1469	1019.2	1.0192
.19	1020.1	1.0201
.2351	1021.3	1.0213
.2818	1021.3	1.0213
.3295	1020.8	1.0208
.3777	1019.9	1.0199
.4259	1018.7	1.0187
.4733	1017.6	1.0176
.5196	1016.3	1.0163
.5641	1015.2	1.0152
.6066	1013.9	1.0139
.6466	1012.9	1.0129
.684	1012	1.012
.7185	1011.2	1.0112
.7501	1010.5	1.0105
.7789	1009.9	1.0099

System: butane, 1,4-dihydroxy- + water + ammonium bromide; phases: Liquid
Fixed: Temperature, K = 298.15
Fixed: Pressure, kPa = 101
Fixed: Ratio of amount of solute to mass of solution, mol/kg of ammonium bromide = .1
Property: Excess molar volume, m3/mol (Liquid); method: Calculated with densities of this investigation
Mole fraction of butane, 1,4-dihydroxy-	Excess molar volume, m3/mol	uncertainty
.0325	-.0000001267	-.000000000003801
.0679	-.0000002246	-.000000000006738
.1061	-.0000003329	-.000000000009987
.1469	-.0000004202	-.000000000012606
.19	-.0000004914	-.000000000014742
.2351	-.0000005757	-.000000000017271
.2818	-.0000006283	-.000000000018849
.3295	-.0000006621	-.000000000019863
.3777	-.0000006738	-.000000000020214
.4259	-.0000006691	-.000000000020073
.4733	-.0000006562	-.000000000019686
.5196	-.0000006274	-.000000000018822
.5641	-.0000005946	-.000000000017838
.6066	-.0000005495	-.000000000016485
.6466	-.0000005065	-.000000000015195
.684	-.000000469	-.00000000001407
.7185	-.0000004323	-.000000000012969
.7501	-.0000003947	-.000000000011841
.7789	-.0000003601	-.000000000010803

System: 2,3-butanediol + water + ammonium bromide; phases: Liquid
Fixed: Temperature, K = 298.15
Fixed: Pressure, kPa = 101
Fixed: Ratio of amount of solute to mass of solution, mol/kg of ammonium bromide = .1
Property: Mass density, kg/m3 (Liquid); method: Pycnometric method
Mole fraction of 2,3-butanediol	Mass density, kg/m3	uncertainty
.0144	1010.6	1.0106
.0164	1011	1.011
.0186	1012.1	1.0121
.0212	1013.1	1.0131
.0241	1014.1	1.0141
.0275	1015	1.015
.0314	1015.8	1.0158
.0359	1016.6	1.0166
.0412	1017.9	1.0179
.0474	1019.6	1.0196
.0546	1020.9	1.0209
.0633	1022.2	1.0222
.0736	1023.9	1.0239
.0861	1025.6	1.0256
.1014	1027.4	1.0274
.1203	1028.7	1.0287
.1443	1029.9	1.0299
.1752	1030.8	1.0308
.2165	1031.5	1.0315
.2737	1030.4	1.0304
.3576	1027.3	1.0273
.4178	1024.9	1.0249
.4965	1021.5	1.0215
.6034	1017.4	1.0174
.7565	1011.9	1.0119

System: 2,3-butanediol + water + ammonium bromide; phases: Liquid
Fixed: Temperature, K = 298.15
Fixed: Pressure, kPa = 101
Fixed: Ratio of amount of solute to mass of solution, mol/kg of ammonium bromide = .1
Property: Excess molar volume, m3/mol (Liquid); method: Calculated with densities of this investigation
Mole fraction of 2,3-butanediol	Excess molar volume, m3/mol	uncertainty
.0144	-.0000001509	-.000000000004527
.0164	-.0000001591	-.000000000004773
.0186	-.0000001822	-.000000000005466
.0212	-.0000002021	-.000000000006063
.0241	-.0000002226	-.000000000006678
.0275	-.0000002438	-.000000000007314
.0314	-.0000002628	-.000000000007884
.0359	-.0000002812	-.000000000008436
.0412	-.0000003133	-.000000000009399
.0474	-.0000003534	-.000000000010602
.0546	-.0000003899	-.000000000011697
.0633	-.0000004272	-.000000000012816
.0736	-.0000004792	-.000000000014376
.0861	-.0000005366	-.000000000016098
.1014	-.0000006014	-.000000000018042
.1203	-.0000006663	-.000000000019989
.1443	-.0000007383	-.000000000022149
.1752	-.0000008215	-.000000000024645
.2165	-.000000918	-.00000000002754
.2737	-.0000009861	-.000000000029583
.3576	-.0000010096	-.000000000030288
.4178	-.0000009968	-.000000000029904
.4965	-.0000009331	-.000000000027993
.6034	-.0000008165	-.000000000024495
.7565	-.0000005716	-.000000000017148

System: 1,2-propanediol + tetraethylammonium bromide + water; phases: Liquid
Fixed: Temperature, K = 298.15
Fixed: Pressure, kPa = 101
Fixed: Ratio of amount of solute to mass of solution, mol/kg of tetraethylammonium bromide = .1
Property: Mass density, kg/m3 (Liquid); method: Pycnometric method
Mole fraction of 1,2-propanediol	Mass density, kg/m3	uncertainty
.0386	1015	1.015
.0802	1024.8	1.0248
.1245	1032.5	1.0325
.1711	1041.5	1.0415
.2197	1042.4	1.0424
.2697	1045	1.045
.3206	1045.8	1.0458
.3718	1045.8	1.0458
.4225	1045.5	1.0455
.4723	1044.8	1.0448
.5206	1044	1.044
.5667	1043.3	1.0433
.6105	1042.5	1.0425
.6515	1041.8	1.0418
.6896	1041.2	1.0412
.7245	1040.7	1.0407
.7564	1040.2	1.0402
.7853	1039.7	1.0397

System: 1,2-propanediol + tetraethylammonium bromide + water; phases: Liquid
Fixed: Temperature, K = 298.15
Fixed: Pressure, kPa = 101
Fixed: Ratio of amount of solute to mass of solution, mol/kg of tetraethylammonium bromide = .1
Property: Excess molar volume, m3/mol (Liquid); method: Calculated with densities of this investigation
Mole fraction of 1,2-propanediol	Excess molar volume, m3/mol	uncertainty
.0386	-.0000001736	-.000000000005208
.0802	-.0000003191	-.000000000009573
.1245	-.0000004532	-.000000000013596
.1711	-.000000558	-.00000000001674
.2197	-.000000671	-.00000000002013
.2697	-.0000007412	-.000000000022236
.3206	-.0000007652	-.000000000022956
.3718	-.0000007651	-.000000000022953
.4225	-.0000007492	-.000000000022476
.4723	-.0000007174	-.000000000021522
.5206	-.0000006794	-.000000000020382
.5667	-.0000006368	-.000000000019104
.6105	-.0000005908	-.000000000017724
.6515	-.0000005468	-.000000000016404
.6896	-.0000005038	-.000000000015114
.7245	-.0000004634	-.000000000013902
.7564	-.0000004288	-.000000000012864
.7853	-.0000003891	-.000000000011673

System: tetraethylammonium bromide + trimethylene glycol + water; phases: Liquid
Fixed: Temperature, K = 298.15
Fixed: Pressure, kPa = 101
Fixed: Ratio of amount of solute to mass of solution, mol/kg of tetraethylammonium bromide = .1
Property: Mass density, kg/m3 (Liquid); method: Pycnometric method
Mole fraction of trimethylene glycol	Mass density, kg/m3	uncertainty
.0386	1015.8	1.0158
.0802	1024	1.024
.1245	1031.3	1.0313
.1711	1037	1.037
.2197	1042.2	1.0422
.2697	1046.2	1.0462
.3206	1049.1	1.0491
.3718	1051.2	1.0512
.4225	1052.6	1.0526
.4723	1053.5	1.0535
.5206	1054	1.054
.5667	1054.4	1.0544
.6105	1054.5	1.0545
.6515	1054.5	1.0545
.6896	1054.5	1.0545
.7245	1054.5	1.0545
.7564	1054.4	1.0544
.7853	1054.4	1.0544

System: tetraethylammonium bromide + trimethylene glycol + water; phases: Liquid
Fixed: Temperature, K = 298.15
Fixed: Pressure, kPa = 101
Fixed: Ratio of amount of solute to mass of solution, mol/kg of tetraethylammonium bromide = .1
Property: Excess molar volume, m3/mol (Liquid); method: Calculated with densities of this investigation
Mole fraction of trimethylene glycol	Excess molar volume, m3/mol	uncertainty
.0386	-.0000001412	-.000000000004236
.0802	-.0000002007	-.000000000006021
.1245	-.0000002697	-.000000000008091
.1711	-.0000003257	-.000000000009771
.2197	-.0000003899	-.000000000011697
.2697	-.0000004437	-.000000000013311
.3206	-.0000004783	-.000000000014349
.3718	-.0000004963	-.000000000014889
.4225	-.0000005035	-.000000000015105
.4723	-.0000004936	-.000000000014808
.5206	-.0000004766	-.000000000014298
.5667	-.0000004533	-.000000000013599
.6105	-.0000004232	-.000000000012696
.6515	-.0000003909	-.000000000011727
.6896	-.0000003621	-.000000000010863
.7245	-.0000003316	-.000000000009948
.7564	-.0000003024	-.000000000009072
.7853	-.0000002733	-.000000000008199

System: tetraethylammonium bromide + 1,2-butanediol + water; phases: Liquid
Fixed: Temperature, K = 298.15
Fixed: Pressure, kPa = 101
Fixed: Ratio of amount of solute to mass of solution, mol/kg of tetraethylammonium bromide = .1
Property: Mass density, kg/m3 (Liquid); method: Pycnometric method
Mole fraction of 1,2-butanediol	Mass density, kg/m3	uncertainty
.0329	1011.7	1.0117
.0687	1020.5	1.0205
.1073	1022.3	1.0223
.1486	1022.7	1.0227
.1923	1022.8	1.0228
.238	1022.1	1.0221
.2852	1020.8	1.0208
.3335	1019.2	1.0192
.3822	1017.5	1.0175
.4308	1015.9	1.0159
.4786	1014.5	1.0145
.5252	1013	1.013
.57	1011.7	1.0117
.6125	1010.6	1.0106
.6526	1009.6	1.0096
.6898	1008.8	1.0088
.7242	1007.9	1.0079
.7557	1007.2	1.0072
.7842	1006.7	1.0067

System: tetraethylammonium bromide + 1,2-butanediol + water; phases: Liquid
Fixed: Temperature, K = 298.15
Fixed: Pressure, kPa = 101
Fixed: Ratio of amount of solute to mass of solution, mol/kg of tetraethylammonium bromide = .1
Property: Excess molar volume, m3/mol (Liquid); method: Calculated with densities of this investigation
Mole fraction of 1,2-butanediol	Excess molar volume, m3/mol	uncertainty
.0329	-.0000002062	-.000000000006186
.0687	-.0000004309	-.000000000012927
.1073	-.0000005252	-.000000000015756
.1486	-.0000005983	-.000000000017949
.1923	-.0000006658	-.000000000019974
.238	-.0000007078	-.000000000021234
.2852	-.0000007275	-.000000000021825
.3335	-.0000007248	-.000000000021744
.3822	-.0000007094	-.000000000021282
.4308	-.0000006876	-.000000000020628
.4786	-.0000006582	-.000000000019746
.5252	-.0000006196	-.000000000018588
.57	-.0000005789	-.000000000017367
.6125	-.0000005392	-.000000000016176
.6526	-.0000004987	-.000000000014961
.6898	-.0000004627	-.000000000013881
.7242	-.0000004223	-.000000000012669
.7557	-.0000003824	-.000000000011472
.7842	-.0000003511	-.000000000010533

System: tetraethylammonium bromide + 1,3-butanediol + water; phases: Liquid
Fixed: Temperature, K = 298.15
Fixed: Pressure, kPa = 101
Fixed: Ratio of amount of solute to mass of solution, mol/kg of tetraethylammonium bromide = .1
Property: Mass density, kg/m3 (Liquid); method: Pycnometric method
Mole fraction of 1,3-butanediol	Mass density, kg/m3	uncertainty
.0329	1011.3	1.0113
.0687	1016.1	1.0161
.1073	1019	1.019
.1486	1021.2	1.0212
.1923	1023.1	1.0231
.238	1024.5	1.0245
.2852	1024.1	1.0241
.3335	1023.3	1.0233
.3822	1022.2	1.0222
.4308	1021.3	1.0213
.4786	1019.5	1.0195
.5252	1018.2	1.0182
.57	1017	1.017
.6125	1015.8	1.0158
.6526	1014.6	1.0146
.6898	1013.5	1.0135
.7242	1012.5	1.0125
.7557	1011.6	1.0116
.7842	1010	1.01

System: tetraethylammonium bromide + 1,3-butanediol + water; phases: Liquid
Fixed: Temperature, K = 298.15
Fixed: Pressure, kPa = 101
Fixed: Ratio of amount of solute to mass of solution, mol/kg of tetraethylammonium bromide = .1
Property: Excess molar volume, m3/mol (Liquid); method: Calculated with densities of this investigation
Mole fraction of 1,3-butanediol	Excess molar volume, m3/mol	uncertainty
.0329	-.0000001932	-.000000000005796
.0687	-.0000003225	-.000000000009675
.1073	-.0000004315	-.000000000012945
.1486	-.00000054	-.0000000000162
.1923	-.0000006534	-.000000000019602
.238	-.0000007639	-.000000000022917
.2852	-.0000008199	-.000000000024597
.3335	-.0000008582	-.000000000025746
.3822	-.0000008763	-.000000000026289
.4308	-.0000008993	-.000000000026979
.4786	-.0000008688	-.000000000026064
.5252	-.0000008511	-.000000000025533
.57	-.0000008264	-.000000000024792
.6125	-.0000007953	-.000000000023859
.6526	-.0000007524	-.000000000022572
.6898	-.0000007108	-.000000000021324
.7242	-.0000006643	-.000000000019929
.7557	-.0000006178	-.000000000018534
.7842	-.0000005182	-.000000000015546

System: tetraethylammonium bromide + butane, 1,4-dihydroxy- + water; phases: Liquid
Fixed: Temperature, K = 298.15
Fixed: Pressure, kPa = 101
Fixed: Ratio of amount of solute to mass of solution, mol/kg of tetraethylammonium bromide = .1
Property: Mass density, kg/m3 (Liquid); method: Pycnometric method
Mole fraction of butane, 1,4-dihydroxy-	Mass density, kg/m3	uncertainty
.0329	1009.4	1.0094
.0687	1012.8	1.0128
.1073	1015.4	1.0154
.1486	1016.5	1.0165
.1923	1017.2	1.0172
.238	1017.8	1.0178
.2852	1018	1.018
.3335	1017.6	1.0176
.3822	1017	1.017
.4308	1016.1	1.0161
.4786	1015.1	1.0151
.5252	1014	1.014
.57	1012.9	1.0129
.6125	1011.8	1.0118
.6526	1010.9	1.0109
.6898	1010.1	1.0101
.7242	1009.3	1.0093
.7557	1008.6	1.0086
.7842	1008	1.008

System: tetraethylammonium bromide + butane, 1,4-dihydroxy- + water; phases: Liquid
Fixed: Temperature, K = 298.15
Fixed: Pressure, kPa = 101
Fixed: Ratio of amount of solute to mass of solution, mol/kg of tetraethylammonium bromide = .1
Property: Excess molar volume, m3/mol (Liquid); method: Calculated with densities of this investigation
Mole fraction of butane, 1,4-dihydroxy-	Excess molar volume, m3/mol	uncertainty
.0329	-.0000001543	-.000000000004629
.0687	-.0000002474	-.000000000007422
.1073	-.0000003405	-.000000000010215
.1486	-.0000004057	-.000000000012171
.1923	-.0000004704	-.000000000014112
.238	-.0000005353	-.000000000016059
.2852	-.0000005887	-.000000000017661
.3335	-.0000006249	-.000000000018747
.3822	-.0000006473	-.000000000019419
.4308	-.0000006476	-.000000000019428
.4786	-.0000006385	-.000000000019155
.5252	-.0000006162	-.000000000018486
.57	-.0000005886	-.000000000017658
.6125	-.0000005506	-.000000000016518
.6526	-.0000005107	-.000000000015321
.6898	-.0000004756	-.000000000014268
.7242	-.0000004375	-.000000000013125
.7557	-.0000004015	-.000000000012045
.7842	-.0000003701	-.000000000011103

System: tetraethylammonium bromide + 2,3-butanediol + water; phases: Liquid
Fixed: Temperature, K = 298.15
Fixed: Pressure, kPa = 101
Fixed: Ratio of amount of solute to mass of solution, mol/kg of tetraethylammonium bromide = .1
Property: Mass density, kg/m3 (Liquid); method: Pycnometric method
Mole fraction of 2,3-butanediol	Mass density, kg/m3	uncertainty
.0191	1010.3	1.0103
.0218	1011.2	1.0112
.0249	1012	1.012
.0284	1012.9	1.0129
.0325	1013.6	1.0136
.0372	1014.5	1.0145
.0428	1016.1	1.0161
.0494	1018.1	1.0181
.0571	1019.4	1.0194
.0663	1021.2	1.0212
.0774	1023	1.023
.0909	1024.3	1.0243
.1074	1025.7	1.0257
.1282	1027.5	1.0275
.1546	1028.7	1.0287
.1893	1029	1.029
.2116	1028.8	1.0288
.2379	1028.2	1.0282
.2694	1027.3	1.0273
.3078	1025.9	1.0259
.3553	1024.2	1.0242
.4156	1021.9	1.0219
.4945	1018.7	1.0187
.602	1014.6	1.0146
.7565	1009.5	1.0095

System: tetraethylammonium bromide + 2,3-butanediol + water; phases: Liquid
Fixed: Temperature, K = 298.15
Fixed: Pressure, kPa = 101
Fixed: Ratio of amount of solute to mass of solution, mol/kg of tetraethylammonium bromide = .1
Property: Excess molar volume, m3/mol (Liquid); method: Calculated with densities of this investigation
Mole fraction of 2,3-butanediol	Excess molar volume, m3/mol	uncertainty
.0191	-.0000001869	-.000000000005607
.0218	-.0000002054	-.000000000006162
.0249	-.0000002229	-.000000000006687
.0284	-.0000002426	-.000000000007278
.0325	-.0000002612	-.000000000007836
.0372	-.0000002833	-.000000000008499
.0428	-.0000003211	-.000000000009633
.0494	-.0000003693	-.000000000011079
.0571	-.000000406	-.00000000001218
.0663	-.0000004589	-.000000000013767
.0774	-.0000005141	-.000000000015423
.0909	-.0000005656	-.000000000016968
.1074	-.000000626	-.00000000001878
.1282	-.000000706	-.00000000002118
.1546	-.0000007887	-.000000000023661
.1893	-.000000862	-.00000000002586
.2116	-.0000008958	-.000000000026874
.2379	-.0000009259	-.000000000027777
.2694	-.0000009493	-.000000000028479
.3078	-.0000009657	-.000000000028971
.3553	-.0000009694	-.000000000029082
.4156	-.0000009547	-.000000000028641
.4945	-.0000008964	-.000000000026892
.602	-.0000007765	-.000000000023295
.7565	-.0000005367	-.000000000016101

System: 1,2-propanediol + water + 1-n-butyl-3-methylimidazolium bromide; phases: Liquid
Fixed: Temperature, K = 298.15
Fixed: Pressure, kPa = 101
Fixed: Ratio of amount of solute to mass of solution, mol/kg of 1-n-butyl-3-methylimidazolium bromide = .1
Property: Mass density, kg/m3 (Liquid); method: Pycnometric method
Mole fraction of 1,2-propanediol	Mass density, kg/m3	uncertainty
.0387	1015.2	1.0152
.0803	1025.2	1.0252
.1246	1033.5	1.0335
.1713	1039.2	1.0392
.2199	1042.7	1.0427
.27	1044.9	1.0449
.3209	1046	1.046
.3721	1046.3	1.0463
.4229	1046	1.046
.4727	1045.6	1.0456
.521	1044.8	1.0448
.5672	1044.1	1.0441
.611	1043.4	1.0434
.652	1042.8	1.0428
.69	1042.2	1.0422
.725	1041.7	1.0417
.7569	1041.2	1.0412
.7857	1040.7	1.0407
.8116	1040.4	1.0404
.8348	1040.1	1.0401
.8553	1039.8	1.0398
.8734	1039.5	1.0395
.8894	1039.3	1.0393
.9033	1039	1.039
.9155	1038.8	1.0388
.9262	1038.7	1.0387

System: 1,2-propanediol + water + 1-n-butyl-3-methylimidazolium bromide; phases: Liquid
Fixed: Temperature, K = 298.15
Fixed: Pressure, kPa = 101
Fixed: Ratio of amount of solute to mass of solution, mol/kg of 1-n-butyl-3-methylimidazolium bromide = .1
Property: Excess molar volume, m3/mol (Liquid); method: Calculated with densities of this investigation
Mole fraction of 1,2-propanediol	Excess molar volume, m3/mol	uncertainty
.0387	-.0000001687	-.000000000005061
.0803	-.0000003141	-.000000000009423
.1246	-.0000004597	-.000000000013791
.1713	-.0000005738	-.000000000017214
.2199	-.0000006526	-.000000000019578
.27	-.0000007065	-.000000000021195
.3209	-.000000737	-.00000000002211
.3721	-.0000007434	-.000000000022302
.4229	-.0000007257	-.000000000021771
.4727	-.0000007022	-.000000000021066
.521	-.0000006603	-.000000000019809
.5672	-.0000006201	-.000000000018603
.611	-.0000005732	-.000000000017196
.652	-.0000005306	-.000000000015918
.69	-.0000004904	-.000000000014712
.725	-.00000045	-.0000000000135
.7569	-.0000004088	-.000000000012264
.7857	-.0000003704	-.000000000011112
.8116	-.00000034	-.0000000000102
.8348	-.0000003123	-.000000000009369
.8553	-.0000002826	-.000000000008478
.8734	-.0000002558	-.000000000007674
.8894	-.0000002319	-.000000000006957
.9033	-.0000002086	-.000000000006258
.9155	-.000000191	-.00000000000573
.9262	-.0000001739	-.000000000005217

System: trimethylene glycol + water + 1-n-butyl-3-methylimidazolium bromide; phases: Liquid
Fixed: Temperature, K = 298.15
Fixed: Pressure, kPa = 101
Fixed: Ratio of amount of solute to mass of solution, mol/kg of 1-n-butyl-3-methylimidazolium bromide = .1
Property: Mass density, kg/m3 (Liquid); method: Pycnometric method
Mole fraction of trimethylene glycol	Mass density, kg/m3	uncertainty
.0387	1013.4	1.0134
.0803	1022.8	1.0228
.1246	1030.8	1.0308
.1713	1037.5	1.0375
.2199	1042.5	1.0425
.27	1046.6	1.0466
.3209	1049.7	1.0497
.3721	1051.7	1.0517
.4229	1053.1	1.0531
.4727	1054.1	1.0541
.521	1054.6	1.0546
.5672	1055	1.055
.611	1055.2	1.0552
.652	1055.3	1.0553
.69	1055.4	1.0554
.725	1055.5	1.0555
.7569	1055.5	1.0555
.7857	1055.4	1.0554
.8116	1055.3	1.0553
.8348	1055.3	1.0553
.8553	1055.2	1.0552
.8734	1055.2	1.0552
.8894	1055.1	1.0551
.9033	1055.1	1.0551
.9155	1055	1.055
.9262	1055	1.055

System: trimethylene glycol + water + 1-n-butyl-3-methylimidazolium bromide; phases: Liquid
Fixed: Temperature, K = 298.15
Fixed: Pressure, kPa = 101
Fixed: Ratio of amount of solute to mass of solution, mol/kg of 1-n-butyl-3-methylimidazolium bromide = .1
Property: Excess molar volume, m3/mol (Liquid); method: Calculated with densities of this investigation
Mole fraction of trimethylene glycol	Excess molar volume, m3/mol	uncertainty
.0387	-.0000000844	-.000000000002532
.0803	-.0000001613	-.000000000004839
.1246	-.00000024	-.0000000000072
.1713	-.0000003152	-.000000000009456
.2199	-.000000373	-.00000000001119
.27	-.0000004242	-.000000000012726
.3209	-.0000004623	-.000000000013869
.3721	-.0000004746	-.000000000014238
.4229	-.0000004767	-.000000000014301
.4727	-.0000004688	-.000000000014064
.521	-.0000004462	-.000000000013386
.5672	-.0000004225	-.000000000012675
.611	-.0000003953	-.000000000011859
.652	-.0000003676	-.000000000011028
.69	-.0000003359	-.000000000010077
.725	-.0000003111	-.000000000009333
.7569	-.0000002839	-.000000000008517
.7857	-.0000002559	-.000000000007677
.8116	-.0000002292	-.000000000006876
.8348	-.0000002069	-.000000000006207
.8553	-.0000001856	-.000000000005568
.8734	-.0000001675	-.000000000005025
.8894	-.00000015	-.0000000000045
.9033	-.0000001353	-.000000000004059
.9155	-.0000001209	-.000000000003627
.9262	-.0000001091	-.000000000003273

System: 1,2-butanediol + water + 1-n-butyl-3-methylimidazolium bromide; phases: Liquid
Fixed: Temperature, K = 298.15
Fixed: Pressure, kPa = 101
Fixed: Ratio of amount of solute to mass of solution, mol/kg of 1-n-butyl-3-methylimidazolium bromide = .1
Property: Mass density, kg/m3 (Liquid); method: Pycnometric method
Mole fraction of 1,2-butanediol	Mass density, kg/m3	uncertainty
.0329	1011.6	1.0116
.0687	1018	1.018
.1074	1021.3	1.0213
.1487	1022.5	1.0225
.1925	1022.5	1.0225
.2382	1021.7	1.0217
.2855	1020.5	1.0205
.3338	1019.2	1.0192
.3826	1017.7	1.0177
.4312	1016.2	1.0162
.4791	1014.7	1.0147
.5256	1013.3	1.0133
.5704	1012.1	1.0121
.613	1011	1.011
.653	1010.1	1.0101
.6903	1009.4	1.0094
.7247	1008.7	1.0087
.7561	1008	1.008
.7846	1007.5	1.0075
.8103	1007	1.007
.8333	1006.6	1.0066
.8537	1006.2	1.0062
.8771	1005.6	1.0056
.8966	1005.3	1.0053
.9131	1005	1.005
.9268	1004.8	1.0048

System: 1,2-butanediol + water + 1-n-butyl-3-methylimidazolium bromide; phases: Liquid
Fixed: Temperature, K = 298.15
Fixed: Pressure, kPa = 101
Fixed: Ratio of amount of solute to mass of solution, mol/kg of 1-n-butyl-3-methylimidazolium bromide = .1
Property: Excess molar volume, m3/mol (Liquid); method: Calculated with densities of this investigation
Mole fraction of 1,2-butanediol	Excess molar volume, m3/mol	uncertainty
.0329	-.0000001942	-.000000000005826
.0687	-.0000003598	-.000000000010794
.1074	-.0000004829	-.000000000014487
.1487	-.000000569	-.00000000001707
.1925	-.0000006267	-.000000000018801
.2382	-.0000006605	-.000000000019815
.2855	-.0000006794	-.000000000020382
.3338	-.0000006824	-.000000000020472
.3826	-.0000006687	-.000000000020061
.4312	-.000000648	-.00000000001944
.4791	-.0000006106	-.000000000018318
.5256	-.0000005699	-.000000000017097
.5704	-.0000005332	-.000000000015996
.613	-.0000004903	-.000000000014709
.653	-.0000004542	-.000000000013626
.6903	-.0000004196	-.000000000012588
.7247	-.0000003866	-.000000000011598
.7561	-.0000003506	-.000000000010518
.7846	-.0000003208	-.000000000009624
.8103	-.0000002912	-.000000000008736
.8333	-.0000002636	-.000000000007908
.8537	-.0000002373	-.000000000007119
.8771	-.0000002081	-.000000000006243
.8966	-.0000001843	-.000000000005529
.9131	-.0000001654	-.000000000004962
.9268	-.0000001473	-.000000000004419

System: 1,3-butanediol + water + 1-n-butyl-3-methylimidazolium bromide; phases: Liquid
Fixed: Temperature, K = 298.15
Fixed: Pressure, kPa = 101
Fixed: Ratio of amount of solute to mass of solution, mol/kg of 1-n-butyl-3-methylimidazolium bromide = .1
Property: Mass density, kg/m3 (Liquid); method: Pycnometric method
Mole fraction of 1,3-butanediol	Mass density, kg/m3	uncertainty
.0329	1009.8	1.0098
.0687	1015	1.015
.1074	1019.5	1.0195
.1487	1022.4	1.0224
.1925	1023.9	1.0239
.2382	1024.5	1.0245
.2855	1024.3	1.0243
.3338	1023.5	1.0235
.3826	1022.6	1.0226
.4312	1021.3	1.0213
.4791	1019.9	1.0199
.5256	1018.5	1.0185
.5704	1017.2	1.0172
.613	1015.9	1.0159
.653	1014.7	1.0147
.6903	1013.7	1.0137
.7247	1012.7	1.0127
.7561	1011.8	1.0118
.7846	1011.1	1.0111
.8103	1010.4	1.0104
.8333	1009.8	1.0098
.8537	1009.3	1.0093
.8771	1008.4	1.0084
.8966	1007.9	1.0079
.9131	1007.4	1.0074
.9268	1007	1.007

System: 1,3-butanediol + water + 1-n-butyl-3-methylimidazolium bromide; phases: Liquid
Fixed: Temperature, K = 298.15
Fixed: Pressure, kPa = 101
Fixed: Ratio of amount of solute to mass of solution, mol/kg of 1-n-butyl-3-methylimidazolium bromide = .1
Property: Excess molar volume, m3/mol (Liquid); method: Calculated with densities of this investigation
Mole fraction of 1,3-butanediol	Excess molar volume, m3/mol	uncertainty
.0329	-.0000001541	-.000000000004623
.0687	-.000000284	-.00000000000852
.1074	-.0000004253	-.000000000012759
.1487	-.0000005513	-.000000000016539
.1925	-.0000006494	-.000000000019482
.2382	-.0000007321	-.000000000021963
.2855	-.0000007886	-.000000000023658
.3338	-.000000823	-.00000000002469
.3826	-.0000008459	-.000000000025377
.4312	-.0000008429	-.000000000025287
.4791	-.000000826	-.00000000002478
.5256	-.0000008013	-.000000000024039
.5704	-.0000007671	-.000000000023013
.613	-.0000007249	-.000000000021747
.653	-.0000006792	-.000000000020376
.6903	-.0000006352	-.000000000019056
.7247	-.0000005893	-.000000000017679
.7561	-.0000005428	-.000000000016284
.7846	-.0000005008	-.000000000015024
.8103	-.0000004606	-.000000000013818
.8333	-.0000004199	-.000000000012597
.8537	-.000000387	-.00000000001161
.8771	-.0000003433	-.000000000010299
.8966	-.0000003009	-.000000000009027
.9131	-.0000002705	-.000000000008115
.9268	-.0000002338	-.000000000007014

System: butane, 1,4-dihydroxy- + water + 1-n-butyl-3-methylimidazolium bromide; phases: Liquid
Fixed: Temperature, K = 298.15
Fixed: Pressure, kPa = 101
Fixed: Ratio of amount of solute to mass of solution, mol/kg of 1-n-butyl-3-methylimidazolium bromide = .1
Property: Mass density, kg/m3 (Liquid); method: Pycnometric method
Mole fraction of butane, 1,4-dihydroxy-	Mass density, kg/m3	uncertainty
.0329	1008.4	1.0084
.0687	1012.7	1.0127
.1074	1015.8	1.0158
.1487	1017.1	1.0171
.1925	1018	1.018
.2382	1018.4	1.0184
.2855	1018.4	1.0184
.3338	1018.2	1.0182
.3826	1017.6	1.0176
.4312	1016.8	1.0168
.4791	1015.8	1.0158
.5256	1014.9	1.0149
.5704	1013.9	1.0139
.613	1012.9	1.0129
.653	1012	1.012
.6903	1011.2	1.0112
.7247	1010.4	1.0104
.7561	1009.8	1.0098
.7846	1009.3	1.0093
.8103	1008.8	1.0088
.8333	1008.3	1.0083
.8537	1007.9	1.0079
.8771	1007.1	1.0071
.8966	1006.7	1.0067
.9131	1006.4	1.0064
.9268	1006.1	1.0061

System: butane, 1,4-dihydroxy- + water + 1-n-butyl-3-methylimidazolium bromide; phases: Liquid
Fixed: Temperature, K = 298.15
Fixed: Pressure, kPa = 101
Fixed: Ratio of amount of solute to mass of solution, mol/kg of 1-n-butyl-3-methylimidazolium bromide = .1
Property: Excess molar volume, m3/mol (Liquid); method: Calculated with densities of this investigation
Mole fraction of butane, 1,4-dihydroxy-	Excess molar volume, m3/mol	uncertainty
.0329	-.0000001246	-.000000000003738
.0687	-.0000002324	-.000000000006972
.1074	-.0000003323	-.000000000009969
.1487	-.0000004004	-.000000000012012
.1925	-.0000004662	-.000000000013986
.2382	-.0000005209	-.000000000015627
.2855	-.0000005693	-.000000000017079
.3338	-.0000006042	-.000000000018126
.3826	-.000000623	-.00000000001869
.4312	-.0000006274	-.000000000018822
.4791	-.0000006186	-.000000000018558
.5256	-.0000006023	-.000000000018069
.5704	-.0000005752	-.000000000017256
.613	-.0000005404	-.000000000016212
.653	-.0000005031	-.000000000015093
.6903	-.000000467	-.00000000001401
.7247	-.0000004309	-.000000000012927
.7561	-.0000003997	-.000000000011991
.7846	-.000000365	-.00000000001095
.8103	-.0000003345	-.000000000010035
.8333	-.0000003029	-.000000000009087
.8537	-.0000002738	-.000000000008214
.8771	-.000000237	-.00000000000711
.8966	-.0000002086	-.000000000006258
.9131	-.0000001832	-.000000000005496
.9268	-.0000001618	-.000000000004854

System: 2,3-butanediol + water + 1-n-butyl-3-methylimidazolium bromide; phases: Liquid
Fixed: Temperature, K = 298.15
Fixed: Pressure, kPa = 101
Fixed: Ratio of amount of solute to mass of solution, mol/kg of 1-n-butyl-3-methylimidazolium bromide = .1
Property: Mass density, kg/m3 (Liquid); method: Pycnometric method
Mole fraction of 2,3-butanediol	Mass density, kg/m3	uncertainty
.0345	1013.5	1.0135
.0396	1014.5	1.0145
.0456	1016	1.016
.0526	1017.3	1.0173
.061	1018.7	1.0187
.071	1020.3	1.0203
.0769	1021.6	1.0216
.0834	1022.4	1.0224
.0907	1023.6	1.0236
.0988	1024.5	1.0245
.1078	1025.7	1.0257
.1179	1026.8	1.0268
.1293	1028	1.028
.1423	1029	1.029
.1571	1029.8	1.0298
.1741	1030.1	1.0301
.1984	1030.1	1.0301
.2223	1029.7	1.0297
.2508	1029	1.029
.285	1027.8	1.0278
.327	1026.4	1.0264
.3796	1024.4	1.0244
.4471	1021.7	1.0217
.537	1018.3	1.0183
.662	1013.9	1.0139
.7649	1010.3	1.0103
.8244	1008.5	1.0085
.8996	1006.3	1.0063

System: 2,3-butanediol + water + 1-n-butyl-3-methylimidazolium bromide; phases: Liquid
Fixed: Temperature, K = 298.15
Fixed: Pressure, kPa = 101
Fixed: Ratio of amount of solute to mass of solution, mol/kg of 1-n-butyl-3-methylimidazolium bromide = .1
Property: Excess molar volume, m3/mol (Liquid); method: Calculated with densities of this investigation
Mole fraction of 2,3-butanediol	Excess molar volume, m3/mol	uncertainty
.0345	-.0000002333	-.000000000006999
.0396	-.0000002568	-.000000000007704
.0456	-.0000002939	-.000000000008817
.0526	-.0000003271	-.000000000009813
.061	-.000000367	-.00000000001101
.071	-.0000004127	-.000000000012381
.0769	-.0000004508	-.000000000013524
.0834	-.0000004772	-.000000000014316
.0907	-.0000005145	-.000000000015435
.0988	-.0000005495	-.000000000016485
.1078	-.0000005917	-.000000000017751
.1179	-.0000006372	-.000000000019116
.1293	-.0000006864	-.000000000020592
.1423	-.0000007349	-.000000000022047
.1571	-.0000007842	-.000000000023526
.1741	-.0000008239	-.000000000024717
.1984	-.0000008691	-.000000000026073
.2223	-.0000009022	-.000000000027066
.2508	-.0000009309	-.000000000027927
.285	-.0000009469	-.000000000028407
.327	-.0000009602	-.000000000028806
.3796	-.000000956	-.00000000002868
.4471	-.0000009225	-.000000000027675
.537	-.0000008522	-.000000000025566
.662	-.0000006925	-.000000000020775
.7649	-.0000005067	-.000000000015201
.8244	-.0000003926	-.000000000011778
.8996	-.0000002357	-.000000000007071
