Measured thermophysical data. Physicochemical properties of the system(LiF + NaF + KF(eut.) + Na7Zr6F31): Phase equilibria, density and volume properties, viscosity and surface tension
Source: J. Chem. Thermodyn., 2014, 10.1016/j.jct.2014.03.024
Compound 1: lithium fluoride, FLi
Compound 2: sodium fluoride, FNa
Compound 3: potassium fluoride, FK
Compound 4: zirconium tetrafluoride, F4Zr

System: sodium fluoride + potassium fluoride + lithium fluoride; phases: Liquid
Fixed: Pressure, kPa = 101
Property: Mass density, kg/m3 (Liquid); method: Buoyancy - hydrostatic balance
Temperature, K	Mole fraction of lithium fluoride	Mole fraction of sodium fluoride	Mass density, kg/m3	uncertainty
758	.465	.115	2129.1	.8
768	.465	.115	2122.1	.8
778	.465	.115	2115.2	.8
788	.465	.115	2108.3	.8
798	.465	.115	2101.4	.8
808	.465	.115	2094.4	.8
818	.465	.115	2087.5	.8
828	.465	.115	2080.6	.8
838	.465	.115	2073.7	.8
848	.465	.115	2066.7	.8
858	.465	.115	2059.8	.8
868	.465	.115	2052.9	.9
878	.465	.115	2046	.9
888	.465	.115	2039	.9
898	.465	.115	2032.1	.9

System: sodium fluoride + potassium fluoride + lithium fluoride; phases: Liquid
Fixed: Pressure, kPa = 101
Property: Viscosity, Pa*s (Liquid); method: Torsion pendulum method
Temperature, K	Mole fraction of lithium fluoride	Mole fraction of sodium fluoride	Viscosity, Pa*s	uncertainty
918	.465	.115	.0032228	.000128912
928	.465	.115	.0030937	.000123748
938	.465	.115	.0029724	.000118896
948	.465	.115	.0028582	.000114328
958	.465	.115	.0027507	.000110028
963	.465	.115	.0026993	.000107972

System: sodium fluoride + potassium fluoride + lithium fluoride; phases: Liquid, Air at 1 atmosphere
Property: Surface tension liquid-gas, N/m (Liquid); method: Maximal bubble pressure
Temperature, K	Mole fraction of lithium fluoride	Mole fraction of sodium fluoride	Surface tension liquid-gas, N/m	uncertainty
892	.465	.115	.1814	.0062
902	.465	.115	.1804	.0062
912	.465	.115	.1793	.0063
922	.465	.115	.1783	.0063
932	.465	.115	.1773	.0063
942	.465	.115	.1762	.0064
952	.465	.115	.1752	.0064
962	.465	.115	.1742	.0065
972	.465	.115	.1731	.0065
982	.465	.115	.1721	.0065
992	.465	.115	.1711	.0066
994	.465	.115	.1709	.0066

System: sodium fluoride + potassium fluoride + lithium fluoride; phases: Liquid, Crystal, Crystal, Crystal
Property: Eutectic temperature, K (Liquid); method: Derived from phase diagram analysis
Pressure, kPa	Eutectic temperature, K	uncertainty
101	730	2

System: sodium fluoride + potassium fluoride + lithium fluoride; phases: Liquid, Crystal, Crystal, Crystal
Property: Eutectic composition: mole fraction of sodium fluoride (Liquid); method: Derived from phase diagram analysis
Pressure, kPa	Eutectic composition: mole fraction of sodium fluoride	uncertainty
101	.115	

System: sodium fluoride + potassium fluoride + lithium fluoride; phases: Liquid, Crystal, Crystal, Crystal
Property: Eutectic composition: mole fraction of lithium fluoride (Liquid); method: Derived from phase diagram analysis
Pressure, kPa	Eutectic composition: mole fraction of lithium fluoride	uncertainty
101	.465	

System: sodium fluoride + zirconium tetrafluoride; phases: Liquid, Crystal of intercomponent compound 1
Fixed: Pressure, kPa = 101
Property: Solid-liquid equilibrium temperature, K (Liquid); method: Large-sample thermal analysis
Mole fraction of sodium fluoride	Solid-liquid equilibrium temperature, K	uncertainty
.539	786	2

System: sodium fluoride + zirconium tetrafluoride; phases: Liquid
Fixed: Pressure, kPa = 101
Property: Mass density, kg/m3 (Liquid); method: Buoyancy - hydrostatic balance
Temperature, K	Mole fraction of sodium fluoride	Mass density, kg/m3	uncertainty
877	.539	3064.9	4.6
887	.539	3054.3	4.7
897	.539	3043.7	4.7
907	.539	3033.1	4.7
917	.539	3022.5	4.7
927	.539	3011.9	4.8

System: sodium fluoride + zirconium tetrafluoride; phases: Liquid
Fixed: Pressure, kPa = 101
Property: Viscosity, Pa*s (Liquid); method: Torsion pendulum method
Temperature, K	Mole fraction of sodium fluoride	Viscosity, Pa*s	uncertainty
858	.539	.0089117	.013
868	.539	.0084257	.013
878	.539	.0079764	.013
888	.539	.0075604	.013
898	.539	.0071747	.013
908	.539	.0068165	.013
918	.539	.0064834	.013
928	.539	.0061732	.013
938	.539	.005884	.012
948	.539	.0056141	.012
958	.539	.0053617	.012
968	.539	.0051256	.012
978	.539	.0049045	.012
982	.539	.0048199	.012

System: sodium fluoride + zirconium tetrafluoride; phases: Liquid, Air at 1 atmosphere
Property: Surface tension liquid-gas, N/m (Liquid); method: Maximal bubble pressure
Temperature, K	Mole fraction of sodium fluoride	Surface tension liquid-gas, N/m	uncertainty
944	.539	.1259	.0111
954	.539	.1251	.0112
964	.539	.1243	.0112
974	.539	.1235	.0113
984	.539	.1227	.0113
994	.539	.1219	.0114
1005	.539	.121	.0114
