Measured thermophysical data. Thermodynamics of amide + ketone mixtures. 1. Volumetric, speed of sound and refractive index data for N,N-dimethylformamide + 2-alkanone systems at several temperatures
Source: J. Chem. Thermodyn., 2016, 10.1016/j.jct.2016.02.016
Compound 1: N,N-dimethylformamide, C3H7NO, purity 99.5%
Compound 2: propanone, C3H6O, purity 99.8%
Compound 3: 2-butanone, C4H8O, purity 99.5%
Compound 4: 2-pentanone, C5H10O, purity 98%
Compound 5: 2-heptanone, C7H14O, purity 99%

System: N,N-dimethylformamide; phases: Liquid
Fixed: Pressure, kPa = 101.325
Property: Mass density, kg/m3 (Liquid); method: Vibrating tube method
Temperature, K	Mass density, kg/m3	uncertainty
293.15	948.82	
298.15	944.06	
303.15	939.28	

System: N,N-dimethylformamide; phases: Liquid
Fixed: Pressure, kPa = 101.325
Property: Speed of sound, m/s (Liquid); method: Sing-around technique in a fixed-path interferometer
Temperature, K	Speed of sound, m/s	uncertainty
293.15	1476.7	
298.15	1458.6	
303.15	1438.8	

System: N,N-dimethylformamide; phases: Liquid
Fixed: Pressure, kPa = 101.325
Property: Refractive index (Na D-line) (Liquid); method: Standard Abbe refractometry
Temperature, K	Refractive index (Na D-line)	uncertainty
293.15	1.43055	
298.15	1.4284	
303.15	1.4261	

System: propanone; phases: Liquid
Fixed: Pressure, kPa = 101.325
Property: Mass density, kg/m3 (Liquid); method: Vibrating tube method
Temperature, K	Mass density, kg/m3	uncertainty
293.15	790.19	
298.15	784.43	
303.15	778.63	

System: propanone; phases: Liquid
Fixed: Pressure, kPa = 101.325
Property: Speed of sound, m/s (Liquid); method: Sing-around technique in a fixed-path interferometer
Temperature, K	Speed of sound, m/s	uncertainty
293.15	1183.6	
298.15	1163.6	
303.15	1139.9	

System: propanone; phases: Liquid
Fixed: Pressure, kPa = 101.325
Property: Refractive index (Na D-line) (Liquid); method: Standard Abbe refractometry
Temperature, K	Refractive index (Na D-line)	uncertainty
293.15	1.35845	
298.15	1.35386	

System: 2-butanone; phases: Liquid
Fixed: Pressure, kPa = 101.325
Property: Mass density, kg/m3 (Liquid); method: Vibrating tube method
Temperature, K	Mass density, kg/m3	uncertainty
293.15	805.06	
298.15	799.78	
303.15	794.55	

System: 2-butanone; phases: Liquid
Fixed: Pressure, kPa = 101.325
Property: Speed of sound, m/s (Liquid); method: Sing-around technique in a fixed-path interferometer
Temperature, K	Speed of sound, m/s	uncertainty
293.15	1212.6	
298.15	1191.5	
303.15	1172	

System: 2-butanone; phases: Liquid
Fixed: Pressure, kPa = 101.325
Property: Refractive index (Na D-line) (Liquid); method: Standard Abbe refractometry
Temperature, K	Refractive index (Na D-line)	uncertainty
293.15	1.37872	
298.15	1.37605	
303.15	1.37351	

System: 2-pentanone; phases: Liquid
Fixed: Pressure, kPa = 101.325
Property: Mass density, kg/m3 (Liquid); method: Vibrating tube method
Temperature, K	Mass density, kg/m3	uncertainty
293.15	806.83	
298.15	801.99	
303.15	796.73	

System: 2-pentanone; phases: Liquid
Fixed: Pressure, kPa = 101.325
Property: Speed of sound, m/s (Liquid); method: Sing-around technique in a fixed-path interferometer
Temperature, K	Speed of sound, m/s	uncertainty
293.15	1232.4	
298.15	1211.9	
303.15	1191.7	

System: 2-pentanone; phases: Liquid
Fixed: Pressure, kPa = 101.325
Property: Refractive index (Na D-line) (Liquid); method: Standard Abbe refractometry
Temperature, K	Refractive index (Na D-line)	uncertainty
293.15	1.39026	
298.15	1.38793	
303.15	1.38523	

System: 2-heptanone; phases: Liquid
Fixed: Pressure, kPa = 101.325
Property: Mass density, kg/m3 (Liquid); method: Vibrating tube method
Temperature, K	Mass density, kg/m3	uncertainty
293.15	815.39	
298.15	811.08	
303.15	806.81	

System: 2-heptanone; phases: Liquid
Fixed: Pressure, kPa = 101.325
Property: Speed of sound, m/s (Liquid); method: Sing-around technique in a fixed-path interferometer
Temperature, K	Speed of sound, m/s	uncertainty
293.15	1282.1	
298.15	1262.7	
303.15	1244.4	

System: 2-heptanone; phases: Liquid
Fixed: Pressure, kPa = 101.325
Property: Refractive index (Na D-line) (Liquid); method: Standard Abbe refractometry
Temperature, K	Refractive index (Na D-line)	uncertainty
298.15	1.40688	

System: propanone + N,N-dimethylformamide; phases: Liquid
Fixed: Pressure, kPa = 100
Property: Mass density, kg/m3 (Liquid); method: Vibrating tube method
Temperature, K	Mole fraction of N,N-dimethylformamide	Mass density, kg/m3	uncertainty
293.15	.0503	799.565	
293.15	.1057	809.645	
293.15	.1529	818.017	
293.15	.1992	826.191	
293.15	.2475	834.489	
293.15	.2981	843.136	
293.15	.3458	851.059	
293.15	.3942	859.037	
293.15	.4516	868.376	
293.15	.4973	875.647	
298.15	.05	793.781	
298.15	.127	807.814	
298.15	.1485	811.673	
298.15	.1908	819.252	
298.15	.2492	829.349	
298.15	.297	837.55	
298.15	.3399	844.898	
298.15	.3997	854.838	
298.15	.4461	862.361	
298.15	.4978	870.632	
303.15	.0571	789.325	
303.15	.1075	798.734	
303.15	.148	805.999	
303.15	.2001	815.316	
303.15	.2528	824.518	
303.15	.3003	832.657	
303.15	.3487	840.866	
303.15	.392	848.12	
303.15	.4547	858.369	
303.15	.4991	865.505	
293.15	.5476	883.523	
293.15	.599	891.359	
293.15	.6521	899.454	
293.15	.7051	907.302	
293.15	.7538	914.504	
293.15	.8063	921.993	
293.15	.8441	927.346	
293.15	.9022	935.518	
293.15	.9471	941.723	
298.15	.549	878.71	
298.15	.5893	884.968	
298.15	.6413	892.941	
298.15	.6822	898.928	
298.15	.7435	908.066	
298.15	.7945	915.398	
298.15	.8342	921.109	
298.15	.8801	927.621	
298.15	.9377	935.649	
303.15	.5422	872.357	
303.15	.6046	882.041	
303.15	.6507	889.133	
303.15	.6986	896.27	
303.15	.7493	903.843	
303.15	.7975	910.848	
303.15	.8442	917.613	
303.15	.8972	925.06	
303.15	.9411	931.137	
293.15	1	948.82	
298.15	1	944.06	
303.15	1	939.28	
293.15	0	790.19	
298.15	0	784.43	
303.15	0	778.63	

System: propanone + N,N-dimethylformamide; phases: Liquid
Fixed: Pressure, kPa = 100
Fixed: Frequency, MHz = 3
Property: Speed of sound, m/s (Liquid); method: Sing-around technique in a fixed-path interferometer
Temperature, K	Mole fraction of N,N-dimethylformamide	Speed of sound, m/s	uncertainty
293.15	.0503	1200.1	
293.15	.1057	1218	
293.15	.1529	1232.9	
293.15	.1992	1247.6	
293.15	.2475	1262.6	
293.15	.2981	1278.3	
293.15	.3458	1292.6	
293.15	.3942	1307.4	
293.15	.4516	1324.6	
293.15	.4973	1338.1	
293.15	.5476	1352.9	
293.15	.599	1367.5	
293.15	.6521	1382.9	
293.15	.7051	1397.8	
293.15	.7538	1411.4	
293.15	.8063	1425.7	
293.15	.8441	1436	
293.15	.9022	1451.7	
293.15	.9471	1463.7	
298.15	.05	1180.1	
298.15	.127	1205.5	
298.15	.1485	1212.5	
298.15	.1908	1226.2	
298.15	.2492	1244.6	
298.15	.297	1259.6	
298.15	.3399	1273.1	
298.15	.3997	1291.5	
298.15	.4461	1305.3	
298.15	.4978	1320.8	
298.15	.549	1336.2	
298.15	.5893	1348.1	
298.15	.6413	1363.3	
298.15	.6822	1374.7	
298.15	.7435	1392.3	
298.15	.7945	1406.4	
298.15	.8342	1417.5	
298.15	.8801	1430.1	
298.15	.9377	1445.8	
303.15	.0571	1159	
303.15	.1075	1175.8	
303.15	.148	1188.9	
303.15	.2001	1205.7	
303.15	.2528	1222.4	
303.15	.3003	1237.3	
303.15	.3487	1252.5	
303.15	.392	1265.8	
303.15	.4547	1284.8	
303.15	.4991	1298.1	
303.15	.5422	1310.9	
303.15	.6046	1329.2	
303.15	.6507	1342.6	
303.15	.6986	1356.3	
303.15	.7493	1370.7	
303.15	.7975	1384.2	
303.15	.8442	1397.1	
303.15	.8972	1411.5	
303.15	.9411	1423.4	
293.15	1	1476.7	
298.15	1	1458.6	
303.15	1	1438.8	
293.15	0	1183.6	
298.15	0	1163.6	
303.15	0	1139.9	

System: propanone + N,N-dimethylformamide; phases: Liquid
Fixed: Pressure, kPa = 100
Property: Refractive index (Na D-line) (Liquid); method: Standard Abbe refractometry
Temperature, K	Mole fraction of N,N-dimethylformamide	Refractive index (Na D-line)	uncertainty
293.15	.0503	1.36286	
293.15	.1057	1.3677	
293.15	.1529	1.37155	
293.15	.1992	1.37532	
293.15	.2475	1.37922	
293.15	.2981	1.38311	
293.15	.3458	1.38685	
293.15	.3942	1.3905	
293.15	.4516	1.39472	
293.15	.4973	1.398	
293.15	.5476	1.40156	
293.15	.599	1.40511	
293.15	.6521	1.40867	
293.15	.7051	1.41226	
293.15	.7538	1.41537	
293.15	.8063	1.41877	
293.15	.8441	1.42113	
293.15	.9022	1.42474	
293.15	.9471	1.42742	
298.15	.05	1.35901	
298.15	.127	1.3664	
298.15	.1485	1.36834	
298.15	.1908	1.37223	
298.15	.2492	1.37711	
298.15	.297	1.38103	
298.15	.3399	1.38441	
298.15	.3997	1.38893	
298.15	.4461	1.39235	
298.15	.4978	1.39595	
298.15	.549	1.39951	
298.15	.5893	1.40233	
298.15	.6413	1.40581	
298.15	.6822	1.40851	
298.15	.7435	1.41236	
298.15	.7945	1.41552	
298.15	.8342	1.41805	
298.15	.8801	1.4209	
298.15	.9377	1.42451	
293.15	1	1.43055	
298.15	1	1.4284	
293.15	0	1.35845	
298.15	0	1.35386	

System: N,N-dimethylformamide + 2-butanone; phases: Liquid
Fixed: Pressure, kPa = 100
Property: Mass density, kg/m3 (Liquid); method: Vibrating tube method
Temperature, K	Mole fraction of N,N-dimethylformamide	Mass density, kg/m3	uncertainty
293.15	.0482	811.508	
293.15	.1051	819.281	
293.15	.148	825.263	
293.15	.1915	831.169	
293.15	.253	839.789	
293.15	.3008	846.349	
293.15	.3386	851.673	
293.15	.3915	859.222	
293.15	.4887	873.095	
298.15	.0519	806.811	
298.15	.1048	814.011	
298.15	.1506	820.379	
298.15	.1948	826.51	
298.15	.2482	834.008	
298.15	.3032	841.593	
298.15	.3543	848.769	
298.15	.3962	854.829	
298.15	.4495	862.429	
298.15	.4916	868.442	
303.15	.0496	801.341	
303.15	.1068	809.288	
303.15	.1478	814.925	
303.15	.1836	819.8	
303.15	.2521	829.427	
303.15	.2943	835.351	
303.15	.3532	843.706	
303.15	.3938	849.516	
303.15	.4538	858.11	
303.15	.4969	864.319	
293.15	.5514	882.097	
293.15	.6017	889.386	
293.15	.6519	896.759	
293.15	.7023	904.135	
293.15	.7525	911.634	
293.15	.8002	918.668	
293.15	.8492	926.05	
293.15	.9032	934.175	
293.15	.9477	940.9	
298.15	.5536	877.384	
298.15	.5946	883.427	
298.15	.6572	892.579	
298.15	.7034	899.388	
298.15	.7461	905.863	
298.15	.7965	913.261	
298.15	.8488	921.083	
298.15	.894	928.027	
298.15	.9427	935.405	
303.15	.5486	871.924	
303.15	.6028	879.882	
303.15	.6517	886.955	
303.15	.7023	894.541	
303.15	.7483	901.328	
303.15	.7995	908.942	
303.15	.8514	916.844	
303.15	.8982	923.832	
303.15	.946	931.082	
293.15	1	948.82	
298.15	1	944.06	
303.15	1	939.28	
293.15	0	805.06	
298.15	0	799.78	
303.15	0	794.55	

System: N,N-dimethylformamide + 2-butanone; phases: Liquid
Fixed: Pressure, kPa = 100
Fixed: Frequency, MHz = 3
Property: Speed of sound, m/s (Liquid); method: Sing-around technique in a fixed-path interferometer
Temperature, K	Mole fraction of N,N-dimethylformamide	Speed of sound, m/s	uncertainty
293.15	.0482	1224.5	
293.15	.1051	1238.6	
293.15	.148	1249.6	
293.15	.1915	1262.8	
293.15	.253	1276.1	
293.15	.3008	1288.2	
293.15	.3386	1298	
293.15	.3915	1311.8	
293.15	.4887	1337.4	
293.15	.5514	1354.1	
293.15	.6017	1367.5	
293.15	.6519	1381.2	
293.15	.7023	1394.9	
293.15	.7525	1408.8	
293.15	.8002	1421.7	
293.15	.8492	1435.2	
293.15	.9032	1450.2	
293.15	.9477	1462.4	
298.15	.0519	1204.4	
298.15	.1048	1217.5	
298.15	.1506	1229.3	
298.15	.1948	1240.5	
298.15	.2482	1254.4	
298.15	.3032	1268.4	
298.15	.3543	1281.6	
298.15	.3962	1292.8	
298.15	.4495	1306.9	
298.15	.4916	1318	
298.15	.5536	1334.6	
298.15	.5946	1345.8	
298.15	.6572	1362.3	
298.15	.7034	1375.5	
298.15	.7461	1387.6	
298.15	.7965	1401.3	
298.15	.8488	1415.8	
298.15	.894	1428.6	
298.15	.9427	1442.1	
303.15	.0496	1184.6	
303.15	.1068	1199.1	
303.15	.1478	1209.5	
303.15	.1836	1218.5	
303.15	.2521	1236.4	
303.15	.2943	1248.2	
303.15	.3532	1262.8	
303.15	.3938	1273.5	
303.15	.4538	1289.4	
303.15	.4969	1301.1	
303.15	.5486	1315.5	
303.15	.6028	1330.1	
303.15	.6517	1343.2	
303.15	.7023	1357.4	
303.15	.7483	1369.9	
303.15	.7995	1384.1	
303.15	.8514	1399	
303.15	.8982	1410.9	
303.15	.946	1425.2	
293.15	1	1476.7	
298.15	1	1458.6	
303.15	1	1438.8	
293.15	0	1212.6	
298.15	0	1191.5	
303.15	0	1172	

System: N,N-dimethylformamide + 2-butanone; phases: Liquid
Fixed: Pressure, kPa = 100
Property: Refractive index (Na D-line) (Liquid); method: Standard Abbe refractometry
Temperature, K	Mole fraction of N,N-dimethylformamide	Refractive index (Na D-line)	uncertainty
293.15	.0482	1.3812	
293.15	.1051	1.3841	
293.15	.148	1.38629	
293.15	.1915	1.38843	
293.15	.253	1.39163	
293.15	.3008	1.39408	
293.15	.3386	1.39604	
293.15	.3915	1.39872	
293.15	.4432	1.40144	
293.15	.4887	1.40384	
293.15	.5536	1.40712	
293.15	.6017	1.40972	
293.15	.6519	1.41237	
293.15	.7023	1.41495	
293.15	.7525	1.41752	
293.15	.8002	1.42009	
293.15	.8492	1.42274	
293.15	.9032	1.42553	
293.15	.9477	1.42785	
298.15	.0519	1.37886	
298.15	.1048	1.38152	
298.15	.1506	1.38397	
298.15	.1948	1.38631	
298.15	.2482	1.38913	
298.15	.3032	1.39213	
298.15	.3543	1.39479	
298.15	.3962	1.39697	
298.15	.4495	1.39982	
298.15	.4916	1.40199	
298.15	.5536	1.40522	
298.15	.5946	1.40739	
298.15	.6572	1.41063	
298.15	.7034	1.41301	
298.15	.7461	1.41516	
298.15	.7965	1.41779	
298.15	.8488	1.42048	
298.15	.894	1.42276	
298.15	.9427	1.42542	
303.15	.0496	1.37623	
303.15	.1068	1.37911	
303.15	.1478	1.38113	
303.15	.1836	1.38314	
303.15	.2521	1.38686	
303.15	.2943	1.38911	
303.15	.3532	1.39202	
303.15	.3938	1.39409	
303.15	.4538	1.39728	
303.15	.4969	1.39967	
303.15	.5486	1.40242	
303.15	.6028	1.40517	
303.15	.6517	1.4078	
303.15	.7023	1.4105	
303.15	.7483	1.41287	
303.15	.7995	1.41553	
303.15	.8514	1.41823	
303.15	.8982	1.42066	
303.15	.946	1.4232	
293.15	1	1.43055	
298.15	1	1.4284	
303.15	1	1.4261	
293.15	0	1.37872	
298.15	0	1.37605	
303.15	0	1.37351	

System: N,N-dimethylformamide + 2-pentanone; phases: Liquid
Fixed: Pressure, kPa = 100
Property: Mass density, kg/m3 (Liquid); method: Vibrating tube method
Temperature, K	Mole fraction of N,N-dimethylformamide	Mass density, kg/m3	uncertainty
293.15	.1141	819.616	
293.15	.1516	823.961	
293.15	.2063	830.491	
293.15	.2588	836.933	
293.15	.3089	843.115	
293.15	.3594	849.625	
293.15	.4006	855.077	
293.15	.4488	861.489	
293.15	.4999	868.584	
298.15	.0568	808.267	
298.15	.1	813.221	
298.15	.1526	819.25	
298.15	.1895	823.621	
298.15	.2545	831.549	
298.15	.3298	841.051	
298.15	.3502	843.666	
298.15	.3956	849.557	
298.15	.4567	857.796	
298.15	.5084	865.012	
303.15	.0581	803.204	
303.15	.1088	808.974	
303.15	.16	815.007	
303.15	.2044	820.314	
303.15	.262	827.319	
303.15	.3046	832.689	
303.15	.3506	838.634	
303.15	.4014	845.319	
303.15	.482	856.31	
303.15	.5006	858.884	
293.15	.5466	875.212	
293.15	.5987	882.775	
293.15	.6581	891.66	
293.15	.7528	906.494	
293.15	.8029	914.576	
293.15	.8461	921.84	
293.15	.9017	931.277	
293.15	.9496	939.704	
298.15	.557	871.899	
298.15	.6022	878.552	
298.15	.6448	884.967	
298.15	.7117	895.208	
298.15	.7504	901.333	
298.15	.8027	909.784	
298.15	.849	917.57	
298.15	.9019	926.592	
298.15	.9429	933.872	
303.15	.5407	864.591	
303.15	.5989	873.078	
303.15	.6467	880.175	
303.15	.6949	887.598	
303.15	.7518	896.616	
303.15	.8007	904.558	
303.15	.8527	913.274	
303.15	.8991	921.307	
303.15	.9485	929.946	
293.15	1	948.82	
298.15	1	944.06	
303.15	1	939.28	
293.15	0	806.83	
298.15	0	801.99	
303.15	0	796.73	

System: N,N-dimethylformamide + 2-pentanone; phases: Liquid
Fixed: Pressure, kPa = 100
Fixed: Frequency, MHz = 3
Property: Speed of sound, m/s (Liquid); method: Sing-around technique in a fixed-path interferometer
Temperature, K	Mole fraction of N,N-dimethylformamide	Speed of sound, m/s	uncertainty
293.15	.1141	1254.3	
293.15	.1516	1261.7	
293.15	.2063	1273	
293.15	.2588	1284	
293.15	.3089	1294.7	
293.15	.3594	1303.2	
293.15	.4006	1315.3	
293.15	.4488	1326.3	
293.15	.4999	1338.5	
293.15	.5466	1350	
293.15	.5987	1363.1	
293.15	.6581	1378.4	
293.15	.7528	1404.2	
293.15	.8029	1418.1	
293.15	.8461	1430.7	
293.15	.9017	1446.8	
293.15	.9496	1460.9	
298.15	.0568	1222.8	
298.15	.1	1231.3	
298.15	.1526	1241.7	
298.15	.1895	1249.2	
298.15	.2545	1262.9	
298.15	.3298	1279.3	
298.15	.3502	1283.9	
298.15	.3956	1294	
298.15	.4567	1308.5	
298.15	.5084	1320.8	
298.15	.557	1332.9	
298.15	.6022	1344.4	
298.15	.6448	1355.5	
298.15	.7117	1373.4	
298.15	.7504	1384	
298.15	.8027	1398.7	
298.15	.849	1412.1	
298.15	.9019	1427.6	
298.15	.9429	1440.1	
303.15	.0581	1203	
303.15	.1088	1212.9	
303.15	.16	1223.3	
303.15	.2044	1232.5	
303.15	.262	1244.6	
303.15	.3046	1253.9	
303.15	.3506	1264.1	
303.15	.4014	1275.7	
303.15	.482	1294.7	
303.15	.5006	1299.1	
303.15	.5407	1309	
303.15	.5989	1323.9	
303.15	.6467	1336.3	
303.15	.6949	1349.2	
303.15	.7518	1364.8	
303.15	.8007	1378.6	
303.15	.8527	1393.6	
303.15	.8991	1407.5	
303.15	.9485	1422.2	
293.15	1	1476.7	
298.15	1	1458.6	
303.15	1	1438.8	
293.15	0	1232.4	
298.15	0	1211.9	
303.15	0	1191.7	

System: N,N-dimethylformamide + 2-pentanone; phases: Liquid
Fixed: Pressure, kPa = 100
Property: Refractive index (Na D-line) (Liquid); method: Standard Abbe refractometry
Temperature, K	Mole fraction of N,N-dimethylformamide	Refractive index (Na D-line)	uncertainty
293.15	.056	1.39208	
293.15	.1141	1.39408	
293.15	.1531	1.39541	
293.15	.2063	1.39735	
293.15	.2588	1.39918	
293.15	.3089	1.40106	
293.15	.3594	1.40295	
293.15	.4006	1.40453	
293.15	.4488	1.40643	
293.15	.4999	1.40845	
293.15	.5466	1.41036	
293.15	.5976	1.41245	
293.15	.6581	1.41495	
293.15	.6992	1.41668	
293.15	.7528	1.41906	
293.15	.8029	1.42129	
293.15	.8461	1.42325	
293.15	.9017	1.42583	
293.15	.9496	1.42811	
298.15	.0568	1.38979	
298.15	.1	1.39128	
298.15	.1526	1.3931	
298.15	.1895	1.39442	
298.15	.2545	1.3967	
298.15	.3298	1.39955	
298.15	.3502	1.40029	
298.15	.3956	1.40203	
298.15	.4567	1.40441	
298.15	.5084	1.4065	
298.15	.557	1.40855	
298.15	.6022	1.41039	
298.15	.6448	1.41217	
298.15	.7117	1.41498	
298.15	.7511	1.41672	
298.15	.8027	1.41905	
298.15	.849	1.42117	
298.15	.9019	1.42364	
298.15	.9429	1.42557	
303.15	.0681	1.38748	
303.15	.113	1.38906	
303.15	.1576	1.39062	
303.15	.1979	1.39212	
303.15	.2343	1.39347	
303.15	.3128	1.39635	
303.15	.3603	1.3982	
303.15	.4156	1.40034	
303.15	.4485	1.40167	
303.15	.4954	1.40355	
303.15	.5505	1.4058	
303.15	.5986	1.40783	
303.15	.6407	1.40954	
303.15	.6952	1.41187	
303.15	.7401	1.41378	
303.15	.7992	1.41643	
303.15	.8559	1.41908	
303.15	.8994	1.42109	
303.15	.9411	1.42312	
293.15	1	1.43055	
298.15	1	1.4284	
303.15	1	1.4261	
293.15	0	1.39026	
298.15	0	1.38793	
303.15	0	1.38523	

System: N,N-dimethylformamide + 2-heptanone; phases: Liquid
Fixed: Pressure, kPa = 100
Property: Mass density, kg/m3 (Liquid); method: Vibrating tube method
Temperature, K	Mole fraction of N,N-dimethylformamide	Mass density, kg/m3	uncertainty
298.15	.053	815.095	
298.15	.0936	818.298	
298.15	.1502	822.964	
298.15	.2011	827.389	
298.15	.2495	831.808	
298.15	.296	836.272	
298.15	.3419	840.896	
298.15	.3963	846.646	
298.15	.4324	850.691	
298.15	.4957	858.13	
298.15	.5985	871.481	
298.15	.6368	876.894	
298.15	.6999	886.398	
298.15	.7433	893.368	
298.15	.8482	911.958	
298.15	.8634	914.867	
298.15	.8985	921.855	
298.15	.948	932.305	
298.15	1	944.06	
298.15	0	811.08	

System: N,N-dimethylformamide + 2-heptanone; phases: Liquid
Fixed: Pressure, kPa = 100
Fixed: Frequency, MHz = 3
Property: Speed of sound, m/s (Liquid); method: Sing-around technique in a fixed-path interferometer
Temperature, K	Mole fraction of N,N-dimethylformamide	Speed of sound, m/s	uncertainty
298.15	.053	1268.2	
298.15	.0936	1272.9	
298.15	.1502	1279	
298.15	.2011	1285.3	
298.15	.2495	1291.3	
298.15	.296	1297.5	
298.15	.3419	1304	
298.15	.3963	1312.2	
298.15	.4324	1318	
298.15	.4957	1328.7	
298.15	.5985	1348.2	
298.15	.6368	1356.2	
298.15	.6999	1370.3	
298.15	.7433	1380.8	
298.15	.8482	1408.7	
298.15	.8634	1413.1	
298.15	.8985	1423.7	
298.15	.948	1439.5	
298.15	1	1458.6	
298.15	0	1262.7	

System: N,N-dimethylformamide + 2-heptanone; phases: Liquid
Fixed: Pressure, kPa = 100
Property: Refractive index (Na D-line) (Liquid); method: Standard Abbe refractometry
Temperature, K	Mole fraction of N,N-dimethylformamide	Refractive index (Na D-line)	uncertainty
298.15	.053	1.40756	
298.15	.0936	1.40811	
298.15	.1502	1.4089	
298.15	.2011	1.40962	
298.15	.2495	1.41034	
298.15	.296	1.41107	
298.15	.3419	1.41182	
298.15	.3963	1.41276	
298.15	.4324	1.41341	
298.15	.4957	1.41462	
298.15	.5537	1.41582	
298.15	.5985	1.41679	
298.15	.6368	1.41766	
298.15	.6999	1.41919	
298.15	.7433	1.42032	
298.15	.8482	1.42329	
298.15	.8634	1.42376	
298.15	.8985	1.42488	
298.15	.948	1.42651	
298.15	1	1.4284	
298.15	0	1.40688	
