Measured thermophysical data. Solubilities of benzoic acid in binary (benzyl alcohol + benzaldehyde) solvent mixtures
Source: J. Chem. Thermodyn., 2015, 10.1016/j.jct.2014.12.003
Compound 1: benzoic acid, C7H6O2, purity 99.5%
Compound 2: benzyl alcohol, C7H8O, purity 99%
Compound 3: benzaldehyde, C7H6O, purity 99%
Compound 4: water, H2O, purity 99.9%

System: benzoic acid + benzyl alcohol + benzaldehyde; phases: Liquid, Crystal
Fixed: Pressure, kPa = 101.3
Property: Solid-liquid equilibrium temperature, K (Liquid); method: Visual observation
Mass ratio of solute to solvent of benzoic acid	Solvent: Mass fraction of benzaldehyde	Solid-liquid equilibrium temperature, K	uncertainty
.2978	0	306.35	.05
.3157	0	309.05	.05
.34	0	312.75	.05
.3738	0	316.25	.05
.4232	0	321.75	.05
.4848	0	327.45	.05
.5529	0	332.85	.05
.6428	0	338.55	.05
.7326	0	343.05	.05
.8291	0	347.25	.05
.9414	0	351.75	.05
1.0642	0	355.65	.05
.2	.2	302.35	.05
.2215	.2	306.05	.05
.2531	.2	311.35	.05
.2889	.2	315.75	.05
.3327	.2	320.35	.05
.3839	.2	324.75	.05
.4451	.2	330.75	.05
.5198	.2	335.85	.05
.5946	.2	341.45	.05
.6986	.2	346.65	.05
.8433	.2	352.35	.05
.1567	.4	298.35	.05
.1791	.4	303.25	.05
.1981	.4	305.85	.05
.2286	.4	310.85	.05
.2653	.4	316.75	.05
.3114	.4	321.05	.05
.3709	.4	326.65	.05
.4462	.4	332.95	.05
.5383	.4	339.35	.05
.6509	.4	344.85	.05
.7733	.4	350.05	.05
.9092	.4	354.35	.05
.1547	.6	304.85	.05
.1735	.6	308.45	.05
.2034	.6	313.65	.05
.237	.6	317.95	.05
.2801	.6	322.95	.05
.3415	.6	327.65	.05
.4164	.6	333.45	.05
.5053	.6	338.95	.05
.6149	.6	344.65	.05
.7397	.6	349.25	.05
.8735	.6	354.45	.05
.1188	.8	307.05	.05
.1381	.8	310.25	.05
.1684	.8	313.85	.05
.2029	.8	318.85	.05
.248	.8	324.05	.05
.3067	.8	329.25	.05
.3809	.8	334.35	.05
.4642	.8	339.45	.05
.5559	.8	344.15	.05
.6477	.8	347.55	.05
.7481	.8	350.75	.05
.8629	.8	353.65	.05
.0564	1	304.45	.05
.0742	1	308.95	.05
.1002	1	313.75	.05
.1334	1	318.95	.05
.1728	1	323.25	.05
.2235	1	329.05	.05
.2813	1	332.85	.05
.346	1	336.55	.05
.4191	1	340.65	.05
.498	1	344.35	.05
.5855	1	347.45	.05
.6805	1	350.55	.05
.7854	1	353.35	.05

System: benzoic acid + benzyl alcohol; phases: Liquid, Crystal
Property: Solid-liquid equilibrium temperature, K (Liquid); method: Visual observation
Mass ratio of solute to solvent of benzoic acid	Pressure, kPa	Solid-liquid equilibrium temperature, K	uncertainty
.2978	101.3	306.35	.05
.3157	101.3	309.05	.05
.34	101.3	312.75	.05
.3738	101.3	316.25	.05
.4232	101.3	321.75	.05
.4848	101.3	327.45	.05
.5529	101.3	332.85	.05
.6428	101.3	338.55	.05
.7326	101.3	343.05	.05
.8291	101.3	347.25	.05
.9414	101.3	351.75	.05
1.0642	101.3	355.65	.05

System: benzoic acid + benzaldehyde; phases: Liquid, Crystal
Property: Solid-liquid equilibrium temperature, K (Liquid); method: Visual observation
Mass ratio of solute to solvent of benzoic acid	Pressure, kPa	Solid-liquid equilibrium temperature, K	uncertainty
.0564	101.3	304.45	.05
.0742	101.3	308.95	.05
.1002	101.3	313.75	.05
.1334	101.3	318.95	.05
.1728	101.3	323.25	.05
.2235	101.3	329.05	.05
.2813	101.3	332.85	.05
.346	101.3	336.55	.05
.4191	101.3	340.65	.05
.498	101.3	344.35	.05
.5855	101.3	347.45	.05
.6805	101.3	350.55	.05
.7854	101.3	353.35	.05

System: benzoic acid + water; phases: Liquid, Crystal
Property: Solid-liquid equilibrium temperature, K (Liquid); method: Visual observation
Mass ratio of solute to solvent of benzoic acid	Pressure, kPa	Solid-liquid equilibrium temperature, K	uncertainty
.00337	101.3	298.85	.05
.00431	101.3	305.95	.05
.0054	101.3	312.85	.05
.00679	101.3	319.35	.05
.00826	101.3	323.25	.05
.01026	101.3	329.55	.05
.01271	101.3	335.25	.05
.0156	101.3	340.25	.05
