Measured thermophysical data. Phase behaviour of binary systems of lactones in carbon dioxide
Source: J. Chem. Thermodyn., 2010, 10.1016/j.jct.2009.07.003
Compound 1: 6-hexanolactone, C6H10O2, purity 99%
Compound 2: 2H-pyran-2-one, tetrahydro-6-methyl-, C6H10O2, purity 99%
Compound 3: 2(3H)-furanone, 5-ethyldihydro-, C6H10O2, purity 99%
Compound 4: carbon dioxide, CO2, purity 99.9%

System: carbon dioxide + 6-hexanolactone; phases: Liquid, Gas
Property: Vapor or sublimation pressure, kPa (Liquid); method: Closed cell (Static) method
Mole fraction of carbon dioxide	Temperature, K	Vapor or sublimation pressure, kPa	uncertainty
.9801	303	6720	
.9696	303	6670	
.8574	313	11490	
.8574	318	13330	
.8574	323	15050	
.8574	328	16660	
.8574	333	18040	
.8574	338	19580	
.8574	343	20830	
.8293	313	11320	
.8293	323	14810	
.8293	333	17850	
.8293	343	20730	
.7413	303	7130	
.7413	313	9460	
.7413	323	12650	
.7413	333	15890	
.7413	343	18820	
.7217	303	7430	
.7217	303	8290	
.7217	313	9310	
.7217	318	10600	
.7217	323	12120	
.7217	328	13480	
.7217	333	15050	
.7217	338	16490	
.7217	343	17880	
.6485	303	6730	
.6485	313	8270	
.6485	323	10210	
.6485	333	12340	
.6485	343	14970	
.5268	303	6140	
.5268	303	6810	
.5268	313	7330	
.5268	318	7940	
.5268	323	8760	
.5268	328	9370	
.5268	333	10120	
.5268	338	10910	
.5268	343	11780	
.2299	303	3460	
.2299	303	3630	
.2299	313	3850	
.2299	318	3990	
.2299	323	4300	
.2299	328	4530	
.2299	333	4720	
.2299	338	4940	
.2299	343	5160	

System: carbon dioxide + 6-hexanolactone; phases: Gas, Liquid
Property: Vapor or sublimation pressure, kPa (Gas); method: Closed cell (Static) method
Mole fraction of carbon dioxide	Temperature, K	Vapor or sublimation pressure, kPa	uncertainty
.9801	313	9070	
.9801	318	10430	
.9801	323	11870	
.9801	328	13040	
.9801	333	14110	
.9801	338	15280	
.9801	343	15970	
.9696	313	9580	
.9696	323	12620	
.9696	333	15430	
.9696	343	17960	
.9584	313	10680	
.9584	323	13850	
.9584	333	16580	
.9584	343	19090	
.9112	313	11680	
.9112	318	13360	
.9112	323	15060	
.9112	328	16560	
.9112	333	18020	
.9112	338	19430	
.9112	343	20710	

System: carbon dioxide + 6-hexanolactone; phases: Liquid mixture 1, Liquid mixture 2
Property: Phase boundary pressure, kPa (Liquid mixture 1); method: Closed cell (Static) method
Mole fraction of carbon dioxide	Temperature, K	Phase boundary pressure, kPa	uncertainty
.9801	303	7660	
.9696	303	8110	
.9584	303	7640	
.9584	303	9080	
.9112	303	8060	
.9112	303	9920	
.8574	303	7860	
.8574	303	9660	
.8293	303	7540	
.8293	303	9450	

System: carbon dioxide + 6-hexanolactone; phases: Liquid mixture 1, Liquid mixture 2, Gas
Property: Vapor or sublimation pressure, kPa (Liquid mixture 1); method: Closed cell (Static) method
Temperature, K	Vapor or sublimation pressure, kPa	uncertainty
303	7410	
303	7420	
303	6980	
303	7810	
303	6940	
303	7680	
303	6860	
303	7580	
303	6940	
303	7670	

System: carbon dioxide + 2H-pyran-2-one, tetrahydro-6-methyl-; phases: Liquid, Gas
Property: Vapor or sublimation pressure, kPa (Liquid); method: Closed cell (Static) method
Mole fraction of carbon dioxide	Temperature, K	Vapor or sublimation pressure, kPa	uncertainty
.9718	303	6350	
.9589	303	6710	
.9316	303	6310	
.9123	303	6740	
.8861	303	6680	
.8586	303	6470	
.8586	313	8660	
.8282	303	7180	
.8282	313	8700	
.8282	323	11100	
.8282	333	14210	
.8282	343	16710	
.7958	303	6680	
.7958	313	8480	
.7958	323	10720	
.7958	333	13630	
.7958	343	16370	
.722	303	6580	
.722	313	8500	
.722	323	10140	
.722	333	12480	
.722	343	15170	
.6353	303	7120	
.6353	313	8010	
.6353	323	8910	
.6353	333	10580	
.6353	343	12680	
.5277	303	6370	
.5277	313	7030	
.5277	323	7930	
.5277	333	8730	
.5277	343	9750	

System: carbon dioxide + 2H-pyran-2-one, tetrahydro-6-methyl-; phases: Gas, Liquid
Property: Vapor or sublimation pressure, kPa (Gas); method: Closed cell (Static) method
Mole fraction of carbon dioxide	Temperature, K	Vapor or sublimation pressure, kPa	uncertainty
.9718	313	8090	
.9718	323	10570	
.9718	333	12680	
.9718	343	14440	
.9589	313	8210	
.9589	323	10820	
.9589	333	13310	
.9589	343	15370	
.9316	313	8410	
.9316	323	11640	
.9316	333	14500	
.9316	343	16810	
.9123	313	8590	
.9123	323	11890	
.9123	333	14820	
.9123	343	17200	
.8861	313	8800	
.8861	323	12010	
.8861	333	14900	
.8861	343	17580	
.8586	323	11710	
.8586	333	14580	
.8586	343	17230	

System: carbon dioxide + 2(3H)-furanone, 5-ethyldihydro-; phases: Gas, Liquid
Property: Vapor or sublimation pressure, kPa (Gas); method: Closed cell (Static) method
Mole fraction of carbon dioxide	Temperature, K	Vapor or sublimation pressure, kPa	uncertainty
.9801	313	8860	
.9801	323	10310	
.9801	333	12820	
.9801	343	14360	
.9589	323	11610	
.9589	333	14330	
.9589	343	16020	
.9363	323	11860	
.9363	333	14550	
.9363	343	16960	
.9121	333	14480	
.9121	343	16940	

System: carbon dioxide + 2(3H)-furanone, 5-ethyldihydro-; phases: Liquid, Gas
Property: Vapor or sublimation pressure, kPa (Liquid); method: Closed cell (Static) method
Mole fraction of carbon dioxide	Temperature, K	Vapor or sublimation pressure, kPa	uncertainty
.9801	303	7090	
.9589	303	7080	
.9589	313	8950	
.9363	303	7050	
.9363	313	8950	
.9121	303	7040	
.9121	313	8780	
.9121	323	11630	
.8862	303	7020	
.8862	313	8760	
.8862	323	11450	
.8862	333	13930	
.8862	343	16420	
.8582	303	6980	
.8582	313	8720	
.8582	323	11150	
.8582	333	13800	
.8582	343	16220	
.8279	303	6960	
.8279	313	8650	
.8279	323	11020	
.8279	333	13660	
.8279	343	15900	
.7956	303	6910	
.7956	313	8520	
.7956	323	10870	
.7956	333	13230	
.7956	343	15420	
.7602	303	6820	
.7602	313	8170	
.7602	323	10070	
.7602	333	12530	
.7602	343	14640	
.7217	303	6620	
.7217	313	7830	
.7217	323	9430	
.7217	333	11400	
.7217	343	13680	
.6338	303	6000	
.6338	313	7240	
.6338	323	9010	
.6338	333	10310	
.6338	343	11930	
.5281	303	5550	
.5281	313	6370	
.5281	323	7330	
.5281	333	8370	
.5281	343	9670	
.3941	303	4930	
.3941	313	5450	
.3941	323	6120	
.3941	333	6820	
.3941	343	7540	
