Measured thermophysical data. Thermodynamic properties of 4-amino-3-furazanecarboxamidoxime
Source: J. Chem. Thermodyn., 2015, 10.1016/j.jct.2015.06.020
Compound 1: 4-amino-3-furazancarboxamidoxime, C3H5N5O2

System: 4-amino-3-furazancarboxamidoxime; phases: Crystal, Liquid, Air at 1 atmosphere
Property: Normal melting temperature, K (Crystal); method: DSC/DTA
Normal melting temperature, K	uncertainty
453.56	.39

System: 4-amino-3-furazancarboxamidoxime; phases: Crystal, Liquid, Air at 1 atmosphere
Property: Molar enthalpy of transition or fusion, kJ/mol (Crystal); method: DSC
Molar enthalpy of transition or fusion, kJ/mol	uncertainty
37.59349961	.24327731

System: 4-amino-3-furazancarboxamidoxime; phases: Crystal
Fixed: Pressure, kPa = 101.325
Property: Molar heat capacity at constant pressure, J/K/mol (Crystal); method: Large sample (1 g) scanning calorimetry
Temperature, K	Molar heat capacity at constant pressure, J/K/mol	uncertainty
283.15	173.37	
288.15	175.71	
293.15	178.06	
298.15	180.4	
303.15	182.75	
308.15	185.1	
313.15	187.44	
318.15	189.79	
323.15	192.13	
328.15	194.48	
333.15	196.83	
338.15	199.17	
343.15	201.52	
348.15	203.86	
353.15	206.21	
