Measured thermophysical data. Calorimetric study of bromoacetophenone isomers
Source: J. Chem. Thermodyn., 2014, 10.1016/j.jct.2014.06.028
Compound 1: 2-bromoacetophenone, C8H7BrO, purity 98%
Compound 2: 3'-bromoacetophenone, C8H7BrO, purity 99%
Compound 3: 2'-bromoacetophenone, C8H7BrO, purity 99%
Compound 4: 4'-bromoacetophenone, C8H7BrO, purity 98%
Compound 5: oxygen, O2
Compound 6: water, H2O
Compound 7: carbon dioxide, CO2
Compound 8: hydrogen bromide, BrH

System: 2-bromoacetophenone; phases: Crystal, Gas
Property: Molar enthalpy of vaporization or sublimation, kJ/mol (Crystal); method: Static calorimetry
Temperature, K	Molar enthalpy of vaporization or sublimation, kJ/mol	uncertainty
298.15	90.9	1.1

System: 3'-bromoacetophenone; phases: Liquid, Gas
Property: Molar enthalpy of vaporization or sublimation, kJ/mol (Liquid); method: Static calorimetry
Temperature, K	Molar enthalpy of vaporization or sublimation, kJ/mol	uncertainty
298.15	66.6	1

System: 2'-bromoacetophenone; phases: Liquid, Gas
Property: Molar enthalpy of vaporization or sublimation, kJ/mol (Liquid); method: Static calorimetry
Temperature, K	Molar enthalpy of vaporization or sublimation, kJ/mol	uncertainty
298.15	64.9	1.3

System: 4'-bromoacetophenone; phases: Crystal, Gas
Property: Molar enthalpy of vaporization or sublimation, kJ/mol (Crystal); method: Static calorimetry
Temperature, K	Molar enthalpy of vaporization or sublimation, kJ/mol	uncertainty
298.15	84.5	1

Reaction: -1 2-bromoacetophenone + 1 hydrogen bromide + 8 carbon dioxide + 3 water + -9 oxygen
Property: Specific internal energy of reaction at constant volume, J/g
-20057.5

Reaction: -1 2'-bromoacetophenone + 1 hydrogen bromide + 8 carbon dioxide + 3 water + -9 oxygen
Property: Specific internal energy of reaction at constant volume, J/g
-20156.8

Reaction: -1 3'-bromoacetophenone + 1 hydrogen bromide + 8 carbon dioxide + 3 water + -9 oxygen
Property: Specific internal energy of reaction at constant volume, J/g
-20093.7

Reaction: -1 4'-bromoacetophenone + 1 hydrogen bromide + 8 carbon dioxide + 3 water + -9 oxygen
Property: Specific internal energy of reaction at constant volume, J/g
-19996.7
