Measured thermophysical data. Apparent molar volumes and compressibilities of lanthanum, gadolinium,  lutetium and sodium trifluoromethanesulfonates in N,N-dimethylformamide  and N,N-dimethylacetamide
Source: J. Chem. Thermodyn., 2013, 10.1016/j.jct.2012.11.004
Compound 1: lanthanum(III) trifluoromethanesulfonate, C3F9LaO9S3, purity 97%
Compound 2: sodium triflate, CF3NaO3S, purity 97%
Compound 3: gadolinium (III) trifluoromethanesulfonate, C3F9GdO9S3, purity 97%
Compound 4: lutetium(III) trifluoromethanesulfonate, C3F9LuO9S3, purity 97%
Compound 5: formamide, N,N-dimethyl-, C3H7NO, purity 99%
Compound 6: acetamide, N,N-dimethyl-, C4H9NO, purity 99%

System: formamide, N,N-dimethyl-; phases: Liquid
Property: Mass density, kg/m3 (Liquid); method: Vibrating tube method
Temperature, K	Pressure, kPa	Mass density, kg/m3	uncertainty
283.15	101	958.07	.035
293.15	101	948.56	.035
298.15	101	943.79	.035
303.15	101	939.01	.035
313.15	101	929.43	.035
323.15	101	919.81	.035
333.15	101	910.11	.035

System: acetamide, N,N-dimethyl-; phases: Liquid
Property: Mass density, kg/m3 (Liquid); method: Vibrating tube method
Temperature, K	Pressure, kPa	Mass density, kg/m3	uncertainty
283.15	101	950.04	.035
293.15	101	940.83	.035
298.15	101	936.22	.035
303.15	101	931.61	.035
313.15	101	922.35	.035
323.15	101	913.08	.035
333.15	101	903.76	.035

System: formamide, N,N-dimethyl- + sodium triflate; phases: Liquid
Fixed: Pressure, kPa = 101
Property: Mass density, kg/m3 (Liquid); method: Vibrating tube method
Temperature, K	Molality, mol/kg of sodium triflate	Mass density, kg/m3	uncertainty
283.15	.03242	961.31	.035
283.15	.04301	962.37	.035
283.15	.05649	963.72	.035
283.15	.07002	965.07	.035
283.15	.08981	967.04	.035
283.15	.1114	969.21	.035
283.15	.1445	972.54	.035
283.15	.1748	975.61	.035
283.15	.2026	978.41	.035
283.15	.239	982.12	.035
283.15	.2681	985.09	.035
293.15	.03242	951.8	.035
293.15	.04301	952.86	.035
293.15	.05649	954.21	.035
293.15	.07002	955.56	.035
293.15	.08981	957.54	.035
293.15	.1114	959.69	.035
293.15	.1445	963.02	.035
293.15	.1748	966.08	.035
293.15	.2026	968.91	.035
293.15	.239	972.58	.035
293.15	.2681	975.55	.035
298.15	.03242	947.04	.035
298.15	.04301	948.1	.035
298.15	.05649	949.44	.035
298.15	.07002	950.8	.035
298.15	.08981	952.77	.035
298.15	.1114	954.93	.035
298.15	.1445	958.25	.035
298.15	.1748	961.32	.035
298.15	.2026	964.12	.035
298.15	.239	967.82	.035
298.15	.2681	970.79	.035
303.15	.03242	942.26	.035
303.15	.04301	943.33	.035
303.15	.05649	944.67	.035
303.15	.07002	946.03	.035
303.15	.08981	948	.035
303.15	.1114	950.16	.035
303.15	.1445	953.48	.035
303.15	.1748	956.54	.035
303.15	.2026	959.34	.035
303.15	.239	963.03	.035
303.15	.2681	966.01	.035
313.15	.03242	932.69	.035
313.15	.04301	933.75	.035
313.15	.05649	935.1	.035
313.15	.07002	936.46	.035
313.15	.08981	938.43	.035
313.15	.1114	940.6	.035
313.15	.1445	943.91	.035
313.15	.1748	946.97	.035
313.15	.2026	949.76	.035
313.15	.239	953.44	.035
313.15	.2681	956.41	.035
323.15	.03242	923.07	.035
323.15	.04301	924.13	.035
323.15	.05649	925.48	.035
323.15	.07002	926.83	.035
323.15	.08981	928.81	.035
323.15	.1114	930.98	.035
323.15	.1445	934.29	.035
323.15	.1748	937.35	.035
323.15	.2026	940.13	.035
323.15	.239	943.82	.035
323.15	.2681	946.79	.035
333.15	.03242	913.39	.035
333.15	.04301	914.46	.035
333.15	.05649	915.81	.035
333.15	.07002	917.16	.035
333.15	.08981	919.14	.035
333.15	.1114	921.31	.035
333.15	.1445	924.63	.035
333.15	.1748	927.69	.035
333.15	.2026	930.5	.035
333.15	.239	934.15	.035
333.15	.2681	937.1	.035
283.15	0	958.07	.035
293.15	0	948.56	.035
298.15	0	943.79	.035
303.15	0	939.01	.035
313.15	0	929.43	.035
323.15	0	919.81	.035
333.15	0	910.11	.035

System: formamide, N,N-dimethyl- + sodium triflate; phases: Liquid
Fixed: Pressure, kPa = 101
Fixed: Temperature, K = 298.15
Property: Speed of sound, m/s (Liquid); method: Pulse-echo method
Molality, mol/kg of sodium triflate	Speed of sound, m/s	uncertainty
.07002	1456.8	.05
.08981	1456.7	.05
.1114	1456.6	.05
.1445	1456.42	.05
.1748	1456.25	.05
.2026	1456.07	.05
.239	1455.89	.05
.2681	1455.72	.05

System: formamide, N,N-dimethyl- + lanthanum(III) trifluoromethanesulfonate; phases: Liquid
Fixed: Pressure, kPa = 101
Property: Mass density, kg/m3 (Liquid); method: Vibrating tube method
Temperature, K	Molality, mol/kg of lanthanum(III) trifluoromethanesulfonate	Mass density, kg/m3	uncertainty
283.15	.02162	966.85	.035
283.15	.02944	970.04	.035
283.15	.03946	974.16	.035
283.15	.04997	978.49	.035
283.15	.0607	982.91	.035
283.15	.07649	989.57	.035
283.15	.09777	998.57	.035
283.15	.1172	1006.98	.035
283.15	.136	1015.16	.035
283.15	.1591	1025.46	.035
283.15	.1792	1034.5	.035
293.15	.02162	957.33	.035
293.15	.02944	960.51	.035
293.15	.03946	964.64	.035
293.15	.04997	968.96	.035
293.15	.0607	973.38	.035
293.15	.07649	980.03	.035
293.15	.09777	989.02	.035
293.15	.1172	997.41	.035
293.15	.136	1005.59	.035
293.15	.1591	1015.87	.035
293.15	.1792	1024.89	.035
298.15	.02162	952.56	.035
298.15	.02944	955.75	.035
298.15	.03946	959.87	.035
298.15	.04997	964.2	.035
298.15	.0607	968.61	.035
298.15	.07649	975.24	.035
298.15	.09777	984.24	.035
298.15	.1172	992.63	.035
298.15	.136	1000.8	.035
298.15	.1591	1011.07	.035
298.15	.1792	1020.09	.035
303.15	.02162	947.79	.035
303.15	.02944	950.97	.035
303.15	.03946	955.09	.035
303.15	.04997	959.42	.035
303.15	.0607	963.83	.035
303.15	.07649	970.46	.035
303.15	.09777	979.46	.035
303.15	.1172	987.84	.035
303.15	.136	996	.035
303.15	.1591	1006.26	.035
303.15	.1792	1015.28	.035
313.15	.02162	938.21	.035
313.15	.02944	941.39	.035
313.15	.03946	945.5	.035
313.15	.04997	949.83	.035
313.15	.0607	954.24	.035
313.15	.07649	960.87	.035
313.15	.09777	969.86	.035
313.15	.1172	978.22	.035
313.15	.136	986.37	.035
313.15	.1591	996.63	.035
313.15	.1792	1005.64	.035
323.15	.02162	928.58	.035
323.15	.02944	931.77	.035
323.15	.03946	935.87	.035
323.15	.04997	940.2	.035
323.15	.0607	944.62	.035
323.15	.07649	951.24	.035
323.15	.09777	960.23	.035
323.15	.1172	968.57	.035
323.15	.136	976.72	.035
323.15	.1591	986.96	.035
323.15	.1792	995.97	.035
333.15	.02162	918.9	.035
333.15	.02944	922.1	.035
333.15	.03946	926.19	.035
333.15	.04997	930.52	.035
333.15	.0607	934.95	.035
333.15	.07649	941.56	.035
333.15	.09777	950.54	.035
333.15	.1172	958.88	.035
333.15	.136	967.03	.035
333.15	.1591	977.26	.035
333.15	.1792	986.26	.035

System: formamide, N,N-dimethyl- + lanthanum(III) trifluoromethanesulfonate; phases: Liquid
Fixed: Pressure, kPa = 101
Fixed: Temperature, K = 298.15
Property: Speed of sound, m/s (Liquid); method: Pulse-echo method
Molality, mol/kg of lanthanum(III) trifluoromethanesulfonate	Speed of sound, m/s	uncertainty
.02162	1456	.05
.02944	1455.5	.05
.03946	1454.96	.05
.04997	1454.31	.05
.06066	1453.6	.05
.07649	1452.55	.05
.09777	1450.8	.05
.1172	1449.4	.05
.136	1448	.05
.1591	1446.26	.05
.1792	1444.87	.05

System: formamide, N,N-dimethyl- + gadolinium (III) trifluoromethanesulfonate; phases: Liquid
Fixed: Pressure, kPa = 101
Property: Mass density, kg/m3 (Liquid); method: Vibrating tube method
Temperature, K	Molality, mol/kg of gadolinium (III) trifluoromethanesulfonate	Mass density, kg/m3	uncertainty
283.15	.01967	966.39	.035
283.15	.02703	969.53	.035
283.15	.03489	972.9	.035
283.15	.04531	977.36	.035
283.15	.05527	981.65	.035
283.15	.07019	988.17	.035
283.15	.09028	997.06	.035
283.15	.108	1004.97	.035
283.15	.1249	1012.67	.035
283.15	.146	1022.39	.035
283.15	.1634	1030.52	.035
293.15	.01967	956.87	.035
293.15	.02703	960.01	.035
293.15	.03489	963.38	.035
293.15	.04531	967.83	.035
293.15	.05527	972.13	.035
293.15	.07019	978.65	.035
293.15	.09028	987.52	.035
293.15	.108	995.43	.035
293.15	.1249	1003.13	.035
293.15	.146	1012.83	.035
293.15	.1634	1020.96	.035
298.15	.01967	952.11	.035
298.15	.02703	955.25	.035
298.15	.03489	958.61	.035
298.15	.04531	963.07	.035
298.15	.05527	967.36	.035
298.15	.07019	973.89	.035
298.15	.09028	982.77	.035
298.15	.108	990.66	.035
298.15	.1249	998.36	.035
298.15	.146	1008.05	.035
298.15	.1634	1016.18	.035
303.15	.01967	947.35	.035
303.15	.02703	950.48	.035
303.15	.03489	953.84	.035
303.15	.04531	958.3	.035
303.15	.05527	962.59	.035
303.15	.07019	969.1	.035
303.15	.09028	977.97	.035
303.15	.108	985.88	.035
303.15	.1249	993.58	.035
303.15	.146	1003.28	.035
303.15	.1634	1011.39	.035
313.15	.01967	937.76	.035
313.15	.02703	940.9	.035
313.15	.03489	944.26	.035
313.15	.04531	948.72	.035
313.15	.05527	953.01	.035
313.15	.07019	959.52	.035
313.15	.09028	968.39	.035
313.15	.108	976.29	.035
313.15	.1249	983.99	.035
313.15	.146	993.69	.035
313.15	.1634	1001.8	.035
323.15	.01967	928.14	.035
323.15	.02703	931.28	.035
323.15	.03489	934.64	.035
323.15	.04531	939.1	.035
323.15	.05527	943.4	.035
323.15	.07019	949.91	.035
323.15	.09028	958.77	.035
323.15	.108	966.68	.035
323.15	.1249	974.37	.035
323.15	.146	984.07	.035
323.15	.1634	992.19	.035
333.15	.01967	918.46	.035
333.15	.02703	921.61	.035
333.15	.03489	924.97	.035
333.15	.04531	929.43	.035
333.15	.05527	933.75	.035
333.15	.07019	940.24	.035
333.15	.09028	949.11	.035
333.15	.108	957.02	.035
333.15	.1249	964.71	.035
333.15	.146	974.42	.035
333.15	.1634	982.54	.035

System: formamide, N,N-dimethyl- + gadolinium (III) trifluoromethanesulfonate; phases: Liquid
Fixed: Pressure, kPa = 101
Fixed: Temperature, K = 298.15
Property: Speed of sound, m/s (Liquid); method: Pulse-echo method
Molality, mol/kg of gadolinium (III) trifluoromethanesulfonate	Speed of sound, m/s	uncertainty
.01967	1455.78	.05
.02703	1455.2	.05
.03489	1454.55	.05
.04531	1453.6	.05
.05527	1452.75	.05
.07019	1451.5	.05
.09028	1449.4	.05
.108	1448	.05
.1249	1446.26	.05
.146	1443.53	.05
.1634	1441.7	.05

System: formamide, N,N-dimethyl- + lutetium(III) trifluoromethanesulfonate; phases: Liquid
Fixed: Pressure, kPa = 101
Property: Mass density, kg/m3 (Liquid); method: Vibrating tube method
Temperature, K	Molality, mol/kg of lutetium(III) trifluoromethanesulfonate	Mass density, kg/m3	uncertainty
283.15	.02151	967.66	.035
283.15	.02883	970.96	.035
283.15	.03776	975	.035
283.15	.04886	980.05	.035
283.15	.0599	985.11	.035
283.15	.07513	992.17	.035
283.15	.09644	1002.19	.035
283.15	.1156	1011.35	.035
283.15	.1337	1020.13	.035
283.15	.1557	1031	.035
283.15	.1744	1040.3	.035
293.15	.02151	958.14	.035
293.15	.02883	961.44	.035
293.15	.03776	965.46	.035
293.15	.04886	970.51	.035
293.15	.0599	975.57	.035
293.15	.07513	982.63	.035
293.15	.09644	992.62	.035
293.15	.1156	1001.77	.035
293.15	.1337	1010.53	.035
293.15	.1557	1021.38	.035
293.15	.1744	1030.66	.035
298.15	.02151	953.37	.035
298.15	.02883	956.67	.035
298.15	.03776	960.69	.035
298.15	.04886	965.73	.035
298.15	.0599	970.79	.035
298.15	.07513	977.84	.035
298.15	.09644	987.83	.035
298.15	.1156	996.97	.035
298.15	.1337	1005.72	.035
298.15	.1557	1016.56	.035
298.15	.1744	1025.84	.035
303.15	.02151	948.59	.035
303.15	.02883	951.89	.035
303.15	.03776	955.91	.035
303.15	.04886	960.95	.035
303.15	.0599	966.01	.035
303.15	.07513	973.05	.035
303.15	.09644	983.03	.035
303.15	.1156	992.16	.035
303.15	.1337	1000.91	.035
303.15	.1557	1011.75	.035
303.15	.1744	1021.02	.035
313.15	.02151	939.01	.035
313.15	.02883	942.3	.035
313.15	.03776	946.32	.035
313.15	.04886	951.35	.035
313.15	.0599	956.39	.035
313.15	.07513	963.43	.035
313.15	.09644	973.4	.035
313.15	.1156	982.52	.035
313.15	.1337	991.25	.035
313.15	.1557	1002.08	.035
313.15	.1744	1011.33	.035
323.15	.02151	929.39	.035
323.15	.02883	932.66	.035
323.15	.03776	936.69	.035
323.15	.04886	941.71	.035
323.15	.0599	946.76	.035
323.15	.07513	953.77	.035
323.15	.09644	963.72	.035
323.15	.1156	972.84	.035
323.15	.1337	981.57	.035
323.15	.1557	992.37	.035
323.15	.1744	1001.62	.035
333.15	.02151	919.7	.035
333.15	.02883	922.98	.035
333.15	.03776	927	.035
333.15	.04886	932.02	.035
333.15	.0599	937.05	.035
333.15	.07513	944.07	.035
333.15	.09644	954	.035
333.15	.1156	963.09	.035
333.15	.1337	971.83	.035
333.15	.1557	982.6	.035
333.15	.1744	991.84	.035

System: formamide, N,N-dimethyl- + lutetium(III) trifluoromethanesulfonate; phases: Liquid
Fixed: Pressure, kPa = 101
Fixed: Temperature, K = 298.15
Property: Speed of sound, m/s (Liquid); method: Pulse-echo method
Molality, mol/kg of lutetium(III) trifluoromethanesulfonate	Speed of sound, m/s	uncertainty
.02151	1455.36	.05
.02883	1454.66	.05
.03776	1453.96	.05
.04886	1452.9	.05
.0599	1451.85	.05
.07513	1450.45	.05
.09644	1448	.05
.1156	1445.91	.05
.1337	1444.17	.05
.1557	1441.75	.05
.1744	1439.67	.05

System: acetamide, N,N-dimethyl- + sodium triflate; phases: Liquid
Fixed: Pressure, kPa = 101
Property: Mass density, kg/m3 (Liquid); method: Vibrating tube method
Temperature, K	Molality, mol/kg of sodium triflate	Mass density, kg/m3	uncertainty
283.15	.03102	953.06	.035
283.15	.04251	954.18	.035
283.15	.05604	955.5	.035
283.15	.07266	957.11	.035
283.15	.08844	958.64	.035
283.15	.1113	960.86	.035
283.15	.1446	964.1	.035
283.15	.174	966.97	.035
283.15	.2018	969.69	.035
283.15	.2378	973.2	.035
283.15	.2675	976.18	.035
293.15	.03102	943.85	.035
293.15	.04251	944.96	.035
293.15	.05604	946.28	.035
293.15	.07266	947.9	.035
293.15	.08844	949.43	.035
293.15	.1113	951.66	.035
293.15	.1446	954.89	.035
293.15	.174	957.75	.035
293.15	.2018	960.49	.035
293.15	.2378	964	.035
293.15	.2675	966.97	.035
298.15	.03102	939.25	.035
298.15	.04251	940.36	.035
298.15	.05604	941.68	.035
298.15	.07266	943.3	.035
298.15	.08844	944.83	.035
298.15	.1113	947.06	.035
298.15	.1446	950.29	.035
298.15	.174	953.15	.035
298.15	.2018	955.89	.035
298.15	.2378	959.39	.035
298.15	.2675	962.37	.035
303.15	.03102	934.64	.035
303.15	.04251	935.76	.035
303.15	.05604	937.08	.035
303.15	.07266	938.69	.035
303.15	.08844	940.23	.035
303.15	.1113	942.45	.035
303.15	.1446	945.68	.035
303.15	.174	948.54	.035
303.15	.2018	951.28	.035
303.15	.2378	954.79	.035
303.15	.2675	957.77	.035
313.15	.03102	925.39	.035
313.15	.04251	926.52	.035
313.15	.05604	927.84	.035
313.15	.07266	929.46	.035
313.15	.08844	931	.035
313.15	.1113	933.22	.035
313.15	.1446	936.46	.035
313.15	.174	939.35	.035
313.15	.2018	942.06	.035
313.15	.2378	945.58	.035
313.15	.2675	948.55	.035
323.15	.03102	916.13	.035
323.15	.04251	917.26	.035
323.15	.05604	918.59	.035
323.15	.07266	920.21	.035
323.15	.08844	921.75	.035
323.15	.1113	923.98	.035
323.15	.1446	927.21	.035
323.15	.174	930.09	.035
323.15	.2018	932.83	.035
323.15	.2378	936.36	.035
323.15	.2675	939.32	.035
333.15	.03102	906.83	.035
333.15	.04251	907.96	.035
333.15	.05604	909.29	.035
333.15	.07266	910.92	.035
333.15	.08844	912.46	.035
333.15	.1113	914.7	.035
333.15	.1446	917.94	.035
333.15	.174	920.85	.035
333.15	.2018	923.57	.035
333.15	.2378	927.11	.035
333.15	.2675	930.07	.035
283.15	0	950.04	.035
293.15	0	940.83	.035
298.15	0	936.22	.035
303.15	0	931.61	.035
313.15	0	922.35	.035
323.15	0	913.08	.035
333.15	0	903.76	.035

System: acetamide, N,N-dimethyl- + sodium triflate; phases: Liquid
Fixed: Pressure, kPa = 101
Fixed: Temperature, K = 298.15
Property: Speed of sound, m/s (Liquid); method: Pulse-echo method
Molality, mol/kg of sodium triflate	Speed of sound, m/s	uncertainty
.056045	1456	.05
.07266	1455.85	.05
.08844	1455.72	.05
.1113	1455.5	.05
.1446	1455.2	.05
.174	1455.01	.05
.2018	1454.66	.05
.2378	1454.31	.05
.2675	1453.9	.05

System: acetamide, N,N-dimethyl- + lanthanum(III) trifluoromethanesulfonate; phases: Liquid
Fixed: Pressure, kPa = 101
Property: Mass density, kg/m3 (Liquid); method: Vibrating tube method
Temperature, K	Molality, mol/kg of lanthanum(III) trifluoromethanesulfonate	Mass density, kg/m3	uncertainty
283.15	.02085	958.67	.035
283.15	.02801	961.64	.035
283.15	.03761	965.63	.035
283.15	.04797	969.94	.035
283.15	.05797	974.13	.035
283.15	.07244	980.27	.035
283.15	.09378	989.43	.035
283.15	.1127	997.64	.035
283.15	.1302	1005.34	.035
283.15	.1523	1015.25	.035
283.15	.1712	1023.81	.035
293.15	.02085	949.47	.035
293.15	.02801	952.45	.035
293.15	.03761	956.43	.035
293.15	.04797	960.74	.035
293.15	.05797	964.94	.035
293.15	.07244	971.08	.035
293.15	.09378	980.24	.035
293.15	.1127	988.45	.035
293.15	.1302	996.15	.035
293.15	.1523	1006.06	.035
293.15	.1712	1014.62	.035
298.15	.02085	944.86	.035
298.15	.02801	947.84	.035
298.15	.03761	951.81	.035
298.15	.04797	956.14	.035
298.15	.05797	960.34	.035
298.15	.07244	966.48	.035
298.15	.09378	975.64	.035
298.15	.1127	983.85	.035
298.15	.1302	991.55	.035
298.15	.1523	1001.46	.035
298.15	.1712	1010.03	.035
303.15	.02085	940.26	.035
303.15	.02801	943.23	.035
303.15	.03761	947.21	.035
303.15	.04797	951.53	.035
303.15	.05797	955.73	.035
303.15	.07244	961.88	.035
303.15	.09378	971.03	.035
303.15	.1127	979.24	.035
303.15	.1302	986.95	.035
303.15	.1523	996.85	.035
303.15	.1712	1005.42	.035
313.15	.02085	931.01	.035
313.15	.02801	933.99	.035
313.15	.03761	937.97	.035
313.15	.04797	942.29	.035
313.15	.05797	946.49	.035
313.15	.07244	952.67	.035
313.15	.09378	961.79	.035
313.15	.1127	969.99	.035
313.15	.1302	977.69	.035
313.15	.1523	987.59	.035
313.15	.1712	996.16	.035
323.15	.02085	921.74	.035
323.15	.02801	924.71	.035
323.15	.03761	928.7	.035
323.15	.04797	933.02	.035
323.15	.05797	937.22	.035
323.15	.07244	943.36	.035
323.15	.09378	952.5	.035
323.15	.1127	960.7	.035
323.15	.1302	968.39	.035
323.15	.1523	978.29	.035
323.15	.1712	986.84	.035
333.15	.02085	912.42	.035
333.15	.02801	915.39	.035
333.15	.03761	919.38	.035
333.15	.04797	923.71	.035
333.15	.05797	927.91	.035
333.15	.07244	934	.035
333.15	.09378	943.16	.035
333.15	.1127	951.36	.035
333.15	.1302	959.05	.035
333.15	.1523	968.93	.035
333.15	.1712	977.5	.035

System: acetamide, N,N-dimethyl- + lanthanum(III) trifluoromethanesulfonate; phases: Liquid
Fixed: Pressure, kPa = 101
Fixed: Temperature, K = 298.15
Property: Speed of sound, m/s (Liquid); method: Pulse-echo method
Molality, mol/kg of lanthanum(III) trifluoromethanesulfonate	Speed of sound, m/s	uncertainty
.07244	1455.9	.088

System: acetamide, N,N-dimethyl- + gadolinium (III) trifluoromethanesulfonate; phases: Liquid
Fixed: Pressure, kPa = 101
Property: Mass density, kg/m3 (Liquid); method: Vibrating tube method
Temperature, K	Molality, mol/kg of gadolinium (III) trifluoromethanesulfonate	Mass density, kg/m3	uncertainty
283.15	.02128	959.25	.035
283.15	.02915	962.65	.035
283.15	.03784	966.42	.035
283.15	.04864	971.16	.035
283.15	.05951	975.96	.035
283.15	.07557	983.07	.035
283.15	.0965	992.52	.035
283.15	.1165	1001.67	.035
283.15	.1341	1009.86	.035
283.15	.1567	1020.47	.035
283.15	.1757	1029.6	.035
293.15	.02128	950.04	.035
293.15	.02915	953.45	.035
293.15	.03784	957.21	.035
293.15	.04864	961.95	.035
293.15	.05951	966.76	.035
293.15	.07557	973.86	.035
293.15	.0965	983.33	.035
293.15	.1165	992.48	.035
293.15	.1341	1000.66	.035
293.15	.1567	1011.27	.035
293.15	.1757	1020.41	.035
298.15	.02128	945.43	.035
298.15	.02915	948.84	.035
298.15	.03784	952.61	.035
298.15	.04864	957.35	.035
298.15	.05951	962.16	.035
298.15	.07557	969.27	.035
298.15	.0965	978.73	.035
298.15	.1165	987.87	.035
298.15	.1341	996.06	.035
298.15	.1567	1006.67	.035
298.15	.1757	1015.81	.035
303.15	.02128	940.82	.035
303.15	.02915	944.24	.035
303.15	.03784	948.01	.035
303.15	.04864	952.76	.035
303.15	.05951	957.57	.035
303.15	.07557	964.67	.035
303.15	.0965	974.12	.035
303.15	.1165	983.27	.035
303.15	.1341	991.46	.035
303.15	.1567	1002.09	.035
303.15	.1757	1011.21	.035
313.15	.02128	931.58	.035
313.15	.02915	935	.035
313.15	.03784	938.78	.035
313.15	.04864	943.52	.035
313.15	.05951	948.33	.035
313.15	.07557	955.44	.035
313.15	.0965	964.89	.035
313.15	.1165	974.05	.035
313.15	.1341	982.24	.035
313.15	.1567	992.85	.035
313.15	.1757	1001.99	.035
323.15	.02128	922.32	.035
323.15	.02915	925.73	.035
323.15	.03784	929.52	.035
323.15	.04864	934.27	.035
323.15	.05951	939.08	.035
323.15	.07557	946.19	.035
323.15	.0965	955.64	.035
323.15	.1165	964.79	.035
323.15	.1341	972.98	.035
323.15	.1567	983.6	.035
323.15	.1757	992.73	.035
333.15	.02128	913.01	.035
333.15	.02915	916.44	.035
333.15	.03784	920.23	.035
333.15	.04864	924.97	.035
333.15	.05951	929.78	.035
333.15	.07557	936.89	.035
333.15	.0965	946.35	.035
333.15	.1165	955.49	.035
333.15	.1341	963.68	.035
333.15	.1567	974.31	.035
333.15	.1757	983.44	.035

System: acetamide, N,N-dimethyl- + gadolinium (III) trifluoromethanesulfonate; phases: Liquid
Fixed: Pressure, kPa = 101
Fixed: Temperature, K = 298.15
Property: Speed of sound, m/s (Liquid); method: Pulse-echo method
Molality, mol/kg of gadolinium (III) trifluoromethanesulfonate	Speed of sound, m/s	uncertainty
.02128	1456.07	.05
.02915	1455.92	.05
.03784	1455.72	.05
.04864	1455.36	.05
.05951	1455.01	.05
.07557	1454.66	.05
.0965	1453.96	.05
.1165	1453.6	.05
.1341	1452.9	.05
.1567	1452.55	.05
.1757	1451.85	.05

System: acetamide, N,N-dimethyl- + lutetium(III) trifluoromethanesulfonate; phases: Liquid
Fixed: Pressure, kPa = 101
Property: Mass density, kg/m3 (Liquid); method: Vibrating tube method
Temperature, K	Molality, mol/kg of lutetium(III) trifluoromethanesulfonate	Mass density, kg/m3	uncertainty
283.15	.02294	960.37	.035
283.15	.03057	963.84	.035
283.15	.0402	968.22	.035
283.15	.05161	973.43	.035
283.15	.06304	978.74	.035
283.15	.07962	986.46	.035
283.15	.1022	997.19	.035
283.15	.1222	1006.81	.035
283.15	.1412	1016.12	.035
283.15	.1647	1027.86	.035
283.15	.1843	1037.79	.035
293.15	.02294	951.15	.035
293.15	.03057	954.61	.035
293.15	.0402	958.99	.035
293.15	.05161	964.19	.035
293.15	.06304	969.5	.035
293.15	.07962	977.21	.035
293.15	.1022	987.92	.035
293.15	.1222	997.54	.035
293.15	.1412	1006.84	.035
293.15	.1647	1018.56	.035
293.15	.1843	1028.48	.035
298.15	.02294	946.53	.035
298.15	.03057	950	.035
298.15	.0402	954.37	.035
298.15	.05161	959.57	.035
298.15	.06304	964.89	.035
298.15	.07962	972.58	.035
298.15	.1022	983.29	.035
298.15	.1222	992.9	.035
298.15	.1412	1002.2	.035
298.15	.1647	1013.91	.035
298.15	.1843	1023.83	.035
303.15	.02294	941.91	.035
303.15	.03057	945.38	.035
303.15	.0402	949.75	.035
303.15	.05161	954.95	.035
303.15	.06304	960.24	.035
303.15	.07962	967.95	.035
303.15	.1022	978.65	.035
303.15	.1222	988.26	.035
303.15	.1412	997.55	.035
303.15	.1647	1009.26	.035
303.15	.1843	1019.21	.035
313.15	.02294	932.67	.035
313.15	.03057	936.11	.035
313.15	.0402	940.48	.035
313.15	.05161	945.68	.035
313.15	.06304	950.96	.035
313.15	.07962	958.66	.035
313.15	.1022	969.35	.035
313.15	.1222	978.94	.035
313.15	.1412	988.22	.035
313.15	.1647	999.92	.035
313.15	.1843	1009.81	.035
323.15	.02294	923.39	.035
323.15	.03057	926.83	.035
323.15	.0402	931.19	.035
323.15	.05161	936.38	.035
323.15	.06304	941.65	.035
323.15	.07962	949.34	.035
323.15	.1022	960.02	.035
323.15	.1222	969.59	.035
323.15	.1412	978.86	.035
323.15	.1647	990.55	.035
323.15	.1843	1000.43	.035
333.15	.02294	914.07	.035
333.15	.03057	917.5	.035
333.15	.0402	921.86	.035
333.15	.05161	927.05	.035
333.15	.06304	932.31	.035
333.15	.07962	939.99	.035
333.15	.1022	950.65	.035
333.15	.1222	960.2	.035
333.15	.1412	969.47	.035
333.15	.1647	981.13	.035
333.15	.1843	991.01	.035

System: acetamide, N,N-dimethyl- + lutetium(III) trifluoromethanesulfonate; phases: Liquid
Fixed: Pressure, kPa = 101
Fixed: Temperature, K = 298.15
Property: Speed of sound, m/s (Liquid); method: Pulse-echo method
Molality, mol/kg of lutetium(III) trifluoromethanesulfonate	Speed of sound, m/s	uncertainty
.02294	1455.72	.05
.03057	1455.36	.05
.0402	1455	.05
.05161	1454.7	.05
.06304	1454.3	.05
.07962	1453.65	.05
.1022	1452.2	.05
.1222	1451.5	.05
.1412	1450.45	.05
.1647	1449.05	.05
.1843	1448.35	.05
