Measured thermophysical data. Effect of temperature on the aggregation behaviour and thermodynamic properties of surface active ionic liquid 1-decyl-3-methylimidazolium bromide in aqueous solutions: Surface tension, vapour pressure osmometery, conductivity, volumetric and compressibility study
Source: J. Chem. Thermodyn., 2016, 10.1016/j.jct.2016.06.034
Compound 1: 1-decyl-3-methylimidazolium bromide, C14H27BrN2, purity 98%
Compound 2: water, H2O

System: water + 1-decyl-3-methylimidazolium bromide; phases: Liquid
Fixed: Pressure, kPa = 84.5
Property: Mass density, kg/m3 (Liquid); method: Vibrating tube method
Temperature, K	Molality, mol/kg of 1-decyl-3-methylimidazolium bromide	Mass density, kg/m3	uncertainty
288.15	.0095	999.502	
288.15	.01379	999.684	
288.15	.01652	999.799	
288.15	.02179	1000.021	
288.15	.02615	1000.203	
288.15	.03106	1000.413	
288.15	.03338	1000.506	
288.15	.03819	1000.71	
288.15	.0406	1000.814	
288.15	.04332	1000.917	
288.15	.04614	1001.027	
288.15	.05515	1001.345	
288.15	.06396	1001.656	
288.15	.07815	1002.15	
288.15	.12199	1003.646	
288.15	.17259	1005.334	
288.15	.22474	1007.027	
288.15	.25387	1007.951	
293.15	.0095	998.589	
293.15	.01379	998.766	
293.15	.01652	998.876	
293.15	.02179	999.09	
293.15	.02615	999.268	
293.15	.03106	999.467	
293.15	.03338	999.559	
293.15	.03819	999.755	
293.15	.0406	999.853	
293.15	.04332	999.954	
293.15	.04614	1000.059	
293.15	.05515	1000.367	
293.15	.06396	1000.668	
293.15	.07815	1001.147	
293.15	.12199	1002.603	
293.15	.17259	1004.244	
293.15	.22474	1005.889	
293.15	.25387	1006.79	
298.15	.0095	997.416	
298.15	.01379	997.587	
298.15	.01652	997.693	
298.15	.02179	997.899	
298.15	.02615	998.07	
298.15	.03106	998.263	
298.15	.03338	998.353	
298.15	.03819	998.54	
298.15	.0406	998.636	
298.15	.04332	998.732	
298.15	.04614	998.829	
298.15	.05515	999.136	
298.15	.06396	999.429	
298.15	.07815	999.895	
298.15	.12199	1001.312	
298.15	.17259	1002.91	
298.15	.22474	1004.51	
298.15	.25387	1005.387	
303.15	.0095	996.005	
303.15	.01379	996.169	
303.15	.01652	996.273	
303.15	.02179	996.475	
303.15	.02615	996.639	
303.15	.03106	996.825	
303.15	.03338	996.912	
303.15	.03819	997.092	
303.15	.0406	997.186	
303.15	.04332	997.276	
303.15	.04614	997.377	
303.15	.05515	997.672	
303.15	.06396	997.957	
303.15	.07815	998.413	
303.15	.12199	999.792	
303.15	.17259	1001.351	
303.15	.22474	1002.913	
303.15	.25387	1003.767	
308.15	.0095	994.377	
308.15	.01379	994.536	
308.15	.01652	994.638	
308.15	.02179	994.831	
308.15	.02615	994.993	
308.15	.03106	995.17	
308.15	.03338	995.253	
308.15	.03819	995.428	
308.15	.0406	995.52	
308.15	.04332	995.61	
308.15	.04614	995.708	
308.15	.05515	995.996	
308.15	.06396	996.274	
308.15	.07815	996.719	
308.15	.12199	998.067	
308.15	.17259	999.588	
308.15	.22474	1001.114	
308.15	.25387	1001.948	

System: water + 1-decyl-3-methylimidazolium bromide; phases: Liquid
Fixed: Pressure, kPa = 84.5
Fixed: Frequency, MHz = 3
Property: Speed of sound, m/s (Liquid); method: Sing-around technique in a fixed-path interferometer
Temperature, K	Molality, mol/kg of 1-decyl-3-methylimidazolium bromide	Speed of sound, m/s	uncertainty
288.15	.0095	1468.85	
288.15	.01379	1469.79	
288.15	.01652	1470.38	
288.15	.02179	1471.58	
288.15	.02615	1472.51	
288.15	.03106	1473.54	
288.15	.03338	1474.03	
288.15	.03819	1475.02	
288.15	.0406	1475.33	
288.15	.04332	1475.64	
288.15	.04614	1476.01	
288.15	.05515	1476.41	
288.15	.06396	1476.67	
288.15	.07815	1476.99	
288.15	.12199	1477.86	
288.15	.17259	1478.88	
288.15	.22474	1480	
288.15	.25387	1480.6	
293.15	.0095	1484.64	
293.15	.01379	1485.53	
293.15	.01652	1486.08	
293.15	.02179	1487.15	
293.15	.02615	1488	
293.15	.03106	1488.95	
293.15	.03338	1489.4	
293.15	.03819	1490.29	
293.15	.0406	1490.52	
293.15	.04332	1490.87	
293.15	.04614	1491.13	
293.15	.05515	1491.44	
293.15	.06396	1491.62	
293.15	.07815	1491.83	
293.15	.12199	1492.38	
293.15	.17259	1493.02	
293.15	.22474	1493.75	
293.15	.25387	1494.12	
298.15	.0095	1498.64	
298.15	.01379	1499.47	
298.15	.01652	1499.97	
298.15	.02179	1500.9	
298.15	.02615	1501.69	
298.15	.03106	1502.52	
298.15	.03338	1502.92	
298.15	.03819	1503.71	
298.15	.0406	1503.9	
298.15	.04332	1504.21	
298.15	.04614	1504.43	
298.15	.05515	1504.68	
298.15	.06396	1504.78	
298.15	.07815	1504.9	
298.15	.12199	1505.1	
298.15	.17259	1505.36	
298.15	.22474	1505.69	
298.15	.25387	1505.86	
303.15	.0095	1510.83	
303.15	.01379	1511.57	
303.15	.01652	1511.97	
303.15	.02179	1512.85	
303.15	.02615	1513.52	
303.15	.03106	1514.31	
303.15	.03338	1514.66	
303.15	.03819	1515.36	
303.15	.0406	1515.53	
303.15	.04332	1515.82	
303.15	.04614	1516.02	
303.15	.05515	1516.19	
303.15	.06396	1516.24	
303.15	.07815	1516.24	
303.15	.12199	1516.14	
303.15	.17259	1516.02	
303.15	.22474	1515.96	
303.15	.25387	1515.92	
308.15	.0095	1521.31	
308.15	.01379	1522	
308.15	.01652	1522.36	
308.15	.02179	1523.15	
308.15	.02615	1523.73	
308.15	.03106	1524.41	
308.15	.03338	1524.73	
308.15	.03819	1525.36	
308.15	.0406	1525.51	
308.15	.04332	1525.77	
308.15	.04614	1525.96	
308.15	.05515	1526.11	
308.15	.06396	1526.1	
308.15	.07815	1526	
308.15	.12199	1525.58	
308.15	.17259	1525.08	
308.15	.22474	1524.66	
308.15	.25387	1524.41	

System: water + 1-decyl-3-methylimidazolium bromide; phases: Liquid
Fixed: Pressure, kPa = 84.5
Property: Electrical conductivity, S/m (Liquid); method: Alternating current cell with electrodes
Temperature, K	Molality, mol/kg of 1-decyl-3-methylimidazolium bromide	Electrical conductivity, S/m	uncertainty
288.15	.00001	.0001125	
288.15	.00002	.000223	
288.15	.00004	.0003289	
288.15	.00005	.0004423	
288.15	.00008	.0006785	
288.15	.00012	.001032	
288.15	.00018	.001514	
288.15	.00026	.00212	
288.15	.00033	.002731	
288.15	.00044	.003571	
288.15	.00056	.004552	
288.15	.00075	.005998	
288.15	.00098	.00777	
288.15	.00127	.01003	
288.15	.00152	.01191	
288.15	.0021	.01627	
288.15	.00279	.02167	
288.15	.00349	.02696	
288.15	.00439	.03363	
288.15	.00754	.05591	
288.15	.01045	.07582	
288.15	.01291	.0921	
288.15	.01562	.1096	
288.15	.01821	.1263	
288.15	.0208	.1426	
288.15	.02334	.158	
288.15	.0258	.1731	
288.15	.02825	.1875	
288.15	.03047	.2004	
288.15	.03259	.2125	
288.15	.03462	.224	
288.15	.03662	.236	
288.15	.03965	.2516	
288.15	.04174	.2623	
288.15	.04366	.2703	
288.15	.04517	.2751	
288.15	.04687	.2796	
288.15	.04895	.2847	
288.15	.05102	.2892	
288.15	.05341	.2941	
288.15	.05563	.2985	
288.15	.05739	.301	
288.15	.05949	.3059	
288.15	.06232	.3111	
293.15	.00001	.0001595	
293.15	.00003	.0002891	
293.15	.00006	.0005545	
293.15	.00007	.0006857	
293.15	.00009	.0008203	
293.15	.0001	.000947	
293.15	.00011	.001064	
293.15	.00016	.001465	
293.15	.00025	.002313	
293.15	.00047	.00432	
293.15	.00077	.006948	
293.15	.0015	.01337	
293.15	.00228	.02026	
293.15	.00309	.02728	
293.15	.00382	.03347	
293.15	.00535	.04578	
293.15	.00813	.06782	
293.15	.01113	.0909	
293.15	.01397	.1124	
293.15	.01667	.1323	
293.15	.01935	.1517	
293.15	.02193	.1699	
293.15	.02449	.1874	
293.15	.02695	.2037	
293.15	.02918	.2187	
293.15	.0311	.2313	
293.15	.03299	.2435	
293.15	.03499	.2564	
293.15	.03691	.2685	
293.15	.03912	.2819	
293.15	.04083	.2916	
293.15	.0425	.3002	
293.15	.04369	.3051	
293.15	.04545	.3114	
293.15	.04751	.3174	
293.15	.04952	.3226	
293.15	.05149	.3274	
293.15	.05344	.3318	
293.15	.05532	.336	
293.15	.058	.342	
293.15	.05963	.3452	
298.15	.00001	.000165	
298.15	.00003	.00031	
298.15	.00004	.000454	
298.15	.00005	.000592	
298.15	.00007	.0007394	
298.15	.0001	.001034	
298.15	.00012	.001319	
298.15	.00018	.001926	
298.15	.00025	.002684	
298.15	.0004	.004179	
298.15	.0006	.006217	
298.15	.00096	.00987	
298.15	.00171	.01722	
298.15	.00264	.02646	
298.15	.00371	.03677	
298.15	.00504	.04938	
298.15	.00703	.0685	
298.15	.00984	.0933	
298.15	.01267	.1174	
298.15	.01525	.139	
298.15	.01793	.1604	
298.15	.02048	.181	
298.15	.023	.2008	
298.15	.02535	.2189	
298.15	.02772	.2368	
298.15	.02961	.251	
298.15	.03171	.2665	
298.15	.03397	.2829	
298.15	.03638	.3	
298.15	.03875	.3165	
298.15	.04039	.3273	
298.15	.04217	.3377	
298.15	.04391	.3459	
298.15	.04608	.3541	
298.15	.04825	.361	
298.15	.05051	.3676	
298.15	.0526	.3732	
298.15	.05487	.3791	
298.15	.05749	.3857	
298.15	.06017	.3923	
298.15	.06271	.3984	
303.15	.00001	.0001802	
303.15	.00003	.0003419	
303.15	.00004	.0005114	
303.15	.00005	.0006756	
303.15	.00007	.0008346	
303.15	.00008	.001	
303.15	.00015	.001834	
303.15	.00023	.002673	
303.15	.00038	.004428	
303.15	.00053	.006083	
303.15	.00082	.009388	
303.15	.00142	.01599	
303.15	.0023	.02558	
303.15	.00351	.03844	
303.15	.00463	.05022	
303.15	.00617	.0665	
303.15	.00896	.0945	
303.15	.01168	.1209	
303.15	.01458	.1484	
303.15	.01746	.1751	
303.15	.01986	.1965	
303.15	.02235	.2185	
303.15	.0248	.2398	
303.15	.0272	.2602	
303.15	.02958	.2799	
303.15	.03192	.2992	
303.15	.03356	.3124	
303.15	.0353	.3262	
303.15	.03765	.3446	
303.15	.03995	.3615	
303.15	.04173	.3735	
303.15	.0437	.3847	
303.15	.04561	.3932	
303.15	.0476	.4009	
303.15	.04986	.4088	
303.15	.05209	.4159	
303.15	.05436	.4228	
303.15	.05698	.4303	
303.15	.0591	.4364	
303.15	.06148	.4431	
308.15	.00001	.000218	
308.15	.00003	.000397	
308.15	.00004	.0006058	
308.15	.00007	.000959	
308.15	.0001	.001326	
308.15	.00013	.001689	
308.15	.00017	.002279	
308.15	.00024	.0032	
308.15	.00039	.005102	
308.15	.00069	.008882	
308.15	.00098	.01244	
308.15	.0014	.01778	
308.15	.00242	.0302	
308.15	.00326	.0401	
308.15	.00348	.04265	
308.15	.0063	.0752	
308.15	.00928	.1083	
308.15	.01212	.1388	
308.15	.01499	.1691	
308.15	.01731	.1928	
308.15	.02003	.22	
308.15	.02313	.2502	
308.15	.02573	.275	
308.15	.0282	.2981	
308.15	.03065	.3205	
308.15	.03312	.3428	
308.15	.03589	.3671	
308.15	.03832	.3878	
308.15	.04053	.4063	
308.15	.04223	.4188	
308.15	.04385	.429	
308.15	.04569	.4389	
308.15	.04793	.449	
308.15	.04988	.457	
308.15	.05236	.4661	
308.15	.05533	.4767	
308.15	.05718	.4829	
308.15	.05941	.4917	
308.15	.06163	.4985	
308.15	.06382	.5073	

System: water + 1-decyl-3-methylimidazolium bromide; phases: Liquid, Air at 1 atmosphere
Property: Surface tension liquid-gas, N/m (Liquid); method: platinum plate method
Temperature, K	Molality, mol/kg of 1-decyl-3-methylimidazolium bromide	Surface tension liquid-gas, N/m	uncertainty
293.15	.00805	.056247	
293.15	.01202	.05274	
293.15	.01627	.049456	
293.15	.02206	.045324	
293.15	.02718	.042196	
293.15	.03028	.040635	
293.15	.03568	.038167	
293.15	.03969	.037779	
293.15	.04205	.037638	
293.15	.04444	.037776	
293.15	.04581	.037965	
293.15	.04833	.038559	
293.15	.06141	.039324	
293.15	.0858	.039484	
293.15	.14811	.039355	
293.15	.1979	.039383	
298.15	.00412	.054676	
298.15	.00741	.050923	
298.15	.01142	.047076	
298.15	.01559	.043861	
298.15	.01865	.04213	
298.15	.02466	.0398	
298.15	.02893	.038509	
298.15	.03351	.037647	
298.15	.03974	.03731	
298.15	.04641	.037495	
298.15	.05292	.038512	
298.15	.05743	.038586	
298.15	.06462	.038742	
298.15	.0747	.038931	
298.15	.0901	.038821	
298.15	.1219	.038813	
298.15	.16451	.038906	
308.15	.00691	.0462	
308.15	.01368	.04098	
308.15	.01851	.0393	
308.15	.0251	.038117	
308.15	.03094	.037389	
308.15	.03447	.036946	
308.15	.04063	.036495	
308.15	.0479	.036688	
308.15	.05063	.037173	
308.15	.05219	.037656	
308.15	.05506	.03795	
308.15	.07	.038266	
308.15	.09792	.038407	
308.15	.16944	.038441	
308.15	.22682	.038195	

System: water + 1-decyl-3-methylimidazolium bromide; phases: Liquid
Fixed: Pressure, kPa = 84.5
Property: Osmotic coefficient (Liquid); method: Knauer Osmomat K-7000
Temperature, K	Molality, mol/kg of 1-decyl-3-methylimidazolium bromide	Osmotic coefficient	uncertainty
308.15	.01036	1.2326	
308.15	.01532	1.1598	
308.15	.01539	1.1544	
308.15	.02001	1.1101	
308.15	.02014	1.1057	
308.15	.02471	1.0812	
308.15	.02479	1.0753	
308.15	.03022	1.0605	
308.15	.03026	1.0554	
308.15	.03486	1.0206	
308.15	.0384	.9873	
308.15	.03983	.9742	
308.15	.04483	.8983	
308.15	.04981	.8319	
308.15	.05918	.735	
308.15	.06429	.687	
308.15	.06983	.6436	
308.15	.07967	.5788	
308.15	.08811	.53	
308.15	.09976	.4798	
308.15	.11751	.4172	
