Measured thermophysical data. Experimental determination of critical data of multi-component mixtures containing potential gasoline additives 2-butanol by a flow-type apparatus
Source: J. Chem. Thermodyn., 2016, 10.1016/j.jct.2016.05.010
Compound 1: 2-butanol, C4H10O, purity 99.5%
Compound 2: n-hexane, C6H14, purity 99.5%
Compound 3: cyclohexane, C6H12, purity 99.5%
Compound 4: n-heptane, C7H16, purity 99.5%
Compound 5: n-octane, C8H18, purity 99.0%
Compound 6: n-nonane, C9H20, purity 99.0%
Compound 7: n-decane, C10H22, purity 99.0%

System: 2-butanol; phases: Liquid, Gas
Property: Critical temperature, K (Liquid); method: Visual observation in an unstirred cell
Critical temperature, K	uncertainty
536.29	.2

System: 2-butanol; phases: Liquid, Gas
Property: Critical pressure, kPa (Liquid); method: Direct measurement
Critical pressure, kPa	uncertainty
4205	5.2

System: n-hexane; phases: Liquid, Gas
Property: Critical temperature, K (Liquid); method: Visual observation in an unstirred cell
Critical temperature, K	uncertainty
507.79	.2

System: n-hexane; phases: Liquid, Gas
Property: Critical pressure, kPa (Liquid); method: Direct measurement
Critical pressure, kPa	uncertainty
3033	5.2

System: cyclohexane; phases: Liquid, Gas
Property: Critical temperature, K (Liquid); method: Visual observation in an unstirred cell
Critical temperature, K	uncertainty
553.61	.2

System: cyclohexane; phases: Liquid, Gas
Property: Critical pressure, kPa (Liquid); method: Direct measurement
Critical pressure, kPa	uncertainty
4074	5.2

System: n-heptane; phases: Liquid, Gas
Property: Critical temperature, K (Liquid); method: Visual observation in an unstirred cell
Critical temperature, K	uncertainty
540.14	.2

System: n-heptane; phases: Liquid, Gas
Property: Critical pressure, kPa (Liquid); method: Direct measurement
Critical pressure, kPa	uncertainty
2736	5.2

System: n-octane; phases: Liquid, Gas
Property: Critical temperature, K (Liquid); method: Visual observation in an unstirred cell
Critical temperature, K	uncertainty
568.92	.2

System: n-octane; phases: Liquid, Gas
Property: Critical pressure, kPa (Liquid); method: Direct measurement
Critical pressure, kPa	uncertainty
2496	5.2

System: n-nonane; phases: Liquid, Gas
Property: Critical temperature, K (Liquid); method: Visual observation in an unstirred cell
Critical temperature, K	uncertainty
594.52	.2

System: n-nonane; phases: Liquid, Gas
Property: Critical pressure, kPa (Liquid); method: Direct measurement
Critical pressure, kPa	uncertainty
2278	5.2

System: n-decane; phases: Liquid, Gas
Property: Critical temperature, K (Liquid); method: Visual observation in an unstirred cell
Critical temperature, K	uncertainty
617.73	.2

System: n-decane; phases: Liquid, Gas
Property: Critical pressure, kPa (Liquid); method: Direct measurement
Critical pressure, kPa	uncertainty
2106	5.2

System: 2-butanol + n-hexane; phases: Liquid, Gas
Property: Critical temperature, K (Liquid); method: Visual observation in an unstirred cell
Mole fraction of 2-butanol	Critical temperature, K	uncertainty
.1144	506.64	
.2252	505.77	
.3326	506.21	
.4366	507.72	
.5376	510.08	
.6356	513.13	
.7307	517.39	
.823	522.87	
.9128	529.3	
1	536.29	
0	507.79	

System: 2-butanol + n-hexane; phases: Liquid, Gas
Property: Critical pressure, kPa (Liquid); method: Direct measurement
Mole fraction of 2-butanol	Critical pressure, kPa	uncertainty
.1144	3148	
.2252	3259	
.3326	3373	
.4366	3506	
.5376	3634	
.6356	3783	
.7307	3937	
.823	4081	
.9128	4169	
1	4205	
0	3033	

System: 2-butanol + cyclohexane; phases: Liquid, Gas
Property: Critical temperature, K (Liquid); method: Visual observation in an unstirred cell
Mole fraction of 2-butanol	Critical temperature, K	uncertainty
.112	547.46	
.2211	542.68	
.3273	538.5	
.4308	535.03	
.5317	532.84	
.6301	531.58	
.726	531.99	
.8195	533.04	
.9109	534.4	
1	536.29	
0	553.61	

System: 2-butanol + cyclohexane; phases: Liquid, Gas
Property: Critical pressure, kPa (Liquid); method: Direct measurement
Mole fraction of 2-butanol	Critical pressure, kPa	uncertainty
.112	4082	
.2211	4092	
.3273	4104	
.4308	4117	
.5317	4131	
.6301	4144	
.726	4159	
.8195	4174	
.9109	4190	
1	4205	
0	4074	

System: 2-butanol + n-heptane; phases: Liquid, Gas
Property: Critical temperature, K (Liquid); method: Visual observation in an unstirred cell
Mole fraction of 2-butanol	Critical temperature, K	uncertainty
.1306	535.42	
.2526	531.63	
.3668	529.18	
.474	527.94	
.5748	527.73	
.6697	528.61	
.7593	530.1	
.8439	532.01	
.9241	534.09	
1	536.29	
0	540.14	

System: 2-butanol + n-heptane; phases: Liquid, Gas
Property: Critical pressure, kPa (Liquid); method: Direct measurement
Mole fraction of 2-butanol	Critical pressure, kPa	uncertainty
.1306	2889	
.2526	3039	
.3668	3181	
.474	3324	
.5748	3483	
.6697	3633	
.7593	3806	
.8439	3986	
.9241	4123	
1	4205	
0	2736	

System: 2-butanol + n-octane; phases: Liquid, Gas
Property: Critical temperature, K (Liquid); method: Visual observation in an unstirred cell
Mole fraction of 2-butanol	Critical temperature, K	uncertainty
.1462	560.21	
.2781	553.03	
.3978	547.09	
.5068	541.71	
.6065	537.68	
.698	535.06	
.7824	533.89	
.8604	534.21	
.9327	535.01	
1	536.29	
0	568.92	

System: 2-butanol + n-octane; phases: Liquid, Gas
Property: Critical pressure, kPa (Liquid); method: Direct measurement
Mole fraction of 2-butanol	Critical pressure, kPa	uncertainty
.1462	2776	
.2781	3001	
.3978	3198	
.5068	3376	
.6065	3532	
.698	3680	
.7824	3828	
.8604	3974	
.9327	4119	
1	4205	
0	2496	

System: 2-butanol + n-nonane; phases: Liquid, Gas
Property: Critical temperature, K (Liquid); method: Visual observation in an unstirred cell
Mole fraction of 2-butanol	Critical temperature, K	uncertainty
.1613	579.17	
.302	566.82	
.4258	557.34	
.5357	550.58	
.6337	545.84	
.7219	541.91	
.8015	539.52	
.8738	537.54	
.9397	536.42	
1	536.29	
0	594.52	

System: 2-butanol + n-nonane; phases: Liquid, Gas
Property: Critical pressure, kPa (Liquid); method: Direct measurement
Mole fraction of 2-butanol	Critical pressure, kPa	uncertainty
.1613	2669	
.302	2954	
.4258	3186	
.5357	3388	
.6337	3557	
.7219	3714	
.8015	3871	
.8738	3999	
.9397	4118	
1	4205	
0	2278	

System: 2-butanol + n-decane; phases: Liquid, Gas
Property: Critical temperature, K (Liquid); method: Visual observation in an unstirred cell
Mole fraction of 2-butanol	Critical temperature, K	uncertainty
.1758	603.04	
.3243	590.87	
.4514	579.99	
.5613	570.32	
.6575	561.54	
.7422	553.78	
.8175	546.76	
.8848	541.59	
.9453	538.26	
1	536.29	
0	617.73	

System: 2-butanol + n-decane; phases: Liquid, Gas
Property: Critical pressure, kPa (Liquid); method: Direct measurement
Mole fraction of 2-butanol	Critical pressure, kPa	uncertainty
.1758	2586	
.3243	2978	
.4514	3268	
.5613	3508	
.6575	3696	
.7422	3846	
.8175	3964	
.8848	4065	
.9453	4144	
1	4205	
0	2106	

System: 2-butanol + n-hexane + n-heptane; phases: Liquid, Gas
Property: Critical temperature, K (Liquid); method: Visual observation in an unstirred cell
Mole fraction of 2-butanol	Mole fraction of n-hexane	Critical temperature, K	uncertainty
.1286	.1106	532.78	
.1247	.3218	527.02	
.1193	.6158	517.01	
.116	.7982	509.91	
.2416	.3117	523.01	
.2347	.5048	516.08	
.3615	.1036	525.6	
.3563	.2043	522.53	
.3513	.3022	518.72	
.3464	.3973	515.44	
.3417	.4898	512.11	
.3371	.5798	509.17	
.4546	.2932	516.99	
.5593	.1924	520.98	
.5519	.2848	517.17	
.6608	.0947	525.06	
.6438	.2769	517.81	
.8333	.0896	527.79	

System: 2-butanol + n-hexane + n-heptane; phases: Liquid, Gas
Property: Critical pressure, kPa (Liquid); method: Direct measurement
Mole fraction of 2-butanol	Mole fraction of n-hexane	Critical pressure, kPa	uncertainty
.1286	.1106	2973	
.1247	.3218	3057	
.1193	.6158	3112	
.116	.7982	3143	
.2416	.3117	3158	
.2347	.5048	3208	
.3615	.1036	3250	
.3563	.2043	3293	
.3513	.3022	3324	
.3464	.3973	3346	
.3417	.4898	3360	
.3371	.5798	3369	
.4546	.2932	3444	
.5593	.1924	3559	
.5519	.2848	3594	
.6608	.0947	3694	
.6438	.2769	3753	
.8333	.0896	4038	

System: 2-butanol + n-octane + n-decane; phases: Liquid, Gas
Property: Critical temperature, K (Liquid); method: Visual observation in an unstirred cell
Mole fraction of 2-butanol	Mole fraction of n-octane	Critical temperature, K	uncertainty
.1719	.1116	599.64	
.1647	.3206	590.88	
.1549	.603	577.77	
.149	.7734	566.32	
.3053	.2971	578.49	
.2938	.4766	569.7	
.4428	.0958	576.13	
.4346	.188	571.92	
.4267	.2769	567.27	
.4191	.3626	562.6	
.4117	.4453	557.97	
.4046	.5251	552.65	
.5327	.2592	557.64	
.6361	.1651	554.1	
.6259	.2437	549.02	
.7307	.079	550.08	
.7086	.2299	541.56	
.8724	.0708	537.27	

System: 2-butanol + n-octane + n-decane; phases: Liquid, Gas
Property: Critical pressure, kPa (Liquid); method: Direct measurement
Mole fraction of 2-butanol	Mole fraction of n-octane	Critical pressure, kPa	uncertainty
.1719	.1116	2623	
.1647	.3206	2688	
.1549	.603	2786	
.149	.7734	2794	
.3053	.2971	2990	
.2938	.4766	3010	
.4428	.0958	3297	
.4346	.188	3278	
.4267	.2769	3263	
.4191	.3626	3246	
.4117	.4453	3225	
.4046	.5251	3210	
.5327	.2592	3468	
.6361	.1651	3623	
.6259	.2437	3591	
.7307	.079	3817	
.7086	.2299	3704	
.8724	.0708	4024	
