Measured thermophysical data. The high temperature heat capacity of the (Th, Pu)O2 system
Source: J. Chem. Thermodyn., 2014, 10.1016/j.jct.2013.08.017
Compound 1: plutonium dioxide, O2Pu, purity 95%
Compound 2: thorium dioxide, O2Th, purity 95%

System: plutonium dioxide; phases: Crystal
Fixed: Pressure, kPa = 101.325
Property: Molar enthalpy, kJ/mol (Crystal); method: Drop calorimetry
Temperature, K	Molar enthalpy, kJ/mol	uncertainty
578.9	22.088	1.38
631.3	27.525	.91
680.7	30.142	1.123
731.1	33.816	1.42
781.7	39.422	.735
831.5	43.115	2.245
880	46.097	1.102
980.1	58.713	4.541
1081.1	67.086	11.149
1181.1	79.915	4.719
1283.6	84.262	7.891
1382.4	99.902	15.377
1483.3	102.539	6.555
1532.9	111.413	22.363
1584.1	114.777	6.468
1634.8	117.877	2.927
1685.3	125.627	2.859
1736.7	126.243	3.4

System: thorium dioxide; phases: Crystal
Fixed: Pressure, kPa = 101.325
Property: Molar enthalpy, kJ/mol (Crystal); method: Drop calorimetry
Temperature, K	Molar enthalpy, kJ/mol	uncertainty
475.9	12.264	.187
578.1	20.745	.674
679	27.252	.634
779.8	33.875	.854
879.8	42.692	.071
980.4	47.668	1.976
1081	57.614	2.077
1181.4	68.795	3.52
1282	73.286	2.932
1382.6	84.339	2.414
1432.9	84.716	1.207
1533.6	92.614	3.86
1685.3	105.422	10.832
1736.1	111.709	9.97
1786.6	113.707	6.521

System: thorium dioxide + plutonium dioxide; phases: Crystal
Fixed: Pressure, kPa = 101
Property: Molar enthalpy, kJ/mol (Crystal); method: Drop calorimetry
Mole fraction of thorium dioxide	Temperature, K	Molar enthalpy, kJ/mol	uncertainty
.97	580.2	19.834	1.044
.97	630.5	22.417	.701
.97	681	27.093	2.005
.97	731.2	28.399	1.108
.97	781.5	35.459	.916
.97	831.4	36.409	.752
.97	983.5	48.481	2.159
.97	1083.4	60.644	6.951
.97	1179.6	64.992	3.288
.97	1282.4	73.838	6.039
.97	1381.5	83.033	10.088
.97	1482.1	92.08	3.709
.97	1585.9	98.786	6.753
.97	1686.6	104.006	3.285
.97	1788.7	119.58	6.537
.92	578.1	18.891	1.001
.92	679.2	26.298	1.348
.92	880.1	43.498	1.66
.92	980.5	47.712	1.488
.92	1081	57.342	1.236
.92	1180.1	67.848	1.826
.92	1282	73.323	.836
.92	1382.4	79.921	1.45
.92	1483.4	92.708	3.452
.92	1583.5	99.664	2.692
.92	1685.1	106.966	5.548
.92	1787	115.658	10.045
.7	577.9	18.992	.489
.7	628.1	21.296	.622
.7	678.6	26.9	5.228
.7	728.2	29.895	2.821
.7	779.7	35.826	1.291
.7	830.3	39.378	2.098
.7	879.8	42.936	.72
.7	930.3	47.058	3.863
.7	980.1	51.973	.739
.7	1029.4	56.493	2.064
.7	1129.7	65.72	2.342
.7	1278.9	78.596	2.317
.7	1380	84.467	1.303
.7	1480.5	92.82	1.572
.7	1581.8	100.014	5.365
.7	1682.5	105.812	9.017
.7	1732.4	112.584	9.954
.7	1785.4	118.829	10.411
.46	475.8	12.44	.225
.46	577.8	20.539	.369
.46	679	28.979	1.415
.46	779.4	36.406	2.043
.46	880	45.599	3.531
.46	980.1	56.06	1.477
.46	1080.9	65.391	3.869
.46	1181	71.477	1.203
.46	1281.4	81.424	2.28
.46	1381.9	89.869	2.186
.46	1482.4	94.82	2.662
.46	1583	105.509	10.391
.46	1685.2	114.314	3.387
.46	1786.3	129.506	3.332
.15	528.7	18.408	1.424
.15	579.9	21.176	1.493
.15	681.4	31.902	5.483
.15	782	35.379	1.704
.15	882.3	48.61	3.842
.15	983.3	54.539	4.697
.15	1084	64.342	3.198
.15	1184.9	76.82	6.215
.15	1286.1	86.396	5.619
.15	1387.3	91.65	4.468
.15	1490.2	99.948	5.502
.15	1591.7	111.284	15.041
.15	1693	123.087	12.435
.15	1743.7	125.848	4.593
