Measured thermophysical data. Separation of toluene from cyclic hydrocarbons using 1-butyl-3-methylimidazolium methylsulfate ionic liquid at T = 298.15 K  and atmospheric pressure
Source: J. Chem. Thermodyn., 2011, 10.1016/j.jct.2010.12.012
Compound 1: cyclohexane, C6H12, purity 99.9%
Compound 2: methylcyclohexane, C7H14, purity 99%
Compound 3: cyclooctane, C8H16, purity 99%
Compound 4: cyclohexene, C6H10, purity 99%
Compound 5: toluene, C7H8, purity 99.9%
Compound 6: 1-butyl-3-methylimidazolium methylsulfate, C9H18N2O4S, purity 99%

System: cyclohexane; phases: Liquid
Fixed: Pressure, kPa = 101.325
Property: Mass density, kg/m3 (Liquid); method: Vibrating tube method
Temperature, K	Mass density, kg/m3	uncertainty
298.15	773.8	.03

System: cyclohexane; phases: Liquid
Fixed: Pressure, kPa = 101.325
Property: Refractive index (Na D-line) (Liquid); method: Standard Abbe refractometry
Temperature, K	Refractive index (Na D-line)	uncertainty
298.15	1.4236	.00004

System: methylcyclohexane; phases: Liquid
Fixed: Pressure, kPa = 101.325
Property: Mass density, kg/m3 (Liquid); method: Vibrating tube method
Temperature, K	Mass density, kg/m3	uncertainty
298.15	765.02	.03

System: methylcyclohexane; phases: Liquid
Fixed: Pressure, kPa = 101.325
Property: Refractive index (Na D-line) (Liquid); method: Standard Abbe refractometry
Temperature, K	Refractive index (Na D-line)	uncertainty
298.15	1.42062	.00004

System: cyclooctane; phases: Liquid
Fixed: Pressure, kPa = 101.325
Property: Mass density, kg/m3 (Liquid); method: Vibrating tube method
Temperature, K	Mass density, kg/m3	uncertainty
298.15	831.47	.03

System: cyclooctane; phases: Liquid
Fixed: Pressure, kPa = 101.325
Property: Refractive index (Na D-line) (Liquid); method: Standard Abbe refractometry
Temperature, K	Refractive index (Na D-line)	uncertainty
298.15	1.45598	.00004

System: cyclohexene; phases: Liquid
Fixed: Pressure, kPa = 101.325
Property: Mass density, kg/m3 (Liquid); method: Vibrating tube method
Temperature, K	Mass density, kg/m3	uncertainty
298.15	805.69	.03

System: cyclohexene; phases: Liquid
Fixed: Pressure, kPa = 101.325
Property: Refractive index (Na D-line) (Liquid); method: Standard Abbe refractometry
Temperature, K	Refractive index (Na D-line)	uncertainty
298.15	1.44378	.00004

System: toluene; phases: Liquid
Fixed: Pressure, kPa = 101.325
Property: Mass density, kg/m3 (Liquid); method: Vibrating tube method
Temperature, K	Mass density, kg/m3	uncertainty
298.15	862.17	.03

System: toluene; phases: Liquid
Fixed: Pressure, kPa = 101.325
Property: Refractive index (Na D-line) (Liquid); method: Standard Abbe refractometry
Temperature, K	Refractive index (Na D-line)	uncertainty
298.15	1.49399	.00004

System: 1-butyl-3-methylimidazolium methylsulfate; phases: Liquid
Fixed: Pressure, kPa = 101.325
Property: Mass density, kg/m3 (Liquid); method: Vibrating tube method
Temperature, K	Mass density, kg/m3	uncertainty
298.15	1212.59	.03

System: 1-butyl-3-methylimidazolium methylsulfate; phases: Liquid
Fixed: Pressure, kPa = 101.325
Property: Refractive index (Na D-line) (Liquid); method: Standard Abbe refractometry
Temperature, K	Refractive index (Na D-line)	uncertainty
298.15	1.47792	.00004

System: toluene + cyclohexane + 1-butyl-3-methylimidazolium methylsulfate; phases: Liquid
Fixed: Pressure, kPa = 101
Fixed: Temperature, K = 298.15
Property: Mass density, kg/m3 (Liquid); method: Vibrating tube method
Mole fraction of cyclohexane	Mole fraction of toluene	Mass density, kg/m3	uncertainty
.039	0	1204.53	.03
.033	.05	1198.37	.03
.03	.096	1191.52	.03
.026	.143	1183.78	.03
.021	.194	1175.39	.03
.017	.244	1166.9	.03
0	.328	1151	.03
.031	.076	1194.598	.03
.025	.173	1179.198	.03
.011	.274	1161.826	.03

System: toluene + cyclohexane + 1-butyl-3-methylimidazolium methylsulfate; phases: Liquid mixture 1, Liquid mixture 2
Fixed: Temperature, K = 298.15
Fixed: Pressure, kPa = 101.325
Property: Mole fraction of cyclohexane (Liquid mixture 1); method: Titration method
Property: Mole fraction of toluene (Liquid mixture 2); method: Titration method
Property: Mole fraction of cyclohexane (Liquid mixture 2); method: Titration method
Mole fraction of toluene	Mole fraction of cyclohexane	uncertainty	Mole fraction of toluene	uncertainty	Mole fraction of cyclohexane	uncertainty
.12	.88	.005	.046	.005	.034	.005
.18	.82	.005	.069	.005	.033	.005
.237	.763	.005	.089	.005	.03	.005
.302	.698	.005	.112	.005	.028	.005
.368	.632	.005	.133	.005	.026	.005
.497	.503	.005	.172	.005	.023	.005
.62	.38	.005	.209	.005	.019	.005
.754	.246	.005	.248	.005	.014	.005
.881	.119	.005	.29	.005	.008	.005

System: methylcyclohexane + toluene + 1-butyl-3-methylimidazolium methylsulfate; phases: Liquid
Fixed: Pressure, kPa = 101
Fixed: Temperature, K = 298.15
Property: Mass density, kg/m3 (Liquid); method: Vibrating tube method
Mole fraction of methylcyclohexane	Mole fraction of toluene	Mass density, kg/m3	uncertainty
.028	0	1207.3	.03
.02	.05	1200.53	.03
.019	.096	1193.3	.03
.017	.146	1185	.03
.015	.195	1176.61	.03
.011	.249	1167.45	.03
.006	.291	1158.98	.03
0	.328	1151	.03
.021	.079	1196.367	.03
.014	.175	1180.571	.03
.009	.273	1162.459	.03

System: methylcyclohexane + toluene + 1-butyl-3-methylimidazolium methylsulfate; phases: Liquid mixture 2, Liquid mixture 1
Fixed: Temperature, K = 298.15
Fixed: Pressure, kPa = 101.325
Property: Mole fraction of methylcyclohexane (Liquid mixture 2); method: Titration method
Property: Mole fraction of methylcyclohexane (Liquid mixture 1); method: Titration method
Property: Mole fraction of toluene (Liquid mixture 1); method: Titration method
Mole fraction of toluene	Mole fraction of methylcyclohexane	uncertainty	Mole fraction of methylcyclohexane	uncertainty	Mole fraction of toluene	uncertainty
.023	.021	.005	.938	.005	.062	.005
.045	.02	.005	.878	.005	.122	.005
.054	.02	.005	.851	.005	.149	.005
.091	.018	.005	.743	.005	.257	.005
.097	.018	.005	.722	.005	.278	.005
.128	.018	.005	.629	.005	.371	.005
.164	.017	.005	.511	.005	.489	.005
.203	.015	.005	.382	.005	.618	.005
.246	.011	.005	.248	.005	.752	.005
.287	.006	.005	.123	.005	.877	.005

System: toluene + cyclooctane + 1-butyl-3-methylimidazolium methylsulfate; phases: Liquid
Fixed: Pressure, kPa = 101
Fixed: Temperature, K = 298.15
Property: Mass density, kg/m3 (Liquid); method: Vibrating tube method
Mole fraction of cyclooctane	Mole fraction of toluene	Mass density, kg/m3	uncertainty
.02	0	1207.63	.03
.014	.048	1202.52	.03
.014	.094	1194.42	.03
.012	.146	1186.07	.03
.013	.193	1177.7	.03
.008	.234	1170.68	.03
.006	.293	1158.93	.03
0	.328	1151	.03
.015	.078	1197.335	.03
.01	.176	1181.24	.03
.008	.273	1162.469	.03

System: toluene + cyclooctane + 1-butyl-3-methylimidazolium methylsulfate; phases: Liquid mixture 2, Liquid mixture 1
Fixed: Temperature, K = 298.15
Fixed: Pressure, kPa = 101.325
Property: Mole fraction of cyclooctane (Liquid mixture 2); method: Titration method
Property: Mole fraction of cyclooctane (Liquid mixture 1); method: Titration method
Property: Mole fraction of toluene (Liquid mixture 1); method: Titration method
Mole fraction of toluene	Mole fraction of cyclooctane	uncertainty	Mole fraction of cyclooctane	uncertainty	Mole fraction of toluene	uncertainty
.021	.017	.005	.95	.005	.05	.005
.045	.016	.005	.891	.005	.109	.005
.066	.015	.005	.836	.005	.164	.005
.085	.014	.005	.786	.005	.214	.005
.111	.013	.005	.706	.005	.294	.005
.132	.013	.005	.648	.005	.352	.005
.171	.011	.005	.514	.005	.486	.005
.208	.009	.005	.38	.005	.62	.005
.246	.007	.005	.264	.005	.736	.005
.285	.004	.005	.112	.005	.888	.005

System: toluene + cyclohexene + 1-butyl-3-methylimidazolium methylsulfate; phases: Liquid
Fixed: Pressure, kPa = 101
Fixed: Temperature, K = 298.15
Property: Mass density, kg/m3 (Liquid); method: Vibrating tube method
Mole fraction of cyclohexene	Mole fraction of toluene	Mass density, kg/m3	uncertainty
.071	0	1201.85	.03
.055	.05	1196.54	.03
.053	.093	1191.25	.03
.042	.137	1183.83	.03
.035	.188	1175.45	.03
.019	.239	1167.77	.03
.007	.292	1159.99	.03
0	.328	1153.43	.03
.055	.076	1192.272	.03
.033	.171	1179.908	.03
.011	.272	1162.977	.03

System: toluene + cyclohexene + 1-butyl-3-methylimidazolium methylsulfate; phases: Liquid mixture 2, Liquid mixture 1
Fixed: Temperature, K = 298.15
Fixed: Pressure, kPa = 101.325
Property: Mole fraction of cyclohexene (Liquid mixture 2); method: Titration method
Property: Mole fraction of cyclohexene (Liquid mixture 1); method: Titration method
Property: Mole fraction of toluene (Liquid mixture 1); method: Titration method
Mole fraction of toluene	Mole fraction of cyclohexene	uncertainty	Mole fraction of cyclohexene	uncertainty	Mole fraction of toluene	uncertainty
.053	.061	.005	.869	.005	.131	.005
.071	.054	.005	.811	.005	.189	.005
.09	.052	.005	.757	.005	.243	.005
.11	.048	.005	.688	.005	.312	.005
.127	.045	.005	.629	.005	.372	.005
.159	.038	.005	.507	.005	.493	.005
.195	.031	.005	.373	.005	.627	.005
.22	.028	.005	.293	.005	.707	.005
.272	.014	.005	.115	.005	.885	.005

System: cyclohexane + 1-butyl-3-methylimidazolium methylsulfate; phases: Liquid
Property: Mass density, kg/m3 (Liquid); method: Vibrating tube method
Mole fraction of cyclohexane	Pressure, kPa	Temperature, K	Mass density, kg/m3	uncertainty
.039	101	298.15	1204.53	.03

System: toluene + 1-butyl-3-methylimidazolium methylsulfate; phases: Liquid
Property: Mass density, kg/m3 (Liquid); method: Vibrating tube method
Mole fraction of toluene	Pressure, kPa	Temperature, K	Mass density, kg/m3	uncertainty
.328	101	298.15	1151	.03
.328	101	298.15	1153.43	.03

System: toluene + cyclohexane; phases: Liquid mixture 1, Liquid mixture 2
Property: Mole fraction of cyclohexane (Liquid mixture 1); method: Titration method
Temperature, K	Pressure, kPa	Mole fraction of cyclohexane	uncertainty
298.15	101.325	.88	.005
298.15	101.325	.82	.005
298.15	101.325	.763	.005
298.15	101.325	.698	.005
298.15	101.325	.632	.005
298.15	101.325	.503	.005
298.15	101.325	.38	.005
298.15	101.325	.246	.005
298.15	101.325	.119	.005

System: methylcyclohexane + 1-butyl-3-methylimidazolium methylsulfate; phases: Liquid
Property: Mass density, kg/m3 (Liquid); method: Vibrating tube method
Mole fraction of methylcyclohexane	Pressure, kPa	Temperature, K	Mass density, kg/m3	uncertainty
.028	101	298.15	1207.3	.03

System: methylcyclohexane + toluene; phases: Liquid mixture 1, Liquid mixture 2
Property: Mole fraction of toluene (Liquid mixture 1); method: Titration method
Temperature, K	Pressure, kPa	Mole fraction of toluene	uncertainty
298.15	101.325	.062	.005
298.15	101.325	.122	.005
298.15	101.325	.149	.005
298.15	101.325	.257	.005
298.15	101.325	.278	.005
298.15	101.325	.371	.005
298.15	101.325	.489	.005
298.15	101.325	.618	.005
298.15	101.325	.752	.005
298.15	101.325	.877	.005

System: cyclooctane + 1-butyl-3-methylimidazolium methylsulfate; phases: Liquid
Property: Mass density, kg/m3 (Liquid); method: Vibrating tube method
Mole fraction of cyclooctane	Pressure, kPa	Temperature, K	Mass density, kg/m3	uncertainty
.02	101	298.15	1207.63	.03

System: toluene + cyclooctane; phases: Liquid mixture 1, Liquid mixture 2
Property: Mole fraction of toluene (Liquid mixture 1); method: Titration method
Temperature, K	Pressure, kPa	Mole fraction of toluene	uncertainty
298.15	101.325	.05	.005
298.15	101.325	.109	.005
298.15	101.325	.164	.005
298.15	101.325	.214	.005
298.15	101.325	.294	.005
298.15	101.325	.352	.005
298.15	101.325	.486	.005
298.15	101.325	.62	.005
298.15	101.325	.736	.005
298.15	101.325	.888	.005

System: cyclohexene + 1-butyl-3-methylimidazolium methylsulfate; phases: Liquid
Property: Mass density, kg/m3 (Liquid); method: Vibrating tube method
Mole fraction of cyclohexene	Pressure, kPa	Temperature, K	Mass density, kg/m3	uncertainty
.071	101	298.15	1201.85	.03

System: toluene + cyclohexene; phases: Liquid mixture 1, Liquid mixture 2
Property: Mole fraction of toluene (Liquid mixture 1); method: Titration method
Temperature, K	Pressure, kPa	Mole fraction of toluene	uncertainty
298.15	101.325	.131	.005
298.15	101.325	.189	.005
298.15	101.325	.243	.005
298.15	101.325	.312	.005
298.15	101.325	.493	.005
298.15	101.325	.627	.005
298.15	101.325	.707	.005
298.15	101.325	.885	.005
