Measured thermophysical data. Solubility for dilute sulfur dioxide in binary mixtures of N,N-dimethylformamide + Ethylene Glycol at T = 308.15 Kand p = 122.66 kPa
Source: J. Chem. Thermodyn., 2013, 10.1016/j.jct.2013.02.010
Compound 1: formamide, N,N-dimethyl-, C3H7NO, purity 99.5%
Compound 2: 1,2-dihydroxyethane, C2H6O2, purity 98%
Compound 3: sulfur dioxide, O2S, purity 97%

System: formamide, N,N-dimethyl-; phases: Liquid
Fixed: Pressure, kPa = 101.325
Property: Mass density, kg/m3 (Liquid); method: Pycnometric method
Temperature, K	Mass density, kg/m3	uncertainty
298.15	944.1	
303.15	939.3	
308.15	934.5	
313.15	929.5	
318.15	924.8	

System: formamide, N,N-dimethyl-; phases: Liquid
Fixed: Pressure, kPa = 101.325
Property: Viscosity, Pa*s (Liquid); method: Capillary tube (Ostwald; Ubbelohde) method
Temperature, K	Viscosity, Pa*s	uncertainty
298.15	.00082	.0000082
303.15	.000767	.00000767
308.15	.000721	.00000721
313.15	.000679	.00000679
318.15	.000636	.00000636

System: 1,2-dihydroxyethane; phases: Liquid
Fixed: Pressure, kPa = 101.325
Property: Mass density, kg/m3 (Liquid); method: Pycnometric method
Temperature, K	Mass density, kg/m3	uncertainty
298.15	1110.2	
303.15	1106.6	
308.15	1103	
313.15	1099.3	
318.15	1095.8	

System: 1,2-dihydroxyethane; phases: Liquid
Fixed: Pressure, kPa = 101.325
Property: Viscosity, Pa*s (Liquid); method: Capillary tube (Ostwald; Ubbelohde) method
Temperature, K	Viscosity, Pa*s	uncertainty
298.15	.0162	.000162
303.15	.0141	.000141
308.15	.0116	.000116
313.15	.00975	.0000975
318.15	.00791	.0000791

System: formamide, N,N-dimethyl- + 1,2-dihydroxyethane; phases: Liquid
Fixed: Pressure, kPa = 101
Property: Mass density, kg/m3 (Liquid); method: Pycnometric method
Mole fraction of formamide, N,N-dimethyl-	Temperature, K	Mass density, kg/m3	uncertainty
0	298.15	1110.2	
.0429	298.15	1101	
.0864	298.15	1092.1	
.1362	298.15	1082.1	
.1752	298.15	1074.5	
.2213	298.15	1065.7	
.2673	298.15	1057.2	
.314	298.15	1048.7	
.3615	298.15	1040.4	
.41	298.15	1032	
.4593	298.15	1023.8	
.5091	298.15	1015.7	
.5603	298.15	1007.5	
.6117	298.15	999.5	
.6642	298.15	991.5	
.7181	298.15	983.5	
.7722	298.15	975.7	
.8278	298.15	967.7	
.884	298.15	959.9	
.9402	298.15	952	
1	298.15	944.1	
0	303.15	1106.6	
.0429	303.15	1097.5	
.0864	303.15	1088.4	
.1362	303.15	1078.4	
.1752	303.15	1070.7	
.2213	303.15	1061.8	
.2673	303.15	1053.2	
.314	303.15	1044.6	
.3615	303.15	1036.2	
.41	303.15	1027.8	
.4593	303.15	1019.4	
.5091	303.15	1011.2	
.5603	303.15	1003	
.6117	303.15	995	
.6642	303.15	986.9	
.7181	303.15	978.8	
.7722	303.15	971	
.8278	303.15	963	
.884	303.15	955.1	
.9402	303.15	947.3	
1	303.15	939.3	
0	308.15	1103	
.0429	308.15	1093.7	
.0864	308.15	1084.7	
.1362	308.15	1074.6	
.1752	308.15	1066.9	
.2213	308.15	1057.8	
.2673	308.15	1049.2	
.314	308.15	1040.5	
.3615	308.15	1032.1	
.41	308.15	1023.6	
.4593	308.15	1015.1	
.5091	308.15	1006.9	
.5603	308.15	998.6	
.6117	308.15	990.5	
.6642	308.15	982.4	
.7181	308.15	974.2	
.7722	308.15	966.4	
.8278	308.15	958.3	
.884	308.15	950.4	
.9402	308.15	942.5	
1	308.15	934.5	
0	313.15	1099.3	
.0429	313.15	1089.9	
.0864	313.15	1080.7	
.1362	313.15	1070.5	
.1752	313.15	1062.7	
.2213	313.15	1053.6	
.2673	313.15	1044.9	
.314	313.15	1036.2	
.3615	313.15	1027.6	
.41	313.15	1019.1	
.4593	313.15	1010.6	
.5091	313.15	1002.3	
.5603	313.15	994	
.6117	313.15	985.8	
.6642	313.15	977.7	
.7181	313.15	969.5	
.7722	313.15	961.6	
.8278	313.15	953.5	
.884	313.15	945.5	
.9402	313.15	937.5	
1	313.15	929.5	
0	318.15	1095.8	
.0429	318.15	1086.5	
.0864	318.15	1077.2	
.1362	318.15	1066.8	
.1752	318.15	1059	
.2213	318.15	1049.9	
.2673	318.15	1041.1	
.314	318.15	1032.4	
.3615	318.15	1023.7	
.41	318.15	1015.1	
.4593	318.15	1006.6	
.5091	318.15	998.2	
.5603	318.15	989.8	
.6117	318.15	981.5	
.6642	318.15	973.3	
.7181	318.15	965.1	
.7722	318.15	957.1	
.8278	318.15	949	
.884	318.15	940.9	
.9402	318.15	932.9	
1	318.15	924.8	

System: formamide, N,N-dimethyl- + 1,2-dihydroxyethane; phases: Liquid
Fixed: Pressure, kPa = 101
Property: Kinematic viscosity, m2/s (Liquid); method: Capillary tube (Ostwald; Ubbelohde) method
Mole fraction of formamide, N,N-dimethyl-	Temperature, K	Kinematic viscosity, m2/s	uncertainty
0	298.15	.0000146	.000000146
.0429	298.15	.0000126	.000000126
.0864	298.15	.0000108	.000000108
.1362	298.15	.0000091	.000000091
.1752	298.15	.00000795	.0000000795
.2213	298.15	.00000679	.0000000679
.2673	298.15	.00000581	.0000000581
.314	298.15	.00000497	.0000000497
.3615	298.15	.00000427	.0000000427
.41	298.15	.00000366	.0000000366
.4593	298.15	.00000314	.0000000314
.5091	298.15	.00000272	.0000000272
.5603	298.15	.00000236	.0000000236
.6117	298.15	.00000206	.0000000206
.6642	298.15	.0000018	.000000018
.7181	298.15	.00000156	.0000000156
.7722	298.15	.00000138	.0000000138
.8278	298.15	.00000122	.0000000122
.884	298.15	.00000109	.0000000109
.9402	298.15	.000000969	.00000000969
1	298.15	.000000868	.00000000868
0	303.15	.0000127	.000000127
.0429	303.15	.0000111	.000000111
.0864	303.15	.0000096	.000000096
.1362	303.15	.00000817	.0000000817
.1752	303.15	.00000719	.0000000719
.2213	303.15	.00000617	.0000000617
.2673	303.15	.00000532	.0000000532
.314	303.15	.0000046	.000000046
.3615	303.15	.00000396	.0000000396
.41	303.15	.00000344	.0000000344
.4593	303.15	.00000296	.0000000296
.5091	303.15	.00000258	.0000000258
.5603	303.15	.00000225	.0000000225
.6117	303.15	.00000196	.0000000196
.6642	303.15	.00000171	.0000000171
.7181	303.15	.0000015	.000000015
.7722	303.15	.00000132	.0000000132
.8278	303.15	.00000116	.0000000116
.884	303.15	.00000105	.0000000105
.9402	303.15	.000000916	.00000000916
1	303.15	.000000816	.00000000816
0	308.15	.0000105	.000000105
.0429	308.15	.00000919	.0000000919
.0864	308.15	.00000803	.0000000803
.1362	308.15	.00000688	.0000000688
.1752	308.15	.00000609	.0000000609
.2213	308.15	.00000527	.0000000527
.2673	308.15	.00000459	.0000000459
.314	308.15	.00000399	.0000000399
.3615	308.15	.00000347	.0000000347
.41	308.15	.00000302	.0000000302
.4593	308.15	.00000263	.0000000263
.5091	308.15	.00000231	.0000000231
.5603	308.15	.00000202	.0000000202
.6117	308.15	.00000178	.0000000178
.6642	308.15	.00000157	.0000000157
.7181	308.15	.00000137	.0000000137
.7722	308.15	.00000122	.0000000122
.8278	308.15	.00000108	.0000000108
.884	308.15	.000000964	.00000000964
.9402	308.15	.000000862	.00000000862
1	308.15	.000000771	.00000000771
0	313.15	.00000887	.0000000887
.0429	313.15	.0000078	.000000078
.0864	313.15	.00000685	.0000000685
.1362	313.15	.00000591	.0000000591
.1752	313.15	.00000526	.0000000526
.2213	313.15	.00000459	.0000000459
.2673	313.15	.00000402	.0000000402
.314	313.15	.00000352	.0000000352
.3615	313.15	.00000309	.0000000309
.41	313.15	.00000272	.0000000272
.4593	313.15	.00000238	.0000000238
.5091	313.15	.00000209	.0000000209
.5603	313.15	.00000184	.0000000184
.6117	313.15	.00000164	.0000000164
.6642	313.15	.00000144	.0000000144
.7181	313.15	.00000127	.0000000127
.7722	313.15	.00000114	.0000000114
.8278	313.15	.00000102	.0000000102
.884	313.15	.000000906	.00000000906
.9402	313.15	.00000081	.0000000081
1	313.15	.00000073	.0000000073
0	318.15	.00000722	.0000000722
.0429	318.15	.00000638	.0000000638
.0864	318.15	.00000563	.0000000563
.1362	318.15	.0000049	.000000049
.1752	318.15	.0000044	.000000044
.2213	318.15	.00000386	.0000000386
.2673	318.15	.0000034	.000000034
.314	318.15	.00000301	.0000000301
.3615	318.15	.00000266	.0000000266
.41	318.15	.00000234	.0000000234
.4593	318.15	.00000207	.0000000207
.5091	318.15	.00000185	.0000000185
.5603	318.15	.00000163	.0000000163
.6117	318.15	.00000145	.0000000145
.6642	318.15	.0000013	.000000013
.7181	318.15	.00000115	.0000000115
.7722	318.15	.00000104	.0000000104
.8278	318.15	.000000934	.00000000934
.884	318.15	.000000843	.00000000843
.9402	318.15	.000000763	.00000000763
1	318.15	.000000688	.00000000688

System: formamide, N,N-dimethyl- + 1,2-dihydroxyethane + sulfur dioxide; phases: Liquid, Gas
Fixed: Temperature, K = 308.15
Property: Amount concentration (molarity), mol/dm3 of sulfur dioxide (Liquid); method: titration
Partial pressure, kPa of sulfur dioxide	Solvent: Mole fraction of formamide, N,N-dimethyl-	Amount concentration (molarity), mol/dm3 of sulfur dioxide	uncertainty
.0468	0	.00139	.0000139
.0633	0	.00204	.0000204
.0806	0	.00261	.0000261
.0878	0	.0033	.000033
.0988	0	.0039	.000039
.109	0	.00482	.0000482
.0226	.1032	.00119	.0000119
.0452	.1032	.00256	.0000256
.0561	.1032	.00367	.0000367
.0705	.1032	.00449	.0000449
.0803	.1032	.00508	.0000508
.096	.1032	.00629	.0000629
.108	.1032	.00715	.0000715
.0238	.2001	.00155	.0000155
.0338	.2001	.00215	.0000215
.0528	.2001	.00402	.0000402
.0671	.2001	.00549	.0000549
.0807	.2001	.00714	.0000714
.0914	.2001	.00793	.0000793
.108	.2001	.00952	.0000952
.0206	.3016	.00189	.0000189
.0343	.3016	.00391	.0000391
.0434	.3016	.00511	.0000511
.0545	.3016	.00664	.0000664
.0694	.3016	.00859	.0000859
.0788	.3016	.01	.0001
.0897	.3016	.0119	.000119
.111	.3016	.0141	.000141
.0257	.4023	.00369	.0000369
.0385	.4023	.00597	.0000597
.0512	.4023	.00827	.0000827
.0615	.4023	.0103	.000103
.0774	.4023	.0133	.000133
.0954	.4023	.0163	.000163
.106	.4023	.0189	.000189
.0255	.5006	.00496	.0000496
.0351	.5006	.0077	.000077
.0486	.5006	.0111	.000111
.0624	.5006	.0147	.000147
.0741	.5006	.0179	.000179
.0796	.5006	.0195	.000195
.0932	.5006	.023	.00023
.109	.5006	.027	.00027
.028	.6013	.00749	.0000749
.0401	.6013	.0117	.000117
.0538	.6013	.0167	.000167
.0625	.6013	.0191	.000191
.0715	.6013	.0233	.000233
.0829	.6013	.0263	.000263
.0956	.6013	.031	.00031
.108	.6013	.0335	.000335
.0208	.7026	.00596	.0000596
.0306	.7026	.0109	.000109
.0443	.7026	.0163	.000163
.057	.7026	.0223	.000223
.0753	.7026	.0295	.000295
.0943	.7026	.0382	.000382
.114	.7026	.0476	.000476
.0227	.7996	.00745	.0000745
.0341	.7996	.0136	.000136
.0545	.7996	.024	.00024
.0661	.7996	.0298	.000298
.0871	.7996	.0375	.000375
.0991	.7996	.0442	.000442
.106	.7996	.0472	.000472
.023	.9001	.0107	.000107
.0353	.9001	.0202	.000202
.0459	.9001	.0286	.000286
.0616	.9001	.0385	.000385
.0754	.9001	.0497	.000497
.0963	.9001	.065	.00065
.107	.9001	.0742	.000742
.0273	1	.0203	.000203
.0371	1	.0269	.000269
.0414	1	.0316	.000316
.0505	1	.0384	.000384
.0709	1	.0527	.000527
.0805	1	.0613	.000613
.0938	1	.0723	.000723
.115	1	.0908	.000908

System: 1,2-dihydroxyethane + sulfur dioxide; phases: Liquid, Gas
Fixed: Temperature, K = 308.15
Property: Amount concentration (molarity), mol/dm3 of sulfur dioxide (Liquid); method: titration
Partial pressure, kPa of sulfur dioxide	Amount concentration (molarity), mol/dm3 of sulfur dioxide	uncertainty
.0468	.00139	.0000139
.0633	.00204	.0000204
.0806	.00261	.0000261
.0878	.0033	.000033
.0988	.0039	.000039
.109	.00482	.0000482

System: formamide, N,N-dimethyl- + sulfur dioxide; phases: Liquid, Gas
Fixed: Temperature, K = 308.15
Property: Amount concentration (molarity), mol/dm3 of sulfur dioxide (Liquid); method: titration
Partial pressure, kPa of sulfur dioxide	Amount concentration (molarity), mol/dm3 of sulfur dioxide	uncertainty
.0273	.0203	.000203
.0371	.0269	.000269
.0414	.0316	.000316
.0505	.0384	.000384
.0709	.0527	.000527
.0805	.0613	.000613
.0938	.0723	.000723
.115	.0908	.000908
