Measured thermophysical data. Thermodynamics of the ternary systems: (water + glycine, L-alanine  and L-serine + di-ammonium hydrogen citrate) from volumetric, compressibility, and (vapour + liquid) equilibria measurements
Source: J. Chem. Thermodyn., 2011, 10.1016/j.jct.2010.08.021
Compound 1: L-alanine, C3H7NO2, purity 99%
Compound 2: glycine, C2H5NO2, purity 99.7%
Compound 3: L-serine, C3H7NO3, purity 99%
Compound 4: water, H2O
Compound 5: ammonium citrate, dibasic, C6H14N2O7, purity 99%
Compound 6: sodium chloride, ClNa, purity 99.5%

System: ammonium citrate, dibasic + water; phases: Liquid
Fixed: Pressure, kPa = 101
Property: Mass density, kg/m3 (Liquid); method: Vibrating tube method
Temperature, K	Molality, mol/kg of ammonium citrate, dibasic	Mass density, kg/m3	uncertainty
288.15	0	999.699	.003
288.15	.0059	999.706	.003
288.15	.0071	999.822	.003
288.15	.0087	999.992	.003
288.15	.0129	1000.416	.003
288.15	.0177	1000.897	.003
288.15	.0222	1001.368	.003
288.15	.0266	1001.801	.003
288.15	.0311	1002.257	.003
288.15	.0354	1002.691	.003
288.15	.0423	1003.382	.003
288.15	.0446	1003.623	.003
288.15	.0468	1003.839	.003
288.15	.0492	1004.094	.003
288.15	.0562	1004.749	.003
288.15	.0645	1005.588	.003
288.15	.0748	1006.57	.003
288.15	.0797	1007.066	.003
288.15	.09	1008.076	.003
293.15	0	999.099	.003
293.15	.0059	998.799	.003
293.15	.0071	998.916	.003
293.15	.0087	999.084	.003
293.15	.0129	999.5	.003
293.15	.0177	999.976	.003
293.15	.0222	1000.442	.003
293.15	.0266	1000.871	.003
293.15	.0311	1001.319	.003
293.15	.0354	1001.749	.003
293.15	.0423	1002.433	.003
293.15	.0446	1002.67	.003
293.15	.0468	1002.884	.003
293.15	.0492	1003.133	.003
293.15	.0562	1003.781	.003
293.15	.0645	1004.61	.003
293.15	.0748	1005.579	.003
293.15	.0797	1006.071	.003
293.15	.09	1007.068	.003
298.15	0	998.203	.003
298.15	.0059	997.633	.003
298.15	.0071	997.747	.003
298.15	.0087	997.913	.003
298.15	.0129	998.325	.003
298.15	.0177	998.796	.003
298.15	.0222	999.256	.003
298.15	.0266	999.681	.003
298.15	.0311	1000.125	.003
298.15	.0354	1000.551	.003
298.15	.0423	1001.225	.003
298.15	.0446	1001.46	.003
298.15	.0468	1001.672	.003
298.15	.0492	1001.92	.003
298.15	.0562	1002.56	.003
298.15	.0645	1003.381	.003
298.15	.0748	1004.34	.003
298.15	.0797	1004.826	.003
298.15	.09	1005.813	.003
303.15	0	997.043	.003
303.15	.0059	996.228	.003
303.15	.0071	996.341	.003
303.15	.0087	996.506	.003
303.15	.0129	996.916	.003
303.15	.0177	997.381	.003
303.15	.0222	997.837	.003
303.15	.0266	998.259	.003
303.15	.0311	998.698	.003
303.15	.0354	999.119	.003
303.15	.0423	999.789	.003
303.15	.0446	1000.022	.003
303.15	.0468	1000.232	.003
303.15	.0492	1000.479	.003
303.15	.0562	1001.112	.003
303.15	.0645	1001.925	.003
303.15	.0748	1002.877	.003
303.15	.0797	1003.358	.003
303.15	.09	1004.336	.003
308.15	0	995.645	.003
308.15	.0059	994.605	.003
308.15	.0071	994.721	.003
308.15	.0087	994.88	.003
308.15	.0129	995.288	.003
308.15	.0177	995.753	.003
308.15	.0222	996.203	.003
308.15	.0266	996.623	.003
308.15	.0311	997.058	.003
308.15	.0354	997.475	.003
308.15	.0423	998.143	.003
308.15	.0446	998.37	.003
308.15	.0468	998.58	.003
308.15	.0492	998.825	.003
308.15	.0562	999.453	.003
308.15	.0645	1000.261	.003
308.15	.0748	1001.205	.003
308.15	.0797	1001.683	.003
308.15	.09	1002.655	.003
313.15	0	994.029	.003
313.15	.0059	992.787	.003
313.15	.0071	992.9	.003
313.15	.0087	993.06	.003
313.15	.0129	993.463	.003
313.15	.0177	993.924	.003
313.15	.0222	994.373	.003
313.15	.0266	994.79	.003
313.15	.0311	995.224	.003
313.15	.0354	995.638	.003
313.15	.0423	996.299	.003
313.15	.0446	996.527	.003
313.15	.0468	996.735	.003
313.15	.0492	996.978	.003
313.15	.0562	997.604	.003
313.15	.0645	998.406	.003
313.15	.0748	999.345	.003
313.15	.0797	999.818	.003
313.15	.09	1000.783	.003

System: ammonium citrate, dibasic + water; phases: Liquid
Fixed: Pressure, kPa = 101
Property: Speed of sound, m/s (Liquid); method: Sing-around technique in a fixed-path interferometer
Temperature, K	Molality, mol/kg of ammonium citrate, dibasic	Speed of sound, m/s	uncertainty
288.15	0	1447.59	.1
288.15	.0059	1467.39	.1
288.15	.0071	1467.63	.1
288.15	.0087	1467.86	.1
288.15	.0129	1468.51	.1
288.15	.0177	1469.1	.1
288.15	.0222	1469.69	.1
288.15	.0266	1470.18	.1
288.15	.0311	1470.87	.1
288.15	.0354	1471.47	.1
288.15	.0423	1472.43	.1
288.15	.0446	1472.78	.1
288.15	.0468	1473.06	.1
288.15	.0492	1473.41	.1
288.15	.0562	1474.28	.1
288.15	.0645	1475.42	.1
288.15	.0748	1476.75	.1
288.15	.0797	1477.37	.1
288.15	.09	1478.75	.1
293.15	0	1466.25	.1
293.15	.0059	1483.5	.1
293.15	.0071	1483.69	.1
293.15	.0087	1483.92	.1
293.15	.0129	1484.49	.1
293.15	.0177	1485.09	.1
293.15	.0222	1485.71	.1
293.15	.0266	1486.18	.1
293.15	.0311	1486.85	.1
293.15	.0354	1487.42	.1
293.15	.0423	1488.34	.1
293.15	.0446	1488.67	.1
293.15	.0468	1488.94	.1
293.15	.0492	1489.26	.1
293.15	.0562	1490.13	.1
293.15	.0645	1491.22	.1
293.15	.0748	1492.49	.1
293.15	.0797	1493.1	.1
293.15	.09	1494.42	.1
298.15	0	1482.66	.1
298.15	.0059	1497.72	.1
298.15	.0071	1497.92	.1
298.15	.0087	1498.14	.1
298.15	.0129	1498.7	.1
298.15	.0177	1499.28	.1
298.15	.0222	1499.86	.1
298.15	.0266	1500.31	.1
298.15	.0311	1500.96	.1
298.15	.0354	1501.49	.1
298.15	.0423	1502.4	.1
298.15	.0446	1502.71	.1
298.15	.0468	1502.95	.1
298.15	.0492	1503.26	.1
298.15	.0562	1504.11	.1
298.15	.0645	1505.16	.1
298.15	.0748	1506.36	.1
298.15	.0797	1506.96	.1
298.15	.09	1508.22	.1
303.15	0	1497	.1
303.15	.0059	1510.11	.1
303.15	.0071	1510.26	.1
303.15	.0087	1510.49	.1
303.15	.0129	1511	.1
303.15	.0177	1511.58	.1
303.15	.0222	1512.15	.1
303.15	.0266	1512.61	.1
303.15	.0311	1513.22	.1
303.15	.0354	1513.76	.1
303.15	.0423	1514.59	.1
303.15	.0446	1514.88	.1
303.15	.0468	1515.13	.1
303.15	.0492	1515.43	.1
303.15	.0562	1516.25	.1
303.15	.0645	1517.25	.1
303.15	.0748	1518.44	.1
303.15	.0797	1519	.1
303.15	.09	1520.21	.1
308.15	0	1509.44	.1
308.15	.0059	1520.77	.1
308.15	.0071	1520.93	.1
308.15	.0087	1521.14	.1
308.15	.0129	1521.64	.1
308.15	.0177	1522.2	.1
308.15	.0222	1522.76	.1
308.15	.0266	1523.21	.1
308.15	.0311	1523.78	.1
308.15	.0354	1524.29	.1
308.15	.0423	1525.12	.1
308.15	.0446	1525.41	.1
308.15	.0468	1525.63	.1
308.15	.0492	1525.94	.1
308.15	.0562	1526.73	.1
308.15	.0645	1527.69	.1
308.15	.0748	1528.83	.1
308.15	.0797	1529.37	.1
308.15	.09	1530.55	.1
313.15	0	1520.12	.1
313.15	.0059	1529.85	.1
313.15	.0071	1530.01	.1
313.15	.0087	1530.22	.1
313.15	.0129	1530.7	.1
313.15	.0177	1531.26	.1
313.15	.0222	1531.78	.1
313.15	.0266	1532.25	.1
313.15	.0311	1532.79	.1
313.15	.0354	1533.28	.1
313.15	.0423	1534.09	.1
313.15	.0446	1534.35	.1
313.15	.0468	1534.57	.1
313.15	.0492	1534.85	.1
313.15	.0562	1535.63	.1
313.15	.0645	1536.56	.1
313.15	.0748	1537.66	.1
313.15	.0797	1538.18	.1
313.15	.09	1539.31	.1

System: L-serine + water; phases: Liquid
Fixed: Pressure, kPa = 101
Property: Mass density, kg/m3 (Liquid); method: Vibrating tube method
Temperature, K	Molality, mol/kg of L-serine	Mass density, kg/m3	uncertainty
288.15	0	999.699	.003
288.15	.0192	999.979	.003
288.15	.028	1000.377	.003
288.15	.037	1000.783	.003
288.15	.043	1001.048	.003
288.15	.0486	1001.301	.003
288.15	.057	1001.677	.003
288.15	.0657	1002.073	.003
288.15	.0804	1002.729	.003
288.15	.0942	1003.341	.003
288.15	.1156	1004.301	.003
288.15	.1329	1005.073	.003
288.15	.1535	1005.989	.003
288.15	.1642	1006.464	.003
288.15	.1789	1007.113	.003
288.15	.1944	1007.8	.003
293.15	0	999.099	.003
293.15	.0192	999.07	.003
293.15	.028	999.466	.003
293.15	.037	999.867	.003
293.15	.043	1000.13	.003
293.15	.0486	1000.379	.003
293.15	.057	1000.751	.003
293.15	.0657	1001.141	.003
293.15	.0804	1001.792	.003
293.15	.0942	1002.396	.003
293.15	.1156	1003.346	.003
293.15	.1329	1004.108	.003
293.15	.1535	1005.018	.003
293.15	.1642	1005.486	.003
293.15	.1789	1006.128	.003
293.15	.1944	1006.807	.003
298.15	0	998.203	.003
298.15	.0192	997.9	.003
298.15	.028	998.291	.003
298.15	.037	998.691	.003
298.15	.043	998.951	.003
298.15	.0486	999.198	.003
298.15	.057	999.564	.003
298.15	.0657	999.952	.003
298.15	.0804	1000.596	.003
298.15	.0942	1001.195	.003
298.15	.1156	1002.136	.003
298.15	.1329	1002.893	.003
298.15	.1535	1003.793	.003
298.15	.1642	1004.257	.003
298.15	.1789	1004.893	.003
298.15	.1944	1005.568	.003
303.15	0	997.043	.003
303.15	.0192	996.495	.003
303.15	.028	996.883	.003
303.15	.037	997.277	.003
303.15	.043	997.539	.003
303.15	.0486	997.781	.003
303.15	.057	998.143	.003
303.15	.0657	998.53	.003
303.15	.0804	999.17	.003
303.15	.0942	999.763	.003
303.15	.1156	1000.698	.003
303.15	.1329	1001.449	.003
303.15	.1535	1002.34	.003
303.15	.1642	1002.802	.003
303.15	.1789	1003.432	.003
303.15	.1944	1004.101	.003
308.15	0	995.645	.003
308.15	.0192	994.871	.003
308.15	.028	995.258	.003
308.15	.037	995.648	.003
308.15	.043	995.908	.003
308.15	.0486	996.152	.003
308.15	.057	996.512	.003
308.15	.0657	996.896	.003
308.15	.0804	997.529	.003
308.15	.0942	998.119	.003
308.15	.1156	999.047	.003
308.15	.1329	999.793	.003
308.15	.1535	1000.68	.003
308.15	.1642	1001.139	.003
308.15	.1789	1001.765	.003
308.15	.1944	1002.43	.003
313.15	0	994.029	.003
313.15	.0192	993.05	.003
313.15	.028	993.434	.003
313.15	.037	993.821	.003
313.15	.043	994.079	.003
313.15	.0486	994.322	.003
313.15	.057	994.68	.003
313.15	.0657	995.061	.003
313.15	.0804	995.691	.003
313.15	.0942	996.279	.003
313.15	.1156	997.203	.003
313.15	.1329	997.943	.003
313.15	.1535	998.827	.003
313.15	.1642	999.283	.003
313.15	.1789	999.905	.003
313.15	.1944	1000.569	.003

System: L-serine + water; phases: Liquid
Fixed: Pressure, kPa = 101
Property: Speed of sound, m/s (Liquid); method: Sing-around technique in a fixed-path interferometer
Temperature, K	Molality, mol/kg of L-serine	Speed of sound, m/s	uncertainty
288.15	0	1447.59	.1
288.15	.0192	1467.93	.1
288.15	.028	1468.51	.1
288.15	.037	1468.91	.1
288.15	.043	1469.42	.1
288.15	.0486	1469.82	.1
288.15	.057	1470.31	.1
288.15	.0657	1470.88	.1
288.15	.0804	1471.84	.1
288.15	.0942	1472.73	.1
288.15	.1156	1474.14	.1
288.15	.1329	1475.25	.1
288.15	.1535	1476.64	.1
288.15	.1642	1477.32	.1
288.15	.1789	1478.27	.1
288.15	.1944	1479.23	.1
293.15	0	1466.25	.1
293.15	.0192	1483.96	.1
293.15	.028	1484.55	.1
293.15	.037	1484.98	.1
293.15	.043	1485.44	.1
293.15	.0486	1485.85	.1
293.15	.057	1486.33	.1
293.15	.0657	1486.84	.1
293.15	.0804	1487.8	.1
293.15	.0942	1488.65	.1
293.15	.1156	1490.01	.1
293.15	.1329	1491.1	.1
293.15	.1535	1492.43	.1
293.15	.1642	1493.09	.1
293.15	.1789	1494	.1
293.15	.1944	1494.95	.1
298.15	0	1482.66	.1
298.15	.0192	1498.17	.1
298.15	.028	1498.76	.1
298.15	.037	1499.17	.1
298.15	.043	1499.62	.1
298.15	.0486	1500.01	.1
298.15	.057	1500.46	.1
298.15	.0657	1500.95	.1
298.15	.0804	1501.91	.1
298.15	.0942	1502.71	.1
298.15	.1156	1504.02	.1
298.15	.1329	1505.07	.1
298.15	.1535	1506.37	.1
298.15	.1642	1507	.1
298.15	.1789	1507.88	.1
298.15	.1944	1508.79	.1
303.15	0	1497	.1
303.15	.0192	1510.55	.1
303.15	.028	1511.08	.1
303.15	.037	1511.5	.1
303.15	.043	1511.91	.1
303.15	.0486	1512.33	.1
303.15	.057	1512.77	.1
303.15	.0657	1513.21	.1
303.15	.0804	1514.13	.1
303.15	.0942	1514.92	.1
303.15	.1156	1516.19	.1
303.15	.1329	1517.22	.1
303.15	.1535	1518.47	.1
303.15	.1642	1519.08	.1
303.15	.1789	1519.95	.1
303.15	.1944	1520.84	.1
308.15	0	1509.44	.1
308.15	.0192	1521.21	.1
308.15	.028	1521.73	.1
308.15	.037	1522.14	.1
308.15	.043	1522.54	.1
308.15	.0486	1522.92	.1
308.15	.057	1523.36	.1
308.15	.0657	1523.81	.1
308.15	.0804	1524.71	.1
308.15	.0942	1525.46	.1
308.15	.1156	1526.71	.1
308.15	.1329	1527.72	.1
308.15	.1535	1528.92	.1
308.15	.1642	1529.52	.1
308.15	.1789	1530.35	.1
308.15	.1944	1531.23	.1
313.15	0	1520.12	.1
313.15	.0192	1530.29	.1
313.15	.028	1530.79	.1
313.15	.037	1531.21	.1
313.15	.043	1531.59	.1
313.15	.0486	1531.97	.1
313.15	.057	1532.4	.1
313.15	.0657	1532.81	.1
313.15	.0804	1533.7	.1
313.15	.0942	1534.43	.1
313.15	.1156	1535.65	.1
313.15	.1329	1536.63	.1
313.15	.1535	1537.8	.1
313.15	.1642	1538.37	.1
313.15	.1789	1539.17	.1
313.15	.1944	1540.03	.1

System: L-serine + ammonium citrate, dibasic + water; phases: Liquid
Fixed: Pressure, kPa = 101
Property: Mass density, kg/m3 (Liquid); method: Vibrating tube method
Solvent: Molality, mol/kg of ammonium citrate, dibasic	Temperature, K	Molality, mol/kg of L-serine	Mass density, kg/m3	uncertainty
.5	288.15	0	1044.766	.003
.5	288.15	.0199	1045.617	.003
.5	288.15	.024	1045.788	.003
.5	288.15	.0296	1046.017	.003
.5	288.15	.0343	1046.217	.003
.5	288.15	.0402	1046.466	.003
.5	288.15	.0475	1046.763	.003
.5	288.15	.0549	1047.076	.003
.5	288.15	.0652	1047.508	.003
.5	288.15	.0766	1047.977	.003
.5	288.15	.0799	1048.118	.003
.5	288.15	.0852	1048.345	.003
.5	288.15	.0964	1048.808	.003
.5	288.15	.1119	1049.434	.003
.5	288.15	.1202	1049.747	.003
.5	288.15	.1357	1050.42	.003
.5	288.15	.1505	1051.008	.003
.5	288.15	.1612	1051.442	.003
.5	288.15	.1931	1052.753	.003
.5	293.15	0	1043.377	.003
.5	293.15	.0199	1044.218	.003
.5	293.15	.024	1044.39	.003
.5	293.15	.0296	1044.617	.003
.5	293.15	.0343	1044.816	.003
.5	293.15	.0402	1045.062	.003
.5	293.15	.0475	1045.356	.003
.5	293.15	.0549	1045.668	.003
.5	293.15	.0652	1046.094	.003
.5	293.15	.0766	1046.561	.003
.5	293.15	.0799	1046.701	.003
.5	293.15	.0852	1046.924	.003
.5	293.15	.0964	1047.387	.003
.5	293.15	.1119	1048.008	.003
.5	293.15	.1202	1048.319	.003
.5	293.15	.1357	1048.984	.003
.5	293.15	.1505	1049.57	.003
.5	293.15	.1612	1050	.003
.5	293.15	.1931	1051.299	.003
.5	298.15	0	1041.795	.003
.5	298.15	.0199	1042.632	.003
.5	298.15	.024	1042.801	.003
.5	298.15	.0296	1043.026	.003
.5	298.15	.0343	1043.225	.003
.5	298.15	.0402	1043.47	.003
.5	298.15	.0475	1043.761	.003
.5	298.15	.0549	1044.071	.003
.5	298.15	.0652	1044.496	.003
.5	298.15	.0766	1044.958	.003
.5	298.15	.0799	1045.099	.003
.5	298.15	.0852	1045.32	.003
.5	298.15	.0964	1045.779	.003
.5	298.15	.1119	1046.395	.003
.5	298.15	.1202	1046.705	.003
.5	298.15	.1357	1047.361	.003
.5	298.15	.1505	1047.948	.003
.5	298.15	.1612	1048.373	.003
.5	298.15	.1931	1049.667	.003
.5	303.15	0	1040.041	.003
.5	303.15	.0199	1040.872	.003
.5	303.15	.024	1041.042	.003
.5	303.15	.0296	1041.266	.003
.5	303.15	.0343	1041.462	.003
.5	303.15	.0402	1041.707	.003
.5	303.15	.0475	1041.996	.003
.5	303.15	.0549	1042.303	.003
.5	303.15	.0652	1042.726	.003
.5	303.15	.0766	1043.186	.003
.5	303.15	.0799	1043.326	.003
.5	303.15	.0852	1043.544	.003
.5	303.15	.0964	1044.005	.003
.5	303.15	.1119	1044.615	.003
.5	303.15	.1202	1044.922	.003
.5	303.15	.1357	1045.573	.003
.5	303.15	.1505	1046.159	.003
.5	303.15	.1612	1046.583	.003
.5	303.15	.1931	1047.868	.003
.5	308.15	0	1038.127	.003
.5	308.15	.0199	1038.954	.003
.5	308.15	.024	1039.121	.003
.5	308.15	.0296	1039.344	.003
.5	308.15	.0343	1039.538	.003
.5	308.15	.0402	1039.782	.003
.5	308.15	.0475	1040.071	.003
.5	308.15	.0549	1040.375	.003
.5	308.15	.0652	1040.797	.003
.5	308.15	.0766	1041.256	.003
.5	308.15	.0799	1041.393	.003
.5	308.15	.0852	1041.612	.003
.5	308.15	.0964	1042.066	.003
.5	308.15	.1119	1042.677	.003
.5	308.15	.1202	1042.982	.003
.5	308.15	.1357	1043.615	.003
.5	308.15	.1505	1044.215	.003
.5	308.15	.1612	1044.637	.003
.5	308.15	.1931	1045.915	.003
.5	313.15	0	1036.057	.003
.5	313.15	.0199	1036.881	.003
.5	313.15	.024	1037.05	.003
.5	313.15	.0296	1037.272	.003
.5	313.15	.0343	1037.466	.003
.5	313.15	.0402	1037.709	.003
.5	313.15	.0475	1037.995	.003
.5	313.15	.0549	1038.298	.003
.5	313.15	.0652	1038.719	.003
.5	313.15	.0766	1039.175	.003
.5	313.15	.0799	1039.312	.003
.5	313.15	.0852	1039.53	.003
.5	313.15	.0964	1039.983	.003
.5	313.15	.1119	1040.592	.003
.5	313.15	.1202	1040.896	.003
.5	313.15	.1357	1041.503	.003
.5	313.15	.1505	1042.124	.003
.5	313.15	.1612	1042.544	.003
.5	313.15	.1931	1043.817	.003
.988	288.15	0	1082.62	.003
.988	288.15	.0469	1084.439	.003
.988	288.15	.0575	1084.838	.003
.988	288.15	.0673	1085.213	.003
.988	288.15	.0795	1085.689	.003
.988	288.15	.0958	1086.308	.003
.988	288.15	.1144	1087.023	.003
.988	288.15	.1348	1087.809	.003
.988	288.15	.1547	1088.574	.003
.988	288.15	.1696	1089.108	.003
.988	288.15	.1773	1089.395	.003
.988	288.15	.1934	1090.034	.003
.988	293.15	0	1080.925	.003
.988	293.15	.0469	1082.735	.003
.988	293.15	.0575	1083.128	.003
.988	293.15	.0673	1083.507	.003
.988	293.15	.0795	1083.976	.003
.988	293.15	.0958	1084.592	.003
.988	293.15	.1144	1085.304	.003
.988	293.15	.1348	1086.085	.003
.988	293.15	.1547	1086.844	.003
.988	293.15	.1696	1087.375	.003
.988	293.15	.1773	1087.659	.003
.988	293.15	.1934	1088.295	.003
.988	298.15	0	1079.087	.003
.988	298.15	.0469	1080.885	.003
.988	298.15	.0575	1081.278	.003
.988	298.15	.0673	1081.652	.003
.988	298.15	.0795	1082.12	.003
.988	298.15	.0958	1082.732	.003
.988	298.15	.1144	1083.439	.003
.988	298.15	.1348	1084.215	.003
.988	298.15	.1547	1084.972	.003
.988	298.15	.1696	1085.5	.003
.988	298.15	.1773	1085.782	.003
.988	298.15	.1934	1086.415	.003
.988	303.15	0	1077.111	.003
.988	303.15	.0469	1078.9	.003
.988	303.15	.0575	1079.29	.003
.988	303.15	.0673	1079.664	.003
.988	303.15	.0795	1080.13	.003
.988	303.15	.0958	1080.738	.003
.988	303.15	.1144	1081.443	.003
.988	303.15	.1348	1082.215	.003
.988	303.15	.1547	1082.97	.003
.988	303.15	.1696	1083.496	.003
.988	303.15	.1773	1083.777	.003
.988	303.15	.1934	1084.407	.003
.988	308.15	0	1075.006	.003
.988	308.15	.0469	1076.789	.003
.988	308.15	.0575	1077.177	.003
.988	308.15	.0673	1077.549	.003
.988	308.15	.0795	1078.015	.003
.988	308.15	.0958	1078.621	.003
.988	308.15	.1144	1079.321	.003
.988	308.15	.1348	1080.093	.003
.988	308.15	.1547	1080.846	.003
.988	308.15	.1696	1081.367	.003
.988	308.15	.1773	1081.648	.003
.988	308.15	.1934	1082.278	.003
.988	313.15	0	1072.778	.003
.988	313.15	.0469	1074.555	.003
.988	313.15	.0575	1074.945	.003
.988	313.15	.0673	1075.313	.003
.988	313.15	.0795	1075.777	.003
.988	313.15	.0958	1076.382	.003
.988	313.15	.1144	1077.081	.003
.988	313.15	.1348	1077.852	.003
.988	313.15	.1547	1078.598	.003
.988	313.15	.1696	1079.12	.003
.988	313.15	.1773	1079.399	.003
.988	313.15	.1934	1080.028	.003

System: L-serine + ammonium citrate, dibasic + water; phases: Liquid
Fixed: Pressure, kPa = 101
Property: Speed of sound, m/s (Liquid); method: Sing-around technique in a fixed-path interferometer
Solvent: Molality, mol/kg of ammonium citrate, dibasic	Temperature, K	Molality, mol/kg of L-serine	Speed of sound, m/s	uncertainty
.5	288.15	0	1529.21	.1
.5	288.15	.0199	1530.51	.1
.5	288.15	.024	1530.83	.1
.5	288.15	.0296	1531.16	.1
.5	288.15	.0343	1531.47	.1
.5	288.15	.0402	1531.76	.1
.5	288.15	.0475	1532.14	.1
.5	288.15	.0549	1532.74	.1
.5	288.15	.0652	1533.51	.1
.5	288.15	.0766	1534.07	.1
.5	288.15	.0799	1534.42	.1
.5	288.15	.0852	1534.6	.1
.5	288.15	.0964	1535.47	.1
.5	288.15	.1119	1536.46	.1
.5	288.15	.1202	1536.92	.1
.5	288.15	.1357	1537.95	.1
.5	288.15	.1505	1538.89	.1
.5	288.15	.1612	1539.55	.1
.5	288.15	.1931	1541.6	.1
.5	293.15	0	1542.81	.1
.5	293.15	.0199	1544.1	.1
.5	293.15	.024	1544.4	.1
.5	293.15	.0296	1544.73	.1
.5	293.15	.0343	1545.02	.1
.5	293.15	.0402	1545.27	.1
.5	293.15	.0475	1545.67	.1
.5	293.15	.0549	1546.29	.1
.5	293.15	.0652	1546.97	.1
.5	293.15	.0766	1547.5	.1
.5	293.15	.0799	1547.88	.1
.5	293.15	.0852	1548.05	.1
.5	293.15	.0964	1548.91	.1
.5	293.15	.1119	1549.86	.1
.5	293.15	.1202	1550.32	.1
.5	293.15	.1357	1551.31	.1
.5	293.15	.1505	1552.22	.1
.5	293.15	.1612	1552.88	.1
.5	293.15	.1931	1554.85	.1
.5	298.15	0	1554.78	.1
.5	298.15	.0199	1556.01	.1
.5	298.15	.024	1556.29	.1
.5	298.15	.0296	1556.62	.1
.5	298.15	.0343	1556.91	.1
.5	298.15	.0402	1557.15	.1
.5	298.15	.0475	1557.53	.1
.5	298.15	.0549	1558.15	.1
.5	298.15	.0652	1558.8	.1
.5	298.15	.0766	1559.31	.1
.5	298.15	.0799	1559.69	.1
.5	298.15	.0852	1559.84	.1
.5	298.15	.0964	1560.69	.1
.5	298.15	.1119	1561.61	.1
.5	298.15	.1202	1562.05	.1
.5	298.15	.1357	1563.03	.1
.5	298.15	.1505	1563.9	.1
.5	298.15	.1612	1564.55	.1
.5	298.15	.1931	1566.44	.1
.5	303.15	0	1565.1	.1
.5	303.15	.0199	1566.3	.1
.5	303.15	.024	1566.56	.1
.5	303.15	.0296	1566.88	.1
.5	303.15	.0343	1567.15	.1
.5	303.15	.0402	1567.36	.1
.5	303.15	.0475	1567.76	.1
.5	303.15	.0549	1568.37	.1
.5	303.15	.0652	1568.99	.1
.5	303.15	.0766	1569.46	.1
.5	303.15	.0799	1569.85	.1
.5	303.15	.0852	1570	.1
.5	303.15	.0964	1570.84	.1
.5	303.15	.1119	1571.72	.1
.5	303.15	.1202	1572.17	.1
.5	303.15	.1357	1573.09	.1
.5	303.15	.1505	1573.93	.1
.5	303.15	.1612	1574.58	.1
.5	303.15	.1931	1576.41	.1
.5	308.15	0	1573.88	.1
.5	308.15	.0199	1575.04	.1
.5	308.15	.024	1575.29	.1
.5	308.15	.0296	1575.61	.1
.5	308.15	.0343	1575.86	.1
.5	308.15	.0402	1576.05	.1
.5	308.15	.0475	1576.44	.1
.5	308.15	.0549	1577.06	.1
.5	308.15	.0652	1577.64	.1
.5	308.15	.0766	1578.1	.1
.5	308.15	.0799	1578.5	.1
.5	308.15	.0852	1578.62	.1
.5	308.15	.0964	1579.44	.1
.5	308.15	.1119	1580.29	.1
.5	308.15	.1202	1580.73	.1
.5	308.15	.1357	1581.64	.1
.5	308.15	.1505	1582.47	.1
.5	308.15	.1612	1583.1	.1
.5	308.15	.1931	1584.87	.1
.5	313.15	0	1581.23	.1
.5	313.15	.0199	1582.36	.1
.5	313.15	.024	1582.6	.1
.5	313.15	.0296	1582.9	.1
.5	313.15	.0343	1583.15	.1
.5	313.15	.0402	1583.33	.1
.5	313.15	.0475	1583.7	.1
.5	313.15	.0549	1584.32	.1
.5	313.15	.0652	1584.88	.1
.5	313.15	.0766	1585.33	.1
.5	313.15	.0799	1585.72	.1
.5	313.15	.0852	1585.84	.1
.5	313.15	.0964	1586.65	.1
.5	313.15	.1119	1587.5	.1
.5	313.15	.1202	1587.92	.1
.5	313.15	.1357	1588.8	.1
.5	313.15	.1505	1589.61	.1
.5	313.15	.1612	1590.23	.1
.5	313.15	.1931	1591.96	.1
.988	288.15	0	1585.07	.1
.988	288.15	.0469	1588.28	.1
.988	288.15	.0575	1588.74	.1
.988	288.15	.0673	1589.42	.1
.988	288.15	.0795	1590.22	.1
.988	288.15	.0958	1591.25	.1
.988	288.15	.1144	1592.4	.1
.988	288.15	.1348	1593.72	.1
.988	288.15	.1547	1595.02	.1
.988	288.15	.1696	1595.89	.1
.988	288.15	.1773	1596.39	.1
.988	288.15	.1934	1597.48	.1
.988	293.15	0	1596.52	.1
.988	293.15	.0469	1599.64	.1
.988	293.15	.0575	1600.19	.1
.988	293.15	.0673	1600.82	.1
.988	293.15	.0795	1601.59	.1
.988	293.15	.0958	1602.59	.1
.988	293.15	.1144	1603.71	.1
.988	293.15	.1348	1604.99	.1
.988	293.15	.1547	1606.22	.1
.988	293.15	.1696	1607.07	.1
.988	293.15	.1773	1607.54	.1
.988	293.15	.1934	1608.6	.1
.988	298.15	0	1606.49	.1
.988	298.15	.0469	1609.52	.1
.988	298.15	.0575	1610.06	.1
.988	298.15	.0673	1610.67	.1
.988	298.15	.0795	1611.41	.1
.988	298.15	.0958	1612.39	.1
.988	298.15	.1144	1613.47	.1
.988	298.15	.1348	1614.71	.1
.988	298.15	.1547	1615.91	.1
.988	298.15	.1696	1616.75	.1
.988	298.15	.1773	1617.2	.1
.988	298.15	.1934	1618.23	.1
.988	303.15	0	1615.01	.1
.988	303.15	.0469	1617.97	.1
.988	303.15	.0575	1618.49	.1
.988	303.15	.0673	1619.07	.1
.988	303.15	.0795	1619.78	.1
.988	303.15	.0958	1620.75	.1
.988	303.15	.1144	1621.81	.1
.988	303.15	.1348	1623.01	.1
.988	303.15	.1547	1624.17	.1
.988	303.15	.1696	1624.99	.1
.988	303.15	.1773	1625.43	.1
.988	303.15	.1934	1626.44	.1
.988	308.15	0	1622.14	.1
.988	308.15	.0469	1625.04	.1
.988	308.15	.0575	1625.55	.1
.988	308.15	.0673	1626.13	.1
.988	308.15	.0795	1626.8	.1
.988	308.15	.0958	1627.73	.1
.988	308.15	.1144	1628.78	.1
.988	308.15	.1348	1629.96	.1
.988	308.15	.1547	1631.09	.1
.988	308.15	.1696	1631.89	.1
.988	308.15	.1773	1632.31	.1
.988	308.15	.1934	1633.3	.1
.988	313.15	0	1628	.1
.988	313.15	.0469	1630.87	.1
.988	313.15	.0575	1631.35	.1
.988	313.15	.0673	1631.89	.1
.988	313.15	.0795	1632.57	.1
.988	313.15	.0958	1633.47	.1
.988	313.15	.1144	1634.5	.1
.988	313.15	.1348	1635.63	.1
.988	313.15	.1547	1636.76	.1
.988	313.15	.1696	1637.54	.1
.988	313.15	.1773	1637.95	.1
.988	313.15	.1934	1638.92	.1

System: glycine + water; phases: Liquid
Fixed: Pressure, kPa = 101
Property: Mass density, kg/m3 (Liquid); method: Vibrating tube method
Temperature, K	Molality, mol/kg of glycine	Mass density, kg/m3	uncertainty
288.15	0	999.699	.003
288.15	.0303	1000.098	.003
288.15	.0407	1000.435	.003
288.15	.0487	1000.692	.003
288.15	.0549	1000.89	.003
288.15	.0649	1001.217	.003
288.15	.066	1001.25	.003
288.15	.0799	1001.702	.003
288.15	.0959	1002.222	.003
288.15	.1125	1002.76	.003
288.15	.1349	1003.48	.003
288.15	.1608	1004.304	.003
288.15	.1908	1005.257	.003
288.15	.2165	1006.067	.003
288.15	.2303	1006.509	.003
288.15	.2506	1007.15	.003
288.15	.2735	1007.872	.003
293.15	0	999.099	.003
293.15	.0303	999.187	.003
293.15	.0407	999.52	.003
293.15	.0487	999.773	.003
293.15	.0549	999.972	.003
293.15	.0649	1000.291	.003
293.15	.066	1000.322	.003
293.15	.0799	1000.77	.003
293.15	.0959	1001.282	.003
293.15	.1125	1001.813	.003
293.15	.1349	1002.523	.003
293.15	.1608	1003.338	.003
293.15	.1908	1004.278	.003
293.15	.2165	1005.077	.003
293.15	.2303	1005.516	.003
293.15	.2506	1006.147	.003
293.15	.2735	1006.861	.003
298.15	0	998.203	.003
298.15	.0303	998.015	.003
298.15	.0407	998.344	.003
298.15	.0487	998.593	.003
298.15	.0549	998.79	.003
298.15	.0649	999.104	.003
298.15	.066	999.138	.003
298.15	.0799	999.58	.003
298.15	.0959	1000.086	.003
298.15	.1125	1000.612	.003
298.15	.1349	1001.314	.003
298.15	.1608	1002.12	.003
298.15	.1908	1003.05	.003
298.15	.2165	1003.841	.003
298.15	.2303	1004.274	.003
298.15	.2506	1004.899	.003
298.15	.2735	1005.607	.003
303.15	0	997.043	.003
303.15	.0303	996.608	.003
303.15	.0407	996.933	.003
303.15	.0487	997.18	.003
303.15	.0549	997.375	.003
303.15	.0649	997.687	.003
303.15	.066	997.721	.003
303.15	.0799	998.158	.003
303.15	.0959	998.661	.003
303.15	.1125	999.18	.003
303.15	.1349	999.878	.003
303.15	.1608	1000.675	.003
303.15	.1908	1001.597	.003
303.15	.2165	1002.382	.003
303.15	.2303	1002.81	.003
303.15	.2506	1003.43	.003
303.15	.2735	1004.13	.003
308.15	0	995.645	.003
308.15	.0303	994.983	.003
308.15	.0407	995.307	.003
308.15	.0487	995.552	.003
308.15	.0549	995.743	.003
308.15	.0649	996.056	.003
308.15	.066	996.089	.003
308.15	.0799	996.522	.003
308.15	.0959	997.02	.003
308.15	.1125	997.536	.003
308.15	.1349	998.23	.003
308.15	.1608	999.021	.003
308.15	.1908	999.936	.003
308.15	.2165	1000.716	.003
308.15	.2303	1001.141	.003
308.15	.2506	1001.757	.003
308.15	.2735	1002.452	.003
313.15	0	994.029	.003
313.15	.0303	993.159	.003
313.15	.0407	993.481	.003
313.15	.0487	993.725	.003
313.15	.0549	993.917	.003
313.15	.0649	994.224	.003
313.15	.066	994.257	.003
313.15	.0799	994.689	.003
313.15	.0959	995.187	.003
313.15	.1125	995.698	.003
313.15	.1349	996.388	.003
313.15	.1608	997.173	.003
313.15	.1908	998.083	.003
313.15	.2165	998.859	.003
313.15	.2303	999.28	.003
313.15	.2506	999.893	.003
313.15	.2735	1000.584	.003

System: glycine + water; phases: Liquid
Fixed: Pressure, kPa = 101
Property: Speed of sound, m/s (Liquid); method: Sing-around technique in a fixed-path interferometer
Temperature, K	Molality, mol/kg of glycine	Speed of sound, m/s	uncertainty
288.15	0	1447.59	.1
288.15	.0303	1468.35	.1
288.15	.0407	1468.88	.1
288.15	.0487	1469.37	.1
288.15	.0549	1469.74	.1
288.15	.0649	1470.26	.1
288.15	.066	1470.29	.1
288.15	.0799	1471.07	.1
288.15	.0959	1471.97	.1
288.15	.1125	1472.91	.1
288.15	.1349	1474.09	.1
288.15	.1608	1475.51	.1
288.15	.1908	1477.24	.1
288.15	.2165	1478.63	.1
288.15	.2303	1479.36	.1
288.15	.2506	1480.51	.1
288.15	.2735	1481.8	.1
293.15	0	1466.25	.1
293.15	.0303	1484.38	.1
293.15	.0407	1484.91	.1
293.15	.0487	1485.37	.1
293.15	.0549	1485.7	.1
293.15	.0649	1486.24	.1
293.15	.066	1486.28	.1
293.15	.0799	1487.03	.1
293.15	.0959	1487.92	.1
293.15	.1125	1488.8	.1
293.15	.1349	1489.92	.1
293.15	.1608	1491.35	.1
293.15	.1908	1493.01	.1
293.15	.2165	1494.36	.1
293.15	.2303	1495.08	.1
293.15	.2506	1496.18	.1
293.15	.2735	1497.42	.1
298.15	0	1482.66	.1
298.15	.0303	1498.58	.1
298.15	.0407	1499.09	.1
298.15	.0487	1499.55	.1
298.15	.0549	1499.88	.1
298.15	.0649	1500.38	.1
298.15	.066	1500.42	.1
298.15	.0799	1501.16	.1
298.15	.0959	1502.01	.1
298.15	.1125	1502.86	.1
298.15	.1349	1503.95	.1
298.15	.1608	1505.34	.1
298.15	.1908	1506.91	.1
298.15	.2165	1508.21	.1
298.15	.2303	1508.91	.1
298.15	.2506	1509.97	.1
298.15	.2735	1511.18	.1
303.15	0	1497	.1
303.15	.0303	1510.89	.1
303.15	.0407	1511.41	.1
303.15	.0487	1511.84	.1
303.15	.0549	1512.16	.1
303.15	.0649	1512.65	.1
303.15	.066	1512.69	.1
303.15	.0799	1513.4	.1
303.15	.0959	1514.27	.1
303.15	.1125	1515.08	.1
303.15	.1349	1516.16	.1
303.15	.1608	1517.49	.1
303.15	.1908	1519.03	.1
303.15	.2165	1520.29	.1
303.15	.2303	1521	.1
303.15	.2506	1522.02	.1
303.15	.2735	1523.19	.1
308.15	0	1509.44	.1
308.15	.0303	1521.55	.1
308.15	.0407	1522.02	.1
308.15	.0487	1522.47	.1
308.15	.0549	1522.78	.1
308.15	.0649	1523.26	.1
308.15	.066	1523.29	.1
308.15	.0799	1523.99	.1
308.15	.0959	1524.83	.1
308.15	.1125	1525.62	.1
308.15	.1349	1526.68	.1
308.15	.1608	1527.97	.1
308.15	.1908	1529.47	.1
308.15	.2165	1530.71	.1
308.15	.2303	1531.38	.1
308.15	.2506	1532.38	.1
308.15	.2735	1533.54	.1
313.15	0	1520.12	.1
313.15	.0303	1530.62	.1
313.15	.0407	1531.08	.1
313.15	.0487	1531.51	.1
313.15	.0549	1531.83	.1
313.15	.0649	1532.28	.1
313.15	.066	1532.33	.1
313.15	.0799	1533	.1
313.15	.0959	1533.83	.1
313.15	.1125	1534.6	.1
313.15	.1349	1535.64	.1
313.15	.1608	1536.9	.1
313.15	.1908	1538.34	.1
313.15	.2165	1539.55	.1
313.15	.2303	1540.2	.1
313.15	.2506	1541.19	.1
313.15	.2735	1542.31	.1

System: glycine + ammonium citrate, dibasic + water; phases: Liquid
Fixed: Pressure, kPa = 101
Property: Mass density, kg/m3 (Liquid); method: Vibrating tube method
Solvent: Molality, mol/kg of ammonium citrate, dibasic	Temperature, K	Molality, mol/kg of glycine	Mass density, kg/m3	uncertainty
.5	288.15	0	1044.77	.003
.5	288.15	.0269	1045.569	.003
.5	288.15	.0436	1046.061	.003
.5	288.15	.0541	1046.371	.003
.5	288.15	.0715	1046.88	.003
.5	288.15	.0814	1047.167	.003
.5	288.15	.0946	1047.552	.003
.5	288.15	.115	1048.147	.003
.5	288.15	.135	1048.726	.003
.5	288.15	.1616	1049.497	.003
.5	288.15	.1837	1050.132	.003
.5	288.15	.2098	1050.877	.003
.5	288.15	.2371	1051.66	.003
.5	288.15	.2504	1052.04	.003
.5	288.15	.2714	1052.642	.003
.5	293.15	0	1043.38	.003
.5	293.15	.0269	1044.17	.003
.5	293.15	.0436	1044.657	.003
.5	293.15	.0541	1044.964	.003
.5	293.15	.0715	1045.469	.003
.5	293.15	.0814	1045.754	.003
.5	293.15	.0946	1046.134	.003
.5	293.15	.115	1046.724	.003
.5	293.15	.135	1047.298	.003
.5	293.15	.1616	1048.063	.003
.5	293.15	.1837	1048.692	.003
.5	293.15	.2098	1049.429	.003
.5	293.15	.2371	1050.205	.003
.5	293.15	.2504	1050.582	.003
.5	293.15	.2714	1051.178	.003
.5	298.15	0	1041.798	.003
.5	298.15	.0269	1042.581	.003
.5	298.15	.0436	1043.064	.003
.5	298.15	.0541	1043.369	.003
.5	298.15	.0715	1043.87	.003
.5	298.15	.0814	1044.152	.003
.5	298.15	.0946	1044.532	.003
.5	298.15	.115	1045.117	.003
.5	298.15	.135	1045.685	.003
.5	298.15	.1616	1046.443	.003
.5	298.15	.1837	1047.068	.003
.5	298.15	.2098	1047.8	.003
.5	298.15	.2371	1048.57	.003
.5	298.15	.2504	1048.946	.003
.5	298.15	.2714	1049.537	.003
.5	303.15	0	1040.044	.003
.5	303.15	.0269	1040.823	.003
.5	303.15	.0436	1041.301	.003
.5	303.15	.0541	1041.602	.003
.5	303.15	.0715	1042.102	.003
.5	303.15	.0814	1042.384	.003
.5	303.15	.0946	1042.759	.003
.5	303.15	.115	1043.34	.003
.5	303.15	.135	1043.907	.003
.5	303.15	.1616	1044.661	.003
.5	303.15	.1837	1045.279	.003
.5	303.15	.2098	1046.007	.003
.5	303.15	.2371	1046.773	.003
.5	303.15	.2504	1047.146	.003
.5	303.15	.2714	1047.733	.003
.5	308.15	0	1038.125	.003
.5	308.15	.0269	1038.9	.003
.5	308.15	.0436	1039.379	.003
.5	308.15	.0541	1039.679	.003
.5	308.15	.0715	1040.176	.003
.5	308.15	.0814	1040.452	.003
.5	308.15	.0946	1040.829	.003
.5	308.15	.115	1041.406	.003
.5	308.15	.135	1041.969	.003
.5	308.15	.1616	1042.718	.003
.5	308.15	.1837	1043.336	.003
.5	308.15	.2098	1044.059	.003
.5	308.15	.2371	1044.82	.003
.5	308.15	.2504	1045.189	.003
.5	308.15	.2714	1045.777	.003
.5	313.15	0	1036.057	.003
.5	313.15	.0269	1036.827	.003
.5	313.15	.0436	1037.305	.003
.5	313.15	.0541	1037.603	.003
.5	313.15	.0715	1038.096	.003
.5	313.15	.0814	1038.375	.003
.5	313.15	.0946	1038.748	.003
.5	313.15	.115	1039.323	.003
.5	313.15	.135	1039.883	.003
.5	313.15	.1616	1040.628	.003
.5	313.15	.1837	1041.245	.003
.5	313.15	.2098	1041.966	.003
.5	313.15	.2371	1042.724	.003
.5	313.15	.2504	1043.091	.003
.5	313.15	.2714	1043.675	.003
.997	288.15	0	1082.582	.003
.997	288.15	.0281	1083.341	.003
.997	288.15	.0404	1083.673	.003
.997	288.15	.0544	1084.051	.003
.997	288.15	.0603	1084.222	.003
.997	288.15	.0678	1084.423	.003
.997	288.15	.0801	1084.758	.003
.997	288.15	.0928	1085.104	.003
.997	288.15	.1125	1085.62	.003
.997	288.15	.1603	1086.904	.003
.997	288.15	.1879	1087.641	.003
.997	288.15	.2156	1088.381	.003
.997	288.15	.2363	1088.93	.003
.997	288.15	.2511	1089.327	.003
.997	293.15	0	1080.884	.003
.997	293.15	.0281	1081.64	.003
.997	293.15	.0404	1081.97	.003
.997	293.15	.0544	1082.345	.003
.997	293.15	.0603	1082.514	.003
.997	293.15	.0678	1082.714	.003
.997	293.15	.0801	1083.046	.003
.997	293.15	.0928	1083.391	.003
.997	293.15	.1125	1083.902	.003
.997	293.15	.1603	1085.179	.003
.997	293.15	.1879	1085.909	.003
.997	293.15	.2156	1086.644	.003
.997	293.15	.2363	1087.19	.003
.997	293.15	.2511	1087.583	.003
.997	298.15	0	1079.043	.003
.997	298.15	.0281	1079.796	.003
.997	298.15	.0404	1080.122	.003
.997	298.15	.0544	1080.496	.003
.997	298.15	.0603	1080.662	.003
.997	298.15	.0678	1080.861	.003
.997	298.15	.0801	1081.192	.003
.997	298.15	.0928	1081.534	.003
.997	298.15	.1125	1082.042	.003
.997	298.15	.1603	1083.311	.003
.997	298.15	.1879	1084.036	.003
.997	298.15	.2156	1084.766	.003
.997	298.15	.2363	1085.31	.003
.997	298.15	.2511	1085.7	.003
.997	303.15	0	1077.067	.003
.997	303.15	.0281	1077.814	.003
.997	303.15	.0404	1078.139	.003
.997	303.15	.0544	1078.513	.003
.997	303.15	.0603	1078.678	.003
.997	303.15	.0678	1078.874	.003
.997	303.15	.0801	1079.205	.003
.997	303.15	.0928	1079.545	.003
.997	303.15	.1125	1080.05	.003
.997	303.15	.1603	1081.313	.003
.997	303.15	.1879	1082.035	.003
.997	303.15	.2156	1082.763	.003
.997	303.15	.2363	1083.301	.003
.997	303.15	.2511	1083.691	.003
.997	308.15	0	1074.96	.003
.997	308.15	.0281	1075.707	.003
.997	308.15	.0404	1076.031	.003
.997	308.15	.0544	1076.402	.003
.997	308.15	.0603	1076.569	.003
.997	308.15	.0678	1076.764	.003
.997	308.15	.0801	1077.091	.003
.997	308.15	.0928	1077.431	.003
.997	308.15	.1125	1077.935	.003
.997	308.15	.1603	1079.192	.003
.997	308.15	.1879	1079.91	.003
.997	308.15	.2156	1080.635	.003
.997	308.15	.2363	1081.172	.003
.997	308.15	.2511	1081.561	.003
.997	313.15	0	1072.733	.003
.997	313.15	.0281	1073.477	.003
.997	313.15	.0404	1073.8	.003
.997	313.15	.0544	1074.171	.003
.997	313.15	.0603	1074.335	.003
.997	313.15	.0678	1074.53	.003
.997	313.15	.0801	1074.858	.003
.997	313.15	.0928	1075.196	.003
.997	313.15	.1125	1075.7	.003
.997	313.15	.1603	1076.951	.003
.997	313.15	.1879	1077.667	.003
.997	313.15	.2156	1078.391	.003
.997	313.15	.2363	1078.925	.003
.997	313.15	.2511	1079.312	.003

System: glycine + ammonium citrate, dibasic + water; phases: Liquid
Fixed: Pressure, kPa = 101
Property: Speed of sound, m/s (Liquid); method: Sing-around technique in a fixed-path interferometer
Solvent: Molality, mol/kg of ammonium citrate, dibasic	Temperature, K	Molality, mol/kg of glycine	Speed of sound, m/s	uncertainty
.5	288.15	0	1529	.1
.5	288.15	.0269	1530.59	.1
.5	288.15	.0436	1531.51	.1
.5	288.15	.0541	1531.99	.1
.5	288.15	.0715	1532.97	.1
.5	288.15	.0814	1533.56	.1
.5	288.15	.0946	1534.25	.1
.5	288.15	.115	1535.34	.1
.5	288.15	.135	1536.37	.1
.5	288.15	.1616	1537.75	.1
.5	288.15	.1837	1538.95	.1
.5	288.15	.2098	1540.34	.1
.5	288.15	.2371	1541.74	.1
.5	288.15	.2504	1542.44	.1
.5	288.15	.2714	1543.54	.1
.5	293.15	0	1542.64	.1
.5	293.15	.0269	1544.14	.1
.5	293.15	.0436	1545.01	.1
.5	293.15	.0541	1545.55	.1
.5	293.15	.0715	1546.44	.1
.5	293.15	.0814	1547.02	.1
.5	293.15	.0946	1547.67	.1
.5	293.15	.115	1548.73	.1
.5	293.15	.135	1549.74	.1
.5	293.15	.1616	1551.07	.1
.5	293.15	.1837	1552.25	.1
.5	293.15	.2098	1553.58	.1
.5	293.15	.2371	1554.97	.1
.5	293.15	.2504	1555.63	.1
.5	293.15	.2714	1556.69	.1
.5	298.15	0	1554.57	.1
.5	298.15	.0269	1556.03	.1
.5	298.15	.0436	1556.89	.1
.5	298.15	.0541	1557.4	.1
.5	298.15	.0715	1558.28	.1
.5	298.15	.0814	1558.82	.1
.5	298.15	.0946	1559.46	.1
.5	298.15	.115	1560.51	.1
.5	298.15	.135	1561.47	.1
.5	298.15	.1616	1562.76	.1
.5	298.15	.1837	1563.92	.1
.5	298.15	.2098	1565.19	.1
.5	298.15	.2371	1566.55	.1
.5	298.15	.2504	1567.17	.1
.5	298.15	.2714	1568.21	.1
.5	303.15	0	1564.92	.1
.5	303.15	.0269	1566.29	.1
.5	303.15	.0436	1567.11	.1
.5	303.15	.0541	1567.65	.1
.5	303.15	.0715	1568.47	.1
.5	303.15	.0814	1569	.1
.5	303.15	.0946	1569.62	.1
.5	303.15	.115	1570.62	.1
.5	303.15	.135	1571.57	.1
.5	303.15	.1616	1572.82	.1
.5	303.15	.1837	1573.93	.1
.5	303.15	.2098	1575.17	.1
.5	303.15	.2371	1576.49	.1
.5	303.15	.2504	1577.1	.1
.5	303.15	.2714	1578.1	.1
.5	308.15	0	1573.7	.1
.5	308.15	.0269	1575.01	.1
.5	308.15	.0436	1575.81	.1
.5	308.15	.0541	1576.31	.1
.5	308.15	.0715	1577.11	.1
.5	308.15	.0814	1577.65	.1
.5	308.15	.0946	1578.24	.1
.5	308.15	.115	1579.23	.1
.5	308.15	.135	1580.14	.1
.5	308.15	.1616	1581.38	.1
.5	308.15	.1837	1582.46	.1
.5	308.15	.2098	1583.65	.1
.5	308.15	.2371	1584.95	.1
.5	308.15	.2504	1585.56	.1
.5	308.15	.2714	1586.52	.1
.5	313.15	0	1581.03	.1
.5	313.15	.0269	1582.31	.1
.5	313.15	.0436	1583.08	.1
.5	313.15	.0541	1583.58	.1
.5	313.15	.0715	1584.37	.1
.5	313.15	.0814	1584.89	.1
.5	313.15	.0946	1585.48	.1
.5	313.15	.115	1586.44	.1
.5	313.15	.135	1587.34	.1
.5	313.15	.1616	1588.54	.1
.5	313.15	.1837	1589.59	.1
.5	313.15	.2098	1590.79	.1
.5	313.15	.2371	1592.03	.1
.5	313.15	.2504	1592.63	.1
.5	313.15	.2714	1593.58	.1
.997	288.15	0	1584.88	.1
.997	288.15	.0281	1586.51	.1
.997	288.15	.0404	1587.14	.1
.997	288.15	.0544	1587.89	.1
.997	288.15	.0603	1588.2	.1
.997	288.15	.0678	1588.61	.1
.997	288.15	.0801	1589.25	.1
.997	288.15	.0928	1589.94	.1
.997	288.15	.1125	1590.98	.1
.997	288.15	.1603	1593.48	.1
.997	288.15	.1879	1594.96	.1
.997	288.15	.2156	1596.45	.1
.997	288.15	.2363	1597.52	.1
.997	288.15	.2511	1598.27	.1
.997	293.15	0	1596.43	.1
.997	293.15	.0281	1597.95	.1
.997	293.15	.0404	1598.56	.1
.997	293.15	.0544	1599.28	.1
.997	293.15	.0603	1599.59	.1
.997	293.15	.0678	1599.98	.1
.997	293.15	.0801	1600.62	.1
.997	293.15	.0928	1601.27	.1
.997	293.15	.1125	1602.28	.1
.997	293.15	.1603	1604.68	.1
.997	293.15	.1879	1606.14	.1
.997	293.15	.2156	1607.56	.1
.997	293.15	.2363	1608.58	.1
.997	293.15	.2511	1609.3	.1
.997	298.15	0	1606.4	.1
.997	298.15	.0281	1607.87	.1
.997	298.15	.0404	1608.46	.1
.997	298.15	.0544	1609.16	.1
.997	298.15	.0603	1609.47	.1
.997	298.15	.0678	1609.83	.1
.997	298.15	.0801	1610.47	.1
.997	298.15	.0928	1611.11	.1
.997	298.15	.1125	1612.08	.1
.997	298.15	.1603	1614.39	.1
.997	298.15	.1879	1615.81	.1
.997	298.15	.2156	1617.19	.1
.997	298.15	.2363	1618.2	.1
.997	298.15	.2511	1618.9	.1
.997	303.15	0	1614.91	.1
.997	303.15	.0281	1616.32	.1
.997	303.15	.0404	1616.9	.1
.997	303.15	.0544	1617.58	.1
.997	303.15	.0603	1617.87	.1
.997	303.15	.0678	1618.24	.1
.997	303.15	.0801	1618.84	.1
.997	303.15	.0928	1619.45	.1
.997	303.15	.1125	1620.41	.1
.997	303.15	.1603	1622.71	.1
.997	303.15	.1879	1624.08	.1
.997	303.15	.2156	1625.41	.1
.997	303.15	.2363	1626.39	.1
.997	303.15	.2511	1627.07	.1
.997	308.15	0	1622.04	.1
.997	308.15	.0281	1623.42	.1
.997	308.15	.0404	1623.96	.1
.997	308.15	.0544	1624.63	.1
.997	308.15	.0603	1624.93	.1
.997	308.15	.0678	1625.29	.1
.997	308.15	.0801	1625.88	.1
.997	308.15	.0928	1626.47	.1
.997	308.15	.1125	1627.42	.1
.997	308.15	.1603	1629.67	.1
.997	308.15	.1879	1631	.1
.997	308.15	.2156	1632.29	.1
.997	308.15	.2363	1633.25	.1
.997	308.15	.2511	1633.9	.1
.997	313.15	0	1627.91	.1
.997	313.15	.0281	1629.24	.1
.997	313.15	.0404	1629.78	.1
.997	313.15	.0544	1630.44	.1
.997	313.15	.0603	1630.72	.1
.997	313.15	.0678	1631.08	.1
.997	313.15	.0801	1631.66	.1
.997	313.15	.0928	1632.23	.1
.997	313.15	.1125	1633.16	.1
.997	313.15	.1603	1635.37	.1
.997	313.15	.1879	1636.67	.1
.997	313.15	.2156	1637.93	.1
.997	313.15	.2363	1638.87	.1
.997	313.15	.2511	1639.5	.1

System: L-alanine + ammonium citrate, dibasic + water; phases: Liquid
Fixed: Pressure, kPa = 101
Property: Mass density, kg/m3 (Liquid); method: Vibrating tube method
Solvent: Molality, mol/kg of ammonium citrate, dibasic	Temperature, K	Molality, mol/kg of L-alanine	Mass density, kg/m3	uncertainty
.5	288.15	0	1044.728	.003
.5	288.15	.0234	1045.324	.003
.5	288.15	.0346	1045.602	.003
.5	288.15	.0453	1045.869	.003
.5	288.15	.0463	1045.894	.003
.5	288.15	.0556	1046.13	.003
.5	288.15	.0685	1046.449	.003
.5	288.15	.0789	1046.721	.003
.5	288.15	.0965	1047.158	.003
.5	288.15	.0967	1047.165	.003
.5	288.15	.1121	1047.542	.003
.5	288.15	.1134	1047.583	.003
.5	288.15	.1356	1048.136	.003
.5	288.15	.1378	1048.211	.003
.5	288.15	.1591	1048.747	.003
.5	288.15	.1592	1048.753	.003
.5	288.15	.1819	1049.323	.003
.5	288.15	.1984	1049.707	.003
.5	288.15	.2099	1050.006	.003
.5	288.15	.2282	1050.464	.003
.5	293.15	0	1043.335	.003
.5	293.15	.0234	1043.927	.003
.5	293.15	.0346	1044.202	.003
.5	293.15	.0453	1044.468	.003
.5	293.15	.0463	1044.493	.003
.5	293.15	.0556	1044.727	.003
.5	293.15	.0685	1045.045	.003
.5	293.15	.0789	1045.314	.003
.5	293.15	.0965	1045.749	.003
.5	293.15	.0967	1045.756	.003
.5	293.15	.1121	1046.129	.003
.5	293.15	.1134	1046.17	.003
.5	293.15	.1356	1046.72	.003
.5	293.15	.1378	1046.792	.003
.5	293.15	.1591	1047.324	.003
.5	293.15	.1592	1047.332	.003
.5	293.15	.1819	1047.897	.003
.5	293.15	.1984	1048.279	.003
.5	293.15	.2099	1048.573	.003
.5	293.15	.2282	1049.031	.003
.5	298.15	0	1041.755	.003
.5	298.15	.0234	1042.342	.003
.5	298.15	.0346	1042.615	.003
.5	298.15	.0453	1042.881	.003
.5	298.15	.0463	1042.903	.003
.5	298.15	.0556	1043.138	.003
.5	298.15	.0685	1043.452	.003
.5	298.15	.0789	1043.72	.003
.5	298.15	.0965	1044.151	.003
.5	298.15	.0967	1044.161	.003
.5	298.15	.1121	1044.53	.003
.5	298.15	.1134	1044.569	.003
.5	298.15	.1356	1045.116	.003
.5	298.15	.1378	1045.191	.003
.5	298.15	.1591	1045.716	.003
.5	298.15	.1592	1045.725	.003
.5	298.15	.1819	1046.287	.003
.5	298.15	.1984	1046.665	.003
.5	298.15	.2099	1046.959	.003
.5	298.15	.2282	1047.411	.003
.5	303.15	0	1040.002	.003
.5	303.15	.0234	1040.586	.003
.5	303.15	.0346	1040.857	.003
.5	303.15	.0453	1041.119	.003
.5	303.15	.0463	1041.144	.003
.5	303.15	.0556	1041.377	.003
.5	303.15	.0685	1041.689	.003
.5	303.15	.0789	1041.956	.003
.5	303.15	.0965	1042.385	.003
.5	303.15	.0967	1042.393	.003
.5	303.15	.1121	1042.762	.003
.5	303.15	.1134	1042.801	.003
.5	303.15	.1356	1043.344	.003
.5	303.15	.1378	1043.42	.003
.5	303.15	.1591	1043.941	.003
.5	303.15	.1592	1043.949	.003
.5	303.15	.1819	1044.509	.003
.5	303.15	.1984	1044.884	.003
.5	303.15	.2099	1045.177	.003
.5	303.15	.2282	1045.627	.003
.5	308.15	0	1038.084	.003
.5	308.15	.0234	1038.665	.003
.5	308.15	.0346	1038.937	.003
.5	308.15	.0453	1039.199	.003
.5	308.15	.0463	1039.222	.003
.5	308.15	.0556	1039.454	.003
.5	308.15	.0685	1039.766	.003
.5	308.15	.0789	1040.032	.003
.5	308.15	.0965	1040.458	.003
.5	308.15	.0967	1040.468	.003
.5	308.15	.1121	1040.832	.003
.5	308.15	.1134	1040.873	.003
.5	308.15	.1356	1041.413	.003
.5	308.15	.1378	1041.488	.003
.5	308.15	.1591	1042.01	.003
.5	308.15	.1592	1042.017	.003
.5	308.15	.1819	1042.573	.003
.5	308.15	.1984	1042.948	.003
.5	308.15	.2099	1043.238	.003
.5	308.15	.2282	1043.687	.003
.5	313.15	0	1036.015	.003
.5	313.15	.0234	1036.594	.003
.5	313.15	.0346	1036.864	.003
.5	313.15	.0453	1037.125	.003
.5	313.15	.0463	1037.149	.003
.5	313.15	.0556	1037.382	.003
.5	313.15	.0685	1037.691	.003
.5	313.15	.0789	1037.956	.003
.5	313.15	.0965	1038.382	.003
.5	313.15	.0967	1038.392	.003
.5	313.15	.1121	1038.753	.003
.5	313.15	.1134	1038.794	.003
.5	313.15	.1356	1039.334	.003
.5	313.15	.1378	1039.409	.003
.5	313.15	.1591	1039.928	.003
.5	313.15	.1592	1039.937	.003
.5	313.15	.1819	1040.49	.003
.5	313.15	.1984	1040.865	.003
.5	313.15	.2099	1041.154	.003
.5	313.15	.2282	1041.602	.003
.998	288.15	0	1082.628	.003
.998	288.15	.0462	1083.665	.003
.998	288.15	.0565	1083.892	.003
.998	288.15	.0675	1084.134	.003
.998	288.15	.0964	1084.764	.003
.998	288.15	.1133	1085.147	.003
.998	288.15	.1359	1085.632	.003
.998	288.15	.1577	1086.114	.003
.998	288.15	.1819	1086.651	.003
.998	288.15	.1996	1087.045	.003
.998	288.15	.2116	1087.308	.003
.998	288.15	.2287	1087.688	.003
.998	293.15	0	1080.933	.003
.998	293.15	.0462	1081.963	.003
.998	293.15	.0565	1082.19	.003
.998	293.15	.0675	1082.428	.003
.998	293.15	.0964	1083.056	.003
.998	293.15	.1133	1083.437	.003
.998	293.15	.1359	1083.921	.003
.998	293.15	.1577	1084.4	.003
.998	293.15	.1819	1084.933	.003
.998	293.15	.1996	1085.325	.003
.998	293.15	.2116	1085.586	.003
.998	293.15	.2287	1085.961	.003
.998	298.15	0	1079.091	.003
.998	298.15	.0462	1080.117	.003
.998	298.15	.0565	1080.342	.003
.998	298.15	.0675	1080.58	.003
.998	298.15	.0964	1081.204	.003
.998	298.15	.1133	1081.583	.003
.998	298.15	.1359	1082.064	.003
.998	298.15	.1577	1082.54	.003
.998	298.15	.1819	1083.072	.003
.998	298.15	.1996	1083.462	.003
.998	298.15	.2116	1083.721	.003
.998	298.15	.2287	1084.095	.003
.998	303.15	0	1077.113	.003
.998	303.15	.0462	1078.136	.003
.998	303.15	.0565	1078.359	.003
.998	303.15	.0675	1078.599	.003
.998	303.15	.0964	1079.221	.003
.998	303.15	.1133	1079.598	.003
.998	303.15	.1359	1080.075	.003
.998	303.15	.1577	1080.55	.003
.998	303.15	.1819	1081.08	.003
.998	303.15	.1996	1081.469	.003
.998	303.15	.2116	1081.725	.003
.998	303.15	.2287	1082.101	.003
.998	308.15	0	1075.008	.003
.998	308.15	.0462	1076.029	.003
.998	308.15	.0565	1076.252	.003
.998	308.15	.0675	1076.491	.003
.998	308.15	.0964	1077.109	.003
.998	308.15	.1133	1077.486	.003
.998	308.15	.1359	1077.962	.003
.998	308.15	.1577	1078.436	.003
.998	308.15	.1819	1078.966	.003
.998	308.15	.1996	1079.352	.003
.998	308.15	.2116	1079.608	.003
.998	308.15	.2287	1079.982	.003
.998	313.15	0	1072.782	.003
.998	313.15	.0462	1073.797	.003
.998	313.15	.0565	1074.022	.003
.998	313.15	.0675	1074.258	.003
.998	313.15	.0964	1074.878	.003
.998	313.15	.1133	1075.252	.003
.998	313.15	.1359	1075.729	.003
.998	313.15	.1577	1076.201	.003
.998	313.15	.1819	1076.73	.003
.998	313.15	.1996	1077.113	.003
.998	313.15	.2116	1077.37	.003
.998	313.15	.2287	1077.744	.003

System: L-alanine + ammonium citrate, dibasic + water; phases: Liquid
Fixed: Pressure, kPa = 101
Property: Speed of sound, m/s (Liquid); method: Sing-around technique in a fixed-path interferometer
Solvent: Molality, mol/kg of ammonium citrate, dibasic	Temperature, K	Molality, mol/kg of L-alanine	Speed of sound, m/s	uncertainty
.5	288.15	0	1529.02	.1
.5	288.15	.0234	1530.59	.1
.5	288.15	.0346	1531.4	.1
.5	288.15	.0453	1532.1	.1
.5	288.15	.0463	1532.22	.1
.5	288.15	.0556	1532.74	.1
.5	288.15	.0685	1533.72	.1
.5	288.15	.0789	1534.45	.1
.5	288.15	.0965	1535.66	.1
.5	288.15	.0967	1535.51	.1
.5	288.15	.1121	1536.68	.1
.5	288.15	.1134	1536.67	.1
.5	288.15	.1356	1538.26	.1
.5	288.15	.1378	1538.3	.1
.5	288.15	.1591	1539.69	.1
.5	288.15	.1592	1539.74	.1
.5	288.15	.1819	1541.24	.1
.5	288.15	.1984	1542.24	.1
.5	288.15	.2099	1543.05	.1
.5	288.15	.2282	1544.22	.1
.5	293.15	0	1542.66	.1
.5	293.15	.0234	1544.14	.1
.5	293.15	.0346	1544.89	.1
.5	293.15	.0453	1545.58	.1
.5	293.15	.0463	1545.69	.1
.5	293.15	.0556	1546.21	.1
.5	293.15	.0685	1547.15	.1
.5	293.15	.0789	1547.86	.1
.5	293.15	.0965	1549	.1
.5	293.15	.0967	1548.87	.1
.5	293.15	.1121	1549.98	.1
.5	293.15	.1134	1549.99	.1
.5	293.15	.1356	1551.52	.1
.5	293.15	.1378	1551.54	.1
.5	293.15	.1591	1552.94	.1
.5	293.15	.1592	1552.97	.1
.5	293.15	.1819	1554.41	.1
.5	293.15	.1984	1555.4	.1
.5	293.15	.2099	1556.17	.1
.5	293.15	.2282	1557.33	.1
.5	298.15	0	1554.59	.1
.5	298.15	.0234	1556.01	.1
.5	298.15	.0346	1556.75	.1
.5	298.15	.0453	1557.43	.1
.5	298.15	.0463	1557.53	.1
.5	298.15	.0556	1558.04	.1
.5	298.15	.0685	1558.94	.1
.5	298.15	.0789	1559.62	.1
.5	298.15	.0965	1560.72	.1
.5	298.15	.0967	1560.6	.1
.5	298.15	.1121	1561.67	.1
.5	298.15	.1134	1561.68	.1
.5	298.15	.1356	1563.16	.1
.5	298.15	.1378	1563.18	.1
.5	298.15	.1591	1564.52	.1
.5	298.15	.1592	1564.55	.1
.5	298.15	.1819	1565.94	.1
.5	298.15	.1984	1566.88	.1
.5	298.15	.2099	1567.65	.1
.5	298.15	.2282	1568.75	.1
.5	303.15	0	1564.93	.1
.5	303.15	.0234	1566.28	.1
.5	303.15	.0346	1566.96	.1
.5	303.15	.0453	1567.62	.1
.5	303.15	.0463	1567.74	.1
.5	303.15	.0556	1568.21	.1
.5	303.15	.0685	1569.08	.1
.5	303.15	.0789	1569.73	.1
.5	303.15	.0965	1570.81	.1
.5	303.15	.0967	1570.68	.1
.5	303.15	.1121	1571.71	.1
.5	303.15	.1134	1571.72	.1
.5	303.15	.1356	1573.15	.1
.5	303.15	.1378	1573.19	.1
.5	303.15	.1591	1574.49	.1
.5	303.15	.1592	1574.5	.1
.5	303.15	.1819	1575.83	.1
.5	303.15	.1984	1576.76	.1
.5	303.15	.2099	1577.49	.1
.5	303.15	.2282	1578.57	.1
.5	308.15	0	1573.69	.1
.5	308.15	.0234	1575	.1
.5	308.15	.0346	1575.64	.1
.5	308.15	.0453	1576.28	.1
.5	308.15	.0463	1576.38	.1
.5	308.15	.0556	1576.85	.1
.5	308.15	.0685	1577.7	.1
.5	308.15	.0789	1578.33	.1
.5	308.15	.0965	1579.36	.1
.5	308.15	.0967	1579.25	.1
.5	308.15	.1121	1580.24	.1
.5	308.15	.1134	1580.25	.1
.5	308.15	.1356	1581.62	.1
.5	308.15	.1378	1581.68	.1
.5	308.15	.1591	1582.93	.1
.5	308.15	.1592	1582.95	.1
.5	308.15	.1819	1584.24	.1
.5	308.15	.1984	1585.14	.1
.5	308.15	.2099	1585.88	.1
.5	308.15	.2282	1586.89	.1
.5	313.15	0	1581.02	.1
.5	313.15	.0234	1582.3	.1
.5	313.15	.0346	1582.91	.1
.5	313.15	.0453	1583.53	.1
.5	313.15	.0463	1583.62	.1
.5	313.15	.0556	1584.07	.1
.5	313.15	.0685	1584.91	.1
.5	313.15	.0789	1585.51	.1
.5	313.15	.0965	1586.51	.1
.5	313.15	.0967	1586.4	.1
.5	313.15	.1121	1587.37	.1
.5	313.15	.1134	1587.38	.1
.5	313.15	.1356	1588.72	.1
.5	313.15	.1378	1588.77	.1
.5	313.15	.1591	1589.99	.1
.5	313.15	.1592	1590	.1
.5	313.15	.1819	1591.26	.1
.5	313.15	.1984	1592.14	.1
.5	313.15	.2099	1592.83	.1
.5	313.15	.2282	1593.84	.1
.998	288.15	0	1585.01	.1
.998	288.15	.0462	1588.18	.1
.998	288.15	.0565	1588.94	.1
.998	288.15	.0675	1589.6	.1
.998	288.15	.0964	1591.49	.1
.998	288.15	.1133	1592.62	.1
.998	288.15	.1359	1594.07	.1
.998	288.15	.1577	1595.38	.1
.998	288.15	.1819	1597.05	.1
.998	288.15	.1996	1598.32	.1
.998	288.15	.2116	1599	.1
.998	288.15	.2287	1600.08	.1
.998	293.15	0	1596.51	.1
.998	293.15	.0462	1599.56	.1
.998	293.15	.0565	1600.24	.1
.998	293.15	.0675	1600.92	.1
.998	293.15	.0964	1602.72	.1
.998	293.15	.1133	1603.81	.1
.998	293.15	.1359	1605.21	.1
.998	293.15	.1577	1606.51	.1
.998	293.15	.1819	1608.09	.1
.998	293.15	.1996	1609.24	.1
.998	293.15	.2116	1609.94	.1
.998	293.15	.2287	1610.99	.1
.998	298.15	0	1606.48	.1
.998	298.15	.0462	1609.41	.1
.998	298.15	.0565	1610.08	.1
.998	298.15	.0675	1610.74	.1
.998	298.15	.0964	1612.46	.1
.998	298.15	.1133	1613.52	.1
.998	298.15	.1359	1614.86	.1
.998	298.15	.1577	1616.13	.1
.998	298.15	.1819	1617.65	.1
.998	298.15	.1996	1618.74	.1
.998	298.15	.2116	1619.42	.1
.998	298.15	.2287	1620.47	.1
.998	303.15	0	1615	.1
.998	303.15	.0462	1617.81	.1
.998	303.15	.0565	1618.46	.1
.998	303.15	.0675	1619.06	.1
.998	303.15	.0964	1620.74	.1
.998	303.15	.1133	1621.77	.1
.998	303.15	.1359	1623.08	.1
.998	303.15	.1577	1624.33	.1
.998	303.15	.1819	1625.78	.1
.998	303.15	.1996	1626.85	.1
.998	303.15	.2116	1627.5	.1
.998	303.15	.2287	1628.5	.1
.998	308.15	0	1622.14	.1
.998	308.15	.0462	1624.85	.1
.998	308.15	.0565	1625.47	.1
.998	308.15	.0675	1626.06	.1
.998	308.15	.0964	1627.69	.1
.998	308.15	.1133	1628.68	.1
.998	308.15	.1359	1629.95	.1
.998	308.15	.1577	1631.18	.1
.998	308.15	.1819	1632.58	.1
.998	308.15	.1996	1633.62	.1
.998	308.15	.2116	1634.23	.1
.998	308.15	.2287	1635.22	.1
.998	313.15	0	1628	.1
.998	313.15	.0462	1630.63	.1
.998	313.15	.0565	1631.22	.1
.998	313.15	.0675	1631.8	.1
.998	313.15	.0964	1633.38	.1
.998	313.15	.1133	1634.34	.1
.998	313.15	.1359	1635.58	.1
.998	313.15	.1577	1636.77	.1
.998	313.15	.1819	1638.13	.1
.998	313.15	.1996	1639.15	.1
.998	313.15	.2116	1639.72	.1
.998	313.15	.2287	1640.69	.1

System: ammonium citrate, dibasic + sodium chloride + water; phases: Liquid
Fixed: Pressure, kPa = 101
Fixed: Temperature, K = 298.15
Property: (Relative) activity of water (Liquid); method: Isopiestic Method
Solvent: Molality, mol/kg of ammonium citrate, dibasic	Molality, mol/kg of sodium chloride	(Relative) activity of water	uncertainty
0	0	1	.0002
.4362	.522	.9828	.0002
.5314	.6059	.98	.0002
.5881	.6759	.9776	.0002
.6097	.6833	.9774	.0002
.6287	.7018	.9768	.0002
.6536	.7278	.9759	.0002
.6959	.7726	.9744	.0002
.7066	.7763	.9743	.0002
.757	.8401	.9721	.0002
.8023	.8722	.971	.0002
.8203	.8873	.9705	.0002
.8384	.8892	.9704	.0002
.8793	.9367	.9688	.0002
.9411	.9997	.9667	.0002
.9646	1.0362	.9654	.0002
.989	1.0459	.9651	.0002
1.031	1.0922	.9635	.0002
1.0594	1.1213	.9625	.0002
1.1555	1.2052	.9596	.0002
1.1773	1.2288	.9588	.0002
1.2066	1.2485	.9581	.0002
1.3385	1.3974	.9528	.0002
1.3664	1.4014	.9527	.0002
1.4855	1.5224	.9484	.0002
1.5061	1.5265	.9483	.0002
1.6769	1.6738	.943	.0002
1.7227	1.7338	.9408	.0002
2.4686	2.3821	.9166	.0002
2.6222	2.5073	.9118	.0002
3.2252	3.0079	.892	.0002
