Measured thermophysical data. Influence of temperature on the (liquid + liquid) equilibria of {3-methyl  pentane + cyclopentane + methanol} ternary system at  T = (293.15, 297.15, and 299.15) K
Source: J. Chem. Thermodyn., 2009, 10.1016/j.jct.2009.05.016
Compound 1: 3-methylpentane, C6H14, purity 99.8%
Compound 2: cyclopentane, C5H10, purity 99.8%
Compound 3: methanol, CH4O, purity 99.8%

System: methanol + 3-methylpentane + cyclopentane; phases: Liquid mixture 1, Liquid mixture 2
Fixed: Pressure, kPa = 101
Property: Mass fraction of cyclopentane (Liquid mixture 1); method: Chromatography
Property: Mass fraction of 3-methylpentane (Liquid mixture 2); method: Chromatography
Property: Mass fraction of cyclopentane (Liquid mixture 2); method: Chromatography
Temperature, K	Mass fraction of 3-methylpentane	Mass fraction of cyclopentane	uncertainty	Mass fraction of 3-methylpentane	uncertainty	Mass fraction of cyclopentane	uncertainty
293.15	.873	0	.001	.449	.001	0	.001
293.15	.833	.04	.001	.437	.001	.023	.001
293.15	.803	.072	.001	.424	.001	.039	.001
293.15	.793	.082	.001	.417	.001	.049	.001
293.15	.78	.095	.001	.415	.001	.055	.001
293.15	.743	.129	.001	.405	.001	.072	.001
293.15	.719	.15	.001	.39	.001	.095	.001
293.15	.714	.153	.001	.389	.001	.1	.001
293.15	.66	.2	.001	.369	.001	.131	.001
293.15	.583	.271	.001	.36	.001	.15	.001
293.15	.573	.273	.001	.342	.001	.179	.001
293.15	.55	.291	.001	.34	.001	.188	.001
293.15	.534	.304	.001	.332	.001	.2	.001
293.15	.476	.347	.001	.317	.001	.228	.001
293.15	.438	.374	.001	.298	.001	.269	.001
293.15	.304	.362	.001	.304	.001	.362	.001
297.15	.828	0	.001	.5	.001	0	.001
297.15	.78	.042	.001	.49	.001	.027	.001
297.15	.753	.067	.001	.483	.001	.043	.001
297.15	.725	.086	.001	.48	.001	.06	.001
297.15	.694	.11	.001	.477	.001	.08	.001
297.15	.672	.124	.001	.475	.001	.096	.001
297.15	.631	.146	.001	.478	.001	.118	.001
297.15	.617	.153	.001	.48	.001	.13	.001
297.15	.523	.173	.001	.523	.001	.173	.001
299.15	.758	0	.001	.564	.001	0	.001
299.15	.746	.009	.001	.564	.001	.009	.001
299.15	.718	.024	.001	.564	.001	.018	.001
299.15	.689	.038	.001	.565	.001	.033	.001
299.15	.608	.051	.001	.608	.001	.051	.001

System: methanol + 3-methylpentane; phases: Liquid mixture 1, Liquid mixture 2
Property: Mass fraction of 3-methylpentane (Liquid mixture 1); method: Chromatography
Temperature, K	Pressure, kPa	Mass fraction of 3-methylpentane	uncertainty
293.15	101	.873	.001
297.15	101	.828	.001
299.15	101	.758	.001

System: methanol + 3-methylpentane; phases: Liquid mixture 2, Liquid mixture 1
Property: Mass fraction of 3-methylpentane (Liquid mixture 2); method: Chromatography
Temperature, K	Pressure, kPa	Mass fraction of 3-methylpentane	uncertainty
293.15	101	.449	.001
297.15	101	.5	.001
299.15	101	.564	.001
