Measured thermophysical data. Topological investigations of molecular interactions in binary ionic liquid mixtures with a common ion: Excess molar volumes, excess isentropic compressibilities, excess molar enthalpies and excess molar heat capacities
Source: J. Chem. Thermodyn., 2016, 10.1016/j.jct.2016.08.010
Compound 1: 1-butyl-2,3-dimethylimidazolium tetrafluoroborate, C9H17BF4N2, purity 99.1%
Compound 2: 1-butyl-3-methylimidazolium tetrafluoroborate, C8H15BF4N2, purity 98.8%
Compound 3: 1-ethyl-3-methylimidazolium tetrafluoroborate, C6H11BF4N2, purity 99%

System: 1-butyl-2,3-dimethylimidazolium tetrafluoroborate; phases: Liquid
Property: Mass density, kg/m3 (Liquid); method: Vibrating tube method
Temperature, K	Pressure, kPa	Mass density, kg/m3	uncertainty
293.15	100	1193.5	
298.15	100	1191.8	
303.15	100	1189.7	
308.15	100	1187.9	

System: 1-butyl-2,3-dimethylimidazolium tetrafluoroborate; phases: Liquid
Fixed: Frequency, MHz = 3
Property: Speed of sound, m/s (Liquid); method: Sing-around technique in a fixed-path interferometer
Temperature, K	Pressure, kPa	Speed of sound, m/s	uncertainty
293.15	100	1659.7	
298.15	100	1645.7	
303.15	100	1632.5	
308.15	100	1619.8	

System: 1-butyl-2,3-dimethylimidazolium tetrafluoroborate; phases: Liquid
Property: Molar heat capacity at constant pressure, J/K/mol (Liquid); method: Small sample (50 mg) scanning calorimetry
Temperature, K	Pressure, kPa	Molar heat capacity at constant pressure, J/K/mol	uncertainty
293.15	100	413.03	
298.15	100	416.01	
303.15	100	418.84	
308.15	100	421.7	

System: 1-butyl-3-methylimidazolium tetrafluoroborate; phases: Liquid
Property: Mass density, kg/m3 (Liquid); method: Vibrating tube method
Temperature, K	Pressure, kPa	Mass density, kg/m3	uncertainty
293.15	100	1203.1	
298.15	100	1198.9	
303.15	100	1195.3	
308.15	100	1191.7	

System: 1-butyl-3-methylimidazolium tetrafluoroborate; phases: Liquid
Fixed: Frequency, MHz = 3
Property: Speed of sound, m/s (Liquid); method: Sing-around technique in a fixed-path interferometer
Temperature, K	Pressure, kPa	Speed of sound, m/s	uncertainty
293.15	100	1578.1	
298.15	100	1565.5	
303.15	100	1554.1	
308.15	100	1542.3	

System: 1-butyl-3-methylimidazolium tetrafluoroborate; phases: Liquid
Property: Molar heat capacity at constant pressure, J/K/mol (Liquid); method: Small sample (50 mg) scanning calorimetry
Temperature, K	Pressure, kPa	Molar heat capacity at constant pressure, J/K/mol	uncertainty
293.15	100	362.35	
298.15	100	365.12	
303.15	100	367.48	
308.15	100	369.88	

System: 1-ethyl-3-methylimidazolium tetrafluoroborate; phases: Liquid
Property: Mass density, kg/m3 (Liquid); method: Vibrating tube method
Temperature, K	Pressure, kPa	Mass density, kg/m3	uncertainty
293.15	100	1283.9	
298.15	100	1279.9	
303.15	100	1276.3	
308.15	100	1272.1	

System: 1-ethyl-3-methylimidazolium tetrafluoroborate; phases: Liquid
Fixed: Frequency, MHz = 3
Property: Speed of sound, m/s (Liquid); method: Sing-around technique in a fixed-path interferometer
Temperature, K	Pressure, kPa	Speed of sound, m/s	uncertainty
293.15	100	1631.1	
298.15	100	1619.2	
303.15	100	1607.4	
308.15	100	1596.2	

System: 1-ethyl-3-methylimidazolium tetrafluoroborate; phases: Liquid
Property: Molar heat capacity at constant pressure, J/K/mol (Liquid); method: Small sample (50 mg) scanning calorimetry
Temperature, K	Pressure, kPa	Molar heat capacity at constant pressure, J/K/mol	uncertainty
293.15	100	303.2	
298.15	100	304.53	
303.15	100	306.29	
308.15	100	308.03	

System: 1-butyl-3-methylimidazolium tetrafluoroborate + 1-butyl-2,3-dimethylimidazolium tetrafluoroborate; phases: Liquid
Fixed: Pressure, kPa = 100
Property: Mass density, kg/m3 (Liquid); method: Vibrating tube method
Temperature, K	Mole fraction of 1-butyl-2,3-dimethylimidazolium tetrafluoroborate	Mass density, kg/m3	uncertainty
293.15	.0917	1198.6	
293.15	.1281	1197.1	
293.15	.1633	1195.8	
293.15	.2059	1194.4	
293.15	.2455	1193.3	
293.15	.2967	1192.2	
293.15	.3424	1191.3	
293.15	.3974	1190.6	
293.15	.4496	1190.2	
293.15	.4997	1190	
293.15	.5418	1190	
293.15	.5941	1190.1	
293.15	.6398	1190.3	
293.15	.6873	1190.6	
293.15	.7388	1191	
293.15	.7963	1191.6	
293.15	.8482	1192.1	
293.15	.8903	1192.6	
298.15	.0917	1195.3	
298.15	.1281	1194	
298.15	.1633	1193	
298.15	.2059	1191.8	
298.15	.2455	1190.9	
298.15	.2967	1189.9	
298.15	.3424	1189.2	
298.15	.3974	1188.6	
298.15	.4496	1188.3	
298.15	.4997	1188.2	
298.15	.5418	1188.2	
298.15	.5941	1188.3	
298.15	.6398	1188.5	
298.15	.6873	1188.9	
298.15	.7388	1189.3	
298.15	.7963	1189.9	
298.15	.8482	1190.4	
298.15	.8903	1190.8	
303.15	.0917	1192.4	
303.15	.1281	1191.4	
303.15	.1633	1190.4	
303.15	.2059	1189.5	
303.15	.2455	1188.6	
303.15	.2967	1187.8	
303.15	.3424	1187.1	
303.15	.3974	1186.6	
303.15	.4496	1186.3	
303.15	.4997	1186.2	
303.15	.5418	1186.2	
303.15	.5941	1186.4	
303.15	.6398	1186.7	
303.15	.6873	1187	
303.15	.7388	1187.4	
303.15	.7963	1187.9	
303.15	.8482	1188.4	
303.15	.8903	1188.7	
308.15	.0917	1189.4	
308.15	.1281	1188.6	
308.15	.1633	1187.9	
308.15	.2059	1187.1	
308.15	.2455	1186.4	
308.15	.2967	1185.7	
308.15	.3424	1185.2	
308.15	.3974	1184.8	
308.15	.4496	1184.6	
308.15	.4997	1184.5	
308.15	.5418	1184.5	
308.15	.5941	1184.7	
308.15	.6398	1184.9	
308.15	.6873	1185.3	
308.15	.7388	1185.7	
308.15	.7963	1186.1	
308.15	.8482	1186.5	
308.15	.8903	1187	
293.15	1	1193.5	
298.15	1	1191.8	
303.15	1	1189.7	
308.15	1	1187.9	
293.15	0	1203.1	
298.15	0	1198.9	
303.15	0	1195.3	
308.15	0	1191.7	

System: 1-butyl-3-methylimidazolium tetrafluoroborate + 1-butyl-2,3-dimethylimidazolium tetrafluoroborate; phases: Liquid
Fixed: Pressure, kPa = 100
Fixed: Frequency, MHz = 3
Property: Speed of sound, m/s (Liquid); method: Sing-around technique in a fixed-path interferometer
Temperature, K	Mole fraction of 1-butyl-2,3-dimethylimidazolium tetrafluoroborate	Speed of sound, m/s	uncertainty
293.15	.0917	1587.2	
293.15	.1281	1590.7	
293.15	.1633	1594	
293.15	.2059	1597.8	
293.15	.2455	1601.3	
293.15	.2967	1605.7	
293.15	.3424	1609.5	
293.15	.3974	1613.9	
293.15	.4496	1618.1	
293.15	.4997	1622	
293.15	.5418	1625.2	
293.15	.5941	1629.1	
293.15	.6398	1632.5	
293.15	.6873	1636	
293.15	.7388	1639.9	
293.15	.7963	1644.1	
293.15	.8482	1648	
293.15	.8903	1651.2	
298.15	.0917	1574.1	
298.15	.1281	1577.4	
298.15	.1633	1580.6	
298.15	.2059	1584.3	
298.15	.2455	1587.7	
298.15	.2967	1591.9	
298.15	.3424	1595.7	
298.15	.3974	1600.1	
298.15	.4496	1604.1	
298.15	.4997	1608	
298.15	.5418	1611.2	
298.15	.5941	1615.1	
298.15	.6398	1618.5	
298.15	.6873	1622	
298.15	.7388	1625.9	
298.15	.7963	1630.1	
298.15	.8482	1634	
298.15	.8903	1637.2	
303.15	.0917	1562.2	
303.15	.1281	1565.4	
303.15	.1633	1568.4	
303.15	.2059	1572	
303.15	.2455	1575.3	
303.15	.2967	1579.5	
303.15	.3424	1583.1	
303.15	.3974	1587.4	
303.15	.4496	1591.5	
303.15	.4997	1595.2	
303.15	.5418	1598.4	
303.15	.5941	1602.2	
303.15	.6398	1605.6	
303.15	.6873	1609.1	
303.15	.7388	1612.9	
303.15	.7963	1617.1	
303.15	.8482	1621	
303.15	.8903	1624.2	
308.15	.0917	1550	
308.15	.1281	1553.1	
308.15	.1633	1556	
308.15	.2059	1559.5	
308.15	.2455	1562.7	
308.15	.2967	1566.8	
308.15	.3424	1570.4	
308.15	.3974	1574.6	
308.15	.4496	1578.6	
308.15	.4997	1582.4	
308.15	.5418	1585.5	
308.15	.5941	1589.4	
308.15	.6398	1592.9	
308.15	.6873	1596.3	
308.15	.7388	1600.1	
308.15	.7963	1604.4	
308.15	.8482	1608.4	
308.15	.8903	1611.4	
293.15	1	1659.7	
298.15	1	1645.7	
303.15	1	1632.5	
308.15	1	1619.8	
293.15	0	1578.1	
298.15	0	1565.5	
303.15	0	1554.1	
308.15	0	1542.3	

System: 1-butyl-3-methylimidazolium tetrafluoroborate + 1-butyl-2,3-dimethylimidazolium tetrafluoroborate; phases: Liquid
Fixed: Pressure, kPa = 100
Fixed: Temperature, K = 298.15
Property: Excess molar enthalpy (molar enthalpy of mixing), kJ/mol (Liquid); method: Power-compensation calorimetry
Mole fraction of 1-butyl-2,3-dimethylimidazolium tetrafluoroborate	Excess molar enthalpy (molar enthalpy of mixing), kJ/mol	uncertainty
.0861	.0137	
.1386	.0219	
.1972	.0307	
.2455	.0372	
.2945	.0434	
.3428	.0477	
.3917	.0507	
.4457	.0523	
.5019	.0521	
.5637	.0488	
.6097	.0455	
.6637	.0403	
.7076	.0359	
.7611	.0289	
.8042	.0236	
.8462	.0183	
.8827	.0136	
.9144	.00961	

System: 1-butyl-3-methylimidazolium tetrafluoroborate + 1-butyl-2,3-dimethylimidazolium tetrafluoroborate; phases: Liquid
Fixed: Pressure, kPa = 100
Property: Molar heat capacity at constant pressure, J/K/mol (Liquid); method: Small sample (50 mg) scanning calorimetry
Temperature, K	Mole fraction of 1-butyl-2,3-dimethylimidazolium tetrafluoroborate	Molar heat capacity at constant pressure, J/K/mol	uncertainty
293.15	.0944	372.33	
293.15	.1139	374.5	
293.15	.1685	380.51	
293.15	.1964	383.54	
293.15	.2219	386.3	
293.15	.2761	391.8	
293.15	.325	396.42	
293.15	.3616	399.58	
293.15	.4192	404.04	
293.15	.4769	407.66	
293.15	.5228	410.01	
293.15	.5749	412.12	
293.15	.6325	413.66	
293.15	.6877	414.45	
293.15	.7386	414.74	
293.15	.7922	414.58	
293.15	.8479	414.36	
293.15	.8832	413.81	
298.15	.0944	374.56	
298.15	.1139	376.61	
298.15	.1685	382.42	
298.15	.1964	385.39	
298.15	.2219	388.04	
298.15	.2761	393.45	
298.15	.325	397.97	
298.15	.3616	401.14	
298.15	.4192	405.54	
298.15	.4769	409.23	
298.15	.5228	411.58	
298.15	.5749	413.7	
298.15	.6325	415.36	
298.15	.6877	416.32	
298.15	.7386	416.82	
298.15	.7922	416.97	
298.15	.8479	416.75	
298.15	.8832	416.53	
303.15	.0944	376.3	
303.15	.1139	378.27	
303.15	.1685	383.87	
303.15	.1964	386.73	
303.15	.2219	389.27	
303.15	.2761	394.59	
303.15	.325	399.09	
303.15	.3616	402.27	
303.15	.4192	406.68	
303.15	.4769	410.42	
303.15	.5228	412.83	
303.15	.5749	415.09	
303.15	.6325	416.86	
303.15	.6877	418.24	
303.15	.7386	419.32	
303.15	.7922	419.35	
303.15	.8479	419.41	
303.15	.8832	419.16	
308.15	.0944	378.14	
308.15	.1139	379.93	
308.15	.1685	385.43	
308.15	.1964	388.21	
308.15	.2219	390.78	
308.15	.2761	396.01	
308.15	.325	400.41	
308.15	.3616	403.61	
308.15	.4192	408.07	
308.15	.4769	411.83	
308.15	.5228	414.29	
308.15	.5749	416.68	
308.15	.6325	418.94	
308.15	.6877	420.31	
308.15	.7386	421.29	
308.15	.7922	421.84	
308.15	.8479	422.19	
308.15	.8832	421.93	
293.15	1	413.03	
298.15	1	416.01	
303.15	1	418.84	
308.15	1	421.7	
293.15	0	362.35	
298.15	0	365.12	
303.15	0	367.48	
308.15	0	369.88	

System: 1-ethyl-3-methylimidazolium tetrafluoroborate + 1-butyl-3-methylimidazolium tetrafluoroborate; phases: Liquid
Fixed: Pressure, kPa = 100
Property: Mass density, kg/m3 (Liquid); method: Vibrating tube method
Temperature, K	Mole fraction of 1-butyl-3-methylimidazolium tetrafluoroborate	Mass density, kg/m3	uncertainty
293.15	.0728	1274.4	
293.15	.1143	1269.1	
293.15	.148	1264.9	
293.15	.1737	1261.8	
293.15	.2204	1256.4	
293.15	.2684	1251.1	
293.15	.3155	1246.2	
293.15	.3619	1241.6	
293.15	.4167	1236.6	
293.15	.4759	1231.8	
293.15	.5282	1227.9	
293.15	.5742	1224.7	
293.15	.6356	1220.9	
293.15	.6835	1218.1	
293.15	.7381	1215.3	
293.15	.7892	1212.8	
293.15	.8364	1210.6	
293.15	.8932	1208	
298.15	.0728	1270.8	
298.15	.1143	1265.7	
298.15	.148	1261.6	
298.15	.1737	1258.6	
298.15	.2204	1253.2	
298.15	.2684	1248	
298.15	.3155	1243.1	
298.15	.3619	1238.6	
298.15	.4167	1233.6	
298.15	.4759	1228.7	
298.15	.5282	1224.7	
298.15	.5742	1221.5	
298.15	.6356	1217.6	
298.15	.6835	1214.8	
298.15	.7381	1211.8	
298.15	.7892	1209.2	
298.15	.8364	1206.9	
298.15	.8932	1204.2	
303.15	.0728	1267.5	
303.15	.1143	1262.6	
303.15	.148	1258.7	
303.15	.1737	1255.7	
303.15	.2204	1250.5	
303.15	.2684	1245.3	
303.15	.3155	1240.5	
303.15	.3619	1236	
303.15	.4167	1231.1	
303.15	.4759	1226.1	
303.15	.5282	1222.2	
303.15	.5742	1218.9	
303.15	.6356	1214.9	
303.15	.6835	1212.1	
303.15	.7381	1209	
303.15	.7892	1206.3	
303.15	.8364	1203.9	
303.15	.8932	1201	
308.15	.0728	1263.8	
308.15	.1143	1259.1	
308.15	.148	1255.3	
308.15	.1737	1252.4	
308.15	.2204	1247.4	
308.15	.2684	1242.3	
308.15	.3155	1237.6	
308.15	.3619	1233.2	
308.15	.4167	1228.3	
308.15	.4759	1223.4	
308.15	.5282	1219.4	
308.15	.5742	1216.1	
308.15	.6356	1212.1	
308.15	.6835	1209.1	
308.15	.7381	1206	
308.15	.7892	1203.2	
308.15	.8364	1200.6	
308.15	.8932	1197.6	
293.15	1	1203.1	
298.15	1	1198.9	
303.15	1	1195.3	
308.15	1	1191.7	
293.15	0	1283.9	
298.15	0	1279.9	
303.15	0	1276.3	
308.15	0	1272.1	

System: 1-ethyl-3-methylimidazolium tetrafluoroborate + 1-butyl-3-methylimidazolium tetrafluoroborate; phases: Liquid
Fixed: Pressure, kPa = 100
Fixed: Frequency, MHz = 3
Property: Speed of sound, m/s (Liquid); method: Sing-around technique in a fixed-path interferometer
Temperature, K	Mole fraction of 1-butyl-3-methylimidazolium tetrafluoroborate	Speed of sound, m/s	uncertainty
293.15	.0728	1628.1	
293.15	.1143	1626.4	
293.15	.148	1625	
293.15	.1737	1624	
293.15	.2204	1622	
293.15	.2684	1620	
293.15	.3155	1618	
293.15	.3619	1616	
293.15	.4167	1613.6	
293.15	.4759	1610.8	
293.15	.5282	1608.3	
293.15	.5742	1605.9	
293.15	.6356	1602.7	
293.15	.6835	1600	
293.15	.7381	1596.7	
293.15	.7892	1593.5	
293.15	.8364	1590.4	
293.15	.8932	1586.4	
298.15	.0728	1616	
298.15	.1143	1614.2	
298.15	.148	1612.7	
298.15	.1737	1611.6	
298.15	.2204	1609.6	
298.15	.2684	1607.5	
298.15	.3155	1605.4	
298.15	.3619	1603.3	
298.15	.4167	1600.8	
298.15	.4759	1598	
298.15	.5282	1595.5	
298.15	.5742	1593.1	
298.15	.6356	1589.8	
298.15	.6835	1587.1	
298.15	.7381	1583.9	
298.15	.7892	1580.7	
298.15	.8364	1577.6	
298.15	.8932	1573.7	
303.15	.0728	1604	
303.15	.1143	1602.2	
303.15	.148	1600.7	
303.15	.1737	1599.5	
303.15	.2204	1597.5	
303.15	.2684	1595.3	
303.15	.3155	1593.3	
303.15	.3619	1591.2	
303.15	.4167	1588.7	
303.15	.4759	1585.9	
303.15	.5282	1583.3	
303.15	.5742	1581	
303.15	.6356	1577.7	
303.15	.6835	1575.1	
303.15	.7381	1572	
303.15	.7892	1568.8	
303.15	.8364	1565.8	
303.15	.8932	1562	
308.15	.0728	1592.6	
308.15	.1143	1590.6	
308.15	.148	1589.1	
308.15	.1737	1587.9	
308.15	.2204	1585.7	
308.15	.2684	1583.5	
308.15	.3155	1581.3	
308.15	.3619	1579.1	
308.15	.4167	1576.6	
308.15	.4759	1573.7	
308.15	.5282	1571.1	
308.15	.5742	1568.8	
308.15	.6356	1565.6	
308.15	.6835	1563	
308.15	.7381	1559.8	
308.15	.7892	1556.8	
308.15	.8364	1553.8	
308.15	.8932	1550	
293.15	1	1578.1	
298.15	1	1565.5	
303.15	1	1554.1	
308.15	1	1542.3	
293.15	0	1631.1	
298.15	0	1619.2	
303.15	0	1607.4	
308.15	0	1596.2	

System: 1-ethyl-3-methylimidazolium tetrafluoroborate + 1-butyl-3-methylimidazolium tetrafluoroborate; phases: Liquid
Fixed: Pressure, kPa = 100
Fixed: Temperature, K = 298.15
Property: Excess molar enthalpy (molar enthalpy of mixing), kJ/mol (Liquid); method: Power-compensation calorimetry
Mole fraction of 1-butyl-3-methylimidazolium tetrafluoroborate	Excess molar enthalpy (molar enthalpy of mixing), kJ/mol	uncertainty
.0714	.00901	
.1234	.0162	
.1781	.024	
.2396	.0329	
.2944	.0396	
.3468	.045	
.3972	.0489	
.4428	.0513	
.4859	.0526	
.5374	.0526	
.5884	.051	
.6291	.0488	
.6724	.0454	
.7172	.0408	
.7639	.0351	
.8109	.0286	
.8642	.0203	
.9077	.0137	

System: 1-ethyl-3-methylimidazolium tetrafluoroborate + 1-butyl-3-methylimidazolium tetrafluoroborate; phases: Liquid
Fixed: Pressure, kPa = 100
Property: Molar heat capacity at constant pressure, J/K/mol (Liquid); method: Small sample (50 mg) scanning calorimetry
Temperature, K	Mole fraction of 1-butyl-3-methylimidazolium tetrafluoroborate	Molar heat capacity at constant pressure, J/K/mol	uncertainty
293.15	.0731	314.45	
293.15	.1164	321.05	
293.15	.1692	328.75	
293.15	.2144	335.06	
293.15	.2672	341.92	
293.15	.3259	348.89	
293.15	.3827	354.65	
293.15	.4365	359.23	
293.15	.4722	361.72	
293.15	.535	365.27	
293.15	.5968	367.7	
293.15	.6379	368.54	
293.15	.6857	369.02	
293.15	.7446	369.21	
293.15	.7732	368.94	
293.15	.8293	368.08	
293.15	.876	367.14	
293.15	.9253	365.44	
298.15	.0731	315.32	
298.15	.1164	322.12	
298.15	.1692	329.72	
298.15	.2144	336	
298.15	.2672	342.87	
298.15	.3259	349.85	
298.15	.3827	355.77	
298.15	.4365	360.56	
298.15	.4722	363.22	
298.15	.535	367.01	
298.15	.5968	369.31	
298.15	.6379	370.31	
298.15	.6857	370.78	
298.15	.7446	371.07	
298.15	.7732	370.9	
298.15	.8293	370.08	
298.15	.876	369.26	
298.15	.9253	367.47	
303.15	.0731	316.58	
303.15	.1164	323.51	
303.15	.1692	330.85	
303.15	.2144	337.17	
303.15	.2672	344.05	
303.15	.3259	351.13	
303.15	.3827	357.13	
303.15	.4365	362.07	
303.15	.4722	364.73	
303.15	.535	368.62	
303.15	.5968	370.93	
303.15	.6379	371.89	
303.15	.6857	372.53	
303.15	.7446	372.68	
303.15	.7732	372.67	
303.15	.8293	371.76	
303.15	.876	371.02	
303.15	.9253	369.72	
308.15	.0731	318.02	
308.15	.1164	324.76	
308.15	.1692	332.16	
308.15	.2144	338.49	
308.15	.2672	345.42	
308.15	.3259	352.54	
308.15	.3827	358.55	
308.15	.4365	363.61	
308.15	.4722	366.24	
308.15	.535	370.2	
308.15	.5968	372.58	
308.15	.6379	373.53	
308.15	.6857	374.23	
308.15	.7446	374.41	
308.15	.7732	374.4	
308.15	.8293	373.59	
308.15	.876	372.8	
308.15	.9253	371.83	
293.15	1	362.35	
298.15	1	365.12	
303.15	1	367.48	
308.15	1	369.88	
293.15	0	303.2	
298.15	0	304.53	
303.15	0	306.29	
308.15	0	308.03	

System: 1-ethyl-3-methylimidazolium tetrafluoroborate + 1-butyl-2,3-dimethylimidazolium tetrafluoroborate; phases: Liquid
Fixed: Pressure, kPa = 100
Property: Mass density, kg/m3 (Liquid); method: Vibrating tube method
Temperature, K	Mole fraction of 1-butyl-2,3-dimethylimidazolium tetrafluoroborate	Mass density, kg/m3	uncertainty
293.15	.0952	1270.9	
293.15	.1386	1265.5	
293.15	.1754	1261.2	
293.15	.2361	1254.5	
293.15	.2819	1249.8	
293.15	.3347	1244.7	
293.15	.3722	1241.3	
293.15	.4192	1237.2	
293.15	.4451	1235.1	
293.15	.4807	1232.2	
293.15	.5327	1228.2	
293.15	.5785	1224.8	
293.15	.6364	1220.6	
293.15	.6729	1218	
293.15	.7342	1213.7	
293.15	.7738	1210.9	
293.15	.8254	1207.2	
293.15	.8739	1203.6	
298.15	.0952	1267.3	
298.15	.1386	1262.1	
298.15	.1754	1257.9	
298.15	.2361	1251.5	
298.15	.2819	1247	
298.15	.3347	1242.1	
298.15	.3722	1238.8	
298.15	.4192	1234.9	
298.15	.4451	1232.8	
298.15	.4807	1230	
298.15	.5327	1226.1	
298.15	.5785	1222.8	
298.15	.6364	1218.7	
298.15	.6729	1216.1	
298.15	.7342	1211.8	
298.15	.7738	1209	
298.15	.8254	1205.4	
298.15	.8739	1201.8	
303.15	.0952	1264.1	
303.15	.1386	1259	
303.15	.1754	1255	
303.15	.2361	1248.7	
303.15	.2819	1244.3	
303.15	.3347	1239.5	
303.15	.3722	1236.3	
303.15	.4192	1232.4	
303.15	.4451	1230.4	
303.15	.4807	1227.7	
303.15	.5327	1223.8	
303.15	.5785	1220.5	
303.15	.6364	1216.4	
303.15	.6729	1213.9	
303.15	.7342	1209.7	
303.15	.7738	1206.9	
303.15	.8254	1203.2	
303.15	.8739	1199.7	
308.15	.0952	1260.5	
308.15	.1386	1255.6	
308.15	.1754	1251.7	
308.15	.2361	1245.7	
308.15	.2819	1241.4	
308.15	.3347	1236.7	
308.15	.3722	1233.6	
308.15	.4192	1229.9	
308.15	.4451	1227.9	
308.15	.4807	1225.2	
308.15	.5327	1221.4	
308.15	.5785	1218.2	
308.15	.6364	1214.2	
308.15	.6729	1211.7	
308.15	.7342	1207.6	
308.15	.7738	1204.9	
308.15	.8254	1201.3	
308.15	.8739	1197.8	
293.15	1	1193.5	
298.15	1	1191.8	
303.15	1	1189.7	
308.15	1	1187.9	
293.15	0	1283.9	
298.15	0	1279.9	
303.15	0	1276.3	
308.15	0	1272.1	

System: 1-ethyl-3-methylimidazolium tetrafluoroborate + 1-butyl-2,3-dimethylimidazolium tetrafluoroborate; phases: Liquid
Fixed: Pressure, kPa = 100
Fixed: Frequency, MHz = 3
Property: Speed of sound, m/s (Liquid); method: Sing-around technique in a fixed-path interferometer
Temperature, K	Mole fraction of 1-butyl-2,3-dimethylimidazolium tetrafluoroborate	Speed of sound, m/s	uncertainty
293.15	.0952	1636.2	
293.15	.1386	1638.2	
293.15	.1754	1639.8	
293.15	.2361	1642.2	
293.15	.2819	1643.8	
293.15	.3347	1645.4	
293.15	.3722	1646.5	
293.15	.4192	1647.7	
293.15	.4451	1648.3	
293.15	.4807	1649.1	
293.15	.5327	1650.2	
293.15	.5785	1651	
293.15	.6364	1652.1	
293.15	.6729	1652.7	
293.15	.7342	1653.8	
293.15	.7738	1654.5	
293.15	.8254	1655.5	
293.15	.8739	1656.5	
298.15	.0952	1624.1	
298.15	.1386	1626	
298.15	.1754	1627.4	
298.15	.2361	1629.6	
298.15	.2819	1631.1	
298.15	.3347	1632.5	
298.15	.3722	1633.5	
298.15	.4192	1634.6	
298.15	.4451	1635.1	
298.15	.4807	1635.8	
298.15	.5327	1636.8	
298.15	.5785	1637.6	
298.15	.6364	1638.5	
298.15	.6729	1639.1	
298.15	.7342	1640.1	
298.15	.7738	1640.8	
298.15	.8254	1641.7	
298.15	.8739	1642.7	
303.15	.0952	1611.9	
303.15	.1386	1613.7	
303.15	.1754	1615.1	
303.15	.2361	1617.2	
303.15	.2819	1618.5	
303.15	.3347	1619.9	
303.15	.3722	1620.8	
303.15	.4192	1621.8	
303.15	.4451	1622.4	
303.15	.4807	1623	
303.15	.5327	1623.9	
303.15	.5785	1624.7	
303.15	.6364	1625.6	
303.15	.6729	1626.1	
303.15	.7342	1627.1	
303.15	.7738	1627.7	
303.15	.8254	1628.6	
303.15	.8739	1629.5	
308.15	.0952	1600.4	
308.15	.1386	1602.1	
308.15	.1754	1603.4	
308.15	.2361	1605.3	
308.15	.2819	1606.6	
308.15	.3347	1607.9	
308.15	.3722	1608.7	
308.15	.4192	1609.7	
308.15	.4451	1610.2	
308.15	.4807	1610.8	
308.15	.5327	1611.7	
308.15	.5785	1612.4	
308.15	.6364	1613.2	
308.15	.6729	1613.7	
308.15	.7342	1614.6	
308.15	.7738	1615.2	
308.15	.8254	1616.1	
308.15	.8739	1616.9	
293.15	1	1659.7	
298.15	1	1645.7	
303.15	1	1632.5	
308.15	1	1619.8	
293.15	0	1631.1	
298.15	0	1619.2	
303.15	0	1607.4	
308.15	0	1596.2	

System: 1-ethyl-3-methylimidazolium tetrafluoroborate + 1-butyl-2,3-dimethylimidazolium tetrafluoroborate; phases: Liquid
Fixed: Pressure, kPa = 100
Fixed: Temperature, K = 298.15
Property: Excess molar enthalpy (molar enthalpy of mixing), kJ/mol (Liquid); method: Power-compensation calorimetry
Mole fraction of 1-butyl-2,3-dimethylimidazolium tetrafluoroborate	Excess molar enthalpy (molar enthalpy of mixing), kJ/mol	uncertainty
.0907	-.266	
.1357	-.333	
.1849	-.368	
.2377	-.358	
.2839	-.319	
.3341	-.248	
.3729	-.183	
.4351	-.058	
.4972	.077	
.5483	.189	
.5967	.286	
.6417	.37	
.6978	.441	
.7424	.476	
.7909	.488	
.8345	.458	
.8758	.401	
.9035	.347	

System: 1-ethyl-3-methylimidazolium tetrafluoroborate + 1-butyl-2,3-dimethylimidazolium tetrafluoroborate; phases: Liquid
Fixed: Pressure, kPa = 100
Property: Molar heat capacity at constant pressure, J/K/mol (Liquid); method: Small sample (50 mg) scanning calorimetry
Temperature, K	Mole fraction of 1-butyl-2,3-dimethylimidazolium tetrafluoroborate	Molar heat capacity at constant pressure, J/K/mol	uncertainty
293.15	.1129	319.45	
293.15	.1657	325.94	
293.15	.2189	331.85	
293.15	.2743	337.42	
293.15	.3272	342.26	
293.15	.3729	346.15	
293.15	.4382	351.36	
293.15	.4917	355.44	
293.15	.5242	357.91	
293.15	.5687	361.32	
293.15	.6042	364.11	
293.15	.6468	367.63	
293.15	.6931	371.7	
293.15	.7244	374.62	
293.15	.785	380.94	
293.15	.8149	384.44	
293.15	.8633	390.63	
293.15	.9107	397.48	
298.15	.1129	321.79	
298.15	.1657	328.52	
298.15	.2189	334.58	
298.15	.2743	340.23	
298.15	.3272	345.15	
298.15	.3729	349.09	
298.15	.4382	354.4	
298.15	.4917	358.6	
298.15	.5242	361.14	
298.15	.5687	364.66	
298.15	.6042	367.55	
298.15	.6468	371.19	
298.15	.6931	375.37	
298.15	.7244	378.4	
298.15	.785	384.83	
298.15	.8149	388.32	
298.15	.8633	394.43	
298.15	.9107	401.14	
303.15	.1129	324.44	
303.15	.1657	331.39	
303.15	.2189	337.61	
303.15	.2743	343.39	
303.15	.3272	348.38	
303.15	.3729	352.37	
303.15	.4382	357.74	
303.15	.4917	362.01	
303.15	.5242	364.6	
303.15	.5687	368.19	
303.15	.6042	371.14	
303.15	.6468	374.82	
303.15	.6931	379.1	
303.15	.7244	382.14	
303.15	.785	388.57	
303.15	.8149	392.05	
303.15	.8633	398.1	
303.15	.9107	404.65	
308.15	.1129	327.05	
308.15	.1657	334.26	
308.15	.2189	340.64	
308.15	.2743	346.51	
308.15	.3272	351.58	
308.15	.3729	355.65	
308.15	.4382	361.09	
308.15	.4917	365.39	
308.15	.5242	368.01	
308.15	.5687	371.64	
308.15	.6042	374.62	
308.15	.6468	378.34	
308.15	.6931	382.63	
308.15	.7244	385.71	
308.15	.785	392.14	
308.15	.8149	395.57	
308.15	.8633	401.56	
308.15	.9107	407.96	
293.15	1	413.03	
298.15	1	416.01	
303.15	1	418.84	
308.15	1	421.7	
293.15	0	303.2	
298.15	0	304.53	
303.15	0	306.29	
308.15	0	308.03	
