Measured thermophysical data. Liquid-liquid equilibrium for ternary systems of ethyl acetate/isopropyl acetate + 2,2,3,3-tetrafluoro-1-propanol + water at 298.15, 318.15 K
Source: J. Chem. Thermodyn., 2017, 10.1016/j.jct.2016.12.006
Compound 1: 2,2,3,3-tetrafluoro-1-propanol, C3H4F4O, purity 99.9%
Compound 2: ethyl acetate, C4H8O2, purity 99.5%
Compound 3: isopropyl acetate, C5H10O2, purity 99%
Compound 4: water, H2O, purity 99.8%

System: 2,2,3,3-tetrafluoro-1-propanol; phases: Liquid
Fixed: Pressure, kPa = 101.325
Property: Refractive index (Na D-line) (Liquid); method: Standard Abbe refractometry
Temperature, K	Refractive index (Na D-line)	uncertainty
303.15	1.3196	.002

System: ethyl acetate; phases: Liquid
Fixed: Pressure, kPa = 101.325
Property: Refractive index (Na D-line) (Liquid); method: Standard Abbe refractometry
Temperature, K	Refractive index (Na D-line)	uncertainty
303.15	1.3675	.002

System: isopropyl acetate; phases: Liquid
Fixed: Pressure, kPa = 101.325
Property: Refractive index (Na D-line) (Liquid); method: Standard Abbe refractometry
Temperature, K	Refractive index (Na D-line)	uncertainty
303.15	1.3701	.002

System: 2,2,3,3-tetrafluoro-1-propanol + ethyl acetate + water; phases: Liquid mixture 2, Liquid mixture 1
Fixed: Pressure, kPa = 101.3
Property: Mole fraction of ethyl acetate (Liquid mixture 2); method: Chromatography
Property: Mole fraction of ethyl acetate (Liquid mixture 1); method: Chromatography
Property: Mole fraction of 2,2,3,3-tetrafluoro-1-propanol (Liquid mixture 1); method: Chromatography
Temperature, K	Mole fraction of 2,2,3,3-tetrafluoro-1-propanol	Mole fraction of ethyl acetate	uncertainty	Mole fraction of ethyl acetate	uncertainty	Mole fraction of 2,2,3,3-tetrafluoro-1-propanol	uncertainty
298.15	.0237	.0023	.0006	.1501	.01	.3612	.0002
298.15	.0009	.0087	.0006	.7139	.01	.0877	.0002
298.15	.0009	.0095	.0006	.7286	.01	.0746	.0002
318.15	.0234	.0026	.0006	.1457	.01	.3425	.0002
318.15	.0007	.0093	.0006	.6989	.01	.0715	.0002
318.15	.0004	.0097	.0006	.724	.01	.0524	.0002
318.15	0	.0117	.0006	.7946	.01	0	.0002
318.15	.0172	.0033	.0006	.2206	.01	.3427	.0002
318.15	.0117	.0044	.0006	.292	.01	.3197	.0002
318.15	.0073	.0052	.0006	.3742	.01	.2835	.0002
318.15	.0055	.0054	.0006	.4371	.01	.2512	.0002
298.15	.0004	.0097	.0006	.7608	.01	.0464	.0002
318.15	.0046	.0065	.0006	.4843	.01	.2239	.0002
318.15	.0015	.0073	.0006	.6243	.01	.1292	.0002
318.15	.0009	.0078	.0006	.6805	.01	.0868	.0002
298.15	0	.0139	.0006	.8285	.01	0	.0002
298.15	.016	.0034	.0006	.2326	.01	.3632	.0002
298.15	.0105	.0036	.0006	.3127	.01	.3355	.0002
298.15	.0074	.004	.0006	.3839	.01	.2989	.0002
298.15	.0056	.0053	.0006	.4426	.01	.2646	.0002
298.15	.0037	.0066	.0006	.4867	.01	.2378	.0002
298.15	.0016	.0076	.0006	.6619	.01	.1248	.0002

System: 2,2,3,3-tetrafluoro-1-propanol + isopropyl acetate + water; phases: Liquid mixture 2, Liquid mixture 1
Fixed: Pressure, kPa = 101.3
Property: Mole fraction of isopropyl acetate (Liquid mixture 2); method: Chromatography
Property: Mole fraction of isopropyl acetate (Liquid mixture 1); method: Chromatography
Property: Mole fraction of 2,2,3,3-tetrafluoro-1-propanol (Liquid mixture 1); method: Chromatography
Temperature, K	Mole fraction of 2,2,3,3-tetrafluoro-1-propanol	Mole fraction of isopropyl acetate	uncertainty	Mole fraction of isopropyl acetate	uncertainty	Mole fraction of 2,2,3,3-tetrafluoro-1-propanol	uncertainty
298.15	.0378	.0006	.0006	.0849	.01	.3363	.0002
318.15	.0105	.0018	.0006	.3296	.01	.3346	.0002
318.15	.0082	.0021	.0006	.3752	.01	.3146	.0002
318.15	.0064	.0023	.0006	.4899	.01	.2472	.0002
318.15	0	.0042	.0006	.8623	.01	0	.0002
318.15	.0183	.0012	.0006	.2063	.01	.3532	.0002
318.15	.0203	.0011	.0006	.1495	.01	.3327	.0002
298.15	.0228	.0007	.0006	.1636	.01	.3701	.0002
298.15	.0173	.0009	.0006	.2179	.01	.3784	.0002
298.15	.0152	.001	.0006	.2534	.01	.3744	.0002
298.15	.011	.0014	.0006	.3114	.01	.3601	.0002
298.15	.0084	.0016	.0006	.3753	.01	.3409	.0002
298.15	.006	.0019	.0006	.5179	.01	.2659	.0002
298.15	0	.0064	.0006	.8792	.01	0	.0002
318.15	.0155	.0016	.0006	.262	.01	.3465	.0002

System: ethyl acetate + water; phases: Liquid mixture 2, Liquid mixture 1
Property: Mole fraction of ethyl acetate (Liquid mixture 2); method: Chromatography
Temperature, K	Pressure, kPa	Mole fraction of ethyl acetate	uncertainty
298.15	101.3	.0139	
318.15	101.3	.0117	

System: ethyl acetate + water; phases: Liquid mixture 1, Liquid mixture 2
Property: Mole fraction of ethyl acetate (Liquid mixture 1); method: Chromatography
Temperature, K	Pressure, kPa	Mole fraction of ethyl acetate	uncertainty
298.15	101.3	.8285	
318.15	101.3	.7946	

System: isopropyl acetate + water; phases: Liquid mixture 2, Liquid mixture 1
Property: Mole fraction of isopropyl acetate (Liquid mixture 2); method: Chromatography
Temperature, K	Pressure, kPa	Mole fraction of isopropyl acetate	uncertainty
318.15	101.3	.0042	
298.15	101.3	.0064	

System: isopropyl acetate + water; phases: Liquid mixture 1, Liquid mixture 2
Property: Mole fraction of isopropyl acetate (Liquid mixture 1); method: Chromatography
Temperature, K	Pressure, kPa	Mole fraction of isopropyl acetate	uncertainty
318.15	101.3	.8623	
298.15	101.3	.8792	
