Measured thermophysical data. High pressure solid solid and solid liquid transition data for long chain alkanes
Source: J. Chem. Thermodyn., 2008, 10.1016/j.jct.2008.07.017
Compound 1: eicosane, C20H42, purity 99%
Compound 2: tetracosane, C24H50, purity 99%
Compound 3: triacontane, C30H62, purity 99%
Compound 4: tetracontane, C40H82, purity 99%

System: eicosane; phases: Crystal, Liquid
Property: Solid-liquid equilibrium temperature, K (Crystal); method: DSC/DTA
Pressure, kPa	Solid-liquid equilibrium temperature, K	uncertainty
33520	318.15	.1
55080	323.15	.1
76800	328.15	.1
99090	333.15	.1
150000	344.91	.1

System: tetracosane; phases: Crystal 2, Crystal 1, Liquid
Property: Triple point pressure, kPa (Crystal 2); method: Other
Triple point pressure, kPa	uncertainty
67180	4

System: tetracosane; phases: Crystal 2, Crystal 1, Liquid
Property: Triple point temperature, K (Crystal 2); method: DSC/DTA
Triple point temperature, K	uncertainty
339.59	.1

System: tetracosane; phases: Crystal 2, Crystal 1
Property: Solid-liquid equilibrium temperature, K (Crystal 2); method: DSC/DTA
Pressure, kPa	Solid-liquid equilibrium temperature, K	uncertainty
10000	324.24	.1
25000	328.4	.1
40000	332.37	.1
50000	334.94	.1

System: tetracosane; phases: Crystal 1, Liquid
Property: Solid-liquid equilibrium temperature, K (Crystal 1); method: DSC/DTA
Pressure, kPa	Solid-liquid equilibrium temperature, K	uncertainty
10000	326.74	.1
25000	330.4	.1
40000	333.86	.1
50000	336.12	.1
100000	346.93	.1
125000	352.26	.1
150000	357.28	.1

System: triacontane; phases: Crystal 2, Crystal 1, Liquid
Property: Triple point pressure, kPa (Crystal 2); method: Other
Triple point pressure, kPa	uncertainty
94110	4

System: triacontane; phases: Crystal 2, Crystal 1, Liquid
Property: Triple point temperature, K (Crystal 2); method: DSC/DTA
Triple point temperature, K	uncertainty
361.27	.1

System: triacontane; phases: Crystal 2, Crystal 1
Property: Solid-liquid equilibrium temperature, K (Crystal 2); method: DSC/DTA
Pressure, kPa	Solid-liquid equilibrium temperature, K	uncertainty
10000	338.9	.1
25000	343.03	.1
50000	349.8	.1
75000	356.07	.1

System: triacontane; phases: Crystal 1, Liquid
Property: Solid-liquid equilibrium temperature, K (Crystal 1); method: DSC/DTA
Pressure, kPa	Solid-liquid equilibrium temperature, K	uncertainty
10000	341.68	.1
25000	345.34	.1
50000	351.45	.1
75000	357	.1
100000	362.54	.1
125000	367.76	.1
150000	372.97	.1

System: tetracontane; phases: Crystal 2, Crystal 1, Liquid
Property: Triple point pressure, kPa (Crystal 2); method: Other
Triple point pressure, kPa	uncertainty
88820	4

System: tetracontane; phases: Crystal 2, Crystal 1, Liquid
Property: Triple point temperature, K (Crystal 2); method: DSC/DTA
Triple point temperature, K	uncertainty
376.03	.1

System: tetracontane; phases: Crystal 2, Crystal 1
Property: Solid-liquid equilibrium temperature, K (Crystal 2); method: DSC/DTA
Pressure, kPa	Solid-liquid equilibrium temperature, K	uncertainty
10000	351.37	.1
48436	363.15	.1
50000	364.54	.1
73917	371.15	.1

System: tetracontane; phases: Crystal 1, Liquid
Property: Solid-liquid equilibrium temperature, K (Crystal 1); method: DSC/DTA
Pressure, kPa	Solid-liquid equilibrium temperature, K	uncertainty
10000	357.34	.1
35758	363.15	.1
50000	367.26	.1
68114	371.15	.1
90000	376.58	.1
112740	381.15	.1
130000	385.22	.1
