Measured thermophysical data. Apparent molar volumes and compressibilities of lanthanum, gadolinium and  lutetium trifluoromethanesulfonates in dimethylsulfoxide
Source: J. Chem. Thermodyn., 2012, 10.1016/j.jct.2012.06.020
Compound 1: dimethyl sulphoxide, C2H6OS, purity 98%
Compound 2: gadolinium trifluoromethanesulfonate, C3H3F9O9S3Gd, purity 98%
Compound 3: lanthanum trifluoromethanesulfonate, C3H3F9O9S3La, purity 98%
Compound 4: lutetium trifluoromethanesulfonate, C3H3F9O9S3Lu, purity 98%

System: dimethyl sulphoxide; phases: Liquid
Fixed: Pressure, kPa = 101.325
Property: Mass density, kg/m3 (Liquid); method: Vibrating tube method
Temperature, K	Mass density, kg/m3	uncertainty
293.15	1100.218	.05
298.15	1095.188	.05
303.15	1090.162	.05
313.15	1080.116	.05
323.15	1070.072	.05
333.15	1060.034	.05

System: dimethyl sulphoxide + lanthanum trifluoromethanesulfonate; phases: Liquid
Fixed: Pressure, kPa = 101
Property: Mass density, kg/m3 (Liquid); method: Vibrating tube method
Temperature, K	Molality, mol/kg of lanthanum trifluoromethanesulfonate	Mass density, kg/m3	uncertainty
293.15	.01831	1107.629	.05
293.15	.0248	1110.279	.05
293.15	.03536	1114.615	.05
293.15	.04296	1117.75	.05
293.15	.05181	1121.433	.05
293.15	.0646	1126.782	.05
293.15	.08309	1134.615	.05
293.15	.1003	1141.996	.05
293.15	.1156	1148.663	.05
293.15	.1362	1157.701	.05
293.15	.1528	1165.116	.05
298.15	.01831	1102.609	.05
298.15	.0248	1105.256	.05
298.15	.03536	1109.595	.05
298.15	.04296	1112.736	.05
298.15	.05181	1116.42	.05
298.15	.0646	1121.772	.05
298.15	.08309	1129.614	.05
298.15	.1003	1136.988	.05
298.15	.1156	1143.664	.05
298.15	.1362	1152.711	.05
298.15	.1528	1160.134	.05
303.15	.01831	1097.592	.05
303.15	.0248	1100.242	.05
303.15	.03536	1104.585	.05
303.15	.04296	1107.726	.05
303.15	.05181	1111.412	.05
303.15	.0646	1116.769	.05
303.15	.08309	1124.617	.05
303.15	.1003	1131.998	.05
303.15	.1156	1138.678	.05
303.15	.1362	1147.728	.05
303.15	.1528	1155.153	.05
313.15	.01831	1087.566	.05
313.15	.0248	1090.219	.05
313.15	.03536	1094.577	.05
313.15	.04296	1097.726	.05
313.15	.05181	1101.409	.05
313.15	.0646	1106.775	.05
313.15	.08309	1114.637	.05
313.15	.1003	1122.041	.05
313.15	.1156	1128.723	.05
313.15	.1362	1137.794	.05
313.15	.1528	1145.244	.05
323.15	.01831	1077.545	.05
323.15	.0248	1080.212	.05
323.15	.03536	1084.577	.05
323.15	.04296	1087.732	.05
323.15	.05181	1091.426	.05
323.15	.0646	1096.805	.05
323.15	.08309	1104.684	.05
323.15	.1003	1112.095	.05
323.15	.1156	1118.802	.05
323.15	.1362	1127.881	.05
323.15	.1528	1135.351	.05
333.15	.01831	1067.52	.05
333.15	.0248	1070.194	.05
333.15	.03536	1074.57	.05
333.15	.04296	1077.738	.05
333.15	.05181	1081.442	.05
333.15	.0646	1086.835	.05
333.15	.08309	1094.741	.05
333.15	.1003	1102.165	.05
333.15	.1156	1108.898	.05
333.15	.1362	1117.995	.05
333.15	.1528	1125.487	.05

System: dimethyl sulphoxide + lanthanum trifluoromethanesulfonate; phases: Liquid
Fixed: Pressure, kPa = 101
Fixed: Temperature, K = 298.15
Property: Speed of sound, m/s (Liquid); method: OPTIME 1.0 from OPTEL
Molality, mol/kg of lanthanum trifluoromethanesulfonate	Speed of sound, m/s	uncertainty
.01831	1482.32	.01
.0248	1481.68	.01
.03536	1480.65	.01
.04296	1479.9	.01
.05181	1479.02	.01
.0646	1477.8	.01
.08309	1475.95	.01
.1003	1474.31	.01
.1156	1472.86	.01
.1362	1470.85	.01
.1528	1469.26	.01

System: dimethyl sulphoxide + gadolinium trifluoromethanesulfonate; phases: Liquid
Fixed: Pressure, kPa = 101
Property: Mass density, kg/m3 (Liquid); method: Vibrating tube method
Temperature, K	Molality, mol/kg of gadolinium trifluoromethanesulfonate	Mass density, kg/m3	uncertainty
293.15	.01963	1108.73	.05
293.15	.02663	1111.789	.05
293.15	.03818	1116.881	.05
293.15	.04655	1120.602	.05
293.15	.05549	1124.596	.05
293.15	.06913	1130.745	.05
293.15	.08877	1139.719	.05
293.15	.1071	1148.203	.05
293.15	.124	1156.162	.05
293.15	.1457	1166.525	.05
293.15	.1629	1174.879	.05
298.15	.01963	1103.711	.05
298.15	.02663	1106.778	.05
298.15	.03818	1111.875	.05
298.15	.04655	1115.599	.05
298.15	.05549	1119.597	.05
298.15	.06913	1125.751	.05
298.15	.08877	1134.736	.05
298.15	.1071	1143.231	.05
298.15	.124	1151.202	.05
298.15	.1457	1161.569	.05
298.15	.1629	1169.933	.05
303.15	.01963	1098.697	.05
303.15	.02663	1101.767	.05
303.15	.03818	1106.871	.05
303.15	.04655	1110.597	.05
303.15	.05549	1114.603	.05
303.15	.06913	1120.763	.05
303.15	.08877	1129.758	.05
303.15	.1071	1138.261	.05
303.15	.124	1146.244	.05
303.15	.1457	1156.621	.05
303.15	.1629	1164.996	.05
313.15	.01963	1088.675	.05
313.15	.02663	1091.752	.05
313.15	.03818	1096.87	.05
313.15	.04655	1100.607	.05
313.15	.05549	1104.623	.05
313.15	.06913	1110.799	.05
313.15	.08877	1119.815	.05
313.15	.1071	1128.338	.05
313.15	.124	1136.342	.05
313.15	.1457	1146.747	.05
313.15	.1629	1155.143	.05
323.15	.01963	1078.66	.05
323.15	.02663	1081.746	.05
323.15	.03818	1086.877	.05
323.15	.04655	1090.63	.05
323.15	.05549	1094.651	.05
323.15	.06913	1100.844	.05
323.15	.08877	1109.886	.05
323.15	.1071	1118.429	.05
323.15	.124	1126.449	.05
323.15	.1457	1136.882	.05
323.15	.1629	1145.31	.05
333.15	.01963	1068.644	.05
333.15	.02663	1071.74	.05
333.15	.03818	1076.886	.05
333.15	.04655	1080.642	.05
333.15	.05549	1084.682	.05
333.15	.06913	1090.888	.05
333.15	.08877	1099.958	.05
333.15	.1071	1108.523	.05
333.15	.124	1116.578	.05
333.15	.1457	1127.038	.05
333.15	.1629	1135.478	.05

System: dimethyl sulphoxide + gadolinium trifluoromethanesulfonate; phases: Liquid
Fixed: Pressure, kPa = 101
Fixed: Temperature, K = 298.15
Property: Speed of sound, m/s (Liquid); method: OPTIME 1.0 from OPTEL
Molality, mol/kg of gadolinium trifluoromethanesulfonate	Speed of sound, m/s	uncertainty
.01963	1481.79	.01
.02663	1480.95	.01
.03818	1479.56	.01
.04655	1478.56	.01
.05549	1477.5	.01
.06913	1475.93	.01
.08877	1473.58	.01
.1071	1471.46	.01
.124	1469.44	.01
.1457	1466.95	.01
.1629	1464.96	.01

System: dimethyl sulphoxide + lutetium trifluoromethanesulfonate; phases: Liquid
Fixed: Pressure, kPa = 101
Property: Mass density, kg/m3 (Liquid); method: Vibrating tube method
Temperature, K	Molality, mol/kg of lutetium trifluoromethanesulfonate	Mass density, kg/m3	uncertainty
293.15	.01878	1108.654	.05
293.15	.02625	1112.04	.05
293.15	.03372	1115.445	.05
293.15	.04075	1118.666	.05
293.15	.05063	1123.229	.05
293.15	.06739	1131.052	.05
293.15	.0825	1138.19	.05
293.15	.09757	1145.407	.05
293.15	.1139	1153.314	.05
293.15	.1294	1160.927	.05
293.15	.145	1168.669	.05
293.15	.1599	1176.199	.05
298.15	.01878	1103.625	.05
298.15	.02625	1107.015	.05
298.15	.03372	1110.418	.05
298.15	.04075	1113.636	.05
298.15	.05063	1118.201	.05
298.15	.06739	1126.026	.05
298.15	.0825	1133.167	.05
298.15	.09757	1140.381	.05
298.15	.1139	1148.283	.05
298.15	.1294	1155.896	.05
298.15	.145	1163.639	.05
298.15	.1599	1171.158	.05
303.15	.01878	1098.604	.05
303.15	.02625	1101.993	.05
303.15	.03372	1105.393	.05
303.15	.04075	1108.616	.05
303.15	.05063	1113.175	.05
303.15	.06739	1121	.05
303.15	.0825	1128.139	.05
303.15	.09757	1135.355	.05
303.15	.1139	1143.255	.05
303.15	.1294	1150.865	.05
303.15	.145	1158.61	.05
303.15	.1599	1166.127	.05
313.15	.01878	1088.566	.05
313.15	.02625	1091.955	.05
313.15	.03372	1095.36	.05
313.15	.04075	1098.578	.05
313.15	.05063	1103.143	.05
313.15	.06739	1110.966	.05
313.15	.0825	1118.094	.05
313.15	.09757	1125.309	.05
313.15	.1139	1133.205	.05
313.15	.1294	1140.811	.05
313.15	.145	1148.56	.05
313.15	.1599	1156.074	.05
323.15	.01878	1078.525	.05
323.15	.02625	1081.913	.05
323.15	.03372	1085.32	.05
323.15	.04075	1088.54	.05
323.15	.05063	1093.105	.05
323.15	.06739	1100.937	.05
323.15	.0825	1108.049	.05
323.15	.09757	1115.268	.05
323.15	.1139	1123.169	.05
323.15	.1294	1130.766	.05
323.15	.145	1138.519	.05
323.15	.1599	1146.037	.05
333.15	.01878	1068.488	.05
333.15	.02625	1071.876	.05
333.15	.03372	1075.284	.05
333.15	.04075	1078.505	.05
333.15	.05063	1083.073	.05
333.15	.06739	1090.907	.05
333.15	.0825	1098.05	.05
333.15	.09757	1105.25	.05
333.15	.1139	1113.142	.05
333.15	.1294	1120.745	.05
333.15	.145	1128.496	.05
333.15	.1599	1136.01	.05

System: dimethyl sulphoxide + lutetium trifluoromethanesulfonate; phases: Liquid
Fixed: Pressure, kPa = 101
Fixed: Temperature, K = 298.15
Property: Speed of sound, m/s (Liquid); method: OPTIME 1.0 from OPTEL
Molality, mol/kg of lutetium trifluoromethanesulfonate	Speed of sound, m/s	uncertainty
.03373	1479.78	.01
.04075	1478.88	.01
.05063	1477.62	.01
.06739	1475.48	.01
.0825	1473.59	.01
.09757	1471.65	.01
.1139	1469.62	.01
.1294	1467.6	.01
.145	1465.68	.01
.1599	1463.89	.01
