Measured thermophysical data. (Vapor + liquid) equilibria of binary mixtures containing light alcohols and ionic liquids
Source: J. Chem. Thermodyn., 2010, 10.1016/j.jct.2009.07.009
Compound 1: methanol, CH4O
Compound 2: ethanol, C2H6O
Compound 3: 1-butyl-3-methylimidazolium tetrafluoroborate, C8H15BF4N2
Compound 4: 1-butyl-3-methylimidazolium acetate, C10H18N2O2
Compound 5: 1-butyl-3-methylimidazolium hydrogensulfate, C8H16N2O4S

System: methanol + 1-butyl-3-methylimidazolium tetrafluoroborate; phases: Liquid, Gas
Property: Mole fraction of methanol (Liquid); method: Synthetic method
Temperature, K	Pressure, kPa	Mole fraction of methanol	uncertainty
283.15	.93	.093	.001
283.15	2.1	.196	.001
283.15	3.4	.308	.001
283.15	4.47	.408	.001
283.15	5.4	.504	.001
283.15	6.18	.604	.001
283.15	6.82	.701	.001
283.15	7.21	.799	.001
283.15	7.3	.901	.001
283.15	7.4	1	.001
288.15	1.18	.093	.001
288.15	2.7	.196	.001
288.15	4.3	.308	.001
288.15	5.6	.408	.001
288.15	6.72	.504	.001
288.15	7.68	.604	.001
288.15	8.45	.701	.001
288.15	9.05	.799	.001
288.15	9.55	.901	.001
288.15	9.85	1	.001
293.15	1.5	.093	.001
293.15	3.4	.196	.001
293.15	5.44	.308	.001
293.15	7.1	.408	.001
293.15	8.51	.504	.001
293.15	9.8	.604	.001
293.15	10.8	.701	.001
293.15	11.63	.799	.001
293.15	12.26	.901	.001
293.15	12.99	1	.001

System: methanol + 1-butyl-3-methylimidazolium tetrafluoroborate; phases: Liquid
Fixed: Mole fraction of methanol = 0
Fixed: Temperature, K = 298.15
Property: Activity coefficient of methanol (Liquid); method: Estimated from the VLE measurements
Pressure, kPa	Activity coefficient of methanol	uncertainty
101.325	1.17	.0585

System: methanol + 1-butyl-3-methylimidazolium acetate; phases: Liquid, Gas
Property: Mole fraction of methanol (Liquid); method: Synthetic method
Temperature, K	Pressure, kPa	Mole fraction of methanol	uncertainty
283.15	.59	.5	.001
283.15	1.03	.6	.001
283.15	1.86	.702	.001
283.15	3.33	.8	.001
283.15	5.87	.9	.001
283.15	7.4	1	.001
288.15	.73	.5	.001
288.15	1.23	.6	.001
288.15	2.16	.702	.001
288.15	4.02	.8	.001
288.15	7.3	.9	.001
288.15	9.85	1	.001
293.15	.94	.5	.001
293.15	1.52	.6	.001
293.15	2.57	.702	.001
293.15	5	.8	.001
293.15	9.51	.9	.001
293.15	12.99	1	.001
298.15	1.07	.5	.001
298.15	1.68	.6	.001
298.15	3.06	.702	.001
298.15	6.33	.8	.001
298.15	12.04	.9	.001
298.15	16.93	1	.001

System: methanol + 1-butyl-3-methylimidazolium hydrogensulfate; phases: Liquid, Gas
Property: Mole fraction of methanol (Liquid); method: Synthetic method
Temperature, K	Pressure, kPa	Mole fraction of methanol	uncertainty
283.15	.45	.099	.001
283.15	.5	.111	.001
283.15	1.1	.199	.001
283.15	1.2	.228	.001
283.15	1.65	.3	.001
283.15	2.3	.4	.001
283.15	2.72	.477	.001
283.15	2.92	.504	.001
283.15	4	.664	.001
283.15	4.69	.709	.001
283.15	5.43	.808	.001
283.15	6.7	.91	.001
283.15	7.4	1	.001
288.15	.54	.099	.001
288.15	.6	.111	.001
288.15	1.2	.199	.001
288.15	1.55	.228	.001
288.15	1.91	.3	.001
288.15	2.81	.4	.001
288.15	3.38	.477	.001
288.15	3.8	.504	.001
288.15	5.33	.664	.001
288.15	5.99	.709	.001
288.15	6.9	.808	.001
288.15	8.61	.91	.001
288.15	9.85	1	.001
293.15	.58	.099	.001
293.15	.71	.111	.001
293.15	1.45	.199	.001
293.15	1.71	.228	.001
293.15	2.21	.3	.001
293.15	3.29	.4	.001
293.15	3.97	.477	.001
293.15	4.42	.504	.001
293.15	6.95	.664	.001
293.15	7.5	.709	.001
293.15	9.25	.808	.001
293.15	11.28	.91	.001
293.15	12.99	1	.001
298.15	.67	.099	.001
298.15	.81	.111	.001
298.15	1.54	.199	.001
298.15	1.93	.228	.001
298.15	2.49	.3	.001
298.15	4.01	.4	.001
298.15	4.96	.477	.001
298.15	5.67	.504	.001
298.15	8.54	.664	.001
298.15	9.57	.709	.001
298.15	11.83	.808	.001
298.15	14.46	.91	.001
298.15	16.93	1	.001

System: ethanol + 1-butyl-3-methylimidazolium tetrafluoroborate; phases: Liquid, Gas
Property: Mole fraction of ethanol (Liquid); method: Synthetic method
Temperature, K	Pressure, kPa	Mole fraction of ethanol	uncertainty
283.15	.83	.099	.001
283.15	1.88	.208	.001
283.15	2.36	.3	.001
283.15	2.7	.397	.001
283.15	3.2	.504	.001
283.15	3.35	.597	.001
283.15	3.45	.701	.001
288.15	1.05	.099	.001
288.15	2.03	.208	.001
288.15	2.8	.3	.001
288.15	3.4	.397	.001
288.15	3.86	.504	.001
288.15	4	.597	.001
288.15	4.08	.701	.001
288.15	4.12	.801	.001
288.15	4.21	.901	.001
293.15	1.37	.099	.001
293.15	2.6	.208	.001
293.15	3.5	.3	.001
293.15	4.31	.397	.001
293.15	4.95	.504	.001
293.15	5.21	.597	.001
293.15	5.42	.701	.001
293.15	5.55	.801	.001
293.15	5.69	.901	.001
298.15	1.7	.099	.001
298.15	3.27	.208	.001
298.15	4.46	.3	.001
298.15	5.57	.397	.001
298.15	6.2	.504	.001
298.15	6.71	.597	.001
298.15	7.1	.701	.001
298.15	7.4	.801	.001
298.15	7.6	.901	.001

System: ethanol + 1-butyl-3-methylimidazolium tetrafluoroborate; phases: Liquid
Fixed: Mole fraction of ethanol = 0
Fixed: Temperature, K = 298.15
Property: Activity coefficient of ethanol (Liquid); method: Estimated from the VLE measurements
Pressure, kPa	Activity coefficient of ethanol	uncertainty
101.325	2.18	.109

System: ethanol + 1-butyl-3-methylimidazolium acetate; phases: Liquid, Gas
Property: Mole fraction of ethanol (Liquid); method: Synthetic method
Temperature, K	Pressure, kPa	Mole fraction of ethanol	uncertainty
283.15	1.25	.323	.001
283.15	1.55	.393	.001
283.15	2.09	.499	.001
283.15	2.48	.599	.001
283.15	2.76	.7	.001
283.15	2.91	.8	.001
283.15	3.12	1	.001
288.15	.45	.098	.001
288.15	.95	.2	.001
288.15	1.04	.217	.001
288.15	1.56	.323	.001
288.15	1.89	.393	.001
288.15	2.47	.499	.001
288.15	3.06	.599	.001
288.15	3.52	.7	.001
288.15	3.85	.8	.001
288.15	4.35	1	.001
293.15	.55	.098	.001
293.15	1.14	.2	.001
293.15	1.26	.217	.001
293.15	1.93	.323	.001
293.15	2.38	.393	.001
293.15	3.05	.499	.001
293.15	3.81	.599	.001
293.15	4.39	.7	.001
293.15	4.94	.8	.001
293.15	5.86	1	.001
298.15	.65	.098	.001
298.15	1.49	.2	.001
298.15	1.48	.217	.001
298.15	2.46	.323	.001
298.15	3.05	.393	.001
298.15	3.99	.499	.001
298.15	5	.599	.001
298.15	5.73	.7	.001
298.15	6.57	.8	.001
298.15	7.87	1	.001

System: ethanol + 1-butyl-3-methylimidazolium hydrogensulfate; phases: Liquid, Gas
Property: Mole fraction of ethanol (Liquid); method: Synthetic method
Temperature, K	Pressure, kPa	Mole fraction of ethanol	uncertainty
283.15	.69	.499	.001
283.15	.7	.502	.001
283.15	1.08	.599	.001
283.15	1.36	.7	.001
283.15	1.52	.701	.001
283.15	2.05	.8	.001
283.15	2.6	.9	.001
283.15	3.12	1	.001
288.15	.65	.2	.001
288.15	.74	.218	.001
288.15	1.26	.323	.001
288.15	1.59	.393	.001
288.15	2.17	.499	.001
288.15	2.14	.502	.001
288.15	2.76	.599	.001
288.15	3.22	.7	.001
288.15	3.14	.701	.001
288.15	3.55	.8	.001
288.15	4.09	.9	.001
288.15	4.35	1	.001
293.15	.84	.2	.001
293.15	.96	.218	.001
293.15	1.63	.323	.001
293.15	2.08	.393	.001
293.15	2.75	.499	.001
293.15	2.69	.502	.001
293.15	3.51	.599	.001
293.15	4.09	.7	.001
293.15	4.13	.701	.001
293.15	4.64	.8	.001
293.15	5.12	.9	.001
293.15	5.86	1	.001
298.15	1.7	.2	.001
298.15	1.9	.218	.001
298.15	3.16	.323	.001
298.15	3.75	.393	.001
298.15	4.69	.499	.001
298.15	4.7	.502	.001
298.15	5.79	.599	.001
298.15	6.52	.7	.001
298.15	6.53	.701	.001
298.15	7.07	.8	.001
298.15	7.45	.9	.001
298.15	7.87	1	.001
