Measured thermophysical data. Thermodynamic study of selected monoterpenes
Source: J. Chem. Thermodyn., 2013, 10.1016/j.jct.2013.01.009
Compound 1: (1S)-(-)-.alpha.-pinene, C10H16, purity 99.8%
Compound 2: (1S,5S)-6,6-dimethyl-2-methylenebicyclo[3.1.1]heptane, C10H16, purity 99.6%
Compound 3: (-)-cis-verbenol, C10H16O, purity 95.3%
Compound 4: (-)-verbenone, C10H14O, purity 99.4%

System: (1S)-(-)-.alpha.-pinene; phases: Liquid, Gas
Property: Vapor or sublimation pressure, kPa (Liquid); method: Closed cell (Static) method
Temperature, K	Vapor or sublimation pressure, kPa	uncertainty
238.19	.0053	.00005
238.19	.0053	.00005
238.19	.0053	.00005
243.2	.00874	.00005
243.2	.00874	.00005
243.2	.00875	.00005
253.19	.02209	.00005
253.19	.0221	.00005
253.19	.0221	.00005
258.2	.03412	.00005
258.2	.03413	.00005
258.2	.03415	.00005
263.19	.05172	.00005
263.19	.05172	.00005
263.19	.05172	.00005
268.19	.07688	.00005
268.19	.07689	.00005
268.19	.07691	.00005
273.65	.11644	.00005
273.66	.11643	.00005
273.66	.11645	.00005
278.16	.16152	.00005
278.16	.16141	.00005
278.16	.16142	.00005
283.15	.22875	.00005
283.15	.22877	.00005
283.15	.22878	.00005
288.15	.31954	.00005
288.15	.31957	.00005
288.15	.31963	.00005
293.15	.44034	.00005
293.15	.44035	.00005
293.15	.44044	.00005
298.15	.599	.00005
298.15	.59906	.00005
298.15	.59913	.00005
303.15	.80527	.00005
303.16	.80563	.00005
303.16	.80569	.00005
308.17	1.071	.00005
308.17	1.071	.00005
308.18	1.0708	.00005

System: (1S)-(-)-.alpha.-pinene; phases: Liquid
Fixed: Pressure, kPa = 101.325
Property: Molar heat capacity at constant pressure, J/K/mol (Liquid); method: Large sample (1 g) DSC
Temperature, K	Molar heat capacity at constant pressure, J/K/mol	uncertainty
273.4	239.6227372	2.396227372
278.5	242.366509	2.42366509
283.6	244.6114132	2.446114132
288.7	247.1057512	2.471057512
293.8	249.2675108	2.492675108
298.9	253.0921624	2.530921624
304	255.3370666	2.553370666
309.1	257.8314046	2.578314046
314.2	260.4088872	2.604088872
319.4	262.5706468	2.625706468
324.5	266.1458646	2.661458646
329.6	268.972781	2.68972781
334.7	272.298565	2.72298565
339.8	274.8760476	2.748760476
344.9	278.7006992	2.787006992
350	282.1096278	2.821096278
355.1	284.4376766	2.844376766

System: (1S)-(-)-.alpha.-pinene; phases: Ideal gas
Property: Molar heat capacity at constant pressure, J/K/mol (Ideal gas); method: Statistical thermodynamic calculations
Temperature, K	Pressure, kPa	Molar heat capacity at constant pressure, J/K/mol	uncertainty
100	100	70.50663776	.7050663776
150	100	99.60725476	.9960725476
200	100	127.95957018	1.2795957018
250	100	157.47591028	1.5747591028
273.15	100	171.52735106	1.7152735106
298.15	100	186.6596719	1.866596719
300	100	187.82369658	1.8782369658
400	100	246.44065368	2.4644065368
500	100	297.32516112	2.9732516112
600	100	339.81206194	3.3981206194
700	100	375.06538082	3.7506538082
800	100	404.99744402	4.0499744402
900	100	430.43969774	4.3043969774
1000	100	452.22358818	4.5222358818

System: (1S)-(-)-.alpha.-pinene; phases: Ideal gas
Property: Molar entropy, J/K/mol (Ideal gas); method: Statistical thermodynamic calculations
Temperature, K	Pressure, kPa	Molar entropy, J/K/mol	uncertainty
298.15	100	401.08964688	4.0108964688

System: (1S,5S)-6,6-dimethyl-2-methylenebicyclo[3.1.1]heptane; phases: Liquid, Gas
Property: Vapor or sublimation pressure, kPa (Liquid); method: Closed cell (Static) method
Temperature, K	Vapor or sublimation pressure, kPa	uncertainty
248.13	.00844	.00005
248.13	.00844	.00005
248.13	.00845	.00005
253.14	.01345	.00005
253.14	.01345	.00005
253.14	.01346	.00005
258.15	.021	.00005
258.15	.021	.00005
258.15	.02101	.00005
263.15	.03213	.00005
263.15	.03214	.00005
263.15	.03214	.00005
268.15	.04828	.00005
268.15	.04829	.00005
268.15	.04829	.00005
273.65	.07411	.00005
273.65	.07411	.00005
273.65	.07418	.00005
278.15	.10369	.00005
278.15	.1037	.00005
278.15	.10376	.00005
283.15	.14846	.00005
283.15	.14846	.00005
283.15	.14849	.00005
288.15	.20934	.00005
288.15	.20937	.00005
288.15	.20947	.00005
293.15	.29104	.00005
293.15	.29104	.00005
293.15	.29106	.00005
298.15	.39995	.00005
298.15	.39996	.00005
298.15	.4	.00005
303.15	.54191	.00005
303.15	.54199	.00005
303.15	.54202	.00005
308.15	.72539	.00005
308.15	.7255	.00005
308.15	.72556	.00005

System: (1S,5S)-6,6-dimethyl-2-methylenebicyclo[3.1.1]heptane; phases: Liquid
Fixed: Pressure, kPa = 101.325
Property: Molar heat capacity at constant pressure, J/K/mol (Liquid); method: Large sample (1 g) DSC
Temperature, K	Molar heat capacity at constant pressure, J/K/mol	uncertainty
273.4	230.06116354	2.3006116354
278.5	232.63864676	2.3263864676
283.6	235.21612998	2.3521612998
288.7	237.95990244	2.3795990244
293.8	240.62053028	2.4062053028
298.9	243.36430274	2.4336430274
304	245.94178596	2.4594178596
309.1	248.1866907	2.481866907
314.2	251.01360778	2.5101360778
319.4	254.17310334	2.5417310334
324.5	256.75058656	2.5675058656
329.6	260.07637136	2.6007637136
334.7	262.90328844	2.6290328844
339.8	266.39536248	2.6639536248
344.9	269.47171342	2.6947171342
350	272.04919664	2.7204919664
355.1	275.2086922	2.752086922

System: (1S,5S)-6,6-dimethyl-2-methylenebicyclo[3.1.1]heptane; phases: Ideal gas
Property: Molar heat capacity at constant pressure, J/K/mol (Ideal gas); method: Statistical thermodynamic calculations
Temperature, K	Pressure, kPa	Molar heat capacity at constant pressure, J/K/mol	uncertainty
100	100	67.67972068	.6767972068
150	100	94.7848668	.947848668
200	100	123.13718222	1.2313718222
250	100	153.31867928	1.5331867928
273.15	100	167.78584316	1.6778584316
298.15	100	183.58332096	1.8358332096
300	100	184.66420102	1.8466420102
400	100	245.35977362	2.4535977362
500	100	297.82402884	2.9782402884
600	100	341.22552048	3.4122552048
700	100	377.0608517	3.770608517
800	100	407.32549338	4.0732549338
900	100	433.01718096	4.3301718096
1000	100	454.96736064	4.5496736064

System: (1S,5S)-6,6-dimethyl-2-methylenebicyclo[3.1.1]heptane; phases: Ideal gas
Property: Molar entropy, J/K/mol (Ideal gas); method: Statistical thermodynamic calculations
Temperature, K	Pressure, kPa	Molar entropy, J/K/mol	uncertainty
298.15	100	396.1841143	3.961841143

System: (-)-cis-verbenol; phases: Crystal, Gas
Property: Molar enthalpy of vaporization or sublimation, kJ/mol (Crystal); method: Static calorimetry
Temperature, K	Molar enthalpy of vaporization or sublimation, kJ/mol	uncertainty
298.15	80	1.2

System: (-)-cis-verbenol; phases: Crystal, Liquid, Air at 1 atmosphere
Property: Normal melting temperature, K (Crystal); method: DSC/DTA
Normal melting temperature, K	uncertainty
343.6	.3

System: (-)-cis-verbenol; phases: Crystal, Liquid, Air at 1 atmosphere
Property: Molar enthalpy of transition or fusion, kJ/mol (Crystal); method: DSC/DTA
Molar enthalpy of transition or fusion, kJ/mol	uncertainty
17.5	.3

System: (-)-cis-verbenol; phases: Crystal, Gas
Property: Vapor or sublimation pressure, kPa (Crystal); method: Closed cell (Static) method
Temperature, K	Vapor or sublimation pressure, kPa	uncertainty
273.15	.00025	.00001
273.15	.00026	.00001
273.15	.00026	.00001
278.15	.00049	.00001
278.15	.00049	.00001
278.15	.0005	.00001
283.15	.00092	.00001
283.15	.00092	.00001
283.15	.00092	.00001
288.15	.00168	.00001
288.15	.00169	.00001
288.15	.00169	.00001
293.15	.003	.00001
293.15	.00301	.00001
293.15	.00301	.00001
298.15	.00523	.00001
298.15	.00528	.00001
298.15	.00529	.00001
303.15	.00906	.00001
303.15	.00906	.00001
303.15	.00906	.00001
308.15	.01518	.00001
308.15	.01523	.00001
308.15	.01524	.00001
313.15	.02515	.00001
313.15	.02516	.00001
313.15	.02517	.00001

System: (-)-cis-verbenol; phases: Crystal
Fixed: Pressure, kPa = 101.325
Property: Molar heat capacity at constant pressure, J/K/mol (Crystal); method: Large sample (1 g) DSC
Temperature, K	Molar heat capacity at constant pressure, J/K/mol	uncertainty
273.4	217.50632592	2.1750632592
278.5	222.57814774	2.2257814774
283.6	228.98028348	2.2898028348
288.7	235.38241922	2.3538241922
293.8	242.28342268	2.4228342268
298.9	250.18216158	2.5018216158
304	258.9954913	2.589954913
309.1	269.13913494	2.6913913494

System: (-)-cis-verbenol; phases: Liquid
Fixed: Pressure, kPa = 101.325
Property: Molar heat capacity at constant pressure, J/K/mol (Liquid); method: Large sample (1 g) DSC
Temperature, K	Molar heat capacity at constant pressure, J/K/mol	uncertainty
344.9	372.98676532	18.649338266
350	377.14399632	18.857199816
355.1	381.46751656	19.073375828

System: (-)-cis-verbenol; phases: Ideal gas
Property: Molar heat capacity at constant pressure, J/K/mol (Ideal gas); method: Statistical thermodynamic calculations
Temperature, K	Pressure, kPa	Molar heat capacity at constant pressure, J/K/mol	uncertainty
100	100	77.98965356	.7798965356
150	100	112.6609601	1.126609601
200	100	145.41994038	1.4541994038
250	100	177.59690832	1.7759690832
273.15	100	192.39665068	1.9239665068
298.15	100	208.2772731	2.082772731
300	100	209.5244424	2.095244424
400	100	269.3885688	2.693885688
500	100	320.60565472	3.2060565472
600	100	362.75997706	3.6275997706
700	100	397.68071746	3.9768071746
800	100	427.03076832	4.2703076832
900	100	451.97415432	4.5197415432
1000	100	473.42546628	4.7342546628

System: (-)-cis-verbenol; phases: Ideal gas
Property: Molar entropy, J/K/mol (Ideal gas); method: Statistical thermodynamic calculations
Temperature, K	Pressure, kPa	Molar entropy, J/K/mol	uncertainty
298.15	100	430.93856546	4.3093856546

System: (-)-cis-verbenol; phases: Crystal
Fixed: Pressure, kPa = 101.325
Property: Molar heat capacity at constant pressure, J/K/mol (Crystal); method: Drop calorimetry
Temperature, K	Molar heat capacity at constant pressure, J/K/mol	uncertainty
298.15	233.55323758	11.677661879

System: (-)-verbenone; phases: Liquid, Gas
Property: Molar enthalpy of vaporization or sublimation, kJ/mol (Liquid); method: Static calorimetry
Temperature, K	Molar enthalpy of vaporization or sublimation, kJ/mol	uncertainty
298.15	58.9	1.5

System: (-)-verbenone; phases: Liquid
Fixed: Pressure, kPa = 101.325
Property: Molar heat capacity at constant pressure, J/K/mol (Liquid); method: Drop calorimetry
Temperature, K	Molar heat capacity at constant pressure, J/K/mol	uncertainty
298.15	270.55259348	

System: (-)-verbenone; phases: Liquid, Gas
Property: Vapor or sublimation pressure, kPa (Liquid); method: Closed cell (Static) method
Temperature, K	Vapor or sublimation pressure, kPa	uncertainty
273.65	.00181	.00005
273.66	.00181	.00005
273.65	.00183	.00005
278.15	.00278	.00005
278.16	.00276	.00005
278.16	.00277	.00005
283.15	.00436	.00005
283.15	.00436	.00005
283.15	.00437	.00005
288.15	.00675	.00005
288.15	.00676	.00005
288.15	.00678	.00005
293.15	.01031	.00005
293.16	.01032	.00005
293.16	.01035	.00005
298.15	.01545	.00005
298.15	.01546	.00005
298.15	.01547	.00005
303.15	.02273	.00005
303.15	.02278	.00005
303.15	.02281	.00005
308.16	.03304	.00005
308.16	.03307	.00005
308.16	.03309	.00005

System: (-)-verbenone; phases: Liquid
Fixed: Pressure, kPa = 101.325
Property: Molar heat capacity at constant pressure, J/K/mol (Liquid); method: Large sample (1 g) DSC
Temperature, K	Molar heat capacity at constant pressure, J/K/mol	uncertainty
273.4	258.82920206	2.5882920206
278.5	260.99096218	2.6099096218
283.6	262.3212761	2.623212761
288.7	264.06731312	2.6406731312
293.8	266.72794096	2.6672794096
298.9	269.3885688	2.693885688
304	270.46944886	2.7046944886
309.1	273.04693208	2.7304693208
314.2	275.6244153	2.756244153
319.4	276.8715846	2.768715846
324.5	279.44906782	2.7944906782
329.6	281.69397256	2.8169397256
334.7	284.68717888	2.8468717888
339.8	286.93208362	2.8693208362
344.9	289.67585608	2.8967585608
350	292.00390544	2.9200390544
355.1	294.41509942	2.9441509942

System: (-)-verbenone; phases: Ideal gas
Property: Molar heat capacity at constant pressure, J/K/mol (Ideal gas); method: Statistical thermodynamic calculations
Temperature, K	Pressure, kPa	Molar heat capacity at constant pressure, J/K/mol	uncertainty
100	100	77.57393046	.7757393046
150	100	107.6722829	1.076722829
200	100	136.60661066	1.3660661066
250	100	165.70722766	1.6570722766
273.15	100	179.1766561	1.791766561
298.15	100	193.81010922	1.9381010922
300	100	194.89098928	1.9489098928
400	100	250.43159544	2.5043159544
500	100	298.32289656	2.9832289656
600	100	337.89973568	3.3789973568
700	100	370.90814982	3.7090814982
800	100	398.51216366	3.9851216366
900	100	421.9589465	4.219589465
1000	100	441.99679992	4.4199679992

System: (-)-verbenone; phases: Ideal gas
Property: Molar entropy, J/K/mol (Ideal gas); method: Statistical thermodynamic calculations
Temperature, K	Pressure, kPa	Molar entropy, J/K/mol	uncertainty
298.15	100	419.21517404	4.1921517404
