Measured thermophysical data. Study of thermophysical properties of the binary mixtures of ionic liquid 1-ethyl-3-methylimidazolium ethylsulfate and 2-propoxyethanol from T = (298.15 to 328.15) K at atmospheric pressure
Source: J. Chem. Thermodyn., 2016, 10.1016/j.jct.2016.03.028
Compound 1: 1-ethyl-3-methylimidazolium ethyl sulfate, C8H16N2O4S, purity 99%
Compound 2: 2-propoxyethanol, C5H12O2, purity 99%

System: 1-ethyl-3-methylimidazolium ethyl sulfate; phases: Liquid
Property: Mass density, kg/m3 (Liquid); method: Vibrating tube method
Temperature, K	Pressure, kPa	Mass density, kg/m3	uncertainty
298.15	101.3	1236.38	
308.15	101.3	1229.49	
318.15	101.3	1222.78	
328.15	101.3	1216.16	

System: 1-ethyl-3-methylimidazolium ethyl sulfate; phases: Liquid
Fixed: Frequency, MHz = 3
Property: Speed of sound, m/s (Liquid); method: Sing-around technique in a fixed-path interferometer
Temperature, K	Pressure, kPa	Speed of sound, m/s	uncertainty
298.15	100	1680.8	
308.15	100	1656.4	
318.15	100	1632.4	
328.15	100	1608.9	

System: 1-ethyl-3-methylimidazolium ethyl sulfate; phases: Liquid
Property: Refractive index (Na D-line) (Liquid); method: Standard Abbe refractometry
Temperature, K	Pressure, kPa	Refractive index (Na D-line)	uncertainty
298.15	100	1.47907	
308.15	100	1.47645	
318.15	100	1.47374	
328.15	100	1.47112	

System: 2-propoxyethanol; phases: Liquid
Property: Mass density, kg/m3 (Liquid); method: Vibrating tube method
Temperature, K	Pressure, kPa	Mass density, kg/m3	uncertainty
298.15	101.3	908.31	
308.15	101.3	899.5	
318.15	101.3	890.56	
328.15	101.3	881.49	

System: 2-propoxyethanol; phases: Liquid
Fixed: Frequency, MHz = 3
Property: Speed of sound, m/s (Liquid); method: Sing-around technique in a fixed-path interferometer
Temperature, K	Pressure, kPa	Speed of sound, m/s	uncertainty
298.15	100	1299.9	
308.15	100	1265	
318.15	100	1230.1	
328.15	100	1195.8	

System: 2-propoxyethanol; phases: Liquid
Property: Refractive index (Na D-line) (Liquid); method: Standard Abbe refractometry
Temperature, K	Pressure, kPa	Refractive index (Na D-line)	uncertainty
298.15	100	1.41255	
308.15	100	1.40814	
318.15	100	1.40355	
328.15	100	1.39908	

System: 2-propoxyethanol + 1-ethyl-3-methylimidazolium ethyl sulfate; phases: Liquid
Fixed: Pressure, kPa = 101.3
Property: Mass density, kg/m3 (Liquid); method: Vibrating tube method
Temperature, K	Mole fraction of 1-ethyl-3-methylimidazolium ethyl sulfate	Mass density, kg/m3	uncertainty
298.15	0	908.31	
298.15	.0496	936.15	
298.15	.0901	957.3	
298.15	.1345	979.08	
298.15	.1738	997.17	
298.15	.2568	1032.34	
298.15	.3477	1066.65	
298.15	.4406	1097.96	
298.15	.5477	1130.29	
298.15	.6478	1157.57	
298.15	.7729	1188.39	
298.15	.8263	1200.6	
298.15	.8757	1211.4	
298.15	.9346	1223.63	
298.15	1	1236.38	
308.15	0	899.5	
308.15	.0496	927.63	
308.15	.0901	948.98	
308.15	.1345	970.94	
308.15	.1738	989.17	
308.15	.2568	1024.6	
308.15	.3477	1059.1	
308.15	.4406	1090.57	
308.15	.5477	1123.06	
308.15	.6478	1150.45	
308.15	.7729	1181.41	
308.15	.8263	1193.67	
308.15	.8757	1204.51	
308.15	.9346	1216.76	
308.15	1	1229.49	
318.15	0	890.56	
318.15	.0496	919	
318.15	.0901	940.58	
318.15	.1345	962.75	
318.15	.1738	981.14	
318.15	.2568	1016.84	
318.15	.3477	1051.57	
318.15	.4406	1083.21	
318.15	.5477	1115.85	
318.15	.6478	1143.37	
318.15	.7729	1174.46	
318.15	.8263	1186.78	
318.15	.8757	1197.67	
318.15	.9346	1209.98	
318.15	1	1222.78	
328.15	0	881.49	
328.15	.0496	910.28	
328.15	.0901	932.1	
328.15	.1345	954.51	
328.15	.1738	973.08	
328.15	.2568	1009.08	
328.15	.3477	1044.05	
328.15	.4406	1075.88	
328.15	.5477	1108.69	
328.15	.6478	1136.34	
328.15	.7729	1167.58	
328.15	.8263	1179.94	
328.15	.8757	1190.88	
328.15	.9346	1203.26	
328.15	1	1216.16	

System: 2-propoxyethanol + 1-ethyl-3-methylimidazolium ethyl sulfate; phases: Liquid
Fixed: Pressure, kPa = 100
Fixed: Frequency, MHz = 3
Property: Speed of sound, m/s (Liquid); method: Sing-around technique in a fixed-path interferometer
Temperature, K	Mole fraction of 1-ethyl-3-methylimidazolium ethyl sulfate	Speed of sound, m/s	uncertainty
298.15	0	1299.9	
298.15	.0496	1322.2	
298.15	.0901	1339.6	
298.15	.1345	1358	
298.15	.1738	1374	
298.15	.2568	1407.7	
298.15	.3477	1444.5	
298.15	.4406	1482.1	
298.15	.5477	1525.4	
298.15	.6478	1565.2	
298.15	.7729	1612.3	
298.15	.8263	1630.9	
298.15	.8757	1647	
298.15	.9346	1664.4	
298.15	1	1680.8	
308.15	0	1265	
308.15	.0496	1288.6	
308.15	.0901	1306.8	
308.15	.1345	1326.1	
308.15	.1738	1342.8	
308.15	.2568	1377.8	
308.15	.3477	1415.6	
308.15	.4406	1454.2	
308.15	.5477	1498.4	
308.15	.6478	1539	
308.15	.7729	1587	
308.15	.8263	1606	
308.15	.8757	1622.3	
308.15	.9346	1639.9	
308.15	1	1656.4	
318.15	0	1230.1	
318.15	.0496	1254.9	
318.15	.0901	1274	
318.15	.1345	1294.2	
318.15	.1738	1311.6	
318.15	.2568	1347.8	
318.15	.3477	1386.9	
318.15	.4406	1426.5	
318.15	.5477	1471.8	
318.15	.6478	1513.2	
318.15	.7729	1562	
318.15	.8263	1581.3	
318.15	.8757	1597.9	
318.15	.9346	1615.7	
318.15	1	1632.4	
328.15	0	1195.8	
328.15	.0496	1221.5	
328.15	.0901	1241.4	
328.15	.1345	1262.4	
328.15	.1738	1280.5	
328.15	.2568	1318.1	
328.15	.3477	1358.5	
328.15	.4406	1399.3	
328.15	.5477	1445.6	
328.15	.6478	1487.8	
328.15	.7729	1537.5	
328.15	.8263	1557	
328.15	.8757	1573.9	
328.15	.9346	1591.9	
328.15	1	1608.9	

System: 2-propoxyethanol + 1-ethyl-3-methylimidazolium ethyl sulfate; phases: Liquid
Fixed: Pressure, kPa = 100
Property: Refractive index (Na D-line) (Liquid); method: Standard Abbe refractometry
Temperature, K	Mole fraction of 1-ethyl-3-methylimidazolium ethyl sulfate	Refractive index (Na D-line)	uncertainty
298.15	0	1.41255	
298.15	.0496	1.41807	
298.15	.0901	1.42234	
298.15	.1345	1.42679	
298.15	.1738	1.43052	
298.15	.2568	1.43781	
298.15	.3477	1.44491	
298.15	.4406	1.45131	
298.15	.5477	1.45778	
298.15	.6478	1.46309	
298.15	.7729	1.46902	
298.15	.8263	1.4714	
298.15	.8757	1.47357	
298.15	.9346	1.47615	
298.15	1	1.47907	
308.15	0	1.40814	
308.15	.0496	1.41391	
308.15	.0901	1.41835	
308.15	.1345	1.42296	
308.15	.1738	1.42682	
308.15	.2568	1.43433	
308.15	.3477	1.44162	
308.15	.4406	1.44817	
308.15	.5477	1.45477	
308.15	.6478	1.4602	
308.15	.7729	1.46625	
308.15	.8263	1.46868	
308.15	.8757	1.47089	
308.15	.9346	1.4735	
308.15	1	1.47645	
318.15	0	1.40355	
318.15	.0496	1.40953	
318.15	.0901	1.41413	
318.15	.1345	1.41891	
318.15	.1738	1.4229	
318.15	.2568	1.43065	
318.15	.3477	1.43817	
318.15	.4406	1.44492	
318.15	.5477	1.45172	
318.15	.6478	1.45729	
318.15	.7729	1.46348	
318.15	.8263	1.46595	
318.15	.8757	1.46818	
318.15	.9346	1.47081	
318.15	1	1.47374	
328.15	0	1.39908	
328.15	.0496	1.4053	
328.15	.0901	1.41007	
328.15	.1345	1.41501	
328.15	.1738	1.41912	
328.15	.2568	1.42711	
328.15	.3477	1.43483	
328.15	.4406	1.44175	
328.15	.5477	1.4487	
328.15	.6478	1.45439	
328.15	.7729	1.46071	
328.15	.8263	1.46322	
328.15	.8757	1.46549	
328.15	.9346	1.46815	
328.15	1	1.47112	
