Measured thermophysical data. Thermophysical property characterization of aqueous amino acid salt solution containing serine
Source: J. Chem. Thermodyn., 2014, 10.1016/j.jct.2014.05.019
Compound 1: sodium DL-serine, C3H6NNaO3, purity 98%
Compound 2: potassium DL-serine, C3H6KNO3, purity 98%
Compound 3: water, H2O, purity 99.9%
Compound 4: potassium chloride, ClK, purity 98%

System: water; phases: Liquid
Fixed: Pressure, kPa = 101.325
Property: Mass density, kg/m3 (Liquid); method: Vibrating tube method
Temperature, K	Mass density, kg/m3	uncertainty
303.15	995.6	.5
308.15	994	.5
313.15	992.3	.5
318.15	990.3	.5
323.15	988.2	.5
328.15	985.9	.5
333.15	983.4	.5
338.15	980.8	.5
343.15	978	.5

System: water; phases: Liquid
Fixed: Pressure, kPa = 101.325
Property: Refractive index (Na D-line) (Liquid); method: Standard Abbe refractometry
Temperature, K	Refractive index (Na D-line)	uncertainty
298.15	1.33247	.00005
303.15	1.33188	.00005
308.15	1.33124	.00005
313.15	1.33053	.00005
318.15	1.32974	.00005
323.15	1.3289	.00005
328.15	1.32799	.00005
333.15	1.32704	.00005
338.15	1.32605	.00005
343.15	1.32503	.00005

System: water; phases: Liquid
Fixed: Pressure, kPa = 101.325
Property: Viscosity, Pa*s (Liquid); method: Falling or rolling sphere viscometry
Temperature, K	Viscosity, Pa*s	uncertainty
303.15	.000798	.00002
308.15	.000719	.00002
313.15	.000654	.00002
318.15	.000595	.00002
323.15	.000546	.00002
328.15	.000506	.00002
333.15	.000466	.00002
338.15	.000435	.00002
343.15	.000408	.00002

System: water + sodium DL-serine; phases: Liquid
Fixed: Pressure, kPa = 100
Property: Mass density, kg/m3 (Liquid); method: Vibrating tube method
Temperature, K	Mole fraction of sodium DL-serine	Mass density, kg/m3	uncertainty
303.15	.009	1028.3	.5
303.15	.018	1060.1	.5
303.15	.028	1090.9	.5
303.15	.037	1121.1	.5
303.15	.048	1150.7	.5
303.15	.058	1181.9	.5
308.15	.009	1026.5	.5
308.15	.018	1058.1	.5
308.15	.028	1088.8	.5
308.15	.037	1118.7	.5
308.15	.048	1148.2	.5
308.15	.058	1179.2	.5
313.15	.009	1024.6	.5
313.15	.018	1055.9	.5
313.15	.028	1086.4	.5
313.15	.037	1116.3	.5
313.15	.048	1145.5	.5
313.15	.058	1176.5	.5
318.15	.009	1022.5	.5
318.15	.018	1053.6	.5
318.15	.028	1084	.5
318.15	.037	1113.7	.5
318.15	.048	1142.8	.5
318.15	.058	1173.7	.5
323.15	.009	1020.2	.5
323.15	.018	1051.2	.5
323.15	.028	1081.5	.5
323.15	.037	1111.1	.5
323.15	.048	1140.1	.5
323.15	.058	1170.8	.5
328.15	.009	1017.8	.5
328.15	.018	1048.7	.5
328.15	.028	1078.9	.5
328.15	.037	1108.3	.5
328.15	.048	1137.3	.5
328.15	.058	1167.9	.5
333.15	.009	1015.3	.5
333.15	.018	1046	.5
333.15	.028	1076.1	.5
333.15	.037	1105.5	.5
333.15	.048	1134.4	.5
333.15	.058	1164.9	.5
338.15	.009	1012.7	.5
338.15	.018	1043.2	.5
338.15	.028	1073.3	.5
338.15	.037	1102.6	.5
338.15	.048	1131.4	.5
338.15	.058	1161.8	.5
343.15	.009	1009.9	.5
343.15	.018	1040.4	.5
343.15	.028	1070.4	.5
343.15	.037	1099.6	.5
343.15	.048	1128.4	.5
343.15	.058	1158.7	.5

System: water + sodium DL-serine; phases: Liquid
Fixed: Pressure, kPa = 100
Property: Refractive index (Na D-line) (Liquid); method: Standard Abbe refractometry
Temperature, K	Mole fraction of sodium DL-serine	Refractive index (Na D-line)	uncertainty
303.15	.009	1.34216	.00005
303.15	.018	1.35202	.00005
303.15	.028	1.36168	.00005
303.15	.037	1.37103	.00005
303.15	.048	1.38012	.00005
303.15	.059	1.38919	.00005
308.15	.009	1.34144	.00005
308.15	.018	1.35122	.00005
308.15	.028	1.36085	.00005
308.15	.037	1.37015	.00005
308.15	.048	1.37921	.00005
308.15	.059	1.38826	.00005
313.15	.009	1.34066	.00005
313.15	.018	1.35038	.00005
313.15	.028	1.36	.00005
313.15	.037	1.36925	.00005
313.15	.048	1.37827	.00005
313.15	.059	1.38724	.00005
318.15	.009	1.33982	.00005
318.15	.018	1.3495	.00005
318.15	.028	1.35908	.00005
318.15	.037	1.3683	.00005
318.15	.048	1.37725	.00005
318.15	.059	1.3862	.00005
323.15	.009	1.33894	.00005
323.15	.018	1.34861	.00005
323.15	.028	1.35806	.00005
323.15	.037	1.36729	.00005
323.15	.048	1.37623	.00005
323.15	.059	1.38512	.00005
328.15	.009	1.33802	.00005
328.15	.018	1.34767	.00005
328.15	.028	1.35706	.00005
328.15	.037	1.36632	.00005
328.15	.048	1.37526	.00005
328.15	.059	1.38406	.00005
333.15	.009	1.33706	.00005
333.15	.018	1.34667	.00005
333.15	.028	1.35612	.00005
333.15	.037	1.36532	.00005
333.15	.048	1.37424	.00005
333.15	.059	1.38298	.00005
338.15	.009	1.33608	.00005
338.15	.018	1.34565	.00005
338.15	.028	1.35511	.00005
338.15	.037	1.36426	.00005
338.15	.048	1.37311	.00005
338.15	.059	1.38194	.00005
343.15	.009	1.33505	.00005
343.15	.018	1.34458	.00005
343.15	.028	1.35407	.00005
343.15	.037	1.36322	.00005
343.15	.048	1.37204	.00005
343.15	.059	1.38083	.00005

System: water + sodium DL-serine; phases: Liquid
Fixed: Pressure, kPa = 100
Property: Electrical conductivity, S/m (Liquid); method: Alternating current cell with electrodes
Temperature, K	Mole fraction of sodium DL-serine	Electrical conductivity, S/m	uncertainty
303.15	.009	2.7	.027
303.15	.018	4.28	.0428
303.15	.028	5.19	.0519
303.15	.037	5.57	.0557
303.15	.048	5.59	.0559
303.15	.058	5.3	.053
308.15	.009	2.98	.0298
308.15	.018	4.73	.0473
308.15	.028	5.74	.0574
308.15	.037	6.2	.062
308.15	.048	6.27	.0627
308.15	.058	5.99	.0599
313.15	.009	3.27	.0327
313.15	.018	5.2	.052
313.15	.028	6.3	.063
313.15	.037	6.82	.0682
313.15	.048	6.96	.0696
313.15	.058	6.69	.0669
318.15	.009	3.57	.0357
318.15	.018	5.64	.0564
318.15	.028	6.87	.0687
318.15	.037	7.49	.0749
318.15	.048	7.66	.0766
318.15	.058	7.44	.0744
323.15	.009	3.87	.0387
323.15	.018	6.12	.0612
323.15	.028	7.46	.0746
323.15	.037	8.17	.0817
323.15	.048	8.38	.0838
323.15	.058	8.19	.0819
328.15	.009	4.17	.0417
328.15	.018	6.59	.0659
328.15	.028	8.05	.0805
328.15	.037	8.86	.0886
328.15	.048	9.12	.0912
328.15	.058	8.97	.0897
333.15	.009	4.48	.0448
333.15	.018	7.06	.0706
333.15	.028	8.64	.0864
333.15	.037	9.52	.0952
333.15	.048	9.82	.0982
333.15	.058	9.74	.0974
338.15	.009	4.8	.048
338.15	.018	7.53	.0753
338.15	.028	9.24	.0924
338.15	.037	10.18	.1018
338.15	.048	10.56	.1056
338.15	.058	10.53	.1053
343.15	.009	5.1	.051
343.15	.018	8.01	.0801
343.15	.028	9.84	.0984
343.15	.037	10.85	.1085
343.15	.048	11.29	.1129
343.15	.058	11.3	.113

System: water + sodium DL-serine; phases: Liquid
Fixed: Pressure, kPa = 100
Property: Viscosity, Pa*s (Liquid); method: Falling or rolling sphere viscometry
Temperature, K	Mole fraction of sodium DL-serine	Viscosity, Pa*s	uncertainty
303.15	.009	.0009965	.00002
303.15	.018	.0012213	.00002
303.15	.028	.0015525	.00002
303.15	.037	.0019668	.00002
303.15	.048	.0025994	.00002
303.15	.059	.0034964	.00002
308.15	.009	.0009018	.00002
308.15	.018	.0010975	.00002
308.15	.028	.0013771	.00002
308.15	.037	.0017392	.00002
308.15	.048	.0022804	.00002
308.15	.059	.0030267	.00002
313.15	.009	.0008058	.00002
313.15	.018	.0009981	.00002
313.15	.028	.0012364	.00002
313.15	.037	.0015628	.00002
313.15	.048	.002007	.00002
313.15	.059	.0026615	.00002
318.15	.009	.0007337	.00002
318.15	.018	.0008941	.00002
318.15	.028	.0011158	.00002
318.15	.037	.0013941	.00002
318.15	.048	.0017921	.00002
318.15	.059	.0023511	.00002
323.15	.009	.0006788	.00002
323.15	.018	.0008127	.00002
323.15	.028	.0010122	.00002
323.15	.037	.0012599	.00002
323.15	.048	.0016082	.00002
323.15	.059	.0020912	.00002
328.15	.009	.0006217	.00002
328.15	.018	.0007448	.00002
328.15	.028	.0009186	.00002
328.15	.037	.0011494	.00002
328.15	.048	.0014521	.00002
328.15	.059	.0018718	.00002
333.15	.009	.000575	.00002
333.15	.018	.000692	.00002
333.15	.028	.0008431	.00002
333.15	.037	.0010549	.00002
333.15	.048	.0013209	.00002
333.15	.059	.0017093	.00002
338.15	.009	.000537	.00002
338.15	.018	.0006342	.00002
338.15	.028	.0007788	.00002
338.15	.037	.0009608	.00002
338.15	.048	.001206	.00002
338.15	.059	.0015311	.00002
343.15	.009	.0004983	.00002
343.15	.018	.0005945	.00002
343.15	.028	.00072	.00002
343.15	.037	.0008858	.00002
343.15	.048	.0011081	.00002
343.15	.059	.0013993	.00002

System: potassium DL-serine + water; phases: Liquid
Fixed: Pressure, kPa = 100
Property: Mass density, kg/m3 (Liquid); method: Vibrating tube method
Temperature, K	Mole fraction of potassium DL-serine	Mass density, kg/m3	uncertainty
303.15	.009	1031.8	.5
303.15	.019	1066.6	.5
303.15	.029	1101	.5
303.15	.039	1134.7	.5
303.15	.049	1167.7	.5
303.15	.06	1199.7	.5
303.15	.071	1230.8	.5
308.15	.009	1030	.5
308.15	.019	1064.6	.5
308.15	.029	1098.9	.5
308.15	.039	1132.4	.5
308.15	.049	1165.3	.5
308.15	.06	1197.2	.5
308.15	.071	1228.2	.5
313.15	.009	1028.1	.5
313.15	.019	1062.5	.5
313.15	.029	1096.7	.5
313.15	.039	1130.1	.5
313.15	.049	1162.8	.5
313.15	.06	1194.7	.5
313.15	.071	1225.6	.5
318.15	.009	1026	.5
318.15	.019	1060.3	.5
318.15	.029	1094.3	.5
318.15	.039	1127.6	.5
318.15	.049	1160.3	.5
318.15	.06	1192.1	.5
318.15	.071	1222.9	.5
323.15	.009	1023.8	.5
323.15	.019	1058	.5
323.15	.029	1091.9	.5
323.15	.039	1125.1	.5
323.15	.049	1157.7	.5
323.15	.06	1189.4	.5
323.15	.071	1220.2	.5
328.15	.009	1021.4	.5
328.15	.019	1055.5	.5
328.15	.029	1089.3	.5
328.15	.039	1122.4	.5
328.15	.049	1155	.5
328.15	.06	1186.6	.5
328.15	.071	1217.4	.5
333.15	.009	1018.9	.5
333.15	.019	1052.9	.5
333.15	.029	1086.5	.5
333.15	.039	1119.7	.5
333.15	.049	1152.2	.5
333.15	.06	1183.8	.5
333.15	.071	1214.5	.5
338.15	.009	1016.3	.5
338.15	.019	1050.3	.5
338.15	.029	1083.7	.5
338.15	.039	1116.9	.5
338.15	.049	1149.4	.5
338.15	.06	1180.9	.5
338.15	.071	1211.6	.5
343.15	.009	1013.5	.5
343.15	.019	1047.5	.5
343.15	.029	1080.9	.5
343.15	.039	1114	.5
343.15	.049	1146.5	.5
343.15	.06	1178	.5
343.15	.071	1208.6	.5

System: potassium DL-serine + water; phases: Liquid
Fixed: Pressure, kPa = 100
Property: Refractive index (Na D-line) (Liquid); method: Standard Abbe refractometry
Temperature, K	Mole fraction of potassium DL-serine	Refractive index (Na D-line)	uncertainty
303.15	.009	1.34221	.00005
303.15	.019	1.35206	.00005
303.15	.029	1.36174	.00005
303.15	.039	1.37105	.00005
303.15	.05	1.38025	.00005
303.15	.06	1.38935	.00005
303.15	.071	1.39837	.00005
308.15	.009	1.34148	.00005
308.15	.019	1.35128	.00005
308.15	.029	1.36094	.00005
308.15	.039	1.37022	.00005
308.15	.05	1.3794	.00005
308.15	.06	1.38846	.00005
308.15	.071	1.39747	.00005
313.15	.009	1.3407	.00005
313.15	.019	1.35047	.00005
313.15	.029	1.36011	.00005
313.15	.039	1.36936	.00005
313.15	.05	1.37852	.00005
313.15	.06	1.38755	.00005
313.15	.071	1.39654	.00005
318.15	.009	1.33988	.00005
318.15	.019	1.34961	.00005
318.15	.029	1.35924	.00005
318.15	.039	1.36845	.00005
318.15	.05	1.37757	.00005
318.15	.06	1.38663	.00005
318.15	.071	1.39559	.00005
323.15	.009	1.33902	.00005
323.15	.019	1.34871	.00005
323.15	.029	1.35832	.00005
323.15	.039	1.36749	.00005
323.15	.05	1.37663	.00005
323.15	.06	1.38564	.00005
323.15	.071	1.39462	.00005
328.15	.009	1.33813	.00005
328.15	.019	1.34779	.00005
328.15	.029	1.35735	.00005
328.15	.039	1.36653	.00005
328.15	.05	1.37567	.00005
328.15	.06	1.38467	.00005
328.15	.071	1.39364	.00005
333.15	.009	1.33719	.00005
333.15	.019	1.34685	.00005
333.15	.029	1.35637	.00005
333.15	.039	1.36558	.00005
333.15	.05	1.37467	.00005
333.15	.06	1.38367	.00005
333.15	.071	1.39265	.00005
338.15	.009	1.33619	.00005
338.15	.019	1.34588	.00005
338.15	.029	1.35539	.00005
338.15	.039	1.36461	.00005
338.15	.05	1.37365	.00005
338.15	.06	1.38269	.00005
338.15	.071	1.39162	.00005
343.15	.009	1.33516	.00005
343.15	.019	1.34484	.00005
343.15	.029	1.35437	.00005
343.15	.039	1.36359	.00005
343.15	.05	1.37264	.00005
343.15	.06	1.38169	.00005
343.15	.071	1.39053	.00005

System: potassium DL-serine + water; phases: Liquid
Fixed: Pressure, kPa = 100
Property: Electrical conductivity, S/m (Liquid); method: Alternating current cell with electrodes
Temperature, K	Mole fraction of potassium DL-serine	Electrical conductivity, S/m	uncertainty
303.15	.009	3.96	.0396
303.15	.019	6.56	.0656
303.15	.029	8.29	.0829
303.15	.039	9.26	.0926
303.15	.05	9.69	.0969
303.15	.06	9.68	.0968
303.15	.071	9.21	.0921
308.15	.009	4.32	.0432
308.15	.019	7.13	.0713
308.15	.029	9	.09
308.15	.039	10.08	.1008
308.15	.05	10.58	.1058
308.15	.06	10.63	.1063
308.15	.071	10.15	.1015
313.15	.009	4.67	.0467
313.15	.019	7.72	.0772
313.15	.029	9.71	.0971
313.15	.039	10.89	.1089
313.15	.05	11.47	.1147
313.15	.06	11.55	.1155
313.15	.071	11.1	.111
318.15	.009	5.03	.0503
318.15	.019	8.28	.0828
318.15	.029	10.44	.1044
318.15	.039	11.75	.1175
318.15	.05	12.39	.1239
318.15	.06	12.5	.125
318.15	.071	12.05	.1205
323.15	.009	5.41	.0541
323.15	.019	8.87	.0887
323.15	.029	11.2	.112
323.15	.039	12.56	.1256
323.15	.05	13.3	.133
323.15	.06	13.47	.1347
323.15	.071	13.01	.1301
328.15	.009	5.78	.0578
328.15	.019	9.46	.0946
328.15	.029	11.91	.1191
328.15	.039	13.39	.1339
328.15	.05	14.2	.142
328.15	.06	14.42	.1442
328.15	.071	14	.14
333.15	.009	6.15	.0615
333.15	.019	10.03	.1003
333.15	.029	12.63	.1263
333.15	.039	14.2	.142
333.15	.05	15.07	.1507
333.15	.06	15.33	.1533
333.15	.071	14.94	.1494
338.15	.009	6.52	.0652
338.15	.019	10.61	.1061
338.15	.029	13.35	.1335
338.15	.039	15.01	.1501
338.15	.05	15.95	.1595
338.15	.06	16.24	.1624
338.15	.071	15.86	.1586
343.15	.009	6.89	.0689
343.15	.019	11.19	.1119
343.15	.029	14.04	.1404
343.15	.039	15.79	.1579
343.15	.05	16.82	.1682
343.15	.06	17.15	.1715
343.15	.071	16.79	.1679

System: potassium DL-serine + water; phases: Liquid
Fixed: Pressure, kPa = 100
Property: Viscosity, Pa*s (Liquid); method: Falling or rolling sphere viscometry
Temperature, K	Mole fraction of potassium DL-serine	Viscosity, Pa*s	uncertainty
303.15	.009	.0009271	.00002
303.15	.019	.001088	.00002
303.15	.029	.0013076	.00002
303.15	.039	.0015751	.00002
303.15	.049	.0019289	.00002
303.15	.06	.0024479	.00002
308.15	.009	.0008325	.00002
308.15	.019	.0009764	.00002
308.15	.029	.0011746	.00002
308.15	.039	.0014117	.00002
308.15	.049	.0017195	.00002
308.15	.06	.0021716	.00002
313.15	.009	.0007628	.00002
313.15	.019	.0008877	.00002
313.15	.029	.0010667	.00002
313.15	.039	.0012786	.00002
313.15	.049	.0015504	.00002
313.15	.06	.0019494	.00002
318.15	.009	.000696	.00002
318.15	.019	.0008049	.00002
318.15	.029	.0009686	.00002
318.15	.039	.0011591	.00002
318.15	.049	.0013984	.00002
318.15	.06	.0017525	.00002
323.15	.009	.0006347	.00002
323.15	.019	.00074	.00002
323.15	.029	.0008896	.00002
323.15	.039	.001061	.00002
323.15	.049	.0012751	.00002
323.15	.06	.0015896	.00002
328.15	.009	.0005865	.00002
328.15	.019	.0006837	.00002
328.15	.029	.0008204	.00002
328.15	.039	.000976	.00002
328.15	.049	.001169	.00002
328.15	.06	.0014515	.00002
333.15	.009	.0005394	.00002
333.15	.019	.0006281	.00002
333.15	.029	.0007576	.00002
333.15	.039	.0008971	.00002
333.15	.049	.0010708	.00002
333.15	.06	.0013257	.00002
338.15	.009	.000501	.00002
338.15	.019	.0005819	.00002
338.15	.029	.0007014	.00002
338.15	.039	.0008281	.00002
338.15	.049	.000986	.00002
338.15	.06	.0012153	.00002
343.15	.009	.0004696	.00002
343.15	.019	.0005434	.00002
343.15	.029	.0006552	.00002
343.15	.039	.0007707	.00002
343.15	.049	.000916	.00002
343.15	.06	.0011231	.00002

System: potassium chloride + water; phases: Liquid
Fixed: Pressure, kPa = 100
Fixed: Amount concentration (molarity), mol/dm3 of potassium chloride = .1
Property: Electrical conductivity, S/m (Liquid); method: Alternating current cell with electrodes
Temperature, K	Electrical conductivity, S/m	uncertainty
288.15	1.053	.05
293.15	1.163	.05
295.15	1.213	.05
297.15	1.265	.05
298.15	1.291	.05
299.15	1.314	.05
301.15	1.364	.05
303.15	1.413	.05
308.15	1.54	.05
313.15	1.669	.05
318.15	1.799	.05
323.15	1.913	.05
