Measured thermophysical data. Experimental vapour liquid equilibrium data and modeling  for binary mixtures of 1-butene with 1,1,2,3,3,3-hexafluoro-1-propene,  2,2,3-trifluoro-3-(trifluoromethyl)oxirane, or difluoromethane
Source: J. Chem. Thermodyn., 2013, 10.1016/j.jct.2013.01.017
Compound 1: 1-butene, C4H8
Compound 2: 1,1,2,3,3,3-hexafluoro-1-propene, C3F6
Compound 3: propane, 1,2-epoxy-1,1,2,3,3,3-hexafluoro-, C3F6O
Compound 4: difluoromethane, CH2F2

System: 1-butene; phases: Liquid, Gas
Property: Vapor or sublimation pressure, kPa (Liquid); method: Closed cell (Static) method
Temperature, K	Vapor or sublimation pressure, kPa	uncertainty
302.9	343	7
307.83	396	7
312.96	456	7
318.05	521	7
322.94	593	7
328.06	671	7
332.97	759	7
337.99	855	7
342.98	957	7
347.93	1069	7
353.18	1197	7

System: propane, 1,2-epoxy-1,1,2,3,3,3-hexafluoro-; phases: Liquid, Gas
Property: Vapor or sublimation pressure, kPa (Liquid); method: Closed cell (Static) method
Temperature, K	Vapor or sublimation pressure, kPa	uncertainty
302.95	786	7
307.93	896	7
312.93	1015	7
317.86	1150	7
322.92	1298	7
327.88	1474	7
332.87	1658	7
337.87	1864	7
342.88	2075	7
347.85	2313	7

System: difluoromethane; phases: Liquid, Gas
Property: Vapor or sublimation pressure, kPa (Liquid); method: Closed cell (Static) method
Temperature, K	Vapor or sublimation pressure, kPa	uncertainty
280.59	1022	7
283.05	1109	7
285.52	1195	7
288.02	1280	7
290.46	1364	7
293.02	1474	7
295.49	1578	7
298.01	1684	7
300.48	1793	7
302.94	1918	7
305.46	2051	7
307.91	2179	7
310.48	2318	7
312.9	2459	7
315.43	2614	7
317.89	2772	7
320.41	2948	7
322.92	3120	7
325.42	3303	7
327.9	3498	7
330.35	3694	7
332.91	3910	7
335.4	4138	7
337.93	4370	7
340.43	4602	7
342.88	4854	7
345.4	5117	7
347.89	5392	7

System: 1-butene + 1,1,2,3,3,3-hexafluoro-1-propene; phases: Liquid, Gas
Property: Vapor or sublimation pressure, kPa (Liquid); method: Closed cell (Static) method
Mole fraction of 1,1,2,3,3,3-hexafluoro-1-propene	Temperature, K	Vapor or sublimation pressure, kPa	uncertainty
.04	313.05	547	7
.106	313.05	664	7
.201	313.05	779	7
.369	313.05	907	7
.515	313.05	983	7
.65	313.05	1033	7
.718	313.05	1054	7
.78	313.05	1065	7
.467	313.05	957	7
.677	313.05	1040	7
.781	313.05	1068	7
.911	313.05	1078	7
.939	313.05	1081	7
.05	327.81	821	7
.06	327.81	848	7
.077	327.81	897	7
.141	327.81	1017	7
.196	327.81	1108	7
.301	327.81	1232	7
.378	327.81	1293	7
.521	327.81	1402	7
.713	327.81	1510	7
.73	327.81	1518	7
.836	327.81	1557	7
.026	343.1	1076	7
.098	343.1	1305	7
.18	343.1	1499	7
.287	343.1	1690	7
.361	343.1	1791	7
.473	343.1	1910	7
.562	343.1	2021	7
.642	343.1	2086	7
.736	343.1	2151	7
.86	343.1	2215	7

System: 1-butene + 1,1,2,3,3,3-hexafluoro-1-propene; phases: Gas, Liquid
Property: Mole fraction of 1,1,2,3,3,3-hexafluoro-1-propene (Gas); method: Chromatography
Mole fraction of 1,1,2,3,3,3-hexafluoro-1-propene	Temperature, K	Mole fraction of 1,1,2,3,3,3-hexafluoro-1-propene	uncertainty
.04	313.05	.186	.006
.106	313.05	.344	.006
.201	313.05	.464	.006
.369	313.05	.585	.006
.515	313.05	.663	.006
.65	313.05	.735	.006
.718	313.05	.775	.006
.78	313.05	.815	.006
.467	313.05	.636	.006
.677	313.05	.75	.006
.781	313.05	.815	.006
.911	313.05	.92	.006
.939	313.05	.944	.006
.05	327.81	.192	.006
.06	327.81	.219	.006
.077	327.81	.26	.006
.141	327.81	.367	.006
.196	327.81	.432	.006
.301	327.81	.506	.006
.378	327.81	.56	.006
.521	327.81	.637	.006
.713	327.81	.754	.006
.73	327.81	.768	.006
.836	327.81	.847	.006
.026	343.1	.102	.006
.098	343.1	.268	.006
.18	343.1	.378	.006
.287	343.1	.475	.006
.361	343.1	.527	.006
.473	343.1	.586	.006
.562	343.1	.649	.006
.642	343.1	.702	.006
.736	343.1	.767	.006
.86	343.1	.869	.006

System: 1-butene + propane, 1,2-epoxy-1,1,2,3,3,3-hexafluoro-; phases: Liquid, Gas
Property: Vapor or sublimation pressure, kPa (Liquid); method: Closed cell (Static) method
Mole fraction of propane, 1,2-epoxy-1,1,2,3,3,3-hexafluoro-	Temperature, K	Vapor or sublimation pressure, kPa	uncertainty
.105	312.93	698	7
.208	312.93	837	7
.259	312.93	882	7
.361	312.93	945	7
.438	312.93	982	7
.583	312.93	1034	7
.712	312.93	1063	7
.808	312.93	1071	7
.859	312.93	1069	7
.911	312.93	1061	7
.944	312.93	1053	7
.071	327.94	907	7
.201	327.94	1171	7
.346	327.94	1320	7
.57	327.94	1471	7
.6	327.94	1482	7
.68	327.94	1515	7
.944	327.94	1516	7
.932	327.94	1518	7
.761	327.94	1533	7
.868	327.94	1534	7
.799	327.94	1537	7
.062	342.83	1212	7
.152	342.83	1479	7
.244	342.83	1657	7
.35	342.83	1813	7
.387	342.83	1851	7
.513	342.83	1984	7
.694	342.83	2102	7
.96	342.83	2111	7
.935	342.83	2120	7
.893	342.83	2132	7
.797	342.83	2136	7

System: 1-butene + propane, 1,2-epoxy-1,1,2,3,3,3-hexafluoro-; phases: Gas, Liquid
Property: Mole fraction of propane, 1,2-epoxy-1,1,2,3,3,3-hexafluoro- (Gas); method: Chromatography
Mole fraction of propane, 1,2-epoxy-1,1,2,3,3,3-hexafluoro-	Temperature, K	Mole fraction of propane, 1,2-epoxy-1,1,2,3,3,3-hexafluoro-	uncertainty
.105	312.93	.363	.006
.208	312.93	.489	.006
.259	312.93	.526	.006
.361	312.93	.579	.006
.438	312.93	.613	.006
.583	312.93	.68	.006
.712	312.93	.745	.006
.808	312.93	.806	.006
.859	312.93	.848	.006
.911	312.93	.896	.006
.944	312.93	.931	.006
.071	327.94	.265	.006
.201	327.94	.448	.006
.346	327.94	.545	.006
.57	327.94	.659	.006
.6	327.94	.677	.006
.68	327.94	.721	.006
.944	327.94	.934	.006
.932	327.94	.92	.006
.761	327.94	.774	.006
.868	327.94	.857	.006
.799	327.94	.802	.006
.062	342.83	.208	.006
.152	342.83	.36	.006
.244	342.83	.441	.006
.35	342.83	.515	.006
.387	342.83	.538	.006
.513	342.83	.614	.006
.694	342.83	.725	.006
.96	342.83	.953	.006
.935	342.83	.929	.006
.893	342.83	.888	.006
.797	342.83	.803	.006

System: 1-butene + propane, 1,2-epoxy-1,1,2,3,3,3-hexafluoro-; phases: Liquid, Gas
Property: Azeotropic pressure, kPa (Liquid); method: By P(X) extreme
Temperature, K	Azeotropic pressure, kPa	uncertainty
312.93	1071	7
327.94	1537	7
342.83	2138	7

System: 1-butene + propane, 1,2-epoxy-1,1,2,3,3,3-hexafluoro-; phases: Liquid, Gas
Property: Azeotropic composition: mole fraction of propane, 1,2-epoxy-1,1,2,3,3,3-hexafluoro- (Liquid); method: By T or P extreme
Temperature, K	Azeotropic composition: mole fraction of propane, 1,2-epoxy-1,1,2,3,3,3-hexafluoro-	uncertainty
312.93	.804	.006
327.94	.815	.006
342.83	.827	.006

System: difluoromethane + 1-butene; phases: Liquid, Gas
Property: Vapor or sublimation pressure, kPa (Liquid); method: Closed cell (Static) method
Mole fraction of difluoromethane	Temperature, K	Vapor or sublimation pressure, kPa	uncertainty
.02	302.86	494	7
.058	302.86	763	7
.107	302.86	1037	7
.171	302.86	1287	7
.321	302.86	1603	7
.462	302.86	1762	7
.556	302.86	1828	7
.741	302.86	1887	7
.882	302.86	1933	7
.913	302.86	1927	7
.941	302.86	1928	7
.951	302.86	1923	7
.02	317.91	725	7
.07	317.91	1114	7
.131	317.91	1495	7
.221	317.91	1926	7
.391	317.91	2384	7
.501	317.91	2564	7
.556	317.91	2625	7
.752	317.91	2749	7
.884	317.91	2819	7
.912	317.91	2826	7
.94	317.91	2825	7
.952	317.91	2819	7
.02	332.92	990	7
.091	332.92	1658	7
.191	332.92	2344	7
.321	332.92	2963	7
.422	332.92	3302	7
.513	332.92	3500	7
.611	332.92	3687	7
.782	332.92	3885	7
.883	332.92	3973	7
.901	332.92	3981	7
.933	332.92	3986	7
.949	332.92	3978	7

System: difluoromethane + 1-butene; phases: Gas, Liquid
Property: Mole fraction of difluoromethane (Gas); method: Chromatography
Mole fraction of difluoromethane	Temperature, K	Mole fraction of difluoromethane	uncertainty
.02	302.86	.308	.005
.058	302.86	.532	.005
.107	302.86	.656	.005
.171	302.86	.73	.005
.321	302.86	.791	.005
.462	302.86	.818	.005
.556	302.86	.831	.005
.741	302.86	.852	.005
.882	302.86	.895	.005
.913	302.86	.915	.005
.941	302.86	.938	.005
.951	302.86	.945	.005
.02	317.91	.269	.005
.07	317.91	.522	.005
.131	317.91	.64	.005
.221	317.91	.719	.005
.391	317.91	.787	.005
.501	317.91	.808	.005
.556	317.91	.818	.005
.752	317.91	.847	.005
.884	317.91	.894	.005
.912	317.91	.914	.005
.94	317.91	.937	.005
.952	317.91	.943	.005
.02	332.92	.233	.005
.091	332.92	.52	.005
.191	332.92	.658	.005
.321	332.92	.733	.005
.422	332.92	.767	.005
.513	332.92	.787	.005
.611	332.92	.808	.005
.782	332.92	.845	.005
.883	332.92	.892	.005
.901	332.92	.906	.005
.933	332.92	.929	.005
.949	332.92	.94	.005

System: difluoromethane + 1-butene; phases: Liquid, Gas
Property: Azeotropic pressure, kPa (Liquid); method: By P(X) extreme
Temperature, K	Azeotropic pressure, kPa	uncertainty
302.86	1939	7
317.91	2821	7
332.92	3971	7

System: difluoromethane + 1-butene; phases: Liquid, Gas
Property: Azeotropic composition: mole fraction of difluoromethane (Liquid); method: By T or P extreme
Temperature, K	Azeotropic composition: mole fraction of difluoromethane	uncertainty
302.86	.925	.007
317.91	.918	.007
332.92	.919	.007
