Measured thermophysical data. Triggering phase disengagement of 1-alkyl-3-methylimidazolium chloride ionic liquids by using inorganic and organic salts
Source: J. Chem. Thermodyn., 2015, 10.1016/j.jct.2015.04.004
Compound 1: dipotassium tartrate, C4H4K2O6, purity 99%
Compound 2: sodium carbonate, CNa2O3, purity 99%
Compound 3: diammonium hydrogen phosphate, H9N2O4P, purity 99%
Compound 4: sodium sulfate, Na2O4S, purity 99%
Compound 5: 1-octyl-3-methylimidazolium chloride, C12H23ClN2, purity 98%
Compound 6: 1-decyl-3-methylimidazolium chloride, C14H27ClN2, purity 98%
Compound 7: water, H2O, purity 99.8%
Compound 8: ammonium sulfate, H8N2O4S, purity 99%

System: sodium carbonate + water + 1-octyl-3-methylimidazolium chloride; phases: Liquid mixture 1, Liquid mixture 2
Fixed: Temperature, K = 298.15
Fixed: Pressure, kPa = 101.33
Property: Mass fraction of 1-octyl-3-methylimidazolium chloride (Liquid mixture 1); method: Titration method
Mass fraction of sodium carbonate	Mass fraction of 1-octyl-3-methylimidazolium chloride	uncertainty
.0243	.4798	.009596
.0324	.4465	.00893
.046	.3889	.007778
.0511	.3692	.007384
.0652	.3281	.006562
.0681	.314	.00628
.0793	.2866	.005732
.0828	.2779	.005558
.0914	.2558	.005116
.1029	.234	.00468
.1113	.2151	.004302
.1194	.1986	.003972
.1265	.1807	.003614
.1373	.1671	.003342
.1456	.1514	.003028
.1534	.1381	.002762
.1605	.127	.00254
.1662	.1178	.002356
.1731	.107	.00214
.1793	.0977	.001954
.1861	.0885	.00177
.1966	.0754	.001508
.206	.0651	.001302
.2128	.0576	.001152
.2219	.0487	.000974
.2305	.0404	.000808
.2378	.0348	.000696

System: sodium carbonate + water + 1-octyl-3-methylimidazolium chloride; phases: Liquid mixture 1, Liquid mixture 2
Property: Mass fraction of sodium carbonate (Liquid mixture 1); method: gravimetric
Property: Mass fraction of 1-octyl-3-methylimidazolium chloride (Liquid mixture 2); method: gravimetric
Property: Mass fraction of sodium carbonate (Liquid mixture 2); method: gravimetric
Temperature, K	Pressure, kPa	Mass fraction of 1-octyl-3-methylimidazolium chloride	Mass fraction of sodium carbonate	uncertainty	Mass fraction of 1-octyl-3-methylimidazolium chloride	uncertainty	Mass fraction of sodium carbonate	uncertainty
298.15	101.33	.3188	.067	.00134	.09	.0018	.1853	.003706
298.15	101.33	.3859	.0459	.000918	.047	.00094	.2237	.004474
298.15	101.33	.4628	.0283	.000566	.0359	.000718	.2372	.004744

System: water + diammonium hydrogen phosphate + 1-octyl-3-methylimidazolium chloride; phases: Liquid mixture 1, Liquid mixture 2
Fixed: Temperature, K = 298.15
Fixed: Pressure, kPa = 101.33
Property: Mass fraction of 1-octyl-3-methylimidazolium chloride (Liquid mixture 1); method: Titration method
Mass fraction of diammonium hydrogen phosphate	Mass fraction of 1-octyl-3-methylimidazolium chloride	uncertainty
.0629	.3971	.007942
.0799	.3646	.007292
.094	.3346	.006692
.1143	.2952	.005904
.1317	.2694	.005388
.1434	.2508	.005016
.1565	.2335	.00467
.166	.2215	.00443
.1784	.2072	.004144
.1871	.1936	.003872
.1983	.1827	.003654
.2105	.1677	.003354
.2235	.1523	.003046
.2341	.1416	.002832
.2442	.1332	.002664
.2561	.124	.00248
.2652	.1164	.002328
.2732	.1084	.002168
.2793	.102	.00204
.2869	.0946	.001892
.296	.0906	.001812
.3066	.0805	.00161
.3173	.0738	.001476
.3299	.0661	.001322
.3389	.0608	.001216
.3532	.0529	.001058

System: water + diammonium hydrogen phosphate + 1-octyl-3-methylimidazolium chloride; phases: Liquid mixture 1, Liquid mixture 2
Property: Mass fraction of diammonium hydrogen phosphate (Liquid mixture 1); method: gravimetric
Property: Mass fraction of diammonium hydrogen phosphate (Liquid mixture 2); method: gravimetric
Property: Mass fraction of 1-octyl-3-methylimidazolium chloride (Liquid mixture 2); method: gravimetric
Temperature, K	Pressure, kPa	Mass fraction of 1-octyl-3-methylimidazolium chloride	Mass fraction of diammonium hydrogen phosphate	uncertainty	Mass fraction of diammonium hydrogen phosphate	uncertainty	Mass fraction of 1-octyl-3-methylimidazolium chloride	uncertainty
298.15	101.33	.2818	.1222	.002444	.2972	.005944	.0892	.001784
298.15	101.33	.3081	.1069	.002138	.3219	.006438	.0719	.001438
298.15	101.33	.3256	.0977	.001954	.3414	.006828	.0598	.001196

System: dipotassium tartrate + water + 1-octyl-3-methylimidazolium chloride; phases: Liquid mixture 1, Liquid mixture 2
Fixed: Temperature, K = 298.15
Fixed: Pressure, kPa = 101.33
Property: Mass fraction of 1-octyl-3-methylimidazolium chloride (Liquid mixture 1); method: Titration method
Mass fraction of dipotassium tartrate	Mass fraction of 1-octyl-3-methylimidazolium chloride	uncertainty
.1792	.4374	.008748
.2189	.3428	.006856
.2708	.2754	.005508
.2979	.2314	.004628
.3267	.1966	.003932
.3474	.1704	.003408
.3667	.1482	.002964
.3799	.1331	.002662
.3977	.111	.00222
.4134	.0935	.00187
.4299	.0802	.001604
.4501	.0617	.001234
.4629	.0501	.001002
.4708	.0433	.000866
.4819	.0381	.000762
.4924	.033	.00066

System: dipotassium tartrate + water + 1-octyl-3-methylimidazolium chloride; phases: Liquid mixture 1, Liquid mixture 2
Property: Mass fraction of dipotassium tartrate (Liquid mixture 1); method: gravimetric
Property: Mass fraction of dipotassium tartrate (Liquid mixture 2); method: gravimetric
Property: Mass fraction of 1-octyl-3-methylimidazolium chloride (Liquid mixture 2); method: gravimetric
Temperature, K	Pressure, kPa	Mass fraction of 1-octyl-3-methylimidazolium chloride	Mass fraction of dipotassium tartrate	uncertainty	Mass fraction of dipotassium tartrate	uncertainty	Mass fraction of 1-octyl-3-methylimidazolium chloride	uncertainty
298.15	101.33	.3481	.2238	.004476	.4378	.008756	.0735	.00147
298.15	101.33	.4295	.177	.00354	.4947	.009894	.0377	.000754
298.15	101.33	.4546	.1633	.003266	.5265	.01053	.0245	.00049

System: water + sodium sulfate + 1-octyl-3-methylimidazolium chloride; phases: Liquid mixture 1, Liquid mixture 2
Fixed: Temperature, K = 298.15
Fixed: Pressure, kPa = 101.33
Property: Mass fraction of 1-octyl-3-methylimidazolium chloride (Liquid mixture 1); method: Titration method
Mass fraction of sodium sulfate	Mass fraction of 1-octyl-3-methylimidazolium chloride	uncertainty
.0708	.42	.0084
.0813	.3904	.007808
.094	.3656	.007312
.0982	.3537	.007074
.106	.3412	.006824
.1167	.3213	.006426
.1273	.3008	.006016
.1429	.2787	.005574
.1528	.2611	.005222
.1628	.2444	.004888
.1703	.2305	.00461
.1783	.2177	.004354
.1847	.2077	.004154
.1912	.1986	.003972
.1991	.186	.00372
.209	.1741	.003482
.2181	.1616	.003232
.2266	.1497	.002994
.2371	.1363	.002726
.2446	.1304	.002608

System: sodium carbonate + water + 1-decyl-3-methylimidazolium chloride; phases: Liquid mixture 1, Liquid mixture 2
Fixed: Temperature, K = 298.15
Fixed: Pressure, kPa = 101.33
Property: Mass fraction of 1-decyl-3-methylimidazolium chloride (Liquid mixture 1); method: Titration method
Mass fraction of sodium carbonate	Mass fraction of 1-decyl-3-methylimidazolium chloride	uncertainty
.0447	.4228	.008456
.0694	.3385	.00677
.083	.3075	.00615
.097	.2708	.005416
.1063	.248	.00496
.1128	.2295	.00459
.1207	.213	.00426
.1288	.1961	.003922
.1366	.18	.0036
.1442	.1639	.003278
.1509	.1514	.003028
.1561	.1411	.002822
.1607	.1319	.002638
.1656	.1233	.002466
.1733	.1077	.002154
.1798	.0962	.001924
.1871	.0863	.001726
.1948	.0756	.001512
.2023	.067	.00134
.2103	.0583	.001166
.2185	.048	.00096
.2265	.0389	.000778
.2348	.033	.00066

System: sodium carbonate + water + 1-decyl-3-methylimidazolium chloride; phases: Liquid mixture 1, Liquid mixture 2
Property: Mass fraction of sodium carbonate (Liquid mixture 1); method: gravimetric
Property: Mass fraction of 1-decyl-3-methylimidazolium chloride (Liquid mixture 2); method: gravimetric
Property: Mass fraction of sodium carbonate (Liquid mixture 2); method: gravimetric
Temperature, K	Pressure, kPa	Mass fraction of 1-decyl-3-methylimidazolium chloride	Mass fraction of sodium carbonate	uncertainty	Mass fraction of 1-decyl-3-methylimidazolium chloride	uncertainty	Mass fraction of sodium carbonate	uncertainty
298.15	101.33	.4078	.049	.00098	.0597	.001194	.2078	.004156
298.15	101.33	.4363	.0415	.00083	.03	.0006	.2386	.004772
298.15	101.33	.4763	.0324	.000648	.0248	.000496	.2542	.005084

System: water + diammonium hydrogen phosphate + 1-decyl-3-methylimidazolium chloride; phases: Liquid mixture 1, Liquid mixture 2
Fixed: Temperature, K = 298.15
Fixed: Pressure, kPa = 101.33
Property: Mass fraction of 1-decyl-3-methylimidazolium chloride (Liquid mixture 1); method: Titration method
Mass fraction of diammonium hydrogen phosphate	Mass fraction of 1-decyl-3-methylimidazolium chloride	uncertainty
.0804	.3911	.007822
.1181	.3159	.006318
.1262	.3022	.006044
.1345	.2889	.005778
.1534	.2611	.005222
.1684	.2387	.004774
.1818	.2197	.004394
.1942	.206	.00412
.2037	.1935	.00387
.2168	.1774	.003548
.2278	.1659	.003318
.2385	.1557	.003114
.246	.147	.00294
.2547	.1385	.00277
.2624	.1307	.002614
.2709	.1226	.002452
.2786	.116	.00232
.2875	.1047	.002094
.2943	.0988	.001976
.3002	.0936	.001872
.3054	.09	.0018
.3137	.0848	.001696
.3176	.08	.0016
.3257	.0749	.001498
.336	.0696	.001392
.3445	.0631	.001262

System: water + diammonium hydrogen phosphate + 1-decyl-3-methylimidazolium chloride; phases: Liquid mixture 1, Liquid mixture 2
Property: Mass fraction of diammonium hydrogen phosphate (Liquid mixture 1); method: gravimetric
Property: Mass fraction of 1-decyl-3-methylimidazolium chloride (Liquid mixture 2); method: gravimetric
Property: Mass fraction of diammonium hydrogen phosphate (Liquid mixture 2); method: gravimetric
Temperature, K	Pressure, kPa	Mass fraction of 1-decyl-3-methylimidazolium chloride	Mass fraction of diammonium hydrogen phosphate	uncertainty	Mass fraction of 1-decyl-3-methylimidazolium chloride	uncertainty	Mass fraction of diammonium hydrogen phosphate	uncertainty
298.15	101.33	.3395	.1073	.002146	.1021	.002042	.2938	.005876
298.15	101.33	.3634	.0963	.001926	.0721	.001442	.3345	.00669
298.15	101.33	.3819	.0884	.001768	.0581	.001162	.3572	.007144

System: dipotassium tartrate + water + 1-decyl-3-methylimidazolium chloride; phases: Liquid mixture 1, Liquid mixture 2
Fixed: Temperature, K = 298.15
Fixed: Pressure, kPa = 101.33
Property: Mass fraction of 1-decyl-3-methylimidazolium chloride (Liquid mixture 1); method: Titration method
Mass fraction of dipotassium tartrate	Mass fraction of 1-decyl-3-methylimidazolium chloride	uncertainty
.2326	.3204	.006408
.2663	.2802	.005604
.2819	.2531	.005062
.3012	.2305	.00461
.321	.2075	.00415
.3354	.1883	.003766
.3454	.1752	.003504
.3594	.1569	.003138
.3753	.1386	.002772
.3876	.1247	.002494
.3978	.1134	.002268
.4061	.1041	.002082
.4145	.0952	.001904
.4248	.0869	.001738
.4353	.079	.00158
.4421	.0724	.001448
.4493	.0662	.001324
.4589	.057	.00114
.4666	.0507	.001014
.4731	.0478	.000956
.4808	.0431	.000862
.4883	.0389	.000778
.4982	.0342	.000684

System: dipotassium tartrate + water + 1-decyl-3-methylimidazolium chloride; phases: Liquid mixture 1, Liquid mixture 2
Property: Mass fraction of dipotassium tartrate (Liquid mixture 1); method: gravimetric
Property: Mass fraction of dipotassium tartrate (Liquid mixture 2); method: gravimetric
Property: Mass fraction of 1-decyl-3-methylimidazolium chloride (Liquid mixture 2); method: gravimetric
Temperature, K	Pressure, kPa	Mass fraction of 1-decyl-3-methylimidazolium chloride	Mass fraction of dipotassium tartrate	uncertainty	Mass fraction of dipotassium tartrate	uncertainty	Mass fraction of 1-decyl-3-methylimidazolium chloride	uncertainty
298.15	101.33	.311	.2458	.004916	.4541	.009082	.0645	.00129
298.15	101.33	.3759	.2063	.004126	.4767	.009534	.0501	.001002
298.15	101.33	.4072	.1883	.003766	.4859	.009718	.0449	.000898

System: water + sodium sulfate + 1-decyl-3-methylimidazolium chloride; phases: Liquid mixture 1, Liquid mixture 2
Fixed: Temperature, K = 298.15
Fixed: Pressure, kPa = 101.33
Property: Mass fraction of 1-decyl-3-methylimidazolium chloride (Liquid mixture 1); method: Titration method
Mass fraction of sodium sulfate	Mass fraction of 1-decyl-3-methylimidazolium chloride	uncertainty
.0853	.4151	.008302
.0893	.3974	.007948
.0973	.377	.00754
.1076	.3542	.007084
.1284	.3162	.006324
.1387	.296	.00592
.1514	.2722	.005444
.1619	.2501	.005002
.1727	.2322	.004644
.1821	.2189	.004378
.185	.2113	.004226
.1943	.2009	.004018
.201	.1946	.003892
.2059	.1826	.003652
.2148	.17	.0034
.2214	.1607	.003214
.2309	.1491	.002982
.2401	.1382	.002764
.2446	.1332	.002664
.253	.1236	.002472

System: water + ammonium sulfate + 1-decyl-3-methylimidazolium chloride; phases: Liquid mixture 1, Liquid mixture 2
Fixed: Temperature, K = 298.15
Fixed: Pressure, kPa = 101.33
Property: Mass fraction of 1-decyl-3-methylimidazolium chloride (Liquid mixture 1); method: Titration method
Mass fraction of ammonium sulfate	Mass fraction of 1-decyl-3-methylimidazolium chloride	uncertainty
.1668	.3875	.00775
.25	.2589	.005178
.1809	.3599	.007198
.1909	.3479	.006958
.2187	.3125	.00625
.1976	.3451	.006902
.208	.3309	.006618
.2258	.2925	.00585
.2187	.3125	.00625
.2258	.2925	.00585
