Measured thermophysical data. Liquid viscosity of low-GWP refrigerant mixtures (R32 + R1234yf) and (R125 + R1234yf)
Source: J. Chem. Thermodyn., 2015, 10.1016/j.jct.2015.05.009
Compound 1: R-1234yf, C3H2F4, purity 99%
Compound 2: R-32, CH2F2, purity 99.9%
Compound 3: R-125, C2HF5, purity 99.9%

System: R-1234yf; phases: Liquid
Property: Viscosity, Pa*s (Liquid); method: Moving piston method
Temperature, K	Pressure, kPa	Viscosity, Pa*s	uncertainty
283.17	591	.0001847	.000003694
285.39	591	.0001792	.000003584
288.11	591	.000172	.00000344
291.17	591	.0001666	.000003332
283.15	782	.0001837	.000003674
289.58	782	.0001701	.000003402
291.16	782	.0001661	.000003322
298.45	782	.0001515	.00000303
301.16	782	.0001431	.000002862
283.16	1020	.0001837	.000003674
291.18	1020	.0001651	.000003302
296.19	1020	.0001568	.000003136
301.16	1020	.0001451	.000002902
304.31	1020	.0001403	.000002806
311.01	1020	.0001267	.000002534
283.15	1302	.000181	.00000362
291.18	1302	.0001657	.000003314
295.9	1302	.0001578	.000003156
301.16	1302	.0001461	.000002922
306.13	1302	.0001395	.00000279
310.94	1302	.0001293	.000002586
311.11	1302	.0001291	.000002582
317.86	1302	.0001208	.000002416
318.02	1302	.0001202	.000002404
320.76	1302	.0001162	.000002324

System: R-32 + R-1234yf; phases: Liquid
Property: Viscosity, Pa*s (Liquid); method: Moving piston method
Temperature, K	Pressure, kPa	Mass fraction of R-32	Viscosity, Pa*s	uncertainty
283.09	2228	.3	.0001597	.000003194
288.06	2253	.3	.0001513	.000003026
293.14	2265	.3	.0001421	.000002842
298.19	2276	.3	.0001331	.000002662
303.16	2292	.3	.0001271	.000002542
308.11	2303	.3	.0001187	.000002374
313.13	2315	.3	.0001128	.000002256
318.08	2372	.3	.0001047	.000002094
320.14	2344	.3	.000105	.0000021
283.07	2677	.5	.0001519	.000003038
288.01	2658	.5	.0001393	.000002786
293.07	2675	.5	.000132	.00000264
298.11	2684	.5	.0001256	.000002512
303	2695	.5	.0001187	.000002374
308.04	2708	.5	.0001123	.000002246
313.07	2719	.5	.0001063	.000002126
318.13	2735	.5	.0000985	.00000197
283.07	2950	.7	.000152	.00000304
288.14	2959	.7	.0001448	.000002896
293.1	2965	.7	.0001363	.000002726
298.14	2976	.7	.0001274	.000002548
303	2989	.7	.0001202	.000002404
308.04	2999	.7	.0001139	.000002278
313.07	3008	.7	.0001078	.000002156
318.16	3022	.7	.0001028	.000002056
320.17	3023	.7	.000099	.00000198

System: R-32 + R-1234yf; phases: Liquid
Property: Mass density, kg/m3 (Liquid); method: Vibrating tube method
Temperature, K	Pressure, kPa	Mass fraction of R-32	Mass density, kg/m3	uncertainty
283.7	2228	.3	1079.1	1
288.1	2253	.3	1065.2	1
292.9	2265	.3	1047	1
297.5	2276	.3	1030.3	1
302.1	2292	.3	1012.9	1
306.7	2303	.3	992.8	1
311.3	2315	.3	971.2	1
315.7	2372	.3	951.4	1
318.6	2344	.3	942.2	1
283.4	2677	.5	1054.1	1
287.8	2658	.5	1043.2	1
292.4	2675	.5	1027.8	1
297	2684	.5	1010	1
301.4	2695	.5	994.3	1
306.3	2708	.5	972.1	1
311	2719	.5	949	1
315.5	2735	.5	926.2	1
283.8	2950	.7	1041	1
288.3	2959	.7	1026.3	1
293	2965	.7	1010.5	1
297.7	2976	.7	991.5	1
302	2989	.7	974.8	1
306.5	2999	.7	956	1
310.9	3008	.7	935.5	1
315.5	3022	.7	913.6	1
317.4	3023	.7	903.5	1

System: R-125 + R-1234yf; phases: Liquid
Property: Viscosity, Pa*s (Liquid); method: Moving piston method
Temperature, K	Pressure, kPa	Mass fraction of R-125	Viscosity, Pa*s	uncertainty
283.08	1576	.3	.0001901	.000003802
288.16	1586	.3	.000178	.00000356
293.15	1595	.3	.0001672	.000003344
298.21	1605	.3	.000157	.00000314
303.06	1616	.3	.000148	.00000296
308.1	1627	.3	.0001373	.000002746
313.09	1640	.3	.0001316	.000002632
318.19	1646	.3	.0001221	.000002442
320.09	1667	.3	.0001174	.000002348
283.06	1807	.5	.0001959	.000003918
288.16	1814	.5	.0001836	.000003672
293.04	1822	.5	.0001691	.000003382
298.03	1833	.5	.0001574	.000003148
303.08	1842	.5	.0001481	.000002962
308.11	1853	.5	.0001337	.000002674
313.1	1863	.5	.0001237	.000002474
318.17	1878	.5	.0001149	.000002298
320.12	1884	.5	.0001096	.000002192
283.1	2058	.7	.0001875	.00000375
288.05	2070	.7	.0001735	.00000347
293.19	2075	.7	.0001621	.000003242
298.1	2090	.7	.0001514	.000003028
303.09	2098	.7	.0001386	.000002772
308.14	2108	.7	.0001298	.000002596
313.14	2116	.7	.0001206	.000002412
318.18	2129	.7	.0001136	.000002272
320.1	2134	.7	.0001056	.000002112

System: R-125 + R-1234yf; phases: Liquid
Property: Mass density, kg/m3 (Liquid); method: Vibrating tube method
Temperature, K	Pressure, kPa	Mass fraction of R-125	Mass density, kg/m3	uncertainty
283.8	1576	.3	1187.2	1
288.4	1586	.3	1172.1	1
293.1	1595	.3	1154.4	1
297.7	1605	.3	1136.3	1
302.4	1616	.3	1116.7	1
307.2	1627	.3	1096	1
311.7	1640	.3	1076	1
315.9	1646	.3	1057.4	1
318	1667	.3	1045.1	1
283.6	1807	.5	1213.6	1
288.2	1814	.5	1197.8	1
293	1822	.5	1178.2	1
297.3	1833	.5	1160	1
302.1	1842	.5	1139.1	1
307	1853	.5	1114.4	1
311.5	1863	.5	1090	1
315.9	1878	.5	1065.3	1
317.8	1884	.5	1055.1	1
284	2058	.7	1240	1
288.2	2070	.7	1224.4	1
293	2075	.7	1202.3	1
297.3	2090	.7	1183.1	1
301.9	2098	.7	1160.1	1
306.7	2108	.7	1134.3	1
311.1	2116	.7	1106.7	1
315.5	2129	.7	1078.9	1
317.5	2134	.7	1064.1	1
