Measured thermophysical data. Measurement and correlation of solubility of cefmenoxime hydrochloride in pure solvents and binary solvent mixtures
Source: J. Chem. Thermodyn., 2016, 10.1016/j.jct.2015.11.024
Compound 1: Cefmenoxime hydrochloride, C32H35ClN18O10S6, purity 99%
Compound 2: isopropanol, C3H8O, purity 99.5%
Compound 3: methanol, CH4O, purity 99.5%
Compound 4: ethanol, C2H6O, purity 99.5%
Compound 5: water, H2O, purity 99.8%

System: water + Cefmenoxime hydrochloride; phases: Liquid, Crystal
Fixed: Pressure, kPa = 100
Property: Mole fraction of Cefmenoxime hydrochloride (Liquid); method: UV spectroscopy
Temperature, K	Mole fraction of Cefmenoxime hydrochloride	uncertainty
283.15	.00003256	.000001628
288.15	.00003591	.0000017955
293.15	.0000423	.000002115
298.15	.00004756	.000002378
303.15	.00005294	.000002647
308.15	.0000588	.00000294
313.15	.00006648	.000003324

System: methanol + Cefmenoxime hydrochloride; phases: Liquid, Crystal
Fixed: Pressure, kPa = 100
Property: Mole fraction of Cefmenoxime hydrochloride (Liquid); method: UV spectroscopy
Temperature, K	Mole fraction of Cefmenoxime hydrochloride	uncertainty
283.15	.000186	.0000093
288.15	.0001956	.00000978
293.15	.0002132	.00001066
298.15	.0002352	.00001176
303.15	.0002532	.00001266
308.15	.0002746	.00001373
313.15	.0003027	.000015135

System: ethanol + Cefmenoxime hydrochloride; phases: Liquid, Crystal
Fixed: Pressure, kPa = 100
Property: Mole fraction of Cefmenoxime hydrochloride (Liquid); method: UV spectroscopy
Temperature, K	Mole fraction of Cefmenoxime hydrochloride	uncertainty
283.15	.00002613	.0000013065
288.15	.0000283	.000001415
293.15	.00003029	.0000015145
298.15	.00003169	.0000015845
303.15	.00003804	.000001902
308.15	.00004007	.0000020035
313.15	.00004677	.0000023385

System: isopropanol + water + Cefmenoxime hydrochloride; phases: Liquid, Crystal
Fixed: Pressure, kPa = 100
Property: Mole fraction of Cefmenoxime hydrochloride (Liquid); method: UV spectroscopy
Temperature, K	Solvent: Mole fraction of isopropanol	Mole fraction of Cefmenoxime hydrochloride	uncertainty
283.15	.1013	.00005033	.0000025165
283.15	.2	.000074	.0000037
283.15	.2999	.00007367	.0000036835
283.15	.3997	.00005812	.000002906
283.15	.4998	.00004528	.000002264
283.15	.5991	.00003298	.000001649
283.15	.7008	.00002287	.0000011435
283.15	.7966	.00001749	.0000008745
283.15	.8982	.000008164	.0000004082
288.15	.1013	.0000694	.00000347
288.15	.2	.00008384	.000004192
288.15	.2999	.00008222	.000004111
288.15	.3997	.00006789	.0000033945
288.15	.4998	.00005292	.000002646
288.15	.5991	.00003866	.000001933
288.15	.7008	.00002597	.0000012985
288.15	.7966	.0000194	.00000097
288.15	.8982	.000009629	.00000048145
293.15	.1006	.00008609	.0000043045
293.15	.2	.0001184	.00000592
293.15	.3001	.0001075	.000005375
293.15	.4001	.00008774	.000004387
293.15	.5009	.00006602	.000003301
293.15	.598	.00005131	.0000025655
293.15	.7011	.00003187	.0000015935
293.15	.7966	.00002084	.000001042
293.15	.8982	.00001063	.0000005315
298.15	.1006	.0001014	.00000507
298.15	.2	.0001372	.00000686
298.15	.3001	.0001242	.00000621
298.15	.4001	.00009972	.000004986
298.15	.5009	.00007652	.000003826
298.15	.598	.00005603	.0000028015
298.15	.7011	.00003538	.000001769
298.15	.7965	.00002366	.000001183
298.15	.8976	.0000132	.00000066
303.15	.1005	.0001328	.00000664
303.15	.1997	.000173	.00000865
303.15	.3002	.0001562	.00000781
303.15	.3994	.0001247	.000006235
303.15	.5012	.00008889	.0000044445
303.15	.5987	.00006176	.000003088
303.15	.701	.00004189	.0000020945
303.15	.8001	.00002684	.000001342
303.15	.8976	.00001478	.000000739
308.15	.1003	.0001588	.00000794
308.15	.2004	.0002037	.000010185
308.15	.3005	.0001928	.00000964
308.15	.4003	.0001552	.00000776
308.15	.5012	.000101	.00000505
308.15	.5988	.00007945	.0000039725
308.15	.701	.00004765	.0000023825
308.15	.798	.00003322	.000001661
308.15	.8982	.00001549	.0000007745
313.15	.1	.0002294	.00001147
313.15	.2002	.0002897	.000014485
313.15	.3004	.0002453	.000012265
313.15	.4005	.0001976	.00000988
313.15	.5005	.0001153	.000005765
313.15	.5973	.00008492	.000004246
313.15	.6996	.00005571	.0000027855
313.15	.7946	.00003783	.0000018915
313.15	.8959	.00001882	.000000941
283.15	0	.00003256	.000001628
288.15	0	.00003591	.0000017955
293.15	0	.0000423	.000002115
298.15	0	.00004756	.000002378
303.15	0	.00005294	.000002647
308.15	0	.0000588	.00000294
313.15	0	.00006648	.000003324
