Measured thermophysical data. (Liquid + liquid) phase equilibrium and critical behavior of binary solution {heavy water + 2,6-dimethylpyridine}
Source: J. Chem. Thermodyn., 2015, 10.1016/j.jct.2015.04.010
Compound 1: 2,6-dimethylpyridine, C7H9N, purity 99%
Compound 2: heavy water, D2O, purity 99.9%

System: 2,6-dimethylpyridine; phases: Liquid
Fixed: Wavelength, nm = 632.8
Property: Refractive index (other wavelength) (Liquid); method: minimum deviation angle method
Pressure, kPa	Temperature, K	Refractive index (other wavelength)	uncertainty
100	300.723	1.491	.0001
100	307.227	1.488	.0001
100	309.123	1.4869	.0001
100	310.309	1.4863	.0001
100	312.134	1.4853	.0001
100	313.959	1.4843	.0001
100	315.24	1.4837	.0001
100	317.351	1.4829	.0001
100	300.64	1.4909	.0001

System: heavy water; phases: Liquid
Fixed: Wavelength, nm = 632.8
Property: Refractive index (other wavelength) (Liquid); method: minimum deviation angle method
Pressure, kPa	Temperature, K	Refractive index (other wavelength)	uncertainty
100	301.629	1.3267	.0001
100	303.655	1.3264	.0001
100	308.519	1.3257	.0001
100	314.4	1.3249	.0001
100	319.016	1.3242	.0001
100	323.724	1.3235	.0001
100	329.126	1.3227	.0001
100	300.64	1.3267	.0001

System: 2,6-dimethylpyridine + heavy water; phases: Liquid mixture 1, Liquid mixture 2, Air at 1 atmosphere
Property: Lower consolute temperature, K (Liquid mixture 1); method: equal volume method
Lower consolute temperature, K	uncertainty
301.41	.02

System: 2,6-dimethylpyridine + heavy water; phases: Liquid mixture 1, Liquid mixture 2, Air at 1 atmosphere
Property: Lower consolute composition: mole fraction of 2,6-dimethylpyridine (Liquid mixture 1); method: equal volume method
Lower consolute composition: mole fraction of 2,6-dimethylpyridine	uncertainty
.065	.001

System: 2,6-dimethylpyridine + heavy water; phases: Liquid mixture 1, Liquid mixture 2
Property: Mole fraction of 2,6-dimethylpyridine (Liquid mixture 1); method: Index of refraction calibration data
Temperature, K	Pressure, kPa	Mole fraction of 2,6-dimethylpyridine	uncertainty
301.414	100	.071	.002
301.416	100	.072	.002
301.419	100	.073	.002
301.423	100	.075	.002
301.429	100	.076	.002
301.435	100	.077	.002
301.442	100	.078	.002
301.452	100	.08	.002
301.469	100	.082	.002
301.495	100	.084	.002
301.532	100	.086	.002
301.586	100	.089	.002
301.639	100	.091	.002
301.743	100	.095	.002
301.847	100	.099	.002
301.953	100	.101	.002
302.118	100	.106	.002
302.269	100	.108	.002
302.482	100	.112	.002
302.698	100	.116	.002
302.919	100	.119	.002
303.117	100	.122	.002
303.355	100	.125	.002
303.579	100	.128	.002
303.809	100	.131	.002
304.036	100	.133	.002
304.379	100	.137	.002
304.645	100	.14	.002
305.019	100	.144	.002
305.562	100	.148	.002
306.177	100	.154	.002
306.807	100	.159	.002
307.436	100	.164	.002
308.386	100	.171	.002
309.341	100	.177	.002
310.361	100	.184	.002
311.202	100	.189	.002
312.08	100	.194	.002
313.006	100	.199	.002
314.03	100	.205	.002
315.099	100	.21	.002
316.162	100	.216	.002
317.376	100	.221	.002
318.673	100	.228	.002
319.989	100	.233	.002
321.298	100	.238	.002

System: 2,6-dimethylpyridine + heavy water; phases: Liquid mixture 2, Liquid mixture 1
Property: Mole fraction of 2,6-dimethylpyridine (Liquid mixture 2); method: Index of refraction calibration data
Temperature, K	Pressure, kPa	Mole fraction of 2,6-dimethylpyridine	uncertainty
301.414	100	.059	.002
301.416	100	.058	.002
301.419	100	.057	.002
301.423	100	.056	.002
301.429	100	.055	.002
301.435	100	.054	.002
301.442	100	.053	.002
301.452	100	.052	.002
301.469	100	.051	.002
301.495	100	.049	.002
301.532	100	.047	.002
301.586	100	.046	.002
301.639	100	.044	.002
301.743	100	.042	.002
301.847	100	.04	.002
301.953	100	.038	.002
302.118	100	.036	.002
302.269	100	.035	.002
302.482	100	.033	.002
302.698	100	.031	.002
302.919	100	.03	.002
303.117	100	.029	.002
303.355	100	.028	.002
303.579	100	.027	.002
303.809	100	.026	.002
304.036	100	.025	.002
304.379	100	.024	.002
304.645	100	.023	.002
305.019	100	.023	.002
305.562	100	.021	.002
306.177	100	.02	.002
306.807	100	.019	.002
307.436	100	.018	.002
308.386	100	.017	.002
309.341	100	.016	.002
310.361	100	.016	.002
311.202	100	.015	.002
312.08	100	.014	.002
313.006	100	.014	.002
314.03	100	.013	.002
315.099	100	.013	.002
316.162	100	.012	.002
317.376	100	.012	.002
318.673	100	.011	.002
319.989	100	.011	.002
321.298	100	.01	.002

System: 2,6-dimethylpyridine + heavy water; phases: Liquid mixture 1, Liquid mixture 2
Fixed: Pressure, kPa = 100
Fixed: Wavelength, nm = 6328
Property: Refractive index (other wavelength) (Liquid mixture 1); method: minimum deviation angle method
Temperature, K	Refractive index (other wavelength)	uncertainty
301.414	1.3859	.0001
301.416	1.3865	.0001
301.419	1.3875	.0001
301.423	1.3885	.0001
301.429	1.3892	.0001
301.435	1.3899	.0001
301.442	1.3906	.0001
301.452	1.3915	.0001
301.469	1.3926	.0001
301.495	1.3939	.0001
301.532	1.3952	.0001
301.586	1.3967	.0001
301.639	1.3983	.0001
301.743	1.4004	.0001
301.847	1.4022	.0001
301.953	1.4037	.0001
302.118	1.4058	.0001
302.269	1.4072	.0001
302.482	1.4092	.0001
302.698	1.4108	.0001
302.919	1.4123	.0001
303.117	1.4137	.0001
303.355	1.415	.0001
303.579	1.4162	.0001
303.809	1.4173	.0001
304.036	1.4184	.0001
304.379	1.42	.0001
304.645	1.4211	.0001
305.019	1.4226	.0001
305.562	1.4242	.0001
306.177	1.4261	.0001
306.807	1.4278	.0001
307.436	1.4295	.0001
308.386	1.4316	.0001
309.341	1.4334	.0001
310.361	1.4353	.0001
311.202	1.4368	.0001
312.08	1.4381	.0001
313.006	1.4391	.0001
314.03	1.4406	.0001
315.099	1.4417	.0001
316.162	1.4429	.0001
317.376	1.444	.0001
318.673	1.4452	.0001
319.989	1.4461	.0001
321.298	1.4468	.0001

System: 2,6-dimethylpyridine + heavy water; phases: Liquid mixture 2, Liquid mixture 1
Fixed: Pressure, kPa = 100
Fixed: Wavelength, nm = 6328
Property: Refractive index (other wavelength) (Liquid mixture 2); method: minimum deviation angle method
Temperature, K	Refractive index (other wavelength)	uncertainty
301.414	1.378	.0001
301.416	1.3774	.0001
301.419	1.3766	.0001
301.423	1.3756	.0001
301.429	1.3748	.0001
301.435	1.3742	.0001
301.442	1.3735	.0001
301.452	1.3727	.0001
301.469	1.3717	.0001
301.495	1.3705	.0001
301.532	1.3693	.0001
301.586	1.3678	.0001
301.639	1.3666	.0001
301.743	1.3647	.0001
301.847	1.3632	.0001
301.953	1.3619	.0001
302.118	1.3603	.0001
302.269	1.3589	.0001
302.482	1.3575	.0001
302.698	1.3562	.0001
302.919	1.3551	.0001
303.117	1.3542	.0001
303.355	1.353	.0001
303.579	1.3522	.0001
303.809	1.3514	.0001
304.036	1.3508	.0001
304.379	1.3497	.0001
304.645	1.3489	.0001
305.019	1.348	.0001
305.562	1.3468	.0001
306.177	1.3459	.0001
306.807	1.3448	.0001
307.436	1.3439	.0001
308.386	1.3428	.0001
309.341	1.3417	.0001
310.361	1.3407	.0001
311.202	1.3399	.0001
312.08	1.3393	.0001
313.006	1.3386	.0001
314.03	1.338	.0001
315.099	1.3372	.0001
316.162	1.3366	.0001
317.376	1.3359	.0001
318.673	1.3354	.0001
319.989	1.3347	.0001
321.298	1.334	.0001

System: 2,6-dimethylpyridine + heavy water; phases: Liquid
Fixed: Pressure, kPa = 100
Fixed: Temperature, K = 300.64
Fixed: Wavelength, nm = 6328
Property: Refractive index (other wavelength) (Liquid); method: minimum deviation angle method
Mole fraction of 2,6-dimethylpyridine	Refractive index (other wavelength)	uncertainty
0	1.3267	.0001
.0302	1.3555	.0001
.0692	1.3848	.0001
.1005	1.4037	.0001
.1497	1.4258	.0001
.2003	1.4422	.0001
.248	1.4539	.0001
.2996	1.4632	.0001
.354	1.4705	.0001
.4033	1.4761	.0001
.504	1.4835	.0001
.5922	1.4864	.0001
.7005	1.4883	.0001
.7945	1.4892	.0001
.9017	1.4903	.0001
1	1.4909	.0001

System: 2,6-dimethylpyridine + heavy water; phases: Liquid
Fixed: Pressure, kPa = 100
Fixed: Mole fraction of 2,6-dimethylpyridine = .065
Property: Heat capacity at constant pressure per volume, J/K/m3 (Liquid); method: DSC
Temperature, K	Heat capacity at constant pressure per volume, J/K/m3	uncertainty
265.667	4636000	8000
266.292	4628000	8000
266.918	4619000	8000
267.543	4604000	8000
268.169	4607000	8000
268.794	4591000	8000
269.42	4582000	8000
270.045	4572000	8000
270.671	4576000	7000
271.296	4565000	7000
271.922	4562000	7000
272.547	4555000	7000
273.172	4546000	7000
273.798	4557000	7000
274.423	4541000	7000
275.049	4538000	7000
275.674	4537000	7000
276.3	4536000	7000
276.925	4535000	7000
277.551	4531000	7000
278.176	4527000	7000
278.801	4522000	7000
279.427	4522000	7000
280.052	4513000	7000
280.677	4508000	7000
281.303	4506000	7000
281.928	4505000	7000
282.554	4500000	7000
283.179	4497000	7000
283.804	4499000	7000
284.43	4498000	7000
285.055	4495000	7000
285.681	4499000	7000
286.306	4497000	7000
286.932	4498000	7000
287.557	4497000	7000
288.182	4496000	7000
288.808	4495000	7000
289.433	4488000	7000
290.059	4488000	6000
290.684	4490000	6000
291.309	4490000	6000
291.935	4489000	6000
292.56	4484000	6000
293.222	4487000	6000
293.78	4475000	7000
294.045	4470000	7000
294.31	4478000	7000
294.576	4497000	7000
294.841	4478000	7000
295.106	4473000	7000
295.371	4481000	8000
295.637	4501000	8000
295.902	4470000	8000
296.167	4462000	8000
296.433	4481000	8000
296.698	4480000	8000
296.964	4501000	8000
297.229	4460000	9000
297.494	4470000	9000
297.76	4476000	9000
298.025	4492000	9000
298.29	4523000	9000
298.556	4487000	9000
298.821	4491000	10000
299.086	4493000	10000
299.352	4563000	11000
299.617	4546000	11000
299.883	4522000	12000
300.148	4539000	12000
300.413	4568000	13000
300.679	4575000	13000
300.944	4620000	13000
301.209	4670000	14000
301.475	5201000	14000
301.74	5096000	14000
302.006	5031000	15000
302.271	4895000	15000
302.536	4880000	15000
302.801	4907000	16000
303.067	4913000	16000
303.332	4851000	16000
303.598	4811000	17000
303.863	4824000	17000
304.128	4824000	17000
304.394	4828000	17000
304.659	4763000	18000
304.924	4767000	18000
305.19	4763000	18000
305.455	4786000	18000
305.721	4797000	19000
305.986	4744000	19000
306.251	4727000	19000
306.517	4706000	19000
306.72	4761000	19000
