Measured thermophysical data. Solution thermodynamics of creatine monohydrate in binary (water + ethanol) solvent systems at T = (278.15 to 328.15) K
Source: J. Chem. Thermodyn., 2016, 10.1016/j.jct.2015.09.011
Compound 1: creatine monohydrate, C4H11N3O3, purity 99.5%
Compound 2: ethanol, C2H6O, purity 99.7%
Compound 3: water, H2O, purity 99.8%

System: ethanol + creatine monohydrate + water; phases: Liquid, Crystal
Fixed: Pressure, kPa = 100.6
Property: Mole fraction of creatine monohydrate (Liquid); method: Titration method
Temperature, K	Solvent: Mole fraction of water	Mole fraction of creatine monohydrate	uncertainty
278.15	.4	.00001605	.00000094695
278.15	.5	.00002685	.00000158415
278.15	.6	.00004522	.00000266798
278.15	.7	.00009122	.00000538198
278.15	.8	.0001847	.0000108973
278.15	.9	.0003421	.0000201839
278.15	1	.0006099	.0000359841
283.15	.4	.00002238	.00000132042
283.15	.5	.00003716	.00000219244
283.15	.6	.00006478	.00000382202
283.15	.7	.0001243	.0000073337
283.15	.8	.0002517	.0000148503
283.15	.9	.0004755	.0000280545
283.15	1	.0008099	.0000477841
288.15	.4	.00002844	.00000167796
288.15	.5	.00005312	.00000313408
288.15	.6	.00009262	.00000546458
288.15	.7	.0001676	.0000098884
288.15	.8	.0003388	.0000199892
288.15	.9	.0006418	.0000378662
288.15	1	.001065	.000062835
293.15	.4	.00004204	.00000248036
293.15	.5	.00006603	.00000389577
293.15	.6	.0001249	.0000073691
293.15	.7	.0002469	.0000145671
293.15	.8	.0004872	.0000287448
293.15	.9	.0008168	.0000481912
293.15	1	.001387	.000081833
298.15	.4	.00005601	.00000330459
298.15	.5	.0001025	.0000060475
298.15	.6	.0001676	.0000098884
298.15	.7	.0003111	.0000183549
298.15	.8	.0006028	.0000355652
298.15	.9	.001085	.000064015
298.15	1	.001808	.000106672
303.15	.4	.00007591	.00000447869
303.15	.5	.0001327	.0000078293
303.15	.6	.0002201	.0000129859
303.15	.7	.0004098	.0000241782
303.15	.8	.000785	.000046315
303.15	.9	.001458	.000086022
303.15	1	.002497	.000147323
308.15	.4	.0001005	.0000059295
308.15	.5	.0001707	.0000100713
308.15	.6	.0002938	.0000173342
308.15	.7	.0005395	.0000318305
308.15	.8	.001085	.000064015
308.15	.9	.001795	.000105905
308.15	1	.002975	.000175525
313.15	.4	.0001318	.0000077762
313.15	.5	.000237	.000013983
313.15	.6	.0003823	.0000225557
313.15	.7	.0006929	.0000408811
313.15	.8	.00144	.00008496
313.15	.9	.002255	.000133045
313.15	1	.003825	.000225675
318.15	.4	.0001714	.0000101126
318.15	.5	.000285	.000016815
318.15	.6	.0004884	.0000288156
318.15	.7	.00089	.00005251
318.15	.8	.001727	.000101893
318.15	.9	.003048	.000179832
318.15	1	.004894	.000288746
323.15	.4	.0002325	.0000137175
323.15	.5	.0003906	.0000230454
323.15	.6	.0006202	.0000365918
323.15	.7	.001134	.000066906
323.15	.8	.002106	.000124254
323.15	.9	.003845	.000226855
323.15	1	.006089	.000359251
328.15	.4	.0002855	.0000168445
328.15	.5	.0005064	.0000298776
328.15	.6	.0007755	.0000457545
328.15	.7	.001535	.000090565
328.15	.8	.00253	.00014927
328.15	.9	.004817	.000284203
328.15	1	.006983	.000411997

System: creatine monohydrate + water; phases: Liquid, Crystal
Property: Mole fraction of creatine monohydrate (Liquid); method: Titration method
Temperature, K	Pressure, kPa	Mole fraction of creatine monohydrate	uncertainty
278.15	100.6	.0006099	.0000359841
283.15	100.6	.0008099	.0000477841
288.15	100.6	.001065	.000062835
293.15	100.6	.001387	.000081833
298.15	100.6	.001808	.000106672
303.15	100.6	.002497	.000147323
308.15	100.6	.002975	.000175525
313.15	100.6	.003825	.000225675
318.15	100.6	.004894	.000288746
323.15	100.6	.006089	.000359251
328.15	100.6	.006983	.000411997
