Measured thermophysical data. Experimental and theoretically study of interaction between organic compounds and tricyanomethanide based ionic liquids
Source: J. Chem. Thermodyn., 2015, 10.1016/j.jct.2014.12.027
Compound 1: 1-butyl-3-methylimidazolium tricyanomethane, C12H15N5
Compound 2: 1-butyl-4-methylpyridinium tricyanomethanide, C14H16N4
Compound 3: n-hexane, C6H14
Compound 4: n-heptane, C7H16
Compound 5: n-octane, C8H18
Compound 6: n-nonane, C9H20
Compound 7: n-decane, C10H22
Compound 8: cyclohexane, C6H12
Compound 9: methylcyclohexane, C7H14
Compound 10: cycloheptane, C7H14
Compound 11: 1-hexene, C6H12
Compound 12: 1-octene, C8H16
Compound 13: 1-hexyne, C6H10
Compound 14: 1-heptyne, C7H12
Compound 15: benzene, C6H6
Compound 16: toluene, C7H8
Compound 17: ethylbenzene, C8H10
Compound 18: o-xylene, C8H10
Compound 19: m-xylene, C8H10
Compound 20: p-xylene, C8H10
Compound 21: methanol, CH4O
Compound 22: ethanol, C2H6O
Compound 23: propan-1-ol, C3H8O
Compound 24: propan-2-ol, C3H8O
Compound 25: butan-1-ol, C4H10O
Compound 26: 2-methyl-1-propanol, C4H10O
Compound 27: thiophene, C4H4S
Compound 28: tetrahydrofuran, C4H8O
Compound 29: 1,4-dioxane, C4H8O2
Compound 30: acetone, C3H6O
Compound 31: 2-pentanone, C5H10O
Compound 32: 3-pentanone, C5H10O
Compound 33: ethyl acetate, C4H8O2
Compound 34: acetonitrile, C2H3N
Compound 35: pyridine, C5H5N
Compound 36: 1-nitropropane, C3H7NO2
Compound 37: water, H2O, purity 99.9%

System: 1-butyl-3-methylimidazolium tricyanomethane; phases: Liquid
Fixed: Pressure, kPa = 101.325
Property: Mass density, kg/m3 (Liquid); method: Vibrating tube method
Temperature, K	Mass density, kg/m3	uncertainty
293.15	1049.8	.1
303.15	1043.2	.1
313.15	1036.5	.1
323.15	1029.9	.1
333.15	1023.3	.1
343.15	1016.7	.1

System: 1-butyl-4-methylpyridinium tricyanomethanide; phases: Liquid
Fixed: Pressure, kPa = 101.325
Property: Mass density, kg/m3 (Liquid); method: Vibrating tube method
Temperature, K	Mass density, kg/m3	uncertainty
293.15	1037.3	.1
303.15	1031.7	.1
313.15	1026.2	.1
323.15	1020.7	.1
333.15	1015.1	.1
343.15	1009.6	.1

System: n-hexane + 1-butyl-3-methylimidazolium tricyanomethane; phases: Liquid
Fixed: Mole fraction of n-hexane = 0
Fixed: Pressure, kPa = 101
Property: Activity coefficient of n-hexane (Liquid); method: Chromatography
Temperature, K	Activity coefficient of n-hexane	uncertainty
318.15	32.5	.975
328.15	29.3	.879
338.15	26.4	.792
348.15	24.8	.744
358.15	22.8	.684
368.15	21	.63

System: n-heptane + 1-butyl-3-methylimidazolium tricyanomethane; phases: Liquid
Fixed: Mole fraction of n-heptane = 0
Fixed: Pressure, kPa = 101
Property: Activity coefficient of n-heptane (Liquid); method: Chromatography
Temperature, K	Activity coefficient of n-heptane	uncertainty
318.15	47.3	1.419
328.15	42.7	1.281
338.15	38.9	1.167
348.15	35	1.05
358.15	32.5	.975
368.15	30.1	.903

System: n-octane + 1-butyl-3-methylimidazolium tricyanomethane; phases: Liquid
Fixed: Mole fraction of n-octane = 0
Fixed: Pressure, kPa = 101
Property: Activity coefficient of n-octane (Liquid); method: Chromatography
Temperature, K	Activity coefficient of n-octane	uncertainty
318.15	68.6	2.058
328.15	62.1	1.863
338.15	55.8	1.674
348.15	51	1.53
358.15	46	1.38
368.15	42.8	1.284

System: n-nonane + 1-butyl-3-methylimidazolium tricyanomethane; phases: Liquid
Fixed: Mole fraction of n-nonane = 0
Fixed: Pressure, kPa = 101
Property: Activity coefficient of n-nonane (Liquid); method: Chromatography
Temperature, K	Activity coefficient of n-nonane	uncertainty
318.15	98	2.94
328.15	89.3	2.679
338.15	78.9	2.367
348.15	73.1	2.193
358.15	66.9	2.007
368.15	62	1.86

System: n-decane + 1-butyl-3-methylimidazolium tricyanomethane; phases: Liquid
Fixed: Mole fraction of n-decane = 0
Fixed: Pressure, kPa = 101
Property: Activity coefficient of n-decane (Liquid); method: Chromatography
Temperature, K	Activity coefficient of n-decane	uncertainty
318.15	143	4.29
328.15	128	3.84
338.15	117	3.51
348.15	104	3.12
358.15	93.2	2.796
368.15	85.8	2.574

System: cyclohexane + 1-butyl-3-methylimidazolium tricyanomethane; phases: Liquid
Fixed: Mole fraction of cyclohexane = 0
Fixed: Pressure, kPa = 101
Property: Activity coefficient of cyclohexane (Liquid); method: Chromatography
Temperature, K	Activity coefficient of cyclohexane	uncertainty
318.15	15	.45
328.15	13.8	.414
338.15	12.7	.381
348.15	11.9	.357
358.15	10.9	.327
368.15	10.4	.312

System: methylcyclohexane + 1-butyl-3-methylimidazolium tricyanomethane; phases: Liquid
Fixed: Mole fraction of methylcyclohexane = 0
Fixed: Pressure, kPa = 101
Property: Activity coefficient of methylcyclohexane (Liquid); method: Chromatography
Temperature, K	Activity coefficient of methylcyclohexane	uncertainty
318.15	22	.66
328.15	20	.6
338.15	18.4	.552
348.15	16.9	.507
358.15	15.8	.474
368.15	14.8	.444

System: cycloheptane + 1-butyl-3-methylimidazolium tricyanomethane; phases: Liquid
Fixed: Mole fraction of cycloheptane = 0
Fixed: Pressure, kPa = 101
Property: Activity coefficient of cycloheptane (Liquid); method: Chromatography
Temperature, K	Activity coefficient of cycloheptane	uncertainty
318.15	18.4	.552
328.15	16.9	.507
338.15	15.6	.468
348.15	14.4	.432
358.15	13.4	.402
368.15	12.7	.381

System: 1-hexene + 1-butyl-3-methylimidazolium tricyanomethane; phases: Liquid
Fixed: Mole fraction of 1-hexene = 0
Fixed: Pressure, kPa = 101
Property: Activity coefficient of 1-hexene (Liquid); method: Chromatography
Temperature, K	Activity coefficient of 1-hexene	uncertainty
318.15	14.6	.438
328.15	13.7	.411
338.15	12.7	.381
348.15	12	.36
358.15	11.5	.345
368.15	11.1	.333

System: 1-octene + 1-butyl-3-methylimidazolium tricyanomethane; phases: Liquid
Fixed: Mole fraction of 1-octene = 0
Fixed: Pressure, kPa = 101
Property: Activity coefficient of 1-octene (Liquid); method: Chromatography
Temperature, K	Activity coefficient of 1-octene	uncertainty
318.15	31.1	.933
328.15	28.9	.867
338.15	27	.81
348.15	25	.75
358.15	23.7	.711
368.15	22.5	.675

System: 1-hexyne + 1-butyl-3-methylimidazolium tricyanomethane; phases: Liquid
Fixed: Mole fraction of 1-hexyne = 0
Fixed: Pressure, kPa = 101
Property: Activity coefficient of 1-hexyne (Liquid); method: Chromatography
Temperature, K	Activity coefficient of 1-hexyne	uncertainty
318.15	3.97	.1191
328.15	3.98	.1194
338.15	3.96	.1188
348.15	3.94	.1182
358.15	3.96	.1188
368.15	3.94	.1182

System: 1-heptyne + 1-butyl-3-methylimidazolium tricyanomethane; phases: Liquid
Fixed: Mole fraction of 1-heptyne = 0
Fixed: Pressure, kPa = 101
Property: Activity coefficient of 1-heptyne (Liquid); method: Chromatography
Temperature, K	Activity coefficient of 1-heptyne	uncertainty
318.15	5.63	.1689
328.15	5.62	.1686
338.15	5.56	.1668
348.15	5.54	.1662
358.15	5.53	.1659
368.15	5.48	.1644

System: benzene + 1-butyl-3-methylimidazolium tricyanomethane; phases: Liquid
Fixed: Mole fraction of benzene = 0
Fixed: Pressure, kPa = 101
Property: Activity coefficient of benzene (Liquid); method: Chromatography
Temperature, K	Activity coefficient of benzene	uncertainty
318.15	1.26	.0378
328.15	1.29	.0387
338.15	1.31	.0393
348.15	1.35	.0405
358.15	1.37	.0411
368.15	1.39	.0417

System: toluene + 1-butyl-3-methylimidazolium tricyanomethane; phases: Liquid
Fixed: Mole fraction of toluene = 0
Fixed: Pressure, kPa = 101
Property: Activity coefficient of toluene (Liquid); method: Chromatography
Temperature, K	Activity coefficient of toluene	uncertainty
318.15	1.81	.0543
328.15	1.85	.0555
338.15	1.89	.0567
348.15	1.95	.0585
358.15	1.97	.0591
368.15	2.01	.0603

System: ethylbenzene + 1-butyl-3-methylimidazolium tricyanomethane; phases: Liquid
Fixed: Mole fraction of ethylbenzene = 0
Fixed: Pressure, kPa = 101
Property: Activity coefficient of ethylbenzene (Liquid); method: Chromatography
Temperature, K	Activity coefficient of ethylbenzene	uncertainty
318.15	2.75	.0825
328.15	2.78	.0834
338.15	2.82	.0846
348.15	2.88	.0864
358.15	2.92	.0876
368.15	2.93	.0879

System: o-xylene + 1-butyl-3-methylimidazolium tricyanomethane; phases: Liquid
Fixed: Mole fraction of o-xylene = 0
Fixed: Pressure, kPa = 101
Property: Activity coefficient of o-xylene (Liquid); method: Chromatography
Temperature, K	Activity coefficient of o-xylene	uncertainty
318.15	2.27	.0681
328.15	2.32	.0696
338.15	2.37	.0711
348.15	2.43	.0729
358.15	2.48	.0744
368.15	2.51	.0753

System: m-xylene + 1-butyl-3-methylimidazolium tricyanomethane; phases: Liquid
Fixed: Mole fraction of m-xylene = 0
Fixed: Pressure, kPa = 101
Property: Activity coefficient of m-xylene (Liquid); method: Chromatography
Temperature, K	Activity coefficient of m-xylene	uncertainty
318.15	2.73	.0819
328.15	2.77	.0831
338.15	2.83	.0849
348.15	2.88	.0864
358.15	2.94	.0882
368.15	2.98	.0894

System: p-xylene + 1-butyl-3-methylimidazolium tricyanomethane; phases: Liquid
Fixed: Mole fraction of p-xylene = 0
Fixed: Pressure, kPa = 101
Property: Activity coefficient of p-xylene (Liquid); method: Chromatography
Temperature, K	Activity coefficient of p-xylene	uncertainty
318.15	2.64	.0792
328.15	2.68	.0804
338.15	2.75	.0825
348.15	2.81	.0843
358.15	2.87	.0861
368.15	2.92	.0876

System: methanol + 1-butyl-3-methylimidazolium tricyanomethane; phases: Liquid
Fixed: Mole fraction of methanol = 0
Fixed: Pressure, kPa = 101
Property: Activity coefficient of methanol (Liquid); method: Chromatography
Temperature, K	Activity coefficient of methanol	uncertainty
318.15	.73	.0219
328.15	.71	.0213
338.15	.68	.0204
348.15	.67	.0201
358.15	.65	.0195
368.15	.63	.0189

System: ethanol + 1-butyl-3-methylimidazolium tricyanomethane; phases: Liquid
Fixed: Mole fraction of ethanol = 0
Fixed: Pressure, kPa = 101
Property: Activity coefficient of ethanol (Liquid); method: Chromatography
Temperature, K	Activity coefficient of ethanol	uncertainty
318.15	1.03	.0309
328.15	.98	.0294
338.15	.94	.0282
348.15	.91	.0273
358.15	.87	.0261
368.15	.84	.0252

System: propan-1-ol + 1-butyl-3-methylimidazolium tricyanomethane; phases: Liquid
Fixed: Mole fraction of propan-1-ol = 0
Fixed: Pressure, kPa = 101
Property: Activity coefficient of propan-1-ol (Liquid); method: Chromatography
Temperature, K	Activity coefficient of propan-1-ol	uncertainty
318.15	1.23	.0369
328.15	1.17	.0351
338.15	1.12	.0336
348.15	1.07	.0321
358.15	1.04	.0312
368.15	1.01	.0303

System: propan-2-ol + 1-butyl-3-methylimidazolium tricyanomethane; phases: Liquid
Fixed: Mole fraction of propan-2-ol = 0
Fixed: Pressure, kPa = 101
Property: Activity coefficient of propan-2-ol (Liquid); method: Chromatography
Temperature, K	Activity coefficient of propan-2-ol	uncertainty
318.15	1.31	.0393
328.15	1.24	.0372
338.15	1.18	.0354
348.15	1.13	.0339
358.15	1.08	.0324
368.15	1.04	.0312

System: butan-1-ol + 1-butyl-3-methylimidazolium tricyanomethane; phases: Liquid
Fixed: Mole fraction of butan-1-ol = 0
Fixed: Pressure, kPa = 101
Property: Activity coefficient of butan-1-ol (Liquid); method: Chromatography
Temperature, K	Activity coefficient of butan-1-ol	uncertainty
318.15	1.56	.0468
328.15	1.47	.0441
338.15	1.39	.0417
348.15	1.33	.0399
358.15	1.29	.0387
368.15	1.24	.0372

System: 2-methyl-1-propanol + 1-butyl-3-methylimidazolium tricyanomethane; phases: Liquid
Fixed: Mole fraction of 2-methyl-1-propanol = 0
Fixed: Pressure, kPa = 101
Property: Activity coefficient of 2-methyl-1-propanol (Liquid); method: Chromatography
Temperature, K	Activity coefficient of 2-methyl-1-propanol	uncertainty
318.15	1.56	.0468
328.15	1.46	.0438
338.15	1.37	.0411
348.15	1.31	.0393
358.15	1.24	.0372
368.15	1.19	.0357

System: thiophene + 1-butyl-3-methylimidazolium tricyanomethane; phases: Liquid
Fixed: Mole fraction of thiophene = 0
Fixed: Pressure, kPa = 101
Property: Activity coefficient of thiophene (Liquid); method: Chromatography
Temperature, K	Activity coefficient of thiophene	uncertainty
318.15	.905	.02715
328.15	.925	.02775
338.15	.951	.02853
348.15	.979	.02937
358.15	1	.03
368.15	1.03	.0309

System: tetrahydrofuran + 1-butyl-3-methylimidazolium tricyanomethane; phases: Liquid
Fixed: Mole fraction of tetrahydrofuran = 0
Fixed: Pressure, kPa = 101
Property: Activity coefficient of tetrahydrofuran (Liquid); method: Chromatography
Temperature, K	Activity coefficient of tetrahydrofuran	uncertainty
318.15	.887	.02661
328.15	.918	.02754
338.15	.954	.02862
348.15	.985	.02955
358.15	1.01	.0303
368.15	1.05	.0315

System: 1,4-dioxane + 1-butyl-3-methylimidazolium tricyanomethane; phases: Liquid
Fixed: Mole fraction of 1,4-dioxane = 0
Fixed: Pressure, kPa = 101
Property: Activity coefficient of 1,4-dioxane (Liquid); method: Chromatography
Temperature, K	Activity coefficient of 1,4-dioxane	uncertainty
318.15	.642	.01926
328.15	.673	.02019
338.15	.708	.02124
348.15	.741	.02223
358.15	.778	.02334
368.15	.805	.02415

System: acetone + 1-butyl-3-methylimidazolium tricyanomethane; phases: Liquid
Fixed: Mole fraction of acetone = 0
Fixed: Pressure, kPa = 101
Property: Activity coefficient of acetone (Liquid); method: Chromatography
Temperature, K	Activity coefficient of acetone	uncertainty
318.15	.622	.01866
328.15	.637	.01911
338.15	.661	.01983
348.15	.68	.0204
358.15	.697	.02091
368.15	.711	.02133

System: 2-pentanone + 1-butyl-3-methylimidazolium tricyanomethane; phases: Liquid
Fixed: Mole fraction of 2-pentanone = 0
Fixed: Pressure, kPa = 101
Property: Activity coefficient of 2-pentanone (Liquid); method: Chromatography
Temperature, K	Activity coefficient of 2-pentanone	uncertainty
318.15	1.06	.0318
328.15	1.09	.0327
338.15	1.13	.0339
348.15	1.16	.0348
358.15	1.21	.0363
368.15	1.24	.0372

System: 3-pentanone + 1-butyl-3-methylimidazolium tricyanomethane; phases: Liquid
Fixed: Mole fraction of 3-pentanone = 0
Fixed: Pressure, kPa = 101
Property: Activity coefficient of 3-pentanone (Liquid); method: Chromatography
Temperature, K	Activity coefficient of 3-pentanone	uncertainty
318.15	1.06	.0318
328.15	1.09	.0327
338.15	1.14	.0342
348.15	1.17	.0351
358.15	1.22	.0366
368.15	1.26	.0378

System: ethyl acetate + 1-butyl-3-methylimidazolium tricyanomethane; phases: Liquid
Fixed: Mole fraction of ethyl acetate = 0
Fixed: Pressure, kPa = 101
Property: Activity coefficient of ethyl acetate (Liquid); method: Chromatography
Temperature, K	Activity coefficient of ethyl acetate	uncertainty
318.15	1.4	.042
328.15	1.44	.0432
338.15	1.49	.0447
348.15	1.53	.0459
358.15	1.56	.0468
368.15	1.62	.0486

System: acetonitrile + 1-butyl-3-methylimidazolium tricyanomethane; phases: Liquid
Fixed: Mole fraction of acetonitrile = 0
Fixed: Pressure, kPa = 101
Property: Activity coefficient of acetonitrile (Liquid); method: Chromatography
Temperature, K	Activity coefficient of acetonitrile	uncertainty
318.15	.608	.01824
328.15	.612	.01836
338.15	.625	.01875
348.15	.629	.01887
358.15	.637	.01911
368.15	.641	.01923

System: pyridine + 1-butyl-3-methylimidazolium tricyanomethane; phases: Liquid
Fixed: Mole fraction of pyridine = 0
Fixed: Pressure, kPa = 101
Property: Activity coefficient of pyridine (Liquid); method: Chromatography
Temperature, K	Activity coefficient of pyridine	uncertainty
318.15	.585	.01755
328.15	.598	.01794
338.15	.62	.0186
348.15	.637	.01911
358.15	.657	.01971
368.15	.672	.02016

System: 1-nitropropane + 1-butyl-3-methylimidazolium tricyanomethane; phases: Liquid
Fixed: Mole fraction of 1-nitropropane = 0
Fixed: Pressure, kPa = 101
Property: Activity coefficient of 1-nitropropane (Liquid); method: Chromatography
Temperature, K	Activity coefficient of 1-nitropropane	uncertainty
328.15	.848	.02544
338.15	.862	.02586
348.15	.879	.02637
358.15	.895	.02685
368.15	.904	.02712

System: water + 1-butyl-3-methylimidazolium tricyanomethane; phases: Liquid
Fixed: Mole fraction of water = 0
Fixed: Pressure, kPa = 101
Property: Activity coefficient of water (Liquid); method: Chromatography
Temperature, K	Activity coefficient of water	uncertainty
318.15	1.02	.0306
328.15	.979	.02937
338.15	.94	.0282
348.15	.91	.0273
358.15	.881	.02643
368.15	.848	.02544

System: n-hexane + 1-butyl-4-methylpyridinium tricyanomethanide; phases: Liquid
Fixed: Mole fraction of n-hexane = 0
Fixed: Pressure, kPa = 101
Property: Activity coefficient of n-hexane (Liquid); method: Chromatography
Temperature, K	Activity coefficient of n-hexane	uncertainty
318.15	24.3	.729
328.15	23	.69
338.15	22.1	.663
348.15	20.8	.624
358.15	20	.6
368.15	19.1	.573

System: n-heptane + 1-butyl-4-methylpyridinium tricyanomethanide; phases: Liquid
Fixed: Mole fraction of n-heptane = 0
Fixed: Pressure, kPa = 101
Property: Activity coefficient of n-heptane (Liquid); method: Chromatography
Temperature, K	Activity coefficient of n-heptane	uncertainty
318.15	33.7	1.011
328.15	31.3	.939
338.15	29.7	.891
348.15	27.6	.828
358.15	25.8	.774
368.15	24.7	.741

System: n-octane + 1-butyl-4-methylpyridinium tricyanomethanide; phases: Liquid
Fixed: Mole fraction of n-octane = 0
Fixed: Pressure, kPa = 101
Property: Activity coefficient of n-octane (Liquid); method: Chromatography
Temperature, K	Activity coefficient of n-octane	uncertainty
318.15	46.4	1.392
328.15	43.2	1.296
338.15	41.1	1.233
348.15	38.4	1.152
358.15	36.3	1.089
368.15	34.6	1.038

System: n-nonane + 1-butyl-4-methylpyridinium tricyanomethanide; phases: Liquid
Fixed: Mole fraction of n-nonane = 0
Fixed: Pressure, kPa = 101
Property: Activity coefficient of n-nonane (Liquid); method: Chromatography
Temperature, K	Activity coefficient of n-nonane	uncertainty
318.15	65.1	1.953
328.15	59.1	1.773
338.15	55.7	1.671
348.15	51.2	1.536
358.15	47.6	1.428
368.15	45.8	1.374

System: n-decane + 1-butyl-4-methylpyridinium tricyanomethanide; phases: Liquid
Fixed: Mole fraction of n-decane = 0
Fixed: Pressure, kPa = 101
Property: Activity coefficient of n-decane (Liquid); method: Chromatography
Temperature, K	Activity coefficient of n-decane	uncertainty
318.15	90.4	2.712
328.15	83	2.49
338.15	76.5	2.295
348.15	72.6	2.178
358.15	67.7	2.031
368.15	62.8	1.884

System: cyclohexane + 1-butyl-4-methylpyridinium tricyanomethanide; phases: Liquid
Fixed: Mole fraction of cyclohexane = 0
Fixed: Pressure, kPa = 101
Property: Activity coefficient of cyclohexane (Liquid); method: Chromatography
Temperature, K	Activity coefficient of cyclohexane	uncertainty
318.15	11.1	.333
328.15	10.5	.315
338.15	10	.3
348.15	9.57	.2871
358.15	9.07	.2721
368.15	8.65	.2595

System: methylcyclohexane + 1-butyl-4-methylpyridinium tricyanomethanide; phases: Liquid
Fixed: Mole fraction of methylcyclohexane = 0
Fixed: Pressure, kPa = 101
Property: Activity coefficient of methylcyclohexane (Liquid); method: Chromatography
Temperature, K	Activity coefficient of methylcyclohexane	uncertainty
318.15	15.8	.474
328.15	14.8	.444
338.15	13.9	.417
348.15	13.4	.402
358.15	12.7	.381
368.15	12.1	.363

System: cycloheptane + 1-butyl-4-methylpyridinium tricyanomethanide; phases: Liquid
Fixed: Mole fraction of cycloheptane = 0
Fixed: Pressure, kPa = 101
Property: Activity coefficient of cycloheptane (Liquid); method: Chromatography
Temperature, K	Activity coefficient of cycloheptane	uncertainty
318.15	12.8	.384
328.15	12.1	.363
338.15	11.7	.351
348.15	11.1	.333
358.15	10.6	.318
368.15	10.3	.309

System: 1-hexene + 1-butyl-4-methylpyridinium tricyanomethanide; phases: Liquid
Fixed: Mole fraction of 1-hexene = 0
Fixed: Pressure, kPa = 101
Property: Activity coefficient of 1-hexene (Liquid); method: Chromatography
Temperature, K	Activity coefficient of 1-hexene	uncertainty
318.15	11.1	.333
328.15	10.5	.315
338.15	10.2	.306
348.15	9.72	.2916
358.15	9.17	.2751
368.15	8.75	.2625

System: 1-octene + 1-butyl-4-methylpyridinium tricyanomethanide; phases: Liquid
Fixed: Mole fraction of 1-octene = 0
Fixed: Pressure, kPa = 101
Property: Activity coefficient of 1-octene (Liquid); method: Chromatography
Temperature, K	Activity coefficient of 1-octene	uncertainty
318.15	21.3	.639
328.15	20.3	.609
338.15	19.7	.591
348.15	18.9	.567
358.15	18.3	.549
368.15	17.8	.534

System: 1-hexyne + 1-butyl-4-methylpyridinium tricyanomethanide; phases: Liquid
Fixed: Mole fraction of 1-hexyne = 0
Fixed: Pressure, kPa = 101
Property: Activity coefficient of 1-hexyne (Liquid); method: Chromatography
Temperature, K	Activity coefficient of 1-hexyne	uncertainty
318.15	2.98	.0894
328.15	3.04	.0912
338.15	3.1	.093
348.15	3.17	.0951
358.15	3.25	.0975
368.15	3.3	.099

System: 1-heptyne + 1-butyl-4-methylpyridinium tricyanomethanide; phases: Liquid
Fixed: Mole fraction of 1-heptyne = 0
Fixed: Pressure, kPa = 101
Property: Activity coefficient of 1-heptyne (Liquid); method: Chromatography
Temperature, K	Activity coefficient of 1-heptyne	uncertainty
318.15	4.09	.1227
328.15	4.15	.1245
338.15	4.22	.1266
348.15	4.29	.1287
358.15	4.34	.1302
368.15	4.43	.1329

System: benzene + 1-butyl-4-methylpyridinium tricyanomethanide; phases: Liquid
Fixed: Mole fraction of benzene = 0
Fixed: Pressure, kPa = 101
Property: Activity coefficient of benzene (Liquid); method: Chromatography
Temperature, K	Activity coefficient of benzene	uncertainty
318.15	.889	.02667
328.15	.916	.02748
338.15	.937	.02811
348.15	.976	.02928
358.15	1	.03
368.15	1.02	.0306

System: toluene + 1-butyl-4-methylpyridinium tricyanomethanide; phases: Liquid
Fixed: Mole fraction of toluene = 0
Fixed: Pressure, kPa = 101
Property: Activity coefficient of toluene (Liquid); method: Chromatography
Temperature, K	Activity coefficient of toluene	uncertainty
318.15	1.19	.0357
328.15	1.23	.0369
338.15	1.27	.0381
348.15	1.32	.0396
358.15	1.36	.0408
368.15	1.4	.042

System: ethylbenzene + 1-butyl-4-methylpyridinium tricyanomethanide; phases: Liquid
Fixed: Mole fraction of ethylbenzene = 0
Fixed: Pressure, kPa = 101
Property: Activity coefficient of ethylbenzene (Liquid); method: Chromatography
Temperature, K	Activity coefficient of ethylbenzene	uncertainty
318.15	1.78	.0534
328.15	1.83	.0549
338.15	1.87	.0561
348.15	1.93	.0579
358.15	1.98	.0594
368.15	2.01	.0603

System: o-xylene + 1-butyl-4-methylpyridinium tricyanomethanide; phases: Liquid
Fixed: Mole fraction of o-xylene = 0
Fixed: Pressure, kPa = 101
Property: Activity coefficient of o-xylene (Liquid); method: Chromatography
Temperature, K	Activity coefficient of o-xylene	uncertainty
318.15	1.4	.042
328.15	1.45	.0435
338.15	1.49	.0447
348.15	1.56	.0468
358.15	1.61	.0483
368.15	1.66	.0498

System: m-xylene + 1-butyl-4-methylpyridinium tricyanomethanide; phases: Liquid
Fixed: Mole fraction of m-xylene = 0
Fixed: Pressure, kPa = 101
Property: Activity coefficient of m-xylene (Liquid); method: Chromatography
Temperature, K	Activity coefficient of m-xylene	uncertainty
328.15	1.71	.0513
338.15	1.76	.0528
348.15	1.82	.0546
358.15	1.88	.0564
368.15	1.94	.0582

System: p-xylene + 1-butyl-4-methylpyridinium tricyanomethanide; phases: Liquid
Fixed: Mole fraction of p-xylene = 0
Fixed: Pressure, kPa = 101
Property: Activity coefficient of p-xylene (Liquid); method: Chromatography
Temperature, K	Activity coefficient of p-xylene	uncertainty
328.15	1.66	.0498
338.15	1.71	.0513
348.15	1.79	.0537
358.15	1.84	.0552
368.15	1.9	.057

System: methanol + 1-butyl-4-methylpyridinium tricyanomethanide; phases: Liquid
Fixed: Mole fraction of methanol = 0
Fixed: Pressure, kPa = 101
Property: Activity coefficient of methanol (Liquid); method: Chromatography
Temperature, K	Activity coefficient of methanol	uncertainty
318.15	.663	.01989
328.15	.644	.01932
338.15	.625	.01875
348.15	.612	.01836
358.15	.593	.01779
368.15	.58	.0174

System: ethanol + 1-butyl-4-methylpyridinium tricyanomethanide; phases: Liquid
Fixed: Mole fraction of ethanol = 0
Fixed: Pressure, kPa = 101
Property: Activity coefficient of ethanol (Liquid); method: Chromatography
Temperature, K	Activity coefficient of ethanol	uncertainty
318.15	.917	.02751
328.15	.876	.02628
338.15	.838	.02514
348.15	.812	.02436
358.15	.784	.02352
368.15	.755	.02265

System: propan-1-ol + 1-butyl-4-methylpyridinium tricyanomethanide; phases: Liquid
Fixed: Mole fraction of propan-1-ol = 0
Fixed: Pressure, kPa = 101
Property: Activity coefficient of propan-1-ol (Liquid); method: Chromatography
Temperature, K	Activity coefficient of propan-1-ol	uncertainty
318.15	1.06	.0318
328.15	1.01	.0303
338.15	.965	.02895
348.15	.936	.02808
358.15	.906	.02718
368.15	.872	.02616

System: propan-2-ol + 1-butyl-4-methylpyridinium tricyanomethanide; phases: Liquid
Fixed: Mole fraction of propan-2-ol = 0
Fixed: Pressure, kPa = 101
Property: Activity coefficient of propan-2-ol (Liquid); method: Chromatography
Temperature, K	Activity coefficient of propan-2-ol	uncertainty
318.15	1.15	.0345
328.15	1.09	.0327
338.15	1.04	.0312
348.15	1	.03
358.15	.961	.02883
368.15	.928	.02784

System: butan-1-ol + 1-butyl-4-methylpyridinium tricyanomethanide; phases: Liquid
Fixed: Mole fraction of butan-1-ol = 0
Fixed: Pressure, kPa = 101
Property: Activity coefficient of butan-1-ol (Liquid); method: Chromatography
Temperature, K	Activity coefficient of butan-1-ol	uncertainty
318.15	1.31	.0393
328.15	1.23	.0369
338.15	1.17	.0351
348.15	1.13	.0339
358.15	1.09	.0327
368.15	1.05	.0315

System: 2-methyl-1-propanol + 1-butyl-4-methylpyridinium tricyanomethanide; phases: Liquid
Fixed: Mole fraction of 2-methyl-1-propanol = 0
Fixed: Pressure, kPa = 101
Property: Activity coefficient of 2-methyl-1-propanol (Liquid); method: Chromatography
Temperature, K	Activity coefficient of 2-methyl-1-propanol	uncertainty
318.15	1.33	.0399
328.15	1.23	.0369
338.15	1.16	.0348
348.15	1.11	.0333
358.15	1.06	.0318
368.15	1.02	.0306

System: thiophene + 1-butyl-4-methylpyridinium tricyanomethanide; phases: Liquid
Fixed: Mole fraction of thiophene = 0
Fixed: Pressure, kPa = 101
Property: Activity coefficient of thiophene (Liquid); method: Chromatography
Temperature, K	Activity coefficient of thiophene	uncertainty
318.15	.636	.01908
328.15	.658	.01974
338.15	.678	.02034
348.15	.704	.02112
358.15	.733	.02199
368.15	.748	.02244

System: tetrahydrofuran + 1-butyl-4-methylpyridinium tricyanomethanide; phases: Liquid
Fixed: Mole fraction of tetrahydrofuran = 0
Fixed: Pressure, kPa = 101
Property: Activity coefficient of tetrahydrofuran (Liquid); method: Chromatography
Temperature, K	Activity coefficient of tetrahydrofuran	uncertainty
318.15	.779	.02337
328.15	.807	.02421
338.15	.827	.02481
348.15	.856	.02568
358.15	.872	.02616
368.15	.907	.02721

System: 1,4-dioxane + 1-butyl-4-methylpyridinium tricyanomethanide; phases: Liquid
Fixed: Mole fraction of 1,4-dioxane = 0
Fixed: Pressure, kPa = 101
Property: Activity coefficient of 1,4-dioxane (Liquid); method: Chromatography
Temperature, K	Activity coefficient of 1,4-dioxane	uncertainty
318.15	.573	.01719
328.15	.601	.01803
338.15	.624	.01872
348.15	.656	.01968
358.15	.68	.0204
368.15	.708	.02124

System: acetone + 1-butyl-4-methylpyridinium tricyanomethanide; phases: Liquid
Fixed: Mole fraction of acetone = 0
Fixed: Pressure, kPa = 101
Property: Activity coefficient of acetone (Liquid); method: Chromatography
Temperature, K	Activity coefficient of acetone	uncertainty
318.15	.598	.01794
328.15	.617	.01851
338.15	.634	.01902
348.15	.656	.01968
358.15	.672	.02016
368.15	.686	.02058

System: 2-pentanone + 1-butyl-4-methylpyridinium tricyanomethanide; phases: Liquid
Fixed: Mole fraction of 2-pentanone = 0
Fixed: Pressure, kPa = 101
Property: Activity coefficient of 2-pentanone (Liquid); method: Chromatography
Temperature, K	Activity coefficient of 2-pentanone	uncertainty
318.15	.955	.02865
328.15	.986	.02958
338.15	1.01	.0303
348.15	1.05	.0315
358.15	1.07	.0321
368.15	1.1	.033

System: 3-pentanone + 1-butyl-4-methylpyridinium tricyanomethanide; phases: Liquid
Fixed: Mole fraction of 3-pentanone = 0
Fixed: Pressure, kPa = 101
Property: Activity coefficient of 3-pentanone (Liquid); method: Chromatography
Temperature, K	Activity coefficient of 3-pentanone	uncertainty
318.15	.942	.02826
328.15	.976	.02928
338.15	1.01	.0303
348.15	1.05	.0315
358.15	1.07	.0321
368.15	1.11	.0333

System: ethyl acetate + 1-butyl-4-methylpyridinium tricyanomethanide; phases: Liquid
Fixed: Mole fraction of ethyl acetate = 0
Fixed: Pressure, kPa = 101
Property: Activity coefficient of ethyl acetate (Liquid); method: Chromatography
Temperature, K	Activity coefficient of ethyl acetate	uncertainty
318.15	1.3	.039
328.15	1.33	.0399
338.15	1.36	.0408
348.15	1.4	.042
358.15	1.42	.0426
368.15	1.46	.0438

System: acetonitrile + 1-butyl-4-methylpyridinium tricyanomethanide; phases: Liquid
Fixed: Mole fraction of acetonitrile = 0
Fixed: Pressure, kPa = 101
Property: Activity coefficient of acetonitrile (Liquid); method: Chromatography
Temperature, K	Activity coefficient of acetonitrile	uncertainty
318.15	.584	.01752
328.15	.59	.0177
338.15	.593	.01779
348.15	.599	.01797
358.15	.604	.01812
368.15	.613	.01839

System: pyridine + 1-butyl-4-methylpyridinium tricyanomethanide; phases: Liquid
Fixed: Mole fraction of pyridine = 0
Fixed: Pressure, kPa = 101
Property: Activity coefficient of pyridine (Liquid); method: Chromatography
Temperature, K	Activity coefficient of pyridine	uncertainty
328.15	.498	.01494
338.15	.51	.0153
348.15	.528	.01584
358.15	.542	.01626
368.15	.557	.01671

System: 1-nitropropane + 1-butyl-4-methylpyridinium tricyanomethanide; phases: Liquid
Fixed: Mole fraction of 1-nitropropane = 0
Fixed: Pressure, kPa = 101
Property: Activity coefficient of 1-nitropropane (Liquid); method: Chromatography
Temperature, K	Activity coefficient of 1-nitropropane	uncertainty
328.15	.748	.02244
338.15	.756	.02268
348.15	.769	.02307
358.15	.783	.02349
368.15	.792	.02376

System: water + 1-butyl-4-methylpyridinium tricyanomethanide; phases: Liquid
Fixed: Mole fraction of water = 0
Fixed: Pressure, kPa = 101
Property: Activity coefficient of water (Liquid); method: Chromatography
Temperature, K	Activity coefficient of water	uncertainty
318.15	.971	.02913
328.15	.926	.02778
338.15	.887	.02661
348.15	.859	.02577
358.15	.826	.02478
368.15	.796	.02388
