Measured thermophysical data. Adiabatic heat capacity and related properties of ammonium hexachlororuthenate, (NH4)2RuCl6, at temperatures from 5 less than or equal to T/K less than or equal to 325
Source: J. Chem. Thermodyn., 2014, 10.1016/j.jct.2013.07.006
Compound 1: diammonium hexachlororuthenate, Cl6H8N2Ru, purity 99%

System: diammonium hexachlororuthenate; phases: Crystal 2, Crystal 1, Gas
Property: Triple point temperature, K (Crystal 2); method: Adiabatic calorimetry
Triple point temperature, K	uncertainty
92.84	.04

System: diammonium hexachlororuthenate; phases: Crystal 2
Fixed: Pressure, kPa = 101.325
Property: Molar heat capacity at constant pressure, J/K/mol (Crystal 2); method: Vacuum adiabatic calorimetry
Temperature, K	Molar heat capacity at constant pressure, J/K/mol	uncertainty
5.89	.58766886	4.15725
7.09	1.0792221	4.15725
8.03	1.4949471	4.15725
9.46	2.3130939	4.15725
10.8	3.2360034	4.15725
11.99	4.22958615	4.15725
13.2	5.40691935	4.15725
14.5	6.9160011	4.15725
15.9	8.5888785	4.15725
17.35	10.3681815	4.15725
18.81	12.3137745	4.15725
20.31	14.2593675	4.15725
21.81	16.4543955	4.15725
23.4	18.757512	4.15725
25.1	21.384894	4.15725
26.81	24.178566	4.15725
28.54	26.905722	4.15725
30.27	30.0070305	.83145
32.02	33.058452	.83145
33.91	36.866493	.83145
35.95	40.657905	.83145
37.99	44.715381	.83145
40.05	48.955776	.83145
42.12	53.54538	.83145
44.2	58.168242	.83145
46.3	62.774475	.83145
48.41	67.596885	.83145
50.8	73.150971	.83145
53.47	79.6445955	.83145
56.15	86.221365	.83145
58.85	92.95611	.83145
61.55	100.023435	.83145
64.27	107.340195	.83145
67.13	114.989535	.83145
70.82	125.133225	.83145
75.14	136.939815	.83145
79.45	149.82729	.83145
83.79	162.29904	.83145
88.18	174.10563	.83145
92.84	184.665045	.83145

System: diammonium hexachlororuthenate; phases: Crystal 1
Fixed: Pressure, kPa = 101.325
Property: Molar heat capacity at constant pressure, J/K/mol (Crystal 1); method: Vacuum adiabatic calorimetry
Temperature, K	Molar heat capacity at constant pressure, J/K/mol	uncertainty
92.84	184.665045	.184665045
97.88	182.004405	.182004405
103.06	178.09659	.17809659
108.18	182.58642	.18258642
113.23	188.40657	.18840657
118.27	194.143575	.194143575
123.32	199.88058	.19988058
128.39	205.118715	.205118715
133.46	209.774835	.209774835
138.55	214.597245	.214597245
143.8	219.17022	.21917022
149.2	223.32747	.22332747
154.62	227.65101	.22765101
160.04	231.392535	.231392535
165.48	235.13406	.23513406
170.9	238.709295	.238709295
176.33	242.45082	.24245082
181.77	245.77662	.24577662
187.21	249.26871	.24926871
192.66	253.09338	.25309338
198.19	256.75176	.25675176
203.88	260.160705	.260160705
209.62	263.56965	.26356965
215.39	266.89545	.26689545
221.19	269.3898	.2693898
226.95	272.54931	.27254931
232.71	275.459385	.275459385
238.48	277.787445	.277787445
244.25	279.782925	.279782925
250.07	281.52897	.28152897
256.04	283.35816	.28335816
262.1	285.02106	.28502106
268.12	286.68396	.28668396
274.34	288.18057	.28818057
280.52	290.50863	.29050863
286.4	292.00524	.29200524
292.34	293.917575	.293917575
298.3	295.247895	.295247895
304.21	297.32652	.29732652
310.08	298.906275	.298906275
315.97	300.402885	.300402885
321.87	301.566915	.301566915

System: diammonium hexachlororuthenate; phases: Crystal 2
Fixed: Pressure, kPa = 101.325
Property: Molar heat capacity at constant pressure, J/K/mol (Crystal 2); method: Vacuum adiabatic calorimetry
Temperature, K	Molar heat capacity at constant pressure, J/K/mol	uncertainty
5	.3475461	4.15725
10	2.66064	4.15725
15	7.3583325	4.15725
20	13.96836	4.15725
25	21.2435475	4.15725
30	29.4915315	.83145
35	38.8702875	.83145
40	48.88926	.83145
45	59.9059725	.83145
50	71.355039	.83145
55	83.47758	.83145
60	95.94933	.83145
65	109.25253	.83145
70	122.72202	.83145
75	136.440945	.83145
80	151.49019	.83145
85	165.79113	.83145
90	179.09433	.83145

System: diammonium hexachlororuthenate; phases: Crystal 2
Fixed: Pressure, kPa = 101.325
Property: Molar entropy, J/K/mol (Crystal 2); method: Vacuum adiabatic calorimetry
Temperature, K	Molar entropy, J/K/mol	uncertainty
5	.11058285	4.15725
10	.9395385	4.15725
15	2.82693	4.15725
20	5.82015	4.15725
25	9.7030215	4.15725
30	14.4422865	.83145
35	19.6804215	.83145
40	25.508886	.83145
45	31.894422	.83145
50	38.795457	.83145
55	46.1537895	.83145
60	53.944476	.83145
65	62.1508875	.83145
70	70.7314515	.83145
75	79.669539	.83145
80	88.96515	.83145
85	98.526825	.83145
90	108.42108	.83145

System: diammonium hexachlororuthenate; phases: Crystal 2
Fixed: Pressure, kPa = 101.325
Property: Molar enthalpy, kJ/mol (Crystal 2); method: Vacuum adiabatic calorimetry
Temperature, K	Molar enthalpy, kJ/mol	uncertainty
5	.0004290282	.00415725
10	.007083954	.00415725
15	.03126252	.00415725
20	.08430903	.00415725
25	.172027005	.00415725
30	.302730945	.00083145
35	.473344485	.00083145
40	.692514705	.00083145
45	.964482	.00083145
50	1.2920733	.00083145
55	1.679529	.00083145
60	2.12768055	.00083145
65	2.63985375	.00083145
70	3.22020585	.00083145
75	3.8679054	.00083145
80	4.5879411	.00083145
85	5.3811444	.00083145
90	6.2441895	.00083145

System: diammonium hexachlororuthenate; phases: Crystal 1
Fixed: Pressure, kPa = 101.325
Property: Molar heat capacity at constant pressure, J/K/mol (Crystal 1); method: Vacuum adiabatic calorimetry
Temperature, K	Molar heat capacity at constant pressure, J/K/mol	uncertainty
95	184.74819	.18474819
100	180.75723	.18075723
105	179.26062	.17926062
110	184.831335	.184831335
115	190.485195	.190485195
120	196.139055	.196139055
125	201.54348	.20154348
130	206.615325	.206615325
135	211.35459	.21135459
140	215.927565	.215927565
145	220.16796	.22016796
150	224.242065	.224242065
160	231.47568	.23147568
170	238.12728	.23812728
180	244.77888	.24477888
190	251.43048	.25143048
200	257.832645	.257832645
210	263.73594	.26373594
220	269.05722	.26905722
230	274.21221	.27421221
240	278.36946	.27836946
250	281.52897	.28152897
260	284.439045	.284439045
270	287.18283	.28718283
280	290.17605	.29017605
290	293.086125	.293086125
300	296.16249	.29616249
310	298.906275	.298906275
320	301.15119	.30115119
325	302.232075	.302232075
298.15	295.66362	.29566362

System: diammonium hexachlororuthenate; phases: Crystal 1
Fixed: Pressure, kPa = 101.325
Property: Molar entropy, J/K/mol (Crystal 1); method: Vacuum adiabatic calorimetry
Temperature, K	Molar entropy, J/K/mol	uncertainty
95	118.315335	.118315335
100	127.71072	.12771072
105	136.440945	.136440945
110	144.921735	.144921735
115	153.236235	.153236235
120	161.46759	.16146759
125	169.6158	.1696158
130	177.59772	.17759772
135	185.496495	.185496495
140	193.312125	.193312125
145	200.961465	.200961465
150	208.444515	.208444515
160	223.16118	.22316118
170	237.378975	.237378975
180	251.181045	.251181045
190	264.650535	.264650535
200	277.7043	.2777043
210	290.425485	.290425485
220	302.81409	.30281409
230	314.870115	.314870115
240	326.676705	.326676705
250	338.06757	.33806757
260	349.209	.349209
270	359.934705	.359934705
280	370.49412	.37049412
290	380.720955	.380720955
300	390.698355	.390698355
310	400.42632	.40042632
320	409.987995	.409987995
325	414.644115	.414644115
298.15	388.869165	.388869165

System: diammonium hexachlororuthenate; phases: Crystal 1
Fixed: Pressure, kPa = 101.325
Property: Molar enthalpy, kJ/mol (Crystal 1); method: Vacuum adiabatic calorimetry
Temperature, K	Molar enthalpy, kJ/mol	uncertainty
95	7.1604474	.0071604474
100	8.07421095	.00807421095
105	8.9713455	.0089713455
110	9.8809518	.0098809518
115	10.81965885	.01081965885
120	11.78580375	.01178580375
125	12.78021795	.01278021795
130	13.8004071	.0138004071
135	14.84553975	.01484553975
140	15.913953	.015913953
145	17.00398395	.01700398395
150	18.11480115	.01811480115
160	20.3938056	.0203938056
170	22.7418204	.0227418204
180	25.1563512	.0251563512
190	27.637398	.027637398
200	30.18412935	.03018412935
210	32.79155655	.03279155655
220	35.4563538	.0354563538
230	38.17270095	.03817270095
240	40.93644075	.04093644075
250	43.73676435	.04373676435
260	46.5661887	.0465661887
270	49.4247138	.0494247138
280	52.3115082	.0523115082
290	55.22740335	.05522740335
300	58.17406215	.05817406215
310	61.1498217	.0611498217
320	64.1496933	.0641496933
325	65.6579436	.0656579436
298.15	57.62696805	.05762696805
