Measured thermophysical data. Separation of toluene from alkanes using 1-ethyl-3-methylpyridinium ethylsulfate ionic liquid at T = 298.15 K and atmospheric pressure
Source: J. Chem. Thermodyn., 2010, 10.1016/j.jct.2010.01.008
Compound 1: heptane, C7H16, purity 99.5%
Compound 2: octane, C8H18, purity 99.5%
Compound 3: nonane, C9H20, purity 99%
Compound 4: toluene, C7H8, purity 99.9%
Compound 5: 1-ethyl-3-methylpyridinium ethyl sulfate, C10H17NO4S

System: 1-ethyl-3-methylpyridinium ethyl sulfate; phases: Liquid
Fixed: Pressure, kPa = 101.325
Property: Mass density, kg/m3 (Liquid); method: Vibrating tube method
Temperature, K	Mass density, kg/m3	uncertainty
298.15	1219.61	.026

System: 1-ethyl-3-methylpyridinium ethyl sulfate; phases: Liquid
Fixed: Pressure, kPa = 101.325
Property: Refractive index (Na D-line) (Liquid); method: Automatic Refractometer
Temperature, K	Refractive index (Na D-line)	uncertainty
298.15	1.50591	.00004

System: toluene + heptane; phases: Liquid
Fixed: Temperature, K = 298.15
Fixed: Pressure, kPa = 101.3
Property: Mass density, kg/m3 (Liquid); method: Vibrating tube method
Mole fraction of heptane	Mass density, kg/m3	uncertainty
0	862.17	.026
.0974	838.12	.026
.1996	814.81	.026
.2997	793.52	.026
.397	774.31	.026
.497	755.94	.026
.5961	738.9	.026
.6967	722.76	.026
.7958	707.78	.026
.8973	693.24	.026
1	679.56	.026

System: toluene + heptane + 1-ethyl-3-methylpyridinium ethyl sulfate; phases: Liquid
Fixed: Temperature, K = 298.15
Fixed: Pressure, kPa = 101.3
Property: Mass density, kg/m3 (Liquid); method: Vibrating tube method
Mole fraction of heptane	Mole fraction of toluene	Mass density, kg/m3	uncertainty
.008	0	1218.14	.026
.006	.043	1211.76	.026
.005	.088	1204.45	.026
.002	.132	1196.9	.026
.002	.181	1188.07	.026
.004	.213	1181.65	.026
0	.307	1161.68	.026

System: toluene + heptane + 1-ethyl-3-methylpyridinium ethyl sulfate; phases: Liquid
Fixed: Temperature, K = 298.15
Fixed: Pressure, kPa = 101.3
Property: Mass density, kg/m3 (Liquid); method: Vibrating tube method
Mole fraction of heptane	Mole fraction of toluene	Mass density, kg/m3	uncertainty
.005	.073	1206.67	.026
.002	.122	1198.95	.026
.003	.194	1185.33	.026

System: toluene + heptane + 1-ethyl-3-methylpyridinium ethyl sulfate; phases: Liquid mixture 2, Liquid mixture 1
Fixed: Pressure, kPa = 101.3
Fixed: Temperature, K = 298.15
Property: Mole fraction of heptane (Liquid mixture 2); method: Density calibration data
Property: Mole fraction of heptane (Liquid mixture 1); method: Density calibration data
Property: Mole fraction of toluene (Liquid mixture 1); method: Density calibration data
Mole fraction of toluene	Mole fraction of heptane	uncertainty	Mole fraction of heptane	uncertainty	Mole fraction of toluene	uncertainty
.038	.005	.005	.877	.005	.123	.005
.061	.006	.005	.814	.005	.186	.005
.082	.006	.005	.753	.005	.247	.005
.082	.006	.005	.751	.005	.249	.005
.122	.006	.005	.632	.005	.368	.005
.163	.005	.005	.502	.005	.498	.005
.2	.004	.005	.377	.005	.623	.005
.24	.003	.005	.248	.005	.752	.005

System: toluene + octane; phases: Liquid
Fixed: Temperature, K = 298.15
Fixed: Pressure, kPa = 101.3
Property: Mass density, kg/m3 (Liquid); method: Vibrating tube method
Mole fraction of octane	Mass density, kg/m3	uncertainty
0	862.17	.026
.0982	838.13	.026
.1977	816.31	.026
.2975	796.62	.026
.3983	778.64	.026
.5005	761.92	.026
.5988	747.35	.026
.699	733.63	.026
.7966	721.31	.026
.8955	709.92	.026
1	698.6	.026

System: toluene + octane + 1-ethyl-3-methylpyridinium ethyl sulfate; phases: Liquid
Fixed: Temperature, K = 298.15
Fixed: Pressure, kPa = 101.3
Property: Mass density, kg/m3 (Liquid); method: Vibrating tube method
Mole fraction of octane	Mole fraction of toluene	Mass density, kg/m3	uncertainty
.007	0	1218.15	.026
.005	.05	1209.79	.026
.005	.099	1201.96	.026
.003	.149	1193.77	.026
.003	.254	1172.85	.026
0	.307	1161.68	.026

System: toluene + octane + 1-ethyl-3-methylpyridinium ethyl sulfate; phases: Liquid
Fixed: Temperature, K = 298.15
Fixed: Pressure, kPa = 101.3
Property: Mass density, kg/m3 (Liquid); method: Vibrating tube method
Mole fraction of octane	Mole fraction of toluene	Mass density, kg/m3	uncertainty
.003	.096	1204.08	.026
.003	.194	1185.57	.026
.006	.227	1179.01	.026

System: toluene + octane + 1-ethyl-3-methylpyridinium ethyl sulfate; phases: Liquid mixture 2, Liquid mixture 1
Fixed: Pressure, kPa = 101.3
Fixed: Temperature, K = 298.15
Property: Mole fraction of octane (Liquid mixture 2); method: Density calibration data
Property: Mole fraction of octane (Liquid mixture 1); method: Density calibration data
Property: Mole fraction of toluene (Liquid mixture 1); method: Density calibration data
Mole fraction of toluene	Mole fraction of octane	uncertainty	Mole fraction of octane	uncertainty	Mole fraction of toluene	uncertainty
.033	.004	.005	.87	.005	.13	.005
.053	.005	.005	.81	.005	.19	.005
.074	.005	.005	.748	.005	.252	.005
.115	.005	.005	.626	.005	.374	.005
.156	.005	.005	.496	.005	.504	.005
.195	.004	.005	.373	.005	.627	.005
.194	.004	.005	.373	.005	.627	.005
.235	.003	.005	.248	.005	.752	.005

System: toluene + nonane; phases: Liquid
Fixed: Temperature, K = 298.15
Fixed: Pressure, kPa = 101.3
Property: Mass density, kg/m3 (Liquid); method: Vibrating tube method
Mole fraction of nonane	Mass density, kg/m3	uncertainty
0	862.17	.026
.096	838.74	.026
.1942	817.91	.026
.2952	799.09	.026
.3954	782.63	.026
.4954	768.02	.026
.5929	755.35	.026
.6939	743.54	.026
.7939	732.97	.026
.8947	723.28	.026
1	713.99	.026

System: toluene + nonane + 1-ethyl-3-methylpyridinium ethyl sulfate; phases: Liquid
Fixed: Temperature, K = 298.15
Fixed: Pressure, kPa = 101.3
Property: Mass density, kg/m3 (Liquid); method: Vibrating tube method
Mole fraction of nonane	Mole fraction of toluene	Mass density, kg/m3	uncertainty
.004	0	1217.62	.026
.005	.05	1210.07	.026
.002	.101	1203.29	.026
.002	.15	1193.95	.026
.001	.176	1189.73	.026
.001	.193	1186.93	.026
.002	.247	1174.98	.026
0	.307	1161.68	.026

System: toluene + nonane + 1-ethyl-3-methylpyridinium ethyl sulfate; phases: Liquid
Fixed: Temperature, K = 298.15
Fixed: Pressure, kPa = 101.3
Property: Mass density, kg/m3 (Liquid); method: Vibrating tube method
Mole fraction of nonane	Mole fraction of toluene	Mass density, kg/m3	uncertainty
.004	.09	1204.67	.026
.003	.124	1198.47	.026
.002	.197	1185.02	.026

System: toluene + nonane + 1-ethyl-3-methylpyridinium ethyl sulfate; phases: Liquid mixture 2, Liquid mixture 1
Fixed: Pressure, kPa = 101.3
Fixed: Temperature, K = 298.15
Property: Mole fraction of nonane (Liquid mixture 2); method: Density calibration data
Property: Mole fraction of nonane (Liquid mixture 1); method: Density calibration data
Property: Mole fraction of toluene (Liquid mixture 1); method: Density calibration data
Mole fraction of toluene	Mole fraction of nonane	uncertainty	Mole fraction of nonane	uncertainty	Mole fraction of toluene	uncertainty
.041	.003	.005	.878	.005	.122	.005
.068	.003	.005	.815	.005	.185	.005
.088	.003	.005	.754	.005	.246	.005
.133	.003	.005	.63	.005	.37	.005
.173	.003	.005	.5	.005	.5	.005
.219	.003	.005	.37	.005	.63	.005
.252	.003	.005	.246	.005	.754	.005
.296	.002	.005	.117	.005	.883	.005
