Measured thermophysical data. Experimental measurement and prediction of (liquid + liquid + liquid) equilibrium for the system (n-hexadecane + water + triacetin)
Source: J. Chem. Thermodyn., 2016, 10.1016/j.jct.2015.11.011
Compound 1: n-hexadecane, C16H34, purity 99%
Compound 2: water, H2O, purity 99%
Compound 3: triacetin, C9H14O6, purity 99%

System: n-hexadecane + water; phases: Liquid mixture 1, Liquid mixture 2
Property: Mole fraction of n-hexadecane (Liquid mixture 1); method: Chromatography
Temperature, K	Pressure, kPa	Mole fraction of n-hexadecane	uncertainty
296.15	100	.9993	.0001

System: n-hexadecane + water; phases: Liquid mixture 2, Liquid mixture 1
Property: Mole fraction of n-hexadecane (Liquid mixture 2); method: Chromatography
Temperature, K	Pressure, kPa	Mole fraction of n-hexadecane	uncertainty
296.15	100	.0000000001407	.0000000000268

System: triacetin + n-hexadecane; phases: Liquid mixture 1, Liquid mixture 2
Property: Mole fraction of n-hexadecane (Liquid mixture 1); method: Chromatography
Temperature, K	Pressure, kPa	Mole fraction of n-hexadecane	uncertainty
296.15	100	.9918	.0001

System: triacetin + n-hexadecane; phases: Liquid mixture 2, Liquid mixture 1
Property: Mole fraction of n-hexadecane (Liquid mixture 2); method: Chromatography
Temperature, K	Pressure, kPa	Mole fraction of n-hexadecane	uncertainty
296.15	100	.004106	.00008

System: triacetin + n-hexadecane + water; phases: Liquid mixture 3, Liquid mixture 2, Liquid mixture 1
Property: Mole fraction of n-hexadecane (Liquid mixture 3); method: Chromatography
Property: Mole fraction of water (Liquid mixture 3); method: Chromatography
Property: Mole fraction of n-hexadecane (Liquid mixture 2); method: Chromatography
Property: Mole fraction of water (Liquid mixture 2); method: Chromatography
Property: Mole fraction of n-hexadecane (Liquid mixture 1); method: Chromatography
Property: Mole fraction of water (Liquid mixture 1); method: Chromatography
Temperature, K	Pressure, kPa	Mole fraction of n-hexadecane	uncertainty	Mole fraction of water	uncertainty	Mole fraction of n-hexadecane	uncertainty	Mole fraction of water	uncertainty	Mole fraction of n-hexadecane	uncertainty	Mole fraction of water	uncertainty
296.15	100	.0003157	.0000089	.3402	.0027	.000525	.0000522	.9824	.0012	.9915	.0002	.0005677	.0000235
