Measured thermophysical data. Estimation of physicochemical properties of 1-alkyl-3-methylimidazolium glutamate
Source: J. Chem. Thermodyn., 2014, 10.1016/j.jct.2014.06.022
Compound 1: 1-pentyl-3-methylimidazolium DL-glutamate, C14H25N3O4
Compound 2: 1-hexyl-3-methylimidazolium DL-glutamate, C15H27N3O4
Compound 3: water, H2O

System: 1-pentyl-3-methylimidazolium DL-glutamate; phases: Liquid
Fixed: Pressure, kPa = 101.325
Property: Mass density, kg/m3 (Liquid); method: Buoyancy - hydrostatic balance
Temperature, K	Mass density, kg/m3	uncertainty
308.15	1160.9	.4
313.15	1158.4	.4
318.15	1155.7	.4
323.15	1153	.4
328.15	1150.2	.4
333.15	1148.1	.4
338.15	1145.5	.4
343.15	1142.6	.4

System: 1-pentyl-3-methylimidazolium DL-glutamate; phases: Liquid, Air at 1 atmosphere
Property: Surface tension liquid-gas, N/m (Liquid); method: Maximal bubble pressure
Temperature, K	Surface tension liquid-gas, N/m	uncertainty
308.15	.0392	
313.15	.0379	
318.15	.0366	
323.15	.0352	
328.15	.0337	
333.15	.0324	
338.15	.031	
343.15	.0296	

System: 1-pentyl-3-methylimidazolium DL-glutamate; phases: Liquid
Fixed: Pressure, kPa = 101.325
Property: Refractive index (Na D-line) (Liquid); method: Standard Abbe refractometry
Temperature, K	Refractive index (Na D-line)	uncertainty
293.15	1.5174	.0004
298.15	1.5161	.0004
303.15	1.5148	.0004
308.15	1.5135	.0004
313.15	1.5123	.0004
318.15	1.511	.0004
323.15	1.5097	.0004
328.15	1.5083	.0004

System: 1-pentyl-3-methylimidazolium DL-glutamate; phases: Glass, Liquid, Air at 1 atmosphere
Property: Triple point temperature, K (Glass); method: DSC/DTA
Triple point temperature, K	uncertainty
243.7	2

System: 1-hexyl-3-methylimidazolium DL-glutamate; phases: Liquid
Fixed: Pressure, kPa = 101.325
Property: Mass density, kg/m3 (Liquid); method: Buoyancy - hydrostatic balance
Temperature, K	Mass density, kg/m3	uncertainty
308.15	1126.4	.4
313.15	1123.9	.4
318.15	1120.8	.4
323.15	1118.7	.4
328.15	1116.2	.4
333.15	1113.2	.4
338.15	1110.9	.4
343.15	1109.2	.4

System: 1-hexyl-3-methylimidazolium DL-glutamate; phases: Liquid, Air at 1 atmosphere
Property: Surface tension liquid-gas, N/m (Liquid); method: Maximal bubble pressure
Temperature, K	Surface tension liquid-gas, N/m	uncertainty
308.15	.0362	
313.15	.0349	
318.15	.0336	
323.15	.0322	
328.15	.0307	
333.15	.0294	
338.15	.028	
343.15	.0266	

System: 1-hexyl-3-methylimidazolium DL-glutamate; phases: Liquid
Fixed: Pressure, kPa = 101.325
Property: Refractive index (Na D-line) (Liquid); method: Standard Abbe refractometry
Temperature, K	Refractive index (Na D-line)	uncertainty
293.15	1.5151	.0004
298.15	1.514	.0004
303.15	1.5126	.0004
308.15	1.5113	.0004
313.15	1.5101	.0004
318.15	1.5086	.0004
323.15	1.5077	.0004
328.15	1.5065	.0004

System: 1-hexyl-3-methylimidazolium DL-glutamate; phases: Glass, Liquid, Air at 1 atmosphere
Property: Triple point temperature, K (Glass); method: DSC/DTA
Triple point temperature, K	uncertainty
241.3	2

System: 1-pentyl-3-methylimidazolium DL-glutamate + water; phases: Liquid
Fixed: Pressure, kPa = 100
Property: Mass density, kg/m3 (Liquid); method: Buoyancy - hydrostatic balance
Mass fraction of water	Temperature, K	Mass density, kg/m3	uncertainty
.0091	308.15	1147.5	.4
.0091	313.15	1145	.4
.0091	318.15	1142.3	.4
.0091	323.15	1139.8	.4
.0091	328.15	1137	.4
.0091	333.15	1134.7	.4
.0091	338.15	1131.9	.4
.0091	343.15	1129.2	.4
.011	308.15	1144.7	.4
.011	313.15	1142.2	.4
.011	318.15	1139.5	.4
.011	323.15	1136.9	.4
.011	328.15	1134.3	.4
.011	333.15	1131.8	.4
.011	338.15	1129	.4
.011	343.15	1126.4	.4
.0123	308.15	1143	.4
.0123	313.15	1140.5	.4
.0123	318.15	1137.8	.4
.0123	323.15	1135.3	.4
.0123	328.15	1132.6	.4
.0123	333.15	1130.1	.4
.0123	338.15	1127.2	.4
.0123	343.15	1124.7	.4
.0138	308.15	1140.1	.4
.0138	313.15	1137.6	.4
.0138	318.15	1134.9	.4
.0138	323.15	1132.4	.4
.0138	328.15	1129.8	.4
.0138	333.15	1127.2	.4
.0138	338.15	1124.3	.4
.0138	343.15	1121.8	.4
.0155	308.15	1138.3	.4
.0155	313.15	1135.8	.4
.0155	318.15	1133.1	.4
.0155	323.15	1130.7	.4
.0155	328.15	1128	.4
.0155	333.15	1125.5	.4
.0155	338.15	1122.6	.4
.0155	343.15	1120	.4

System: 1-pentyl-3-methylimidazolium DL-glutamate + water; phases: Liquid, Air at 1 atmosphere
Property: Surface tension liquid-gas, N/m (Liquid); method: Maximal bubble pressure
Mass fraction of water	Temperature, K	Surface tension liquid-gas, N/m	uncertainty
.0075	308.15	.0397	
.0075	313.15	.0384	
.0075	318.15	.0371	
.0075	323.15	.0358	
.0075	328.15	.0345	
.0075	333.15	.0332	
.0075	338.15	.0319	
.0075	343.15	.0306	
.0099	308.15	.0398	
.0099	313.15	.0385	
.0099	318.15	.0372	
.0099	323.15	.036	
.0099	328.15	.0347	
.0099	333.15	.0334	
.0099	338.15	.0322	
.0099	343.15	.0309	
.0118	308.15	.0399	
.0118	313.15	.0386	
.0118	318.15	.0373	
.0118	323.15	.0362	
.0118	328.15	.035	
.0118	333.15	.0336	
.0118	338.15	.0325	
.0118	343.15	.0312	
.0146	308.15	.0401	
.0146	313.15	.0388	
.0146	318.15	.0375	
.0146	323.15	.0364	
.0146	328.15	.0353	
.0146	333.15	.034	
.0146	338.15	.0328	
.0146	343.15	.0316	
.018	308.15	.0403	
.018	313.15	.039	
.018	318.15	.0377	
.018	323.15	.0367	
.018	328.15	.0356	
.018	333.15	.0343	
.018	338.15	.0332	
.018	343.15	.032	

System: 1-pentyl-3-methylimidazolium DL-glutamate + water; phases: Liquid
Fixed: Pressure, kPa = 100
Property: Refractive index (Na D-line) (Liquid); method: Standard Abbe refractometry
Mass fraction of water	Temperature, K	Refractive index (Na D-line)	uncertainty
.0088	293.15	1.5183	.0004
.0088	298.15	1.5168	.0004
.0088	303.15	1.5155	.0004
.0088	308.15	1.5142	.0004
.0088	313.15	1.5132	.0004
.0088	318.15	1.5121	.0004
.0088	323.15	1.5108	.0004
.0088	328.15	1.5093	.0004
.0101	293.15	1.5184	.0004
.0101	298.15	1.5169	.0004
.0101	303.15	1.5156	.0004
.0101	308.15	1.5143	.0004
.0101	313.15	1.5133	.0004
.0101	318.15	1.5123	.0004
.0101	323.15	1.511	.0004
.0101	328.15	1.5095	.0004
.0123	293.15	1.5186	.0004
.0123	298.15	1.5171	.0004
.0123	303.15	1.5158	.0004
.0123	308.15	1.5145	.0004
.0123	313.15	1.5135	.0004
.0123	318.15	1.5125	.0004
.0123	323.15	1.5112	.0004
.0123	328.15	1.5097	.0004
.0135	293.15	1.5187	.0004
.0135	298.15	1.5172	.0004
.0135	303.15	1.5159	.0004
.0135	308.15	1.5146	.0004
.0135	313.15	1.5136	.0004
.0135	318.15	1.5127	.0004
.0135	323.15	1.5114	.0004
.0135	328.15	1.5099	.0004
.0148	293.15	1.5189	.0004
.0148	298.15	1.5173	.0004
.0148	303.15	1.516	.0004
.0148	308.15	1.5147	.0004
.0148	313.15	1.5138	.0004
.0148	318.15	1.5128	.0004
.0148	323.15	1.5116	.0004
.0148	328.15	1.51	.0004

System: 1-hexyl-3-methylimidazolium DL-glutamate + water; phases: Liquid
Fixed: Pressure, kPa = 100
Property: Mass density, kg/m3 (Liquid); method: Buoyancy - hydrostatic balance
Mass fraction of water	Temperature, K	Mass density, kg/m3	uncertainty
.0082	308.15	1116.5	.4
.0082	313.15	1114	.4
.0082	318.15	1110.9	.4
.0082	323.15	1109	.4
.0082	328.15	1106.5	.4
.0082	333.15	1103.8	.4
.0082	338.15	1101.2	.4
.0082	343.15	1099.3	.4
.0105	308.15	1113.7	.4
.0105	313.15	1111.2	.4
.0105	318.15	1108.1	.4
.0105	323.15	1106.1	.4
.0105	328.15	1103.8	.4
.0105	333.15	1100.9	.4
.0105	338.15	1098.3	.4
.0105	343.15	1096.5	.4
.0115	308.15	1112	.4
.0115	313.15	1109.5	.4
.0115	318.15	1106.4	.4
.0115	323.15	1104.5	.4
.0115	328.15	1102.1	.4
.0115	333.15	1099.2	.4
.0115	338.15	1096.9	.4
.0115	343.15	1094.8	.4
.0138	308.15	1109.1	.4
.0138	313.15	1106.6	.4
.0138	318.15	1103.5	.4
.0138	323.15	1101.6	.4
.0138	328.15	1099.3	.4
.0138	333.15	1097.3	.4
.0138	338.15	1094.6	.4
.0138	343.15	1091.9	.4
.0159	308.15	1107.3	.4
.0159	313.15	1104.8	.4
.0159	318.15	1101.7	.4
.0159	323.15	1099.9	.4
.0159	328.15	1097.5	.4
.0159	333.15	1094.6	.4
.0159	338.15	1091.9	.4
.0159	343.15	1090.1	.4

System: 1-hexyl-3-methylimidazolium DL-glutamate + water; phases: Liquid, Air at 1 atmosphere
Property: Surface tension liquid-gas, N/m (Liquid); method: Maximal bubble pressure
Mass fraction of water	Temperature, K	Surface tension liquid-gas, N/m	uncertainty
.007	308.15	.0367	
.007	313.15	.0354	
.007	318.15	.0341	
.007	323.15	.0328	
.007	328.15	.0315	
.007	333.15	.0302	
.007	338.15	.0289	
.007	343.15	.0276	
.0092	308.15	.0368	
.0092	313.15	.0355	
.0092	318.15	.0342	
.0092	323.15	.033	
.0092	328.15	.0317	
.0092	333.15	.0304	
.0092	338.15	.0292	
.0092	343.15	.0279	
.011	308.15	.0369	
.011	313.15	.0356	
.011	318.15	.0343	
.011	323.15	.0332	
.011	328.15	.032	
.011	333.15	.0306	
.011	338.15	.0295	
.011	343.15	.0282	
.0139	308.15	.0371	
.0139	313.15	.0358	
.0139	318.15	.0345	
.0139	323.15	.0334	
.0139	328.15	.0323	
.0139	333.15	.031	
.0139	338.15	.0298	
.0139	343.15	.0286	
.017	308.15	.0373	
.017	313.15	.036	
.017	318.15	.0347	
.017	323.15	.0337	
.017	328.15	.0326	
.017	333.15	.0313	
.017	338.15	.0302	
.017	343.15	.029	

System: 1-hexyl-3-methylimidazolium DL-glutamate + water; phases: Liquid
Fixed: Pressure, kPa = 100
Property: Refractive index (Na D-line) (Liquid); method: Standard Abbe refractometry
Mass fraction of water	Temperature, K	Refractive index (Na D-line)	uncertainty
.0092	293.15	1.5159	.0004
.0092	298.15	1.5147	.0004
.0092	303.15	1.5133	.0004
.0092	308.15	1.512	.0004
.0092	313.15	1.5108	.0004
.0092	318.15	1.5096	.0004
.0092	323.15	1.5088	.0004
.0092	328.15	1.5075	.0004
.0113	293.15	1.5161	.0004
.0113	298.15	1.5148	.0004
.0113	303.15	1.5134	.0004
.0113	308.15	1.5121	.0004
.0113	313.15	1.5109	.0004
.0113	318.15	1.5098	.0004
.0113	323.15	1.509	.0004
.0113	328.15	1.5077	.0004
.0126	293.15	1.5162	.0004
.0126	298.15	1.5149	.0004
.0126	303.15	1.5135	.0004
.0126	308.15	1.5122	.0004
.0126	313.15	1.511	.0004
.0126	318.15	1.51	.0004
.0126	323.15	1.5092	.0004
.0126	328.15	1.5079	.0004
.0147	293.15	1.5164	.0004
.0147	298.15	1.5151	.0004
.0147	303.15	1.5137	.0004
.0147	308.15	1.5124	.0004
.0147	313.15	1.5112	.0004
.0147	318.15	1.5102	.0004
.0147	323.15	1.5094	.0004
.0147	328.15	1.5081	.0004
.0159	293.15	1.5165	.0004
.0159	298.15	1.5152	.0004
.0159	303.15	1.5138	.0004
.0159	308.15	1.5125	.0004
.0159	313.15	1.5113	.0004
.0159	318.15	1.5103	.0004
.0159	323.15	1.5096	.0004
.0159	328.15	1.5082	.0004
