Measured thermophysical data. Excess molar enthalpies for binary mixtures of different amines with water
Source: J. Chem. Thermodyn., 2015, 10.1016/j.jct.2015.04.030
Compound 1: diethanolamine, C4H11NO2, purity 99%
Compound 2: diethylenetriamine, C4H13N3, purity 99%
Compound 3: 3,3'-diaminodipropylamine, C6H17N3, purity 99%
Compound 4: triethylenetetramine, C6H18N4, purity 97%
Compound 5: N,N,N',N'',N''-pentamethyldiethylenetriamine, C9H23N3, purity 99%
Compound 6: N,N-diethylethanolamine, C6H15NO, purity 98%
Compound 7: 1-dimethylamino-3-propanol, C5H13NO, purity 99%
Compound 8: diglycolamine, C4H11NO2, purity 98%
Compound 9: triethanolamine, C6H15NO3, purity 99%
Compound 10: N-(2-aminoethyl)ethanolamine, C4H12N2O, purity 99.5%
Compound 11: N-methyl-N-(N,N-dimethylaminoethyl)aminoethanol, C7H18N2O, purity 98%
Compound 12: water, H2O, purity 99.9%

System: diethylenetriamine + water; phases: Liquid
Fixed: Pressure, kPa = 100
Property: Excess molar enthalpy (molar enthalpy of mixing), kJ/mol (Liquid); method: Calvet calorimetry
Temperature, K	Mole fraction of diethylenetriamine	Excess molar enthalpy (molar enthalpy of mixing), kJ/mol	uncertainty
303.15	.0509	-2.269	-.04538
303.15	.1001	-4.104	-.08208
303.15	.1544	-5.559	-.11118
303.15	.1962	-6.204	-.12408
303.15	.2416	-6.523	-.13046
303.15	.3018	-6.647	-.13294
303.15	.4026	-6.356	-.12712
303.15	.501	-5.417	-.10834
303.15	.6025	-4.412	-.08824
303.15	.702	-3.393	-.06786
303.15	.7984	-2.383	-.04766
323.15	.0503	-2.11	-.0422
323.15	.0989	-3.81	-.0762
323.15	.2028	-5.882	-.11764
323.15	.3003	-6.307	-.12614
323.15	.4044	-5.777	-.11554
323.15	.51	-5.059	-.10118
323.15	.6027	-3.925	-.0785
323.15	.7018	-3.19	-.0638
323.15	.7983	-2.142	-.04284

System: 3,3'-diaminodipropylamine + water; phases: Liquid
Fixed: Pressure, kPa = 100
Property: Excess molar enthalpy (molar enthalpy of mixing), kJ/mol (Liquid); method: Calvet calorimetry
Temperature, K	Mole fraction of 3,3'-diaminodipropylamine	Excess molar enthalpy (molar enthalpy of mixing), kJ/mol	uncertainty
303.15	.0508	-2.599	-.05198
303.15	.1065	-4.652	-.09304
303.15	.1993	-6.354	-.12708
303.15	.3005	-6.588	-.13176
303.15	.4049	-6.131	-.12262
303.15	.4998	-5.544	-.11088
303.15	.602	-4.577	-.09154
303.15	.6842	-3.473	-.06946
303.15	.8015	-2.233	-.04466
323.15	.0507	-2.43	-.0486
323.15	.1064	-4.382	-.08764
323.15	.1991	-5.997	-.11994
323.15	.3005	-6.183	-.12366
323.15	.4057	-5.605	-.1121
323.15	.5003	-5.066	-.10132
323.15	.6022	-3.834	-.07668
323.15	.6842	-3.112	-.06224
323.15	.8014	-1.937	-.03874

System: triethylenetetramine + water; phases: Liquid
Fixed: Pressure, kPa = 100
Property: Excess molar enthalpy (molar enthalpy of mixing), kJ/mol (Liquid); method: Calvet calorimetry
Temperature, K	Mole fraction of triethylenetetramine	Excess molar enthalpy (molar enthalpy of mixing), kJ/mol	uncertainty
303.15	.0497	-2.807	-.05614
303.15	.0697	-3.719	-.07438
303.15	.1129	-5.236	-.10472
303.15	.2006	-6.56	-.1312
303.15	.2478	-6.793	-.13586
303.15	.3031	-6.708	-.13416
303.15	.3527	-6.482	-.12964
303.15	.4038	-5.869	-.11738
303.15	.5069	-4.796	-.09592
303.15	.589	-4.074	-.08148
303.15	.701	-2.971	-.05942
323.15	.0496	-2.65	-.053
323.15	.1103	-5.022	-.10044
323.15	.1998	-6.027	-.12054
323.15	.2469	-6.262	-.12524
323.15	.3041	-6.248	-.12496
323.15	.4041	-5.528	-.11056
323.15	.4995	-4.663	-.09326
323.15	.602	-3.806	-.07612
323.15	.7006	-2.661	-.05322

System: N,N,N',N'',N''-pentamethyldiethylenetriamine + water; phases: Liquid
Fixed: Pressure, kPa = 100
Property: Excess molar enthalpy (molar enthalpy of mixing), kJ/mol (Liquid); method: Calvet calorimetry
Temperature, K	Mole fraction of N,N,N',N'',N''-pentamethyldiethylenetriamine	Excess molar enthalpy (molar enthalpy of mixing), kJ/mol	uncertainty
303.15	.0486	-2.682	-.05364
303.15	.099	-3.968	-.07936
303.15	.15	-4.3	-.086
303.15	.2072	-4.511	-.09022
303.15	.2492	-4.391	-.08782
303.15	.3	-4.185	-.0837
303.15	.4063	-3.52	-.0704
303.15	.4895	-3.043	-.06086
303.15	.6117	-2.252	-.04504
323.15	.0506	-2.347	-.04694
323.15	.1024	-3.453	-.06906
323.15	.15	-3.8	-.076
323.15	.2	-3.981	-.07962
323.15	.25	-3.88	-.0776
323.15	.3062	-3.634	-.07268
323.15	.4001	-3.223	-.06446
323.15	.5005	-2.584	-.05168
323.15	.6001	-2.002	-.04004

System: N,N-diethylethanolamine + water; phases: Liquid
Fixed: Pressure, kPa = 100
Property: Excess molar enthalpy (molar enthalpy of mixing), kJ/mol (Liquid); method: Calvet calorimetry
Temperature, K	Mole fraction of N,N-diethylethanolamine	Excess molar enthalpy (molar enthalpy of mixing), kJ/mol	uncertainty
303.15	.0504	-1.058	-.02116
303.15	.1001	-1.577	-.03154
303.15	.2008	-2.185	-.0437
303.15	.301	-2.538	-.05076
303.15	.3688	-2.592	-.05184
303.15	.387	-2.617	-.05234
303.15	.4002	-2.598	-.05196
303.15	.4522	-2.558	-.05116
303.15	.5002	-2.504	-.05008
303.15	.5998	-2.21	-.0442
303.15	.7003	-1.75	-.035
303.15	.8007	-1.204	-.02408
303.15	.901	-.602	-.01204
323.15	.0502	-.802	-.01604
323.15	.1009	-1.237	-.02474
323.15	.1951	-1.703	-.03406
323.15	.3002	-2.017	-.04034
323.15	.369	-2.089	-.04178
323.15	.4006	-2.099	-.04198
323.15	.5005	-1.996	-.03992
323.15	.6	-1.764	-.03528
323.15	.6191	-1.615	-.0323
323.15	.6997	-1.425	-.0285
323.15	.8005	-1.055	-.0211
323.15	.9006	-.501	-.01002

System: 1-dimethylamino-3-propanol + water; phases: Liquid
Fixed: Pressure, kPa = 100
Property: Excess molar enthalpy (molar enthalpy of mixing), kJ/mol (Liquid); method: Calvet calorimetry
Temperature, K	Mole fraction of 1-dimethylamino-3-propanol	Excess molar enthalpy (molar enthalpy of mixing), kJ/mol	uncertainty
303.15	.0505	-1.056	-.02112
303.15	.1027	-1.826	-.03652
303.15	.1998	-2.514	-.05028
303.15	.3003	-2.856	-.05712
303.15	.3515	-2.884	-.05768
303.15	.3975	-2.889	-.05778
303.15	.5019	-2.706	-.05412
303.15	.6483	-2.1	-.042
303.15	.8001	-1.26	-.0252
303.15	.9452	-.398	-.00796
323.15	.0495	-.958	-.01916
323.15	.1003	-1.463	-.02926
323.15	.1782	-2.03	-.0406
323.15	.3006	-2.456	-.04912
323.15	.3485	-2.498	-.04996
323.15	.3981	-2.512	-.05024
323.15	.4977	-2.377	-.04754
323.15	.6455	-1.834	-.03668
323.15	.7962	-1.126	-.02252
323.15	.9446	-.311	-.00622

System: diglycolamine + water; phases: Liquid
Fixed: Pressure, kPa = 100
Property: Excess molar enthalpy (molar enthalpy of mixing), kJ/mol (Liquid); method: Calvet calorimetry
Temperature, K	Mole fraction of diglycolamine	Excess molar enthalpy (molar enthalpy of mixing), kJ/mol	uncertainty
303.15	.0626	-1.005	-.0201
303.15	.1041	-1.485	-.0297
303.15	.1949	-2.131	-.04262
303.15	.3027	-2.305	-.0461
303.15	.3448	-2.365	-.0473
303.15	.398	-2.326	-.04652
303.15	.5045	-2.022	-.04044
303.15	.604	-1.734	-.03468
303.15	.7062	-1.394	-.02788
303.15	.8105	-.932	-.01864
303.15	.9035	-.46	-.0092
323.15	.0628	-.928	-.01856
323.15	.1062	-1.403	-.02806
323.15	.1982	-1.957	-.03914
323.15	.3017	-2.204	-.04408
323.15	.342	-2.255	-.0451
323.15	.4004	-2.203	-.04406
323.15	.5053	-2.02	-.0404
323.15	.5967	-1.746	-.03492
323.15	.7043	-1.375	-.0275
323.15	.8037	-.938	-.01876
323.15	.9032	-.449	-.00898

System: triethanolamine + water; phases: Liquid
Fixed: Pressure, kPa = 100
Property: Excess molar enthalpy (molar enthalpy of mixing), kJ/mol (Liquid); method: Calvet calorimetry
Temperature, K	Mole fraction of triethanolamine	Excess molar enthalpy (molar enthalpy of mixing), kJ/mol	uncertainty
303.15	.0473	-.534	-.01068
303.15	.1013	-.929	-.01858
303.15	.2063	-1.289	-.02578
303.15	.3064	-1.399	-.02798
303.15	.3548	-1.402	-.02804
303.15	.4076	-1.369	-.02738
303.15	.4902	-1.221	-.02442
303.15	.5783	-1.116	-.02232
303.15	.71	-.839	-.01678
303.15	.7943	-.606	-.01212
303.15	.8959	-.317	-.00634
323.15	.0487	-.497	-.00994
323.15	.1001	-.866	-.01732
323.15	.2028	-1.205	-.0241
323.15	.3033	-1.328	-.02656
323.15	.3502	-1.348	-.02696
323.15	.4	-1.335	-.0267
323.15	.5021	-1.169	-.02338
323.15	.6021	-1.043	-.02086
323.15	.6989	-.829	-.01658
323.15	.8006	-.586	-.01172
323.15	.9009	-.284	-.00568

System: N-(2-aminoethyl)ethanolamine + water; phases: Liquid
Fixed: Pressure, kPa = 100
Property: Excess molar enthalpy (molar enthalpy of mixing), kJ/mol (Liquid); method: Calvet calorimetry
Temperature, K	Mole fraction of N-(2-aminoethyl)ethanolamine	Excess molar enthalpy (molar enthalpy of mixing), kJ/mol	uncertainty
303.15	.1031	-2.316	-.04632
303.15	.202	-3.609	-.07218
303.15	.3019	-4.028	-.08056
303.15	.3567	-4.163	-.08326
303.15	.4023	-4.006	-.08012
303.15	.4991	-3.681	-.07362
303.15	.5997	-3.096	-.06192
303.15	.7027	-2.421	-.04842

System: N-methyl-N-(N,N-dimethylaminoethyl)aminoethanol + water; phases: Liquid
Fixed: Pressure, kPa = 100
Property: Excess molar enthalpy (molar enthalpy of mixing), kJ/mol (Liquid); method: Calvet calorimetry
Temperature, K	Mole fraction of N-methyl-N-(N,N-dimethylaminoethyl)aminoethanol	Excess molar enthalpy (molar enthalpy of mixing), kJ/mol	uncertainty
303.15	.1012	-2.914	-.05828
303.15	.2028	-3.609	-.07218
303.15	.25	-3.741	-.07482
303.15	.3015	-3.605	-.0721
303.15	.4004	-3.499	-.06998
303.15	.4989	-2.994	-.05988

System: diethanolamine + water; phases: Liquid
Fixed: Pressure, kPa = 100
Property: Excess molar enthalpy (molar enthalpy of mixing), kJ/mol (Liquid); method: Calvet calorimetry
Temperature, K	Mole fraction of diethanolamine	Excess molar enthalpy (molar enthalpy of mixing), kJ/mol	uncertainty
298.15	.05035	-.546	-.01092
298.15	.1001	-1.115	-.0223
298.15	.1989	-1.714	-.03428
298.15	.2023	-1.736	-.03472
298.15	.2958	-2.027	-.04054
298.15	.3428	-2.066	-.04132
298.15	.3974	-2.053	-.04106
298.15	.4915	-1.947	-.03894
298.15	.599	-1.591	-.03182
298.15	.7038	-1.274	-.02548
298.15	.795	-.932	-.01864
298.15	.9029	-.414	-.00828
