Measured thermophysical data. Thermodynamic properties of starch and glucose
Source: J. Chem. Thermodyn., 2013, 10.1016/j.jct.2012.11.031
Compound 1: .alpha.-D-glucose, C6H12O6
Compound 2: carbon dioxide, CO2
Compound 3: water, H2O
Compound 4: oxygen, O2

System: .alpha.-D-glucose; phases: Crystal, Gas
Property: Molar enthalpy of vaporization or sublimation, kJ/mol (Crystal); method: Derived by Second law
Temperature, K	Molar enthalpy of vaporization or sublimation, kJ/mol	uncertainty
391.5	138.7	34.675

System: .alpha.-D-glucose; phases: Crystal, Gas
Property: Vapor or sublimation pressure, kPa (Crystal); method: Knudsen effusion method
Temperature, K	Vapor or sublimation pressure, kPa	uncertainty
405.7	.0002	.00001

System: .alpha.-D-glucose; phases: Ideal gas
Fixed: Pressure, kPa = 101.325
Property: Molar heat capacity at constant pressure, J/K/mol (Ideal gas); method: Statistical thermodynamic calculations
Temperature, K	Molar heat capacity at constant pressure, J/K/mol	uncertainty
50	52.72	1.0544
100	88.75	1.775
150	126	2.52
200	158.6	3.172
273.15	202.6	4.052
298.15	217.3	4.346
300	218.3	4.366
392	268.6	5.372
400	272.9	5.458
405.7	275.7	5.514
500	318.5	6.37
600	355.1	7.102
700	384.5	7.69
800	408.6	8.172
900	428.8	8.576
1000	445.9	8.918

System: .alpha.-D-glucose; phases: Ideal gas
Property: Molar entropy, J/K/mol (Ideal gas); method: Statistical thermodynamic calculations
Temperature, K	Pressure, kPa	Molar entropy, J/K/mol	uncertainty
298.15	100	465.4	9.308

Reaction: -1 .alpha.-D-glucose + 6 carbon dioxide + 6 water + -6 oxygen
Property: Specific internal energy of reaction at constant volume, J/g
-15554
