Measured thermophysical data. (Solid + liquid) phase equilibria of tetraphenyl piperazine-1,4-diyldiphosphonate in pure solvents
Source: J. Chem. Thermodyn., 2014, 10.1016/j.jct.2014.06.021
Compound 1: dichloromethane, CH2Cl2, purity 99.5%
Compound 2: acetic acid, C2H4O2, purity 99.5%
Compound 3: ethyl acetate, C4H8O2, purity 99.5%
Compound 4: acetone, C3H6O, purity 99.5%
Compound 5: n-hexane, C6H14, purity 99.5%
Compound 6: 1-butanol, C4H10O, purity 99.5%
Compound 7: 2-propanol, C3H8O, purity 99.5%
Compound 8: isopropyl ether, C6H14O, purity 99.5%
Compound 9: tetraphenyl piperazine-1,4-diylbis(phosphonate), C28H28N2O6P2

System: tetraphenyl piperazine-1,4-diylbis(phosphonate); phases: Crystal, Liquid, Air at 1 atmosphere
Property: Normal melting temperature, K (Crystal); method: DSC/DTA
Normal melting temperature, K	uncertainty
457.82	.2

System: tetraphenyl piperazine-1,4-diylbis(phosphonate); phases: Crystal, Liquid, Air at 1 atmosphere
Property: Molar enthalpy of transition or fusion, kJ/mol (Crystal); method: DSC
Molar enthalpy of transition or fusion, kJ/mol	uncertainty
59.95	.48

System: dichloromethane + tetraphenyl piperazine-1,4-diylbis(phosphonate); phases: Liquid, Crystal
Fixed: Pressure, kPa = 100
Property: Mole fraction of tetraphenyl piperazine-1,4-diylbis(phosphonate) (Liquid); method: gravimetric method
Temperature, K	Mole fraction of tetraphenyl piperazine-1,4-diylbis(phosphonate)	uncertainty
283.15	.00567	.00005
288.15	.00642	.00004
293.15	.00731	.00002
298.15	.00843	.00006
303.15	.01025	.00005
308.15	.01334	.00009

System: acetic acid + tetraphenyl piperazine-1,4-diylbis(phosphonate); phases: Liquid, Crystal
Fixed: Pressure, kPa = 100
Property: Mole fraction of tetraphenyl piperazine-1,4-diylbis(phosphonate) (Liquid); method: gravimetric method
Temperature, K	Mole fraction of tetraphenyl piperazine-1,4-diylbis(phosphonate)	uncertainty
288.15	.000882	.000004
293.15	.001155	.000006
298.15	.001907	.000017
303.15	.00282	.000014
308.15	.003854	.000015
313.15	.004979	.000021
318.15	.00604	.00004
323.15	.00686	.00008

System: ethyl acetate + tetraphenyl piperazine-1,4-diylbis(phosphonate); phases: Liquid, Crystal
Fixed: Pressure, kPa = 100
Property: Mole fraction of tetraphenyl piperazine-1,4-diylbis(phosphonate) (Liquid); method: gravimetric method
Temperature, K	Mole fraction of tetraphenyl piperazine-1,4-diylbis(phosphonate)	uncertainty
283.15	.000709	.000005
288.15	.00088	.000004
293.15	.001091	.000003
298.15	.001378	.000005
303.15	.001881	.000015
308.15	.00272	.000018
313.15	.003507	.000003
318.15	.004643	.000015
323.15	.006559	.000021

System: acetone + tetraphenyl piperazine-1,4-diylbis(phosphonate); phases: Liquid, Crystal
Fixed: Pressure, kPa = 100
Property: Mole fraction of tetraphenyl piperazine-1,4-diylbis(phosphonate) (Liquid); method: gravimetric method
Temperature, K	Mole fraction of tetraphenyl piperazine-1,4-diylbis(phosphonate)	uncertainty
283.15	.000258	.000003
288.15	.000283	.000002
293.15	.000327	.000004
298.15	.000446	.000006
303.15	.00055	.000002
308.15	.000711	.000005
313.15	.00098	.000009
318.15	.001249	.000006
323.15	.001659	.000005

System: n-hexane + tetraphenyl piperazine-1,4-diylbis(phosphonate); phases: Liquid, Crystal
Fixed: Pressure, kPa = 100
Property: Mole fraction of tetraphenyl piperazine-1,4-diylbis(phosphonate) (Liquid); method: gravimetric method
Temperature, K	Mole fraction of tetraphenyl piperazine-1,4-diylbis(phosphonate)	uncertainty
283.15	.000109	.000001
288.15	.000151	.000001
293.15	.000211	.000003
298.15	.000284	.000004
303.15	.000393	.000002
308.15	.000525	.000004
313.15	.000726	.000005
318.15	.000908	.000008
323.15	.001223	.000005

System: 1-butanol + tetraphenyl piperazine-1,4-diylbis(phosphonate); phases: Liquid, Crystal
Fixed: Pressure, kPa = 100
Property: Mole fraction of tetraphenyl piperazine-1,4-diylbis(phosphonate) (Liquid); method: gravimetric method
Temperature, K	Mole fraction of tetraphenyl piperazine-1,4-diylbis(phosphonate)	uncertainty
283.15	.000099	.000001
288.15	.000118	.000002
293.15	.000131	.000003
298.15	.000171	.000002
303.15	.000201	.000002
308.15	.000271	.000004
313.15	.00036	.000002
318.15	.000454	.000003
323.15	.00058	.000004

System: 2-propanol + tetraphenyl piperazine-1,4-diylbis(phosphonate); phases: Liquid, Crystal
Fixed: Pressure, kPa = 100
Property: Mole fraction of tetraphenyl piperazine-1,4-diylbis(phosphonate) (Liquid); method: gravimetric method
Temperature, K	Mole fraction of tetraphenyl piperazine-1,4-diylbis(phosphonate)	uncertainty
283.15	.000079	.000001
288.15	.000098	.000001
293.15	.000121	.000002
298.15	.000153	.000009
303.15	.000179	.000006
308.15	.000209	.000003
313.15	.000275	.000002
318.15	.000327	.000005
323.15	.000416	.000003

System: isopropyl ether + tetraphenyl piperazine-1,4-diylbis(phosphonate); phases: Liquid, Crystal
Fixed: Pressure, kPa = 100
Property: Mole fraction of tetraphenyl piperazine-1,4-diylbis(phosphonate) (Liquid); method: gravimetric method
Temperature, K	Mole fraction of tetraphenyl piperazine-1,4-diylbis(phosphonate)	uncertainty
283.15	.0000128	.0000003
288.15	.0000205	.0000004
293.15	.0000318	.0000002
298.15	.0000475	.0000008
303.15	.0000691	.0000007
308.15	.0001051	.0000009
313.15	.0001496	.0000013
318.15	.0002065	.0000011
323.15	.0002896	.0000014
