Measured thermophysical data. The mixing properties of 1,3,5-trimethyl-1,3,5-tris(3,3,3-trifluoropropyl) cyclotrisiloxane with various organosilicon compounds at different temperatures
Source: J. Chem. Thermodyn., 2015, 10.1016/j.jct.2014.09.010
Compound 1: 1,3,5-trimethyl-1,3,5-tris(3,3,3-trifluoropropyl)cyclotrisiloxane, C12H21F9O3Si3
Compound 2: octamethylcyclotetrasiloxane, C8H24O4Si4
Compound 3: hexamethyldisiloxane, C6H18OSi2
Compound 4: 2,4,6,8-tetramethylcyclotetrasiloxane, C4H16O4Si4
Compound 5: 2,4,6,8-tetramethyl-2,4,6,8-tetraethenylcycloterasiloxane, C12H24O4Si4

System: 1,3,5-trimethyl-1,3,5-tris(3,3,3-trifluoropropyl)cyclotrisiloxane; phases: Liquid
Property: Mass density, kg/m3 (Liquid); method: Vibrating tube method
Temperature, K	Pressure, kPa	Mass density, kg/m3	uncertainty
308.15	102.355	1236.44	.5
313.15	102.355	1229.89	.5
318.15	102.355	1223.32	.5
323.15	102.355	1216.77	.5
328.15	102.355	1210.19	.5

System: 1,3,5-trimethyl-1,3,5-tris(3,3,3-trifluoropropyl)cyclotrisiloxane; phases: Liquid
Property: Refractive index (Na D-line) (Liquid); method: Standard Abbe refractometry
Temperature, K	Pressure, kPa	Refractive index (Na D-line)	uncertainty
308.15	102.355	1.36016	.00005
313.15	102.355	1.35816	.00005
318.15	102.355	1.35616	.00005
323.15	102.355	1.3541	.00005
328.15	102.355	1.35211	.00005

System: octamethylcyclotetrasiloxane; phases: Liquid
Property: Mass density, kg/m3 (Liquid); method: Vibrating tube method
Temperature, K	Pressure, kPa	Mass density, kg/m3	uncertainty
293.15	102.355	956.03	.5
308.15	102.355	938.83	.5
313.15	102.355	933.13	.5
318.15	102.355	927.38	.5
323.15	102.355	921.62	.5
328.15	102.355	915.91	.5

System: octamethylcyclotetrasiloxane; phases: Liquid
Fixed: Pressure, kPa = 101.325
Property: Refractive index (Na D-line) (Liquid); method: Standard Abbe refractometry
Temperature, K	Refractive index (Na D-line)	uncertainty
293.15	1.39674	.00005
308.15	1.38925	.00005
313.15	1.38672	.00005
318.15	1.38421	.00005
323.15	1.38168	.00005
328.15	1.37917	.00005

System: hexamethyldisiloxane; phases: Liquid
Property: Mass density, kg/m3 (Liquid); method: Vibrating tube method
Temperature, K	Pressure, kPa	Mass density, kg/m3	uncertainty
293.15	102.355	763.87	.5
308.15	102.355	747.95	.5
313.15	102.355	742.53	.5
318.15	102.355	737.07	.5
323.15	102.355	731.57	.5
328.15	102.355	726.05	.5

System: hexamethyldisiloxane; phases: Liquid
Fixed: Pressure, kPa = 101.325
Property: Refractive index (Na D-line) (Liquid); method: Standard Abbe refractometry
Temperature, K	Refractive index (Na D-line)	uncertainty
293.15	1.37758	.00005
308.15	1.3692	.00005
313.15	1.36637	.00005
318.15	1.36353	.00005
323.15	1.36068	.00005
328.15	1.35776	.00005

System: 2,4,6,8-tetramethylcyclotetrasiloxane; phases: Liquid
Property: Mass density, kg/m3 (Liquid); method: Vibrating tube method
Temperature, K	Pressure, kPa	Mass density, kg/m3	uncertainty
293.15	102.355	996.14	.5
308.15	102.355	976.66	.5
313.15	102.355	970.26	.5
318.15	102.355	963.83	.5
323.15	102.355	957.37	.5
328.15	102.355	950.86	.5

System: 2,4,6,8-tetramethylcyclotetrasiloxane; phases: Liquid
Fixed: Pressure, kPa = 101.325
Property: Refractive index (Na D-line) (Liquid); method: Standard Abbe refractometry
Temperature, K	Refractive index (Na D-line)	uncertainty
293.15	1.38803	.00005
308.15	1.38021	.00005
313.15	1.37755	.00005
318.15	1.37493	.00005
323.15	1.37225	.00005
328.15	1.36956	.00005

System: 2,4,6,8-tetramethyl-2,4,6,8-tetraethenylcycloterasiloxane; phases: Liquid
Property: Mass density, kg/m3 (Liquid); method: Vibrating tube method
Temperature, K	Pressure, kPa	Mass density, kg/m3	uncertainty
293.15	102.355	987.65	.5
308.15	102.355	972.29	.5
313.15	102.355	967.16	.5
318.15	102.355	962.01	.5
323.15	102.355	956.88	.5
328.15	102.355	951.69	.5

System: 2,4,6,8-tetramethyl-2,4,6,8-tetraethenylcycloterasiloxane; phases: Liquid
Fixed: Pressure, kPa = 101.325
Property: Refractive index (Na D-line) (Liquid); method: Standard Abbe refractometry
Temperature, K	Refractive index (Na D-line)	uncertainty
293.15	1.43415	.00005
308.15	1.42745	.00005
313.15	1.42509	.00005
318.15	1.42272	.00005
323.15	1.42038	.00005
328.15	1.41798	.00005

System: octamethylcyclotetrasiloxane + 1,3,5-trimethyl-1,3,5-tris(3,3,3-trifluoropropyl)cyclotrisiloxane; phases: Liquid
Fixed: Pressure, kPa = 102.355
Property: Mass density, kg/m3 (Liquid); method: Vibrating tube method
Temperature, K	Mole fraction of octamethylcyclotetrasiloxane	Mass density, kg/m3	uncertainty
308.15	0	1236.44	.5
308.15	.0511	1222.82	.5
308.15	.1034	1207.99	.5
308.15	.1495	1195.45	.5
308.15	.2052	1180.28	.5
308.15	.2515	1166.84	.5
308.15	.2931	1155.38	.5
308.15	.35	1138.96	.5
308.15	.4054	1123.28	.5
308.15	.4418	1112.67	.5
308.15	.5031	1094.65	.5
308.15	.5498	1080.68	.5
308.15	.5965	1066.59	.5
308.15	.6505	1049.99	.5
308.15	.7007	1034.64	.5
308.15	.7493	1019.45	.5
308.15	.8037	1001.91	.5
308.15	.8501	987.28	.5
308.15	.9002	971.14	.5
308.15	.9484	955.59	.5
308.15	1	938.83	.5
313.15	0	1229.89	.5
313.15	.0511	1216.29	.5
313.15	.1034	1201.64	.5
313.15	.1495	1189.08	.5
313.15	.2052	1173.9	.5
313.15	.2515	1160.61	.5
313.15	.2931	1149.01	.5
313.15	.35	1132.73	.5
313.15	.4054	1116.99	.5
313.15	.4418	1106.38	.5
313.15	.5031	1088.33	.5
313.15	.5498	1074.38	.5
313.15	.5965	1060.4	.5
313.15	.6505	1043.85	.5
313.15	.7007	1028.51	.5
313.15	.7493	1013.37	.5
313.15	.8037	995.98	.5
313.15	.8501	981.34	.5
313.15	.9002	965.23	.5
313.15	.9484	949.78	.5
313.15	1	933.13	.5
318.15	0	1223.32	.5
318.15	.0511	1209.77	.5
318.15	.1034	1195.35	.5
318.15	.1495	1182.73	.5
318.15	.2052	1167.53	.5
318.15	.2515	1154.37	.5
318.15	.2931	1142.64	.5
318.15	.35	1126.5	.5
318.15	.4054	1110.69	.5
318.15	.4418	1100.14	.5
318.15	.5031	1082.05	.5
318.15	.5498	1068.2	.5
318.15	.5965	1054.22	.5
318.15	.6505	1037.69	.5
318.15	.7007	1022.41	.5
318.15	.7493	1007.29	.5
318.15	.8037	990.04	.5
318.15	.8501	975.45	.5
318.15	.9002	959.4	.5
318.15	.9484	944.02	.5
318.15	1	927.38	.5
323.15	0	1216.77	.5
323.15	.0511	1203.23	.5
323.15	.1034	1188.95	.5
323.15	.1495	1176.32	.5
323.15	.2052	1161.12	.5
323.15	.2515	1148.05	.5
323.15	.2931	1136.24	.5
323.15	.35	1120.19	.5
323.15	.4054	1104.31	.5
323.15	.4418	1093.82	.5
323.15	.5031	1075.81	.5
323.15	.5498	1061.88	.5
323.15	.5965	1047.99	.5
323.15	.6505	1031.54	.5
323.15	.7007	1016.26	.5
323.15	.7493	1001.18	.5
323.15	.8037	984.05	.5
323.15	.8501	969.49	.5
323.15	.9002	953.52	.5
323.15	.9484	938.21	.5
323.15	1	921.62	.5
328.15	0	1210.19	.5
328.15	.0511	1196.7	.5
328.15	.1034	1182.59	.5
328.15	.1495	1170.03	.5
328.15	.2052	1154.75	.5
328.15	.2515	1141.83	.5
328.15	.2931	1130.31	.5
328.15	.35	1113.99	.5
328.15	.4054	1098.26	.5
328.15	.4418	1087.62	.5
328.15	.5031	1069.63	.5
328.15	.5498	1055.78	.5
328.15	.5965	1041.82	.5
328.15	.6505	1025.47	.5
328.15	.7007	1010.17	.5
328.15	.7493	995.14	.5
328.15	.8037	978.13	.5
328.15	.8501	963.55	.5
328.15	.9002	947.7	.5
328.15	.9484	932.35	.5
328.15	1	915.91	.5

System: octamethylcyclotetrasiloxane + 1,3,5-trimethyl-1,3,5-tris(3,3,3-trifluoropropyl)cyclotrisiloxane; phases: Liquid
Fixed: Pressure, kPa = 102.355
Property: Refractive index (Na D-line) (Liquid); method: Standard Abbe refractometry
Temperature, K	Mole fraction of octamethylcyclotetrasiloxane	Refractive index (Na D-line)	uncertainty
308.15	0	1.36016	.00005
308.15	.0511	1.36109	.00005
308.15	.1034	1.3621	.00005
308.15	.1495	1.36301	.00005
308.15	.2052	1.36416	.00005
308.15	.2515	1.36521	.00005
308.15	.2931	1.36616	.00005
308.15	.35	1.36746	.00005
308.15	.4054	1.36887	.00005
308.15	.4418	1.3698	.00005
308.15	.5031	1.37145	.00005
308.15	.5498	1.37274	.00005
308.15	.5965	1.37411	.00005
308.15	.6505	1.37576	.00005
308.15	.7007	1.37736	.00005
308.15	.7493	1.37901	.00005
308.15	.8037	1.38094	.00005
308.15	.8501	1.38269	.00005
308.15	.9002	1.38473	.00005
308.15	.9484	1.3868	.00005
308.15	1	1.38925	.00005
313.15	0	1.35816	.00005
313.15	.0511	1.35906	.00005
313.15	.1034	1.36006	.00005
313.15	.1495	1.36097	.00005
313.15	.2052	1.36208	.00005
313.15	.2515	1.36306	.00005
313.15	.2931	1.364	.00005
313.15	.35	1.36532	.00005
313.15	.4054	1.36664	.00005
313.15	.4418	1.36755	.00005
313.15	.5031	1.36918	.00005
313.15	.5498	1.37048	.00005
313.15	.5965	1.3718	.00005
313.15	.6505	1.37342	.00005
313.15	.7007	1.37504	.00005
313.15	.7493	1.37664	.00005
313.15	.8037	1.37855	.00005
313.15	.8501	1.38028	.00005
313.15	.9002	1.38224	.00005
313.15	.9484	1.3843	.00005
313.15	1	1.38672	.00005
318.15	0	1.35616	.00005
318.15	.0511	1.35703	.00005
318.15	.1034	1.35799	.00005
318.15	.1495	1.35887	.00005
318.15	.2052	1.36	.00005
318.15	.2515	1.36098	.00005
318.15	.2931	1.3619	.00005
318.15	.35	1.36312	.00005
318.15	.4054	1.36448	.00005
318.15	.4418	1.36536	.00005
318.15	.5031	1.36693	.00005
318.15	.5498	1.3682	.00005
318.15	.5965	1.36952	.00005
318.15	.6505	1.37109	.00005
318.15	.7007	1.37266	.00005
318.15	.7493	1.37428	.00005
318.15	.8037	1.37612	.00005
318.15	.8501	1.37785	.00005
318.15	.9002	1.37979	.00005
318.15	.9484	1.38183	.00005
318.15	1	1.38421	.00005
323.15	0	1.3541	.00005
323.15	.0511	1.35499	.00005
323.15	.1034	1.35595	.00005
323.15	.1495	1.35681	.00005
323.15	.2052	1.35788	.00005
323.15	.2515	1.35884	.00005
323.15	.2931	1.35974	.00005
323.15	.35	1.361	.00005
323.15	.4054	1.36225	.00005
323.15	.4418	1.36312	.00005
323.15	.5031	1.36469	.00005
323.15	.5498	1.36591	.00005
323.15	.5965	1.36721	.00005
323.15	.6505	1.36878	.00005
323.15	.7007	1.37031	.00005
323.15	.7493	1.37187	.00005
323.15	.8037	1.3737	.00005
323.15	.8501	1.3754	.00005
323.15	.9002	1.37733	.00005
323.15	.9484	1.37935	.00005
323.15	1	1.38168	.00005
328.15	0	1.35211	.00005
328.15	.0511	1.35297	.00005
328.15	.1034	1.35389	.00005
328.15	.1495	1.35474	.00005
328.15	.2052	1.35582	.00005
328.15	.2515	1.35674	.00005
328.15	.2931	1.35749	.00005
328.15	.35	1.35881	.00005
328.15	.4054	1.36009	.00005
328.15	.4418	1.36096	.00005
328.15	.5031	1.36244	.00005
328.15	.5498	1.36366	.00005
328.15	.5965	1.3649	.00005
328.15	.6505	1.36644	.00005
328.15	.7007	1.36797	.00005
328.15	.7493	1.3695	.00005
328.15	.8037	1.37132	.00005
328.15	.8501	1.37296	.00005
328.15	.9002	1.37489	.00005
328.15	.9484	1.37686	.00005
328.15	1	1.37917	.00005

System: 2,4,6,8-tetramethylcyclotetrasiloxane + 1,3,5-trimethyl-1,3,5-tris(3,3,3-trifluoropropyl)cyclotrisiloxane; phases: Liquid
Fixed: Pressure, kPa = 102.355
Property: Mass density, kg/m3 (Liquid); method: Vibrating tube method
Temperature, K	Mole fraction of 2,4,6,8-tetramethylcyclotetrasiloxane	Mass density, kg/m3	uncertainty
308.15	0	1236.44	.5
308.15	.0495	1227.56	.5
308.15	.0996	1218.5	.5
308.15	.1487	1209.09	.5
308.15	.2008	1198.84	.5
308.15	.2503	1188.79	.5
308.15	.3003	1178.23	.5
308.15	.3493	1167.56	.5
308.15	.4006	1155.96	.5
308.15	.4501	1144.11	.5
308.15	.4995	1132	.5
308.15	.5492	1119.32	.5
308.15	.5993	1105.98	.5
308.15	.6507	1091.71	.5
308.15	.7	1077.36	.5
308.15	.7498	1062.45	.5
308.15	.7991	1046.89	.5
308.15	.85	1030.24	.5
308.15	.8995	1013.28	.5
308.15	.95	995.3	.5
308.15	1	976.66	.5
313.15	0	1229.89	.5
313.15	.0495	1221.03	.5
313.15	.0996	1211.86	.5
313.15	.1487	1202.61	.5
313.15	.2008	1192.28	.5
313.15	.2503	1182.22	.5
313.15	.3003	1171.64	.5
313.15	.3493	1160.96	.5
313.15	.4006	1149.38	.5
313.15	.4501	1137.53	.5
313.15	.4995	1125.41	.5
313.15	.5492	1112.74	.5
313.15	.5993	1099.45	.5
313.15	.6507	1085.15	.5
313.15	.7	1070.84	.5
313.15	.7498	1055.93	.5
313.15	.7991	1040.42	.5
313.15	.85	1023.76	.5
313.15	.8995	1006.8	.5
313.15	.95	988.86	.5
313.15	1	970.26	.5
318.15	0	1223.32	.5
318.15	.0495	1214.49	.5
318.15	.0996	1205.33	.5
318.15	.1487	1195.99	.5
318.15	.2008	1185.68	.5
318.15	.2503	1175.53	.5
318.15	.3003	1165.01	.5
318.15	.3493	1154.28	.5
318.15	.4006	1142.62	.5
318.15	.4501	1130.83	.5
318.15	.4995	1118.69	.5
318.15	.5492	1106.01	.5
318.15	.5993	1092.69	.5
318.15	.6507	1078.43	.5
318.15	.7	1064.16	.5
318.15	.7498	1049.23	.5
318.15	.7991	1033.74	.5
318.15	.85	1017.12	.5
318.15	.8995	1000.23	.5
318.15	.95	982.36	.5
318.15	1	963.83	.5
323.15	0	1216.77	.5
323.15	.0495	1207.95	.5
323.15	.0996	1198.73	.5
323.15	.1487	1189.41	.5
323.15	.2008	1179.1	.5
323.15	.2503	1169	.5
323.15	.3003	1158.39	.5
323.15	.3493	1147.65	.5
323.15	.4006	1135.98	.5
323.15	.4501	1124.19	.5
323.15	.4995	1112.04	.5
323.15	.5492	1099.36	.5
323.15	.5993	1086.04	.5
323.15	.6507	1071.77	.5
323.15	.7	1057.52	.5
323.15	.7498	1042.59	.5
323.15	.7991	1027.12	.5
323.15	.85	1010.52	.5
323.15	.8995	993.67	.5
323.15	.95	975.82	.5
323.15	1	957.37	.5
328.15	0	1210.19	.5
328.15	.0495	1201.36	.5
328.15	.0996	1192.14	.5
328.15	.1487	1182.8	.5
328.15	.2008	1172.5	.5
328.15	.2503	1162.38	.5
328.15	.3003	1151.78	.5
328.15	.3493	1141.01	.5
328.15	.4006	1129.32	.5
328.15	.4501	1117.55	.5
328.15	.4995	1105.43	.5
328.15	.5492	1092.7	.5
328.15	.5993	1079.39	.5
328.15	.6507	1065.11	.5
328.15	.7	1050.88	.5
328.15	.7498	1035.93	.5
328.15	.7991	1020.5	.5
328.15	.85	1003.9	.5
328.15	.8995	987.07	.5
328.15	.95	969.25	.5
328.15	1	950.86	.5

System: 2,4,6,8-tetramethylcyclotetrasiloxane + 1,3,5-trimethyl-1,3,5-tris(3,3,3-trifluoropropyl)cyclotrisiloxane; phases: Liquid
Fixed: Pressure, kPa = 102.355
Property: Refractive index (Na D-line) (Liquid); method: Standard Abbe refractometry
Temperature, K	Mole fraction of 2,4,6,8-tetramethylcyclotetrasiloxane	Refractive index (Na D-line)	uncertainty
308.15	0	1.36011	.00005
308.15	.0495	1.3607	.00005
308.15	.0996	1.36125	.00005
308.15	.1487	1.36193	.00005
308.15	.2008	1.36258	.00005
308.15	.2503	1.36319	.00005
308.15	.3003	1.36392	.00005
308.15	.3493	1.36467	.00005
308.15	.4006	1.36541	.00005
308.15	.4501	1.36623	.00005
308.15	.4995	1.3671	.00005
308.15	.5492	1.36802	.00005
308.15	.5993	1.36901	.00005
308.15	.6507	1.37006	.00005
308.15	.7	1.37119	.00005
308.15	.7498	1.37239	.00005
308.15	.7991	1.37364	.00005
308.15	.85	1.37507	.00005
308.15	.8995	1.37655	.00005
308.15	.95	1.37827	.00005
308.15	1	1.38021	.00005
313.15	0	1.35812	.00005
313.15	.0495	1.35865	.00005
313.15	.0996	1.35923	.00005
313.15	.1487	1.35983	.00005
313.15	.2008	1.36046	.00005
313.15	.2503	1.36111	.00005
313.15	.3003	1.36181	.00005
313.15	.3493	1.3625	.00005
313.15	.4006	1.3632	.00005
313.15	.4501	1.364	.00005
313.15	.4995	1.36484	.00005
313.15	.5492	1.36571	.00005
313.15	.5993	1.36667	.00005
313.15	.6507	1.3677	.00005
313.15	.7	1.36882	.00005
313.15	.7498	1.36995	.00005
313.15	.7991	1.37118	.00005
313.15	.85	1.37254	.00005
313.15	.8995	1.37401	.00005
313.15	.95	1.37568	.00005
313.15	1	1.37755	.00005
318.15	0	1.3561	.00005
318.15	.0495	1.35665	.00005
318.15	.0996	1.35719	.00005
318.15	.1487	1.35773	.00005
318.15	.2008	1.35837	.00005
318.15	.2503	1.35895	.00005
318.15	.3003	1.35962	.00005
318.15	.3493	1.36031	.00005
318.15	.4006	1.36105	.00005
318.15	.4501	1.36182	.00005
318.15	.4995	1.36261	.00005
318.15	.5492	1.36345	.00005
318.15	.5993	1.36438	.00005
318.15	.6507	1.36538	.00005
318.15	.7	1.36639	.00005
318.15	.7498	1.3675	.00005
318.15	.7991	1.36873	.00005
318.15	.85	1.37003	.00005
318.15	.8995	1.37148	.00005
318.15	.95	1.37309	.00005
318.15	1	1.37493	.00005
323.15	0	1.35408	.00005
323.15	.0495	1.35459	.00005
323.15	.0996	1.35509	.00005
323.15	.1487	1.35567	.00005
323.15	.2008	1.35628	.00005
323.15	.2503	1.35685	.00005
323.15	.3003	1.35749	.00005
323.15	.3493	1.35813	.00005
323.15	.4006	1.35882	.00005
323.15	.4501	1.35956	.00005
323.15	.4995	1.36034	.00005
323.15	.5492	1.36118	.00005
323.15	.5993	1.36204	.00005
323.15	.6507	1.36298	.00005
323.15	.7	1.36399	.00005
323.15	.7498	1.36506	.00005
323.15	.7991	1.36622	.00005
323.15	.85	1.3675	.00005
323.15	.8995	1.36893	.00005
323.15	.95	1.37047	.00005
323.15	1	1.37225	.00005
328.15	0	1.35208	.00005
328.15	.0495	1.35253	.00005
328.15	.0996	1.35305	.00005
328.15	.1487	1.35356	.00005
328.15	.2008	1.35412	.00005
328.15	.2503	1.35471	.00005
328.15	.3003	1.35532	.00005
328.15	.3493	1.35595	.00005
328.15	.4006	1.35665	.00005
328.15	.4501	1.35734	.00005
328.15	.4995	1.35806	.00005
328.15	.5492	1.35885	.00005
328.15	.5993	1.35971	.00005
328.15	.6507	1.36064	.00005
328.15	.7	1.36158	.00005
328.15	.7498	1.36261	.00005
328.15	.7991	1.36373	.00005
328.15	.85	1.36496	.00005
328.15	.8995	1.36631	.00005
328.15	.95	1.36784	.00005
328.15	1	1.36956	.00005

System: 1,3,5-trimethyl-1,3,5-tris(3,3,3-trifluoropropyl)cyclotrisiloxane + 2,4,6,8-tetramethyl-2,4,6,8-tetraethenylcycloterasiloxane; phases: Liquid
Fixed: Pressure, kPa = 102.355
Property: Mass density, kg/m3 (Liquid); method: Vibrating tube method
Temperature, K	Mole fraction of 2,4,6,8-tetramethyl-2,4,6,8-tetraethenylcycloterasiloxane	Mass density, kg/m3	uncertainty
308.15	0	1236.44	.5
308.15	.051	1222.89	.5
308.15	.1003	1209.74	.5
308.15	.1496	1196.38	.5
308.15	.2034	1181.98	.5
308.15	.2539	1168.71	.5
308.15	.2964	1157.4	.5
308.15	.3511	1142.87	.5
308.15	.4001	1129.86	.5
308.15	.4485	1117.04	.5
308.15	.5016	1102.97	.5
308.15	.5403	1092.78	.5
308.15	.59	1079.62	.5
308.15	.6496	1063.87	.5
308.15	.6961	1051.61	.5
308.15	.7458	1038.48	.5
308.15	.7982	1024.72	.5
308.15	.8497	1011.06	.5
308.15	.8993	998.13	.5
308.15	.9502	984.96	.5
308.15	1	972.29	.5
313.15	0	1229.89	.5
313.15	.051	1216.3	.5
313.15	.1003	1203.29	.5
313.15	.1496	1190.16	.5
313.15	.2034	1175.87	.5
313.15	.2539	1162.44	.5
313.15	.2964	1151.21	.5
313.15	.3511	1136.71	.5
313.15	.4001	1123.78	.5
313.15	.4485	1111.02	.5
313.15	.5016	1097.02	.5
313.15	.5403	1086.84	.5
313.15	.59	1073.81	.5
313.15	.6496	1058.11	.5
313.15	.6961	1045.96	.5
313.15	.7458	1032.92	.5
313.15	.7982	1019.22	.5
313.15	.8497	1005.65	.5
313.15	.8993	992.82	.5
313.15	.9502	979.75	.5
313.15	1	967.16	.5
318.15	0	1223.32	.5
318.15	.051	1209.62	.5
318.15	.1003	1196.69	.5
318.15	.1496	1183.75	.5
318.15	.2034	1169.52	.5
318.15	.2539	1156.16	.5
318.15	.2964	1144.99	.5
318.15	.3511	1130.55	.5
318.15	.4001	1117.67	.5
318.15	.4485	1104.98	.5
318.15	.5016	1091.05	.5
318.15	.5403	1081.01	.5
318.15	.59	1067.96	.5
318.15	.6496	1052.33	.5
318.15	.6961	1040.3	.5
318.15	.7458	1027.32	.5
318.15	.7982	1013.7	.5
318.15	.8497	1000.22	.5
318.15	.8993	987.48	.5
318.15	.9502	974.52	.5
318.15	1	962.01	.5
323.15	0	1216.77	.5
323.15	.051	1203.03	.5
323.15	.1003	1190.34	.5
323.15	.1496	1177.35	.5
323.15	.2034	1163.18	.5
323.15	.2539	1149.88	.5
323.15	.2964	1138.77	.5
323.15	.3511	1124.36	.5
323.15	.4001	1111.57	.5
323.15	.4485	1098.94	.5
323.15	.5016	1085.07	.5
323.15	.5403	1074.94	.5
323.15	.59	1062.12	.5
323.15	.6496	1046.55	.5
323.15	.6961	1034.64	.5
323.15	.7458	1021.74	.5
323.15	.7982	1008.2	.5
323.15	.8497	994.78	.5
323.15	.8993	982.16	.5
323.15	.9502	969.3	.5
323.15	1	956.88	.5
328.15	0	1210.19	.5
328.15	.051	1196.24	.5
328.15	.1003	1183.86	.5
328.15	.1496	1170.93	.5
328.15	.2034	1156.84	.5
328.15	.2539	1143.6	.5
328.15	.2964	1132.57	.5
328.15	.3511	1118.15	.5
328.15	.4001	1105.44	.5
328.15	.4485	1092.86	.5
328.15	.5016	1079.06	.5
328.15	.5403	1069.12	.5
328.15	.59	1056.23	.5
328.15	.6496	1040.7	.5
328.15	.6961	1028.99	.5
328.15	.7458	1016.14	.5
328.15	.7982	1002.66	.5
328.15	.8497	989.31	.5
328.15	.8993	976.8	.5
328.15	.9502	964.06	.5
328.15	1	951.69	.5

System: 1,3,5-trimethyl-1,3,5-tris(3,3,3-trifluoropropyl)cyclotrisiloxane + 2,4,6,8-tetramethyl-2,4,6,8-tetraethenylcycloterasiloxane; phases: Liquid
Fixed: Pressure, kPa = 102.355
Property: Refractive index (Na D-line) (Liquid); method: Standard Abbe refractometry
Temperature, K	Mole fraction of 2,4,6,8-tetramethyl-2,4,6,8-tetraethenylcycloterasiloxane	Refractive index (Na D-line)	uncertainty
308.15	0	1.36016	.00005
308.15	.051	1.36295	.00005
308.15	.1003	1.36572	.00005
308.15	.1496	1.36858	.00005
308.15	.2034	1.37175	.00005
308.15	.2539	1.37471	.00005
308.15	.2964	1.37728	.00005
308.15	.3511	1.38065	.00005
308.15	.4001	1.38377	.00005
308.15	.4485	1.38686	.00005
308.15	.5016	1.39034	.00005
308.15	.5403	1.39293	.00005
308.15	.59	1.39629	.00005
308.15	.6496	1.40043	.00005
308.15	.6961	1.40372	.00005
308.15	.7458	1.40733	.00005
308.15	.7982	1.41119	.00005
308.15	.8497	1.41517	.00005
308.15	.8993	1.41906	.00005
308.15	.9502	1.42321	.00005
308.15	1	1.42745	.00005
313.15	0	1.35815	.00005
313.15	.051	1.36094	.00005
313.15	.1003	1.36368	.00005
313.15	.1496	1.36648	.00005
313.15	.2034	1.36963	.00005
313.15	.2539	1.37259	.00005
313.15	.2964	1.37518	.00005
313.15	.3511	1.37852	.00005
313.15	.4001	1.38157	.00005
313.15	.4485	1.3847	.00005
313.15	.5016	1.38815	.00005
313.15	.5403	1.39069	.00005
313.15	.59	1.39403	.00005
313.15	.6496	1.39814	.00005
313.15	.6961	1.40143	.00005
313.15	.7458	1.40501	.00005
313.15	.7982	1.40888	.00005
313.15	.8497	1.41282	.00005
313.15	.8993	1.41671	.00005
313.15	.9502	1.42086	.00005
313.15	1	1.42509	.00005
318.15	0	1.35615	.00005
318.15	.051	1.35891	.00005
318.15	.1003	1.36169	.00005
318.15	.1496	1.36445	.00005
318.15	.2034	1.36752	.00005
318.15	.2539	1.3705	.00005
318.15	.2964	1.37303	.00005
318.15	.3511	1.37635	.00005
318.15	.4001	1.37943	.00005
318.15	.4485	1.3825	.00005
318.15	.5016	1.38594	.00005
318.15	.5403	1.38849	.00005
318.15	.59	1.39181	.00005
318.15	.6496	1.39589	.00005
318.15	.6961	1.39916	.00005
318.15	.7458	1.40273	.00005
318.15	.7982	1.40657	.00005
318.15	.8497	1.4105	.00005
318.15	.8993	1.4144	.00005
318.15	.9502	1.41853	.00005
318.15	1	1.42272	.00005
323.15	0	1.35411	.00005
323.15	.051	1.35688	.00005
323.15	.1003	1.3596	.00005
323.15	.1496	1.36236	.00005
323.15	.2034	1.36544	.00005
323.15	.2539	1.36839	.00005
323.15	.2964	1.37091	.00005
323.15	.3511	1.37424	.00005
323.15	.4001	1.37725	.00005
323.15	.4485	1.38034	.00005
323.15	.5016	1.38374	.00005
323.15	.5403	1.38629	.00005
323.15	.59	1.38957	.00005
323.15	.6496	1.39364	.00005
323.15	.6961	1.39689	.00005
323.15	.7458	1.40044	.00005
323.15	.7982	1.40426	.00005
323.15	.8497	1.40819	.00005
323.15	.8993	1.41203	.00005
323.15	.9502	1.41616	.00005
323.15	1	1.42038	.00005
328.15	0	1.35214	.00005
328.15	.051	1.35484	.00005
328.15	.1003	1.35755	.00005
328.15	.1496	1.36031	.00005
328.15	.2034	1.36334	.00005
328.15	.2539	1.36627	.00005
328.15	.2964	1.36882	.00005
328.15	.3511	1.37207	.00005
328.15	.4001	1.37511	.00005
328.15	.4485	1.37812	.00005
328.15	.5016	1.3815	.00005
328.15	.5403	1.38405	.00005
328.15	.59	1.38733	.00005
328.15	.6496	1.39132	.00005
328.15	.6961	1.3946	.00005
328.15	.7458	1.39813	.00005
328.15	.7982	1.40194	.00005
328.15	.8497	1.40584	.00005
328.15	.8993	1.40969	.00005
328.15	.9502	1.4138	.00005
328.15	1	1.41798	.00005

System: hexamethyldisiloxane + 1,3,5-trimethyl-1,3,5-tris(3,3,3-trifluoropropyl)cyclotrisiloxane; phases: Liquid
Fixed: Pressure, kPa = 102.355
Property: Mass density, kg/m3 (Liquid); method: Vibrating tube method
Temperature, K	Mole fraction of hexamethyldisiloxane	Mass density, kg/m3	uncertainty
308.15	0	1236.44	.5
308.15	.0504	1222.62	.5
308.15	.1098	1204.85	.5
308.15	.151	1191.81	.5
308.15	.2007	1175.44	.5
308.15	.251	1158.03	.5
308.15	.3013	1139.82	.5
308.15	.3493	1121.58	.5
308.15	.4037	1099.77	.5
308.15	.4505	1080.04	.5
308.15	.499	1058.56	.5
308.15	.5504	1034.55	.5
308.15	.6086	1005.68	.5
308.15	.6495	984.21	.5
308.15	.6996	956.48	.5
308.15	.7507	926.43	.5
308.15	.8015	894.65	.5
308.15	.8499	862.39	.5
308.15	.8963	829.48	.5
308.15	.9494	789.14	.5
308.15	1	747.95	.5
313.15	0	1229.89	.5
313.15	.0504	1215.82	.5
313.15	.1098	1198.15	.5
313.15	.151	1185.18	.5
313.15	.2007	1168.8	.5
313.15	.251	1151.35	.5
313.15	.3013	1133.15	.5
313.15	.3493	1114.93	.5
313.15	.4037	1093.2	.5
313.15	.4505	1073.46	.5
313.15	.499	1051.98	.5
313.15	.5504	1028.01	.5
313.15	.6086	999.19	.5
313.15	.6495	977.76	.5
313.15	.6996	950.08	.5
313.15	.7507	920.1	.5
313.15	.8015	888.42	.5
313.15	.8499	856.28	.5
313.15	.8963	823.48	.5
313.15	.9494	783.38	.5
313.15	1	742.53	.5
318.15	0	1223.32	.5
318.15	.0504	1209.09	.5
318.15	.1098	1191.29	.5
318.15	.151	1178.21	.5
318.15	.2007	1161.86	.5
318.15	.251	1144.48	.5
318.15	.3013	1126.31	.5
318.15	.3493	1108.11	.5
318.15	.4037	1086.32	.5
318.15	.4505	1066.59	.5
318.15	.499	1045.18	.5
318.15	.5504	1021.24	.5
318.15	.6086	992.49	.5
318.15	.6495	971.08	.5
318.15	.6996	943.46	.5
318.15	.7507	913.55	.5
318.15	.8015	881.98	.5
318.15	.8499	849.98	.5
318.15	.8963	817.34	.5
318.15	.9494	777.54	.5
318.15	1	737.07	.5
323.15	0	1216.77	.5
323.15	.0504	1202.4	.5
323.15	.1098	1184.49	.5
323.15	.151	1171.5	.5
323.15	.2007	1155.18	.5
323.15	.251	1137.84	.5
323.15	.3013	1119.65	.5
323.15	.3493	1101.45	.5
323.15	.4037	1079.65	.5
323.15	.4505	1059.99	.5
323.15	.499	1038.59	.5
323.15	.5504	1014.69	.5
323.15	.6086	985.97	.5
323.15	.6495	964.63	.5
323.15	.6996	937.09	.5
323.15	.7507	907.28	.5
323.15	.8015	875.75	.5
323.15	.8499	843.83	.5
323.15	.8963	811.34	.5
323.15	.9494	771.82	.5
323.15	1	731.57	.5
328.15	0	1210.19	.5
328.15	.0504	1195.73	.5
328.15	.1098	1177.75	.5
328.15	.151	1164.73	.5
328.15	.2007	1148.38	.5
328.15	.251	1131.08	.5
328.15	.3013	1112.88	.5
328.15	.3493	1094.7	.5
328.15	.4037	1073.01	.5
328.15	.4505	1053.34	.5
328.15	.499	1032	.5
328.15	.5504	1008.09	.5
328.15	.6086	979.35	.5
328.15	.6495	958.06	.5
328.15	.6996	930.6	.5
328.15	.7507	900.87	.5
328.15	.8015	869.46	.5
328.15	.8499	837.76	.5
328.15	.8963	805.42	.5
328.15	.9494	766.08	.5
328.15	1	726.05	.5

System: hexamethyldisiloxane + 1,3,5-trimethyl-1,3,5-tris(3,3,3-trifluoropropyl)cyclotrisiloxane; phases: Liquid
Fixed: Pressure, kPa = 102.355
Property: Refractive index (Na D-line) (Liquid); method: Standard Abbe refractometry
Temperature, K	Mole fraction of hexamethyldisiloxane	Refractive index (Na D-line)	uncertainty
308.15	0	1.36015	.00005
308.15	.0504	1.36031	.00005
308.15	.1098	1.36057	.00005
308.15	.151	1.36074	.00005
308.15	.2007	1.36096	.00005
308.15	.251	1.36123	.00005
308.15	.3013	1.36148	.00005
308.15	.3493	1.36175	.00005
308.15	.4037	1.36206	.00005
308.15	.4505	1.36236	.00005
308.15	.499	1.36268	.00005
308.15	.5504	1.36304	.00005
308.15	.6086	1.36352	.00005
308.15	.6495	1.36387	.00005
308.15	.6996	1.36436	.00005
308.15	.7507	1.36493	.00005
308.15	.8015	1.36556	.00005
308.15	.8499	1.36622	.00005
308.15	.8963	1.36696	.00005
308.15	.9494	1.36792	.00005
308.15	1	1.3692	.00005
313.15	0	1.35814	.00005
313.15	.0504	1.3583	.00005
313.15	.1098	1.35851	.00005
313.15	.151	1.35866	.00005
313.15	.2007	1.35885	.00005
313.15	.251	1.35909	.00005
313.15	.3013	1.35932	.00005
313.15	.3493	1.35954	.00005
313.15	.4037	1.35985	.00005
313.15	.4505	1.36013	.00005
313.15	.499	1.36041	.00005
313.15	.5504	1.36075	.00005
313.15	.6086	1.36116	.00005
313.15	.6495	1.36147	.00005
313.15	.6996	1.36191	.00005
313.15	.7507	1.36242	.00005
313.15	.8015	1.36301	.00005
313.15	.8499	1.36363	.00005
313.15	.8963	1.3643	.00005
313.15	.9494	1.36522	.00005
313.15	1	1.36637	.00005
318.15	0	1.35615	.00005
318.15	.0504	1.3563	.00005
318.15	.1098	1.3565	.00005
318.15	.151	1.35663	.00005
318.15	.2007	1.35678	.00005
318.15	.251	1.35698	.00005
318.15	.3013	1.35719	.00005
318.15	.3493	1.35737	.00005
318.15	.4037	1.35764	.00005
318.15	.4505	1.35787	.00005
318.15	.499	1.35813	.00005
318.15	.5504	1.35843	.00005
318.15	.6086	1.35881	.00005
318.15	.6495	1.3591	.00005
318.15	.6996	1.3595	.00005
318.15	.7507	1.35996	.00005
318.15	.8015	1.36048	.00005
318.15	.8499	1.36101	.00005
318.15	.8963	1.3616	.00005
318.15	.9494	1.36246	.00005
318.15	1	1.36353	.00005
323.15	0	1.35409	.00005
323.15	.0504	1.35422	.00005
323.15	.1098	1.35439	.00005
323.15	.151	1.35452	.00005
323.15	.2007	1.35468	.00005
323.15	.251	1.35484	.00005
323.15	.3013	1.355	.00005
323.15	.3493	1.35519	.00005
323.15	.4037	1.35542	.00005
323.15	.4505	1.35564	.00005
323.15	.499	1.35584	.00005
323.15	.5504	1.3561	.00005
323.15	.6086	1.35644	.00005
323.15	.6495	1.35667	.00005
323.15	.6996	1.357	.00005
323.15	.7507	1.35739	.00005
323.15	.8015	1.35784	.00005
323.15	.8499	1.35832	.00005
323.15	.8963	1.35886	.00005
323.15	.9494	1.35966	.00005
323.15	1	1.36068	.00005
328.15	0	1.3521	.00005
328.15	.0504	1.35221	.00005
328.15	.1098	1.35233	.00005
328.15	.151	1.35243	.00005
328.15	.2007	1.35256	.00005
328.15	.251	1.35271	.00005
328.15	.3013	1.35286	.00005
328.15	.3493	1.35301	.00005
328.15	.4037	1.35318	.00005
328.15	.4505	1.35334	.00005
328.15	.499	1.35353	.00005
328.15	.5504	1.35375	.00005
328.15	.6086	1.354	.00005
328.15	.6495	1.35421	.00005
328.15	.6996	1.3545	.00005
328.15	.7507	1.35483	.00005
328.15	.8015	1.35521	.00005
328.15	.8499	1.35566	.00005
328.15	.8963	1.35616	.00005
328.15	.9494	1.35686	.00005
328.15	1	1.35776	.00005
