Measured thermophysical data. Solubilities and partial molar volumes of three bis(2-ethoxyethyl) ethanedioate derivatives in supercritical carbon dioxide
Source: J. Chem. Thermodyn., 2015, 10.1016/j.jct.2014.11.009
Compound 1: bis(2-(2-methoxyethoxy)ethyl) ethanedioate, C12H22O8
Compound 2: bis(2-(2-ethoxyethoxy)ethyl) ethanedioate, C14H26O8
Compound 3: bis(2-(2-butoxyethoxy)ethyl) ethanedioate, C18H34O8
Compound 4: carbon dioxide, CO2, purity 99.99%

System: carbon dioxide + bis(2-(2-methoxyethoxy)ethyl) ethanedioate; phases: Fluid (supercritical or subcritical phases), Liquid
Property: Vapor or sublimation pressure, kPa (Fluid (supercritical or subcritical phases)); method: Closed cell (Static) method
Temperature, K	Mole fraction of bis(2-(2-methoxyethoxy)ethyl) ethanedioate	Vapor or sublimation pressure, kPa	uncertainty
313	.00047	9100	100
313	.0013	9300	100
313	.00206	9500	100
313	.00283	9600	100
313	.00358	9700	100
323	.00052	10600	100
323	.0014	11100	100
323	.00222	11400	100
323	.00302	11600	100
323	.00379	11800	100
333	.00053	12200	100
333	.00145	12900	100
333	.0023	13300	100
333	.00308	13700	100
333	.00389	13900	100

System: carbon dioxide + bis(2-(2-ethoxyethoxy)ethyl) ethanedioate; phases: Fluid (supercritical or subcritical phases), Liquid
Property: Vapor or sublimation pressure, kPa (Fluid (supercritical or subcritical phases)); method: Closed cell (Static) method
Temperature, K	Mole fraction of bis(2-(2-ethoxyethoxy)ethyl) ethanedioate	Vapor or sublimation pressure, kPa	uncertainty
313	.00046	8900	100
313	.00124	9100	100
313	.00198	9200	100
313	.00269	9300	100
313	.00336	9400	100
323	.00046	10600	100
323	.00127	11000	100
323	.002	11300	100
323	.00271	11500	100
323	.00343	11600	100
333	.0005	11900	100
333	.00135	12500	100
333	.00213	12900	100
333	.00284	13300	100
333	.00358	13500	100

System: carbon dioxide + bis(2-(2-butoxyethoxy)ethyl) ethanedioate; phases: Fluid (supercritical or subcritical phases), Liquid
Property: Vapor or sublimation pressure, kPa (Fluid (supercritical or subcritical phases)); method: Closed cell (Static) method
Temperature, K	Mole fraction of bis(2-(2-butoxyethoxy)ethyl) ethanedioate	Vapor or sublimation pressure, kPa	uncertainty
313	.00034	9100	100
313	.00092	9400	100
313	.0015	9500	100
313	.00206	9600	100
313	.0026	9700	100
323	.00036	10800	100
323	.001	11200	100
323	.00162	11400	100
323	.00217	11700	100
323	.00272	11900	100
333	.00039	12200	100
333	.00108	12700	100
333	.00171	13100	100
333	.00229	13500	100
333	.00286	13800	100
