Measured thermophysical data. Interactions of some short peptides with the osmolyte trimethylamine N-oxide in aqueous solution: physico-chemical insights
Source: J. Chem. Thermodyn., 2012, 10.1016/j.jct.2011.12.029
Compound 1: trimethylamine, N-oxide, C3H9NO, purity 98%
Compound 2: N-(2-aminoacetyl)-2-aminoethanoic acid, C4H8N2O3, purity 99%
Compound 3: glycylglycylglycine, C6H11N3O4, purity 99%
Compound 4: glycyl-L-leucine, C8H16N2O3, purity 99%
Compound 5: glycylglycyl-L-leucine, C10H19N3O4, purity 98%
Compound 6: water, H2O, purity 99%

System: N-(2-aminoacetyl)-2-aminoethanoic acid + trimethylamine, N-oxide + water; phases: Liquid
Fixed: Pressure, kPa = 101
Fixed: Temperature, K = 298.15
Property: Mass density, kg/m3 (Liquid); method: Vibrating tube method
Solvent: Molality, mol/kg of trimethylamine, N-oxide	Molality, mol/kg of N-(2-aminoacetyl)-2-aminoethanoic acid	Mass density, kg/m3	uncertainty
.25	0	999.557	.005
.25	.03136	1001.304	.005
.25	.03972	1001.773	.005
.25	.04501	1002.045	.005
.25	.04777	1002.223	.005
.25	.05663	1002.688	.005
.25	.06264	1003.009	.005
2	0	1003.311	.005
2	.03659	1005.215	.005
2	.03884	1005.338	.005
2	.04144	1005.473	.005
2	.05097	1005.958	.005
2	.05779	1006.35	.005
2	.06617	1006.736	.005

System: N-(2-aminoacetyl)-2-aminoethanoic acid + trimethylamine, N-oxide + water; phases: Liquid
Fixed: Pressure, kPa = 101
Fixed: Temperature, K = 298.15
Property: Speed of sound, m/s (Liquid); method: Sing-around technique in a fixed-path interferometer
Solvent: Molality, mol/kg of trimethylamine, N-oxide	Molality, mol/kg of N-(2-aminoacetyl)-2-aminoethanoic acid	Speed of sound, m/s	uncertainty
.25	0	1572.9	.5
.25	.03136	1575.6	.5
.25	.03972	1576.14	.5
.25	.04501	1576.55	.5
.25	.04777	1576.8	.5
.25	.05663	1577.48	.5
.25	.06264	1577.83	.5
2	0	1656.5	.5
2	.03659	1658.82	.5
2	.03884	1658.87	.5
2	.04144	1659.27	.5
2	.05097	1659.96	.5
2	.05779	1659.8	.5
2	.06617	1659.96	.5

System: N-(2-aminoacetyl)-2-aminoethanoic acid + trimethylamine, N-oxide + water; phases: Liquid
Fixed: Temperature, K = 298.15
Fixed: Solvent: Molality, mol/kg of trimethylamine, N-oxide = 101
Fixed: Initial molality of solute, mol/kg = .025
Fixed: Pressure, kPa = 101
Property: Molar enthalpy of dilution, kJ/mol (Liquid); method: isothermal titration calorimetry
Final molality of solute, mol/kg	Molar enthalpy of dilution, kJ/mol	uncertainty
.00018	1.5675	
.00026	1.4665	
.00035	1.4136	
.00044	1.362	
.00052	1.296	
.00061	1.2594	
.00069	1.2335	
.00078	1.1766	
.00086	1.1456	
.00095	1.1324	
.001034	1.0674	
.00112	1.0513	
.0012	1.038	
.00129	.9893	
.00137	.9802	
.00145	.9643	
.00153	.9228	
.00162	.9116	
.0017	.9066	
.00178	.8659	
.00186	.8602	
.00194	.8577	
.00202	.8171	
.0021	.8124	

System: glycylglycylglycine + trimethylamine, N-oxide + water; phases: Liquid
Fixed: Pressure, kPa = 101
Fixed: Temperature, K = 298.15
Property: Mass density, kg/m3 (Liquid); method: Vibrating tube method
Solvent: Molality, mol/kg of trimethylamine, N-oxide	Molality, mol/kg of glycylglycylglycine	Mass density, kg/m3	uncertainty
.25	0	999.545	.005
.25	.02782	1001.693	.005
.25	.03161	1001.983	.005
.25	.0365	1002.366	.005
.25	.0425	1002.815	.005
.25	.04915	1003.324	.005
.25	.05429	1003.708	.005
2	0	1003.31	.005
2	.01655	1004.525	.005
2	.02213	1004.933	.005
2	.03385	1005.772	.005
2	.03868	1006.131	.005
2	.0422	1006.405	.005
2	.04995	1006.926	.005
2	.05642	1007.404	.005

System: glycylglycylglycine + trimethylamine, N-oxide + water; phases: Liquid
Fixed: Pressure, kPa = 101
Fixed: Temperature, K = 298.15
Property: Speed of sound, m/s (Liquid); method: Sing-around technique in a fixed-path interferometer
Solvent: Molality, mol/kg of trimethylamine, N-oxide	Molality, mol/kg of glycylglycylglycine	Speed of sound, m/s	uncertainty
.25	0	1573.32	.5
.25	.02782	1575.69	.5
.25	.03161	1576.07	.5
.25	.0365	1576.6	.5
.25	.0425	1577.18	.5
.25	.04915	1577.76	.5
.25	.05429	1578.08	.5
2	0	1656.33	.5
2	.01655	1657.7	.5
2	.02213	1658.28	.5
2	.03385	1659.07	.5
2	.03868	1659.46	.5
2	.0422	1659.6	.5
2	.04995	1660.28	.5
2	.05642	1660.7	.5

System: glycylglycylglycine + trimethylamine, N-oxide + water; phases: Liquid
Fixed: Temperature, K = 298.15
Fixed: Solvent: Molality, mol/kg of trimethylamine, N-oxide = 101
Fixed: Initial molality of solute, mol/kg = .025
Fixed: Pressure, kPa = 101
Property: Molar enthalpy of dilution, kJ/mol (Liquid); method: isothermal titration calorimetry
Final molality of solute, mol/kg	Molar enthalpy of dilution, kJ/mol	uncertainty
.00018	2.0899	
.00026	1.9639	
.00035	1.8764	
.00044	1.7907	
.00052	1.7213	
.00061	1.6611	
.00069	1.5937	
.00078	1.5471	
.00086	1.4895	
.00095	1.4469	
.00103	1.3984	
.00112	1.3573	
.0012	1.3211	
.00129	1.2847	
.00137	1.2487	
.00145	1.2193	
.00153	1.1862	
.00162	1.1614	
.0017	1.135	
.00178	1.1053	
.00186	1.0902	
.00194	1.0632	
.00202	1.0417	
.0021	1.0361	

System: glycyl-L-leucine + trimethylamine, N-oxide + water; phases: Liquid
Fixed: Pressure, kPa = 101
Fixed: Temperature, K = 298.15
Property: Mass density, kg/m3 (Liquid); method: Vibrating tube method
Solvent: Molality, mol/kg of trimethylamine, N-oxide	Molality, mol/kg of glycyl-L-leucine	Mass density, kg/m3	uncertainty
.25	0	999.518	.005
.25	.02978	1000.982	.005
.25	.03689	1001.333	.005
.25	.04184	1001.593	.005
.25	.04877	1001.922	.005
.25	.05245	1002.116	.005
.25	.05934	1002.421	.005
2	0	1003.209	.005
2	.01881	1004.127	.005
2	.02888	1004.613	.005
2	.03452	1004.883	.005
2	.03851	1005.077	.005
2	.05211	1005.745	.005
2	.05672	1005.961	.005

System: glycyl-L-leucine + trimethylamine, N-oxide + water; phases: Liquid
Fixed: Pressure, kPa = 101
Fixed: Temperature, K = 298.15
Property: Speed of sound, m/s (Liquid); method: Sing-around technique in a fixed-path interferometer
Solvent: Molality, mol/kg of trimethylamine, N-oxide	Molality, mol/kg of glycyl-L-leucine	Speed of sound, m/s	uncertainty
.25	0	1573.23	.5
.25	.02978	1577.57	.5
.25	.03689	1578.52	.5
.25	.04184	1579.26	.5
.25	.04877	1580.19	.5
.25	.05245	1580.85	.5
.25	.05934	1581.69	.5
2	0	1656.96	.5
2	.01881	1658.42	.5
2	.02888	1660.81	.5
2	.03452	1661.54	.5
2	.03851	1662.1	.5
2	.05211	1664.06	.5
2	.05672	1664.45	.5

System: glycyl-L-leucine + trimethylamine, N-oxide + water; phases: Liquid
Fixed: Temperature, K = 298.15
Fixed: Solvent: Molality, mol/kg of trimethylamine, N-oxide = 101
Fixed: Initial molality of solute, mol/kg = .025
Fixed: Pressure, kPa = 101
Property: Molar enthalpy of dilution, kJ/mol (Liquid); method: isothermal titration calorimetry
Final molality of solute, mol/kg	Molar enthalpy of dilution, kJ/mol	uncertainty
.00035	1.4069	
.00053	1.4028	
.0007	1.3113	
.00087	1.2126	
.00104	1.1528	
.00122	1.1058	
.00139	1.0825	
.00156	1.0102	
.00173	.9545	
.0019	.9257	
.00207	.8819	
.00224	.8557	
.0024	.8321	
.00257	.799	
.00274	.7794	
.0029	.758	
.00307	.7281	
.00323	.7132	
.0034	.6944	
.00356	.6871	
.00372	.6702	
.00388	.6573	
.00405	.6528	
.00421	.6541	

System: trimethylamine, N-oxide + water + glycylglycyl-L-leucine; phases: Liquid
Fixed: Pressure, kPa = 101
Fixed: Temperature, K = 298.15
Property: Mass density, kg/m3 (Liquid); method: Vibrating tube method
Solvent: Molality, mol/kg of trimethylamine, N-oxide	Molality, mol/kg of glycylglycyl-L-leucine	Mass density, kg/m3	uncertainty
.25	0	999.525	.005
.25	.01561	1000.495	.005
.25	.01893	1000.705	.005
.25	.02681	1001.202	.005
.25	.03084	1001.442	.005
.25	.03802	1001.886	.005
.25	.04087	1002.084	.005
2	0	1003.311	.005
2	.01594	1004.291	.005
2	.01801	1004.414	.005
2	.01993	1004.534	.005
2	.02426	1004.803	.005
2	.02646	1004.931	.005
2	.03381	1005.387	.005
2	.03997	1005.75	.005

System: trimethylamine, N-oxide + water + glycylglycyl-L-leucine; phases: Liquid
Fixed: Pressure, kPa = 101
Fixed: Temperature, K = 298.15
Property: Speed of sound, m/s (Liquid); method: Sing-around technique in a fixed-path interferometer
Solvent: Molality, mol/kg of trimethylamine, N-oxide	Molality, mol/kg of glycylglycyl-L-leucine	Speed of sound, m/s	uncertainty
.25	0	1572.91	.5
.25	.01561	1575.05	.5
.25	.01893	1575.53	.5
.25	.02681	1576.55	.5
.25	.03084	1577.05	.5
.25	.03802	1578.14	.5
.25	.04087	1578.59	.5
2	0	1656.33	.5
2	.01594	1660.59	.5
2	.01801	1660.73	.5
2	.01993	1661.11	.5
2	.02426	1662.43	.5
2	.02646	1663.16	.5
2	.03381	1664.96	.5
2	.03997	1665.92	.5

System: trimethylamine, N-oxide + water + glycylglycyl-L-leucine; phases: Liquid
Fixed: Temperature, K = 298.15
Fixed: Solvent: Molality, mol/kg of trimethylamine, N-oxide = 101
Fixed: Initial molality of solute, mol/kg = .05
Fixed: Pressure, kPa = 101
Property: Molar enthalpy of dilution, kJ/mol (Liquid); method: isothermal titration calorimetry
Final molality of solute, mol/kg	Molar enthalpy of dilution, kJ/mol	uncertainty
.00035	1.6601	
.00053	1.5125	
.0007	1.425	
.00087	1.3539	
.00104	1.2819	
.00122	1.2203	
.00139	1.1726	
.00156	1.1115	
.00173	1.0835	
.0019	1.0542	
.00207	1.0199	
.00224	.9825	
.0024	.9569	
.00257	.9225	
.00274	.8928	
.0029	.8651	
.00307	.8404	
.00323	.8149	
.0034	.7991	
.00356	.7848	
.00372	.7685	
.00388	.7481	
.00405	.761	
.00421	.7915	

System: N-(2-aminoacetyl)-2-aminoethanoic acid + water; phases: Liquid
Fixed: Temperature, K = 298.15
Fixed: Initial molality of solute, mol/kg = .025
Fixed: Pressure, kPa = 101
Property: Molar enthalpy of dilution, kJ/mol (Liquid); method: titration calorimetry
Final molality of solute, mol/kg	Molar enthalpy of dilution, kJ/mol	uncertainty
.00018	.0133	
.00026	.013	
.00035	.0134	
.00044	.0129	
.00052	.0131	
.00061	.0142	
.00069	.0136	
.00078	.0128	
.00086	.0129	
.00095	.0138	
.001034	.0135	
.00112	.014	
.0012	.0138	
.00129	.0143	
.00137	.0134	
.00145	.0124	
.00153	.0129	
.00162	.0142	
.0017	.0148	
.00178	.0125	
.00186	.0119	
.00194	.0135	
.00202	.013	
.0021	.0128	

System: glycylglycylglycine + water; phases: Liquid
Fixed: Temperature, K = 298.15
Fixed: Initial molality of solute, mol/kg = .025
Fixed: Pressure, kPa = 101
Property: Molar enthalpy of dilution, kJ/mol (Liquid); method: titration calorimetry
Final molality of solute, mol/kg	Molar enthalpy of dilution, kJ/mol	uncertainty
.00018	.0049	
.00026	.0047	
.00035	.0045	
.00044	.0052	
.00052	.0054	
.00061	.0045	
.00069	.0051	
.00078	.0053	
.00086	.0042	
.00095	.0043	
.001034	.0047	
.00112	.0051	
.0012	.0055	
.00129	.0036	
.00137	.0057	
.00145	.0066	
.00153	.0046	
.00162	.0066	
.0017	.0064	
.00178	.0058	
.00186	.0064	
.00194	.0055	
.00202	.0058	
.0021	.0045	

System: glycyl-L-leucine + water; phases: Liquid
Fixed: Temperature, K = 298.15
Fixed: Initial molality of solute, mol/kg = .025
Fixed: Pressure, kPa = 101
Property: Molar enthalpy of dilution, kJ/mol (Liquid); method: titration calorimetry
Final molality of solute, mol/kg	Molar enthalpy of dilution, kJ/mol	uncertainty
.00035	-.0113	
.00053	-.0106	
.0007	-.0109	
.00087	-.0125	
.00104	-.0115	
.00122	-.0112	
.00139	-.0117	
.00156	-.0103	
.00173	-.0108	
.0019	-.0097	
.00207	-.0096	
.00224	-.0103	
.0024	-.0093	
.00257	-.0099	
.00274	-.0102	
.0029	-.0099	
.00307	-.0091	
.00323	-.0087	
.0034	-.0096	
.00356	-.0094	
.00372	-.0102	
.00388	-.0096	
.00405	-.0103	
.00421	-.0111	

System: water + glycylglycyl-L-leucine; phases: Liquid
Fixed: Temperature, K = 298.15
Fixed: Initial molality of solute, mol/kg = .05
Fixed: Pressure, kPa = 101
Property: Molar enthalpy of dilution, kJ/mol (Liquid); method: titration calorimetry
Final molality of solute, mol/kg	Molar enthalpy of dilution, kJ/mol	uncertainty
.00035	-.009	
.00053	-.0095	
.0007	-.0087	
.00087	-.0086	
.00104	-.0077	
.00122	-.0083	
.00139	-.0093	
.00156	-.0075	
.00173	-.0084	
.0019	-.0073	
.00207	-.0098	
.00224	-.0094	
.0024	-.0088	
.00257	-.0082	
.00274	-.0079	
.0029	-.0076	
.00307	-.0079	
.00323	-.0064	
.0034	-.0066	
.00356	-.007	
.00372	-.0065	
.00388	-.0067	
.00405	-.0075	
.00421	-.007	
