Measured thermophysical data. Surface and bulk behaviour of some (n-hexane + chloroalkane) mixtures
Source: J. Chem. Thermodyn., 2009, 10.1016/j.jct.2008.10.016
Compound 1: hexane, C6H14
Compound 2: 1-chlorobutane, C4H9Cl
Compound 3: 1-chloropentane, C5H11Cl

System: hexane; phases: Liquid, Gas
Property: Surface tension liquid-gas, N/m (Liquid); method: Drop volume
Temperature, K	Surface tension liquid-gas, N/m	uncertainty
283.15	.01963	.00009815
288.15	.01904	.0000952
293.15	.01852	.0000926
298.15	.01806	.0000903
303.15	.01753	.00008765
308.15	.01674	.0000837
313.15	.01647	.00008235

System: 1-chlorobutane; phases: Liquid, Gas
Property: Surface tension liquid-gas, N/m (Liquid); method: Drop volume
Temperature, K	Surface tension liquid-gas, N/m	uncertainty
283.15	.02473	.00012365
288.15	.02424	.0001212
293.15	.02364	.0001182
298.15	.02329	.00011645
303.15	.02262	.0001131
308.15	.02203	.00011015
313.15	.02153	.00010765

System: 1-chloropentane; phases: Liquid, Gas
Property: Surface tension liquid-gas, N/m (Liquid); method: Drop volume
Temperature, K	Surface tension liquid-gas, N/m	uncertainty
283.15	.02602	.0001301
288.15	.02558	.0001279
293.15	.02502	.0001251
298.15	.02446	.0001223
303.15	.02402	.0001201
308.15	.02351	.00011755
313.15	.02302	.0001151

System: 1-chlorobutane + hexane; phases: Liquid, Gas
Property: Surface tension liquid-gas, N/m (Liquid); method: Drop volume
Temperature, K	Mole fraction of hexane	Surface tension liquid-gas, N/m	uncertainty
283.15	.0493	.02417	.00012085
283.15	.1016	.0237	.0001185
283.15	.2048	.02296	.0001148
283.15	.3038	.02232	.0001116
283.15	.3967	.02182	.0001091
283.15	.5015	.02129	.00010645
283.15	.6086	.02085	.00010425
283.15	.7097	.02048	.0001024
283.15	.804	.02019	.00010095
283.15	.9021	.01991	.00009955
283.15	.9391	.01981	.00009905
288.15	.0493	.02368	.0001184
288.15	.1016	.02321	.00011605
288.15	.2048	.02246	.0001123
288.15	.3038	.02183	.00010915
288.15	.3967	.02132	.0001066
288.15	.5015	.02078	.0001039
288.15	.6086	.02031	.00010155
288.15	.7097	.01993	.00009965
288.15	.804	.01963	.00009815
288.15	.9021	.01935	.00009675
288.15	.9391	.01924	.0000962
293.15	.0493	.02311	.00011555
293.15	.1016	.02263	.00011315
293.15	.2048	.02188	.0001094
293.15	.3038	.02128	.0001064
293.15	.3967	.02079	.00010395
293.15	.5015	.02025	.00010125
293.15	.6086	.01977	.00009885
293.15	.7097	.0194	.000097
293.15	.804	.0191	.0000955
293.15	.9021	.01884	.0000942
293.15	.9391	.01873	.00009365
298.15	.0493	.02274	.0001137
298.15	.1016	.02227	.00011135
298.15	.2048	.02152	.0001076
298.15	.3038	.02093	.00010465
298.15	.3967	.02043	.00010215
298.15	.5015	.01989	.00009945
298.15	.6086	.01939	.00009695
298.15	.7097	.019	.000095
298.15	.804	.01871	.00009355
298.15	.9021	.01843	.00009215
298.15	.9391	.01831	.00009155
303.15	.0493	.02208	.0001104
303.15	.1016	.02162	.0001081
303.15	.2048	.02089	.00010445
303.15	.3038	.02032	.0001016
303.15	.3967	.01983	.00009915
303.15	.5015	.01931	.00009655
303.15	.6086	.01882	.0000941
303.15	.7097	.01846	.0000923
303.15	.804	.01818	.0000909
303.15	.9021	.01791	.00008955
303.15	.9391	.01779	.00008895
308.15	.0493	.0215	.0001075
308.15	.1016	.02103	.00010515
308.15	.2048	.02028	.0001014
308.15	.3038	.01969	.00009845
308.15	.3967	.01918	.0000959
308.15	.5015	.01864	.0000932
308.15	.6086	.01814	.0000907
308.15	.7097	.01777	.00008885
308.15	.804	.01746	.0000873
308.15	.9021	.01716	.0000858
308.15	.9391	.01702	.0000851
313.15	.0493	.02104	.0001052
313.15	.1016	.02059	.00010295
313.15	.2048	.01984	.0000992
313.15	.3038	.01928	.0000964
313.15	.3967	.01879	.00009395
313.15	.5015	.01827	.00009135
313.15	.6086	.01781	.00008905
313.15	.7097	.01747	.00008735
313.15	.804	.01718	.0000859
313.15	.9021	.01689	.00008445
313.15	.9391	.01675	.00008375

System: 1-chlorobutane + hexane; phases: Liquid, Gas
Property: Vapor or sublimation pressure, kPa (Liquid); method: Ebulliometric method (Recirculating still)
Mole fraction of hexane	Temperature, K	Vapor or sublimation pressure, kPa	uncertainty
.1449	288.15	9.21	.000921
.2894	288.15	10.12	.001012
.3509	288.15	10.45	.001045
.4148	288.15	10.9	.00109
.4642	288.15	11.2	.00112
.5464	288.15	11.7	.00117
.649	288.15	12.2	.00122
.723	288.15	12.52	.001252
.7588	288.15	12.62	.001262
.8	288.15	12.73	.001273
.8526	288.15	12.8	.00128
.9126	288.15	12.9	.00129
.9505	288.15	12.91	.001291
.1247	298.15	14.45	.001445
.1675	298.15	15	.0015
.3055	298.15	16.165	.0016165
.3848	298.15	16.965	.0016965
.4333	298.15	17.47	.001747
.5405	298.15	18.44	.001844
.5946	298.15	18.875	.0018875
.6581	298.15	19.32	.001932
.7024	298.15	19.605	.0019605
.7387	298.15	19.78	.001978
.8128	298.15	20.12	.002012
.8798	298.15	20.27	.002027
.9345	298.15	20.315	.0020315
.1447	308.15	22.93	.002293
.2319	308.15	24	.0024
.3069	308.15	25.09	.002509
.3853	308.15	26.14	.002614
.474	308.15	27.36	.002736
.5308	308.15	28.05	.002805
.5805	308.15	28.67	.002867
.6488	308.15	29.38	.002938
.7067	308.15	29.96	.002996
.7067	308.15	30.13	.003013
.8078	308.15	30.56	.003056
.9135	308.15	30.855	.0030855
.9508	308.15	30.8	.00308

System: 1-chlorobutane + hexane; phases: Liquid, Gas
Property: Mole fraction of hexane (Liquid); method: Density calibration data
Mole fraction of hexane	Temperature, K	Mole fraction of hexane	uncertainty
.1449	288.15	.0704	.0000001408
.2894	288.15	.1602	.0000003204
.3509	288.15	.2102	.0000004204
.4148	288.15	.2795	.000000559
.4642	288.15	.3264	.0000006528
.5464	288.15	.4303	.0000008606
.649	288.15	.5617	.0000011234
.723	288.15	.6599	.0000013198
.7588	288.15	.728	.000001456
.8	288.15	.7648	.0000015296
.8526	288.15	.84	.00000168
.9126	288.15	.9184	.0000018368
.9505	288.15	.9516	.0000019032
.1247	298.15	.0619	.0000001238
.1675	298.15	.0859	.0000001718
.3055	298.15	.1867	.0000003734
.3848	298.15	.2508	.0000005016
.4333	298.15	.3061	.0000006122
.5405	298.15	.4251	.0000008502
.5946	298.15	.4916	.0000009832
.6581	298.15	.5768	.0000011536
.7024	298.15	.64	.00000128
.7387	298.15	.7003	.0000014006
.8128	298.15	.7901	.0000015802
.8798	298.15	.8767	.0000017534
.9345	298.15	.9334	.0000018668
.1447	308.15	.0758	.0000001516
.2319	308.15	.1321	.0000002642
.3069	308.15	.1898	.0000003796
.3853	308.15	.2636	.0000005272
.474	308.15	.3549	.0000007098
.5308	308.15	.4193	.0000008386
.5805	308.15	.4804	.0000009608
.6488	308.15	.5729	.0000011458
.7067	308.15	.6531	.0000013062
.7067	308.15	.697	.000001394
.8078	308.15	.784	.000001568
.9135	308.15	.9112	.0000018224
.9508	308.15	.9513	.0000019026

System: hexane + 1-chloropentane; phases: Liquid, Gas
Property: Surface tension liquid-gas, N/m (Liquid); method: Drop volume
Temperature, K	Mole fraction of hexane	Surface tension liquid-gas, N/m	uncertainty
283.15	.0482	.02544	.0001272
283.15	.1185	.0247	.0001235
283.15	.1991	.024	.00012
283.15	.308	.0232	.000116
283.15	.3925	.02262	.0001131
283.15	.5087	.02191	.00010955
283.15	.5953	.02141	.00010705
283.15	.7076	.02085	.00010425
283.15	.7889	.02047	.00010235
283.15	.9069	.01997	.00009985
283.15	.9474	.01981	.00009905
288.15	.0482	.02502	.0001251
288.15	.1185	.0243	.0001215
288.15	.1991	.02359	.00011795
288.15	.308	.02276	.0001138
288.15	.3925	.02217	.00011085
288.15	.5087	.02144	.0001072
288.15	.5953	.02094	.0001047
288.15	.7076	.02037	.00010185
288.15	.7889	.01998	.0000999
288.15	.9069	.01944	.0000972
288.15	.9474	.01924	.0000962
293.15	.0482	.02453	.00012265
293.15	.1185	.02383	.00011915
293.15	.1991	.02309	.00011545
293.15	.308	.02225	.00011125
293.15	.3925	.02167	.00010835
293.15	.5087	.02094	.0001047
293.15	.5953	.02047	.00010235
293.15	.7076	.0199	.0000995
293.15	.7889	.0195	.0000975
293.15	.9069	.01894	.0000947
293.15	.9474	.01874	.0000937
298.15	.0482	.02402	.0001201
298.15	.1185	.02335	.00011675
298.15	.1991	.02264	.0001132
298.15	.308	.02178	.0001089
298.15	.3925	.0212	.000106
298.15	.5087	.02047	.00010235
298.15	.5953	.02002	.0001001
298.15	.7076	.01945	.00009725
298.15	.7889	.01904	.0000952
298.15	.9069	.0185	.0000925
298.15	.9474	.01829	.00009145
303.15	.0482	.02359	.00011795
303.15	.1185	.02295	.00011475
303.15	.1991	.02224	.0001112
303.15	.308	.02137	.00010685
303.15	.3925	.02075	.00010375
303.15	.5087	.02003	.00010015
303.15	.5953	.01956	.0000978
303.15	.7076	.01898	.0000949
303.15	.7889	.01856	.0000928
303.15	.9069	.01799	.00008995
303.15	.9474	.01779	.00008895
308.15	.0482	.02311	.00011555
308.15	.1185	.02245	.00011225
308.15	.1991	.02171	.00010855
308.15	.308	.0208	.000104
308.15	.3925	.02016	.0001008
308.15	.5087	.0194	.000097
308.15	.5953	.01891	.00009455
308.15	.7076	.0183	.0000915
308.15	.7889	.01788	.0000894
308.15	.9069	.01725	.00008625
308.15	.9474	.01705	.00008525
313.15	.0482	.02264	.0001132
313.15	.1185	.02202	.0001101
313.15	.1991	.0213	.0001065
313.15	.308	.02041	.00010205
313.15	.3925	.0198	.000099
313.15	.5087	.01905	.00009525
313.15	.5953	.01856	.0000928
313.15	.7076	.018	.00009
313.15	.7889	.01758	.0000879
313.15	.9069	.01699	.00008495
313.15	.9474	.01677	.00008385

System: hexane + 1-chloropentane; phases: Liquid, Gas
Property: Vapor or sublimation pressure, kPa (Liquid); method: Ebulliometric method (Recirculating still)
Mole fraction of hexane	Temperature, K	Vapor or sublimation pressure, kPa	uncertainty
.4075	288.15	3.68	.000368
.5479	288.15	4.385	.0004385
.6274	288.15	5.07	.000507
.7251	288.15	6.215	.0006215
.8005	288.15	7.5	.00075
.8488	288.15	8.645	.0008645
.8727	288.15	9.3	.00093
.9044	288.15	10.105	.0010105
.9294	288.15	11	.0011
.9417	288.15	11.285	.0011285
.3178	288.15	5.625	.0005625
.3178	298.15	5.625	.0005625
.4289	298.15	6.57	.000657
.5969	298.15	8.325	.0008325
.7387	298.15	10.93	.001093
.7966	298.15	12.755	.0012755
.8467	298.15	14.34	.001434
.8741	298.15	15.055	.0015055
.8983	298.15	16.255	.0016255
.9287	298.15	17.27	.001727
.9445	298.15	18.095	.0018095
.9683	298.15	18.91	.001891
.9799	298.15	19.42	.001942
.2359	308.15	8.49	.000849
.3706	308.15	9.9	.00099
.448	308.15	10.9	.00109
.5497	308.15	12.47	.001247
.652	308.15	15	.0015
.6902	308.15	16.155	.0016155
.794	308.15	20.005	.0020005
.8407	308.15	22.045	.0022045
.8812	308.15	23.9	.00239
.92	308.15	26.12	.002612
.9423	308.15	27.315	.0027315
.9728	308.15	29.105	.0029105

System: hexane + 1-chloropentane; phases: Liquid, Gas
Property: Mole fraction of hexane (Liquid); method: Density calibration data
Mole fraction of hexane	Temperature, K	Mole fraction of hexane	uncertainty
.4075	288.15	.0769	.0000001538
.5479	288.15	.1328	.0000002656
.6274	288.15	.1792	.0000003584
.7251	288.15	.2697	.0000005394
.8005	288.15	.3753	.0000007506
.8488	288.15	.4962	.0000009924
.8727	288.15	.5668	.0000011336
.9044	288.15	.6557	.0000013114
.9294	288.15	.7586	.0000015172
.9417	288.15	.7999	.0000015998
.3178	288.15	.0643	.0000001286
.3178	298.15	.0643	.0000001286
.4289	298.15	.1033	.0000002066
.5969	298.15	.1898	.0000003796
.7387	298.15	.3239	.0000006478
.7966	298.15	.4282	.0000008564
.8467	298.15	.542	.000001084
.8741	298.15	.5964	.0000011928
.8983	298.15	.679	.000001358
.9287	298.15	.7621	.0000015242
.9445	298.15	.8296	.0000016592
.9683	298.15	.8998	.0000017996
.9799	298.15	.9395	.000001879
.2359	308.15	.0471	.0000000942
.3706	308.15	.0863	.0000001726
.448	308.15	.1188	.0000002376
.5497	308.15	.1711	.0000003422
.652	308.15	.2514	.0000005028
.6902	308.15	.3004	.0000006008
.794	308.15	.4506	.0000009012
.8407	308.15	.5483	.0000010966
.8812	308.15	.644	.000001288
.92	308.15	.753	.000001506
.9423	308.15	.8221	.0000016442
.9728	308.15	.9195	.000001839
