Measured thermophysical data. Studies of thermophysical properties of binary liquid mixtures of amine and alcohols at various temperatures
Source: J. Chem. Thermodyn., 2012, 10.1016/j.jct.2012.01.022
Compound 1: 1,2-diaminoethane, C2H8N2, purity 99%
Compound 2: 1-hydroxyhexane, C6H14O, purity 98.5%
Compound 3: octyl alcohol, C8H18O, purity 99.5%
Compound 4: 1-decanol, C10H22O, purity 99.5%

System: 1,2-diaminoethane; phases: Liquid
Fixed: Pressure, kPa = 101.325
Property: Mass density, kg/m3 (Liquid); method: Vibrating tube method
Temperature, K	Mass density, kg/m3	uncertainty
298.15	892.389	.002

System: 1,2-diaminoethane; phases: Liquid
Fixed: Pressure, kPa = 101.325
Property: Viscosity, Pa*s (Liquid); method: Capillary tube (Ostwald; Ubbelohde) method
Temperature, K	Viscosity, Pa*s	uncertainty
298.15	.001405	.000003

System: 1,2-diaminoethane; phases: Liquid
Fixed: Pressure, kPa = 101.325
Property: Speed of sound, m/s (Liquid); method: Sing-around technique in a fixed-path interferometer
Temperature, K	Speed of sound, m/s	uncertainty
298.15	1671.6	.1

System: 1-hydroxyhexane; phases: Liquid
Fixed: Pressure, kPa = 101.325
Property: Mass density, kg/m3 (Liquid); method: Vibrating tube method
Temperature, K	Mass density, kg/m3	uncertainty
298.15	815.265	.002

System: 1-hydroxyhexane; phases: Liquid
Fixed: Pressure, kPa = 101.325
Property: Viscosity, Pa*s (Liquid); method: Capillary tube (Ostwald; Ubbelohde) method
Temperature, K	Viscosity, Pa*s	uncertainty
298.15	.004439	.000003

System: 1-hydroxyhexane; phases: Liquid
Fixed: Pressure, kPa = 101.325
Property: Speed of sound, m/s (Liquid); method: Sing-around technique in a fixed-path interferometer
Temperature, K	Speed of sound, m/s	uncertainty
298.15	1303.2	.1

System: octyl alcohol; phases: Liquid
Fixed: Pressure, kPa = 101.325
Property: Mass density, kg/m3 (Liquid); method: Vibrating tube method
Temperature, K	Mass density, kg/m3	uncertainty
298.15	821.794	.002

System: octyl alcohol; phases: Liquid
Fixed: Pressure, kPa = 101.325
Property: Viscosity, Pa*s (Liquid); method: Capillary tube (Ostwald; Ubbelohde) method
Temperature, K	Viscosity, Pa*s	uncertainty
298.15	.007143	.000003

System: octyl alcohol; phases: Liquid
Fixed: Pressure, kPa = 101.325
Property: Speed of sound, m/s (Liquid); method: Sing-around technique in a fixed-path interferometer
Temperature, K	Speed of sound, m/s	uncertainty
298.15	1347.5	.1

System: 1-decanol; phases: Liquid
Fixed: Pressure, kPa = 101.325
Property: Mass density, kg/m3 (Liquid); method: Vibrating tube method
Temperature, K	Mass density, kg/m3	uncertainty
298.15	826.47	.002

System: 1-decanol; phases: Liquid
Fixed: Pressure, kPa = 101.325
Property: Viscosity, Pa*s (Liquid); method: Capillary tube (Ostwald; Ubbelohde) method
Temperature, K	Viscosity, Pa*s	uncertainty
298.15	.011192	.000003

System: 1-decanol; phases: Liquid
Fixed: Pressure, kPa = 101.325
Property: Speed of sound, m/s (Liquid); method: Sing-around technique in a fixed-path interferometer
Temperature, K	Speed of sound, m/s	uncertainty
298.15	1379.8	.1

System: 1,2-diaminoethane + 1-hydroxyhexane; phases: Liquid
Fixed: Pressure, kPa = 101
Property: Mass density, kg/m3 (Liquid); method: Vibrating tube method
Temperature, K	Mole fraction of 1,2-diaminoethane	Mass density, kg/m3	uncertainty
293.15	.0773	824.126	.002
293.15	.1231	827.205	.002
293.15	.1604	829.772	.002
293.15	.1925	831.826	.002
293.15	.2525	835.69	.002
293.15	.2907	837.925	.002
293.15	.3942	844.247	.002
293.15	.5086	851.229	.002
293.15	.6059	857.577	.002
293.15	.7125	865.791	.002
293.15	.81	874.361	.002
293.15	.8583	879.425	.002
293.15	.9028	884.825	.002
293.15	.945	890.109	.002
298.15	.0773	820.463	.002
298.15	.1231	823.489	.002
298.15	.1604	826.005	.002
298.15	.1925	828.015	.002
298.15	.2525	831.807	.002
298.15	.2907	833.999	.002
298.15	.3942	840.22	.002
298.15	.5086	847.107	.002
298.15	.6059	853.36	.002
298.15	.7125	861.471	.002
298.15	.81	869.926	.002
298.15	.8583	874.936	.002
298.15	.9028	880.277	.002
298.15	.945	885.496	.002
303.15	.0773	816.783	.002
303.15	.1213	819.755	.002
303.15	.1604	822.223	.002
303.15	.1925	824.193	.002
303.15	.2525	827.911	.002
303.15	.2907	830.062	.002
303.15	.3942	836.182	.002
303.15	.5086	842.967	.002
303.15	.6059	849.135	.002
303.15	.7125	857.138	.002
303.15	.81	865.482	.002
303.15	.8583	870.432	.002
303.15	.9028	875.713	.002
303.15	.945	880.874	.002
308.15	.0773	813.087	.002
308.15	.1213	816.005	.002
308.15	.1604	818.427	.002
308.15	.1925	820.356	.002
308.15	.2525	824	.002
308.15	.2907	826.113	.002
308.15	.3942	832.134	.002
308.15	.5086	838.821	.002
308.15	.6059	844.903	.002
308.15	.7125	852.798	.002
308.15	.81	861.03	.002
308.15	.8583	865.917	.002
308.15	.9028	871.143	.002
308.15	.945	876.241	.002
313.15	.0773	809.362	.002
313.15	.1213	812.228	.002
313.15	.1604	814.602	.002
313.15	.1925	816.496	.002
313.15	.2525	820.069	.002
313.15	.2907	822.144	.002
313.15	.3942	828.065	.002
313.15	.5086	834.657	.002
313.15	.6059	840.646	.002
313.15	.7125	848.435	.002
313.15	.81	856.554	.002
313.15	.8583	861.384	.002
313.15	.9028	866.55	.002
313.15	.945	871.587	.002

System: 1,2-diaminoethane + 1-hydroxyhexane; phases: Liquid
Fixed: Pressure, kPa = 101
Property: Speed of sound, m/s (Liquid); method: Sing-around technique in a fixed-path interferometer
Temperature, K	Mole fraction of 1,2-diaminoethane	Speed of sound, m/s	uncertainty
293.15	.0773	1338.6	.1
293.15	.1231	1348.9	.1
293.15	.1604	1358.1	.1
293.15	.1925	1365.8	.1
293.15	.2525	1381	.1
293.15	.2907	1390.2	.1
293.15	.3942	1417.8	.1
293.15	.5086	1450.5	.1
293.15	.6059	1482.3	.1
293.15	.7125	1522.6	.1
293.15	.81	1569	.1
293.15	.8583	1596.2	.1
293.15	.9028	1623.9	.1
293.15	.945	1652.7	.1
298.15	.0773	1321.6	.1
298.15	.1231	1331.9	.1
298.15	.1604	1340.9	.1
298.15	.1925	1348.6	.1
298.15	.2525	1363.7	.1
298.15	.2907	1372.7	.1
298.15	.3942	1399.9	.1
298.15	.5086	1432.2	.1
298.15	.6059	1463.5	.1
298.15	.7125	1503.1	.1
298.15	.81	1548.7	.1
298.15	.8583	1575.4	.1
298.15	.9028	1602.8	.1
298.15	.945	1630.9	.1
303.15	.0773	1304.6	.1
303.15	.1213	1314.9	.1
303.15	.1604	1323.9	.1
303.15	.1925	1331.5	.1
303.15	.2525	1346.5	.1
303.15	.2907	1355.4	.1
303.15	.3942	1382.2	.1
303.15	.5086	1413.9	.1
303.15	.6059	1444.7	.1
303.15	.7125	1483.7	.1
303.15	.81	1528.5	.1
303.15	.8583	1554.7	.1
303.15	.9028	1581.5	.1
303.15	.945	1609.2	.1
308.15	.0773	1287.8	.1
308.15	.1213	1298.2	.1
308.15	.1604	1307	.1
308.15	.1925	1314.6	.1
308.15	.2525	1329.3	.1
308.15	.2907	1338.1	.1
308.15	.3942	1364.6	.1
308.15	.5086	1395.8	.1
308.15	.6059	1426.1	.1
308.15	.7125	1464.4	.1
308.15	.81	1508.5	.1
308.15	.8583	1534.1	.1
308.15	.9028	1560.6	.1
308.15	.945	1587.7	.1
313.15	.0773	1271.1	.1
313.15	.1213	1281.6	.1
313.15	.1604	1290.4	.1
313.15	.1925	1297.9	.1
313.15	.2525	1312.4	.1
313.15	.2907	1321.1	.1
313.15	.3942	1347	.1
313.15	.5086	1377.9	.1
313.15	.6059	1407.5	.1
313.15	.7125	1445.3	.1
313.15	.81	1488.5	.1
313.15	.8583	1513.6	.1
313.15	.9028	1539.7	.1
313.15	.945	1566.3	.1

System: 1,2-diaminoethane + 1-hydroxyhexane; phases: Liquid
Fixed: Pressure, kPa = 101
Property: Excess molar volume, m3/mol (Liquid); method: Calculated with densities of this investigation
Temperature, K	Mole fraction of 1,2-diaminoethane	Excess molar volume, m3/mol	uncertainty
298.15	.0773	-.0000002797	-.0000000013985
298.15	.1231	-.0000004095	-.0000000020475
298.15	.1604	-.0000005082	-.000000002541
298.15	.1925	-.0000005609	-.0000000028045
298.15	.2525	-.0000006375	-.0000000031875
298.15	.2907	-.0000006405	-.0000000032025
298.15	.3942	-.0000006216	-.000000003108
298.15	.5086	-.0000004971	-.0000000024855
298.15	.6059	-.0000003508	-.000000001754
298.15	.7125	-.0000002196	-.000000001098
298.15	.81	-.0000000937	-.0000000004685
298.15	.8583	-.0000000628	-.000000000314
298.15	.9028	-.0000000658	-.000000000329
298.15	.945	-.0000000527	-.0000000002635
303.15	.0773	-.0000002762	-.000000001381
303.15	.1231	-.0000004039	-.0000000020195
303.15	.1604	-.0000005	-.0000000025
303.15	.1925	-.0000005504	-.000000002752
303.15	.2525	-.0000006245	-.0000000031225
303.15	.2907	-.0000006262	-.000000003131
303.15	.3942	-.0000006066	-.000000003033
303.15	.5086	-.000000484	-.00000000242
303.15	.6059	-.0000003386	-.000000001693
303.15	.7125	-.0000002104	-.000000001052
303.15	.81	-.0000000876	-.000000000438
303.15	.8583	-.0000000581	-.0000000002905
303.15	.9028	-.0000000631	-.0000000003155
303.15	.945	-.0000000513	-.0000000002565
308.15	.0773	-.0000002742	-.000000001371
308.15	.1213	-.0000003994	-.000000001997
308.15	.1604	-.0000004932	-.000000002466
308.15	.1925	-.0000005418	-.000000002709
308.15	.2525	-.0000006129	-.0000000030645
308.15	.2907	-.0000006134	-.000000003067
308.15	.3942	-.0000005929	-.0000000029645
308.15	.5086	-.0000004712	-.000000002356
308.15	.6059	-.0000003277	-.0000000016385
308.15	.7125	-.0000002018	-.000000001009
308.15	.81	-.0000000813	-.0000000004065
308.15	.8583	-.0000000534	-.000000000267
308.15	.9028	-.0000000603	-.0000000003015
308.15	.945	-.0000000502	-.000000000251

System: 1,2-diaminoethane + 1-hydroxyhexane; phases: Liquid
Fixed: Pressure, kPa = 101
Property: Viscosity, Pa*s (Liquid); method: Capillary tube (Ostwald; Ubbelohde) method
Temperature, K	Mole fraction of 1,2-diaminoethane	Viscosity, Pa*s	uncertainty
298.15	.0773	.004258	.000003
298.15	.1213	.004169	.000003
298.15	.1604	.004072	.000003
298.15	.1925	.004	.000003
298.15	.2525	.003832	.000003
298.15	.2907	.00372	.000003
298.15	.3942	.003357	.000003
298.15	.5086	.002926	.000003
298.15	.6059	.002528	.000003
298.15	.7125	.002149	.000003
298.15	.81	.001851	.000003
298.15	.8583	.001725	.000003
298.15	.9028	.001619	.000003
298.15	.945	.001536	.000003
303.15	.0773	.003578	.000003
303.15	.1213	.003551	.000003
303.15	.1604	.00351	.000003
303.15	.1925	.003452	.000003
303.15	.2525	.003324	.000003
303.15	.2907	.003234	.000003
303.15	.3942	.00291	.000003
303.15	.5086	.002537	.000003
303.15	.6059	.002194	.000003
303.15	.7125	.00188	.000003
303.15	.81	.001612	.000003
303.15	.8583	.001506	.000003
303.15	.9028	.001428	.000003
303.15	.945	.001336	.000003
308.15	.0773	.003066	.000003
308.15	.1213	.003025	.000003
308.15	.1604	.002971	.000003
308.15	.1925	.002923	.000003
308.15	.2525	.002814	.000003
308.15	.2907	.002737	.000003
308.15	.3942	.002479	.000003
308.15	.5086	.002174	.000003
308.15	.6059	.001892	.000003
308.15	.7125	.00162	.000003
308.15	.81	.001404	.000003
308.15	.8583	.001316	.000003
308.15	.9028	.001241	.000003
308.15	.945	.00118	.000003

System: 1,2-diaminoethane + octyl alcohol; phases: Liquid
Fixed: Pressure, kPa = 101
Property: Mass density, kg/m3 (Liquid); method: Vibrating tube method
Temperature, K	Mole fraction of 1,2-diaminoethane	Mass density, kg/m3	uncertainty
293.15	.0595	828.135	.002
293.15	.1021	830.247	.002
293.15	.143	832.248	.002
293.15	.2012	835.047	.002
293.15	.2633	838.043	.002
293.15	.3122	839.349	.002
293.15	.4113	844.656	.002
293.15	.4919	848.413	.002
293.15	.5973	854.134	.002
293.15	.7019	861.054	.002
293.15	.7938	868.882	.002
293.15	.8436	874.136	.002
293.15	.8941	881.269	.002
293.15	.9546	889.526	.002
298.15	.0595	824.621	.002
298.15	.1021	826.683	.002
298.15	.143	828.632	.002
298.15	.2012	831.36	.002
298.15	.2633	834.276	.002
298.15	.3122	835.547	.002
298.15	.4113	840.743	.002
298.15	.4919	844.426	.002
298.15	.5973	850.038	.002
298.15	.7019	856.833	.002
298.15	.7938	864.539	.002
298.15	.8436	869.72	.002
298.15	.8941	876.764	.002
298.15	.9546	884.925	.002
303.15	.0595	824.621	.002
303.15	.1021	826.683	.002
303.15	.143	828.632	.002
303.15	.2012	831.36	.002
303.15	.2633	834.276	.002
303.15	.3122	835.547	.002
303.15	.4113	840.743	.002
303.15	.4919	844.426	.002
303.15	.5973	850.038	.002
303.15	.7019	856.833	.002
303.15	.7938	864.539	.002
303.15	.8436	869.72	.002
303.15	.8941	876.764	.002
303.15	.9546	884.925	.002
308.15	.0595	817.544	.002
308.15	.1021	819.514	.002
308.15	.143	821.37	.002
308.15	.2012	823.957	.002
308.15	.2633	826.723	.002
308.15	.3122	827.934	.002
308.15	.4113	832.902	.002
308.15	.4919	836.434	.002
308.15	.5973	841.825	.002
308.15	.7019	848.372	.002
308.15	.7938	855.829	.002
308.15	.8436	860.863	.002
308.15	.8941	867.723	.002
308.15	.9546	875.69	.002
313.15	.0595	813.972	.002
313.15	.1021	815.903	.002
313.15	.143	817.713	.002
313.15	.2012	820.239	.002
313.15	.2633	822.931	.002
313.15	.3122	824.111	.002
313.15	.4113	828.963	.002
313.15	.4919	832.42	.002
313.15	.5973	837.701	.002
313.15	.7019	844.123	.002
313.15	.7938	851.455	.002
313.15	.8436	856.411	.002
313.15	.8941	863.18	.002
313.15	.9546	871.049	.002

System: 1,2-diaminoethane + octyl alcohol; phases: Liquid
Fixed: Pressure, kPa = 101
Property: Speed of sound, m/s (Liquid); method: Sing-around technique in a fixed-path interferometer
Temperature, K	Mole fraction of 1,2-diaminoethane	Speed of sound, m/s	uncertainty
293.15	.0595	1373.2	.000002
293.15	.1021	1379.6	.000002
293.15	.143	1386.6	.000002
293.15	.2012	1396.5	.000002
293.15	.2633	1407.3	.000002
293.15	.3122	1412.6	.000002
293.15	.4113	1433.8	.000002
293.15	.4919	1450.2	.000002
293.15	.5973	1475.6	.000002
293.15	.7019	1508.3	.000002
293.15	.7938	1546.3	.000002
293.15	.8436	1573.2	.000002
293.15	.8941	1609.4	.000002
293.15	.9546	1651.7	.000002
298.15	.0595	1356.2	.000002
298.15	.1021	1362.6	.000002
298.15	.143	1369.4	.000002
298.15	.2012	1379.3	.000002
298.15	.2633	1389.9	.000002
298.15	.3122	1397.8	.000002
298.15	.4113	1415.9	.000002
298.15	.4919	1432	.000002
298.15	.5973	1457.1	.000002
298.15	.7019	1489	.000002
298.15	.7938	1526.5	.000002
298.15	.8436	1551.8	.000002
298.15	.8941	1582.4	.000002
298.15	.9546	1627.9	.000002
303.15	.0595	1338.9	.000002
303.15	.1021	1345.7	.000002
303.15	.143	1352.5	.000002
303.15	.2012	1362.3	.000002
303.15	.2633	1372.1	.000002
303.15	.3122	1379.9	.000002
303.15	.4113	1398.3	.000002
303.15	.4919	1414	.000002
303.15	.5973	1438.7	.000002
303.15	.7019	1469.9	.000002
303.15	.7938	1506.3	.000002
303.15	.8436	1530.5	.000002
303.15	.8941	1559.9	.000002
303.15	.9546	1604.9	.000002
308.15	.0595	1322.8	.000002
308.15	.1021	1329	.000002
308.15	.143	1335.8	.000002
308.15	.2012	1345.5	.000002
308.15	.2633	1355.7	.000002
308.15	.3122	1360.7	.000002
308.15	.4113	1380.8	.000002
308.15	.4919	1396.4	.000002
308.15	.5973	1420.5	.000002
308.15	.7019	1451.2	.000002
308.15	.7938	1487.3	.000002
308.15	.8436	1512.4	.000002
308.15	.8941	1546.7	.000002
308.15	.9546	1586.8	.000002
313.15	.0595	1306.6	.000002
313.15	.1021	1313.3	.000002
313.15	.143	1319.7	.000002
313.15	.2012	1329	.000002
313.15	.2633	1339.1	.000002
313.15	.3122	1343.9	.000002
313.15	.4113	1363.5	.000002
313.15	.4919	1378.9	.000002
313.15	.5973	1402.6	.000002
313.15	.7019	1432.8	.000002
313.15	.7938	1468.2	.000002
313.15	.8436	1492.4	.000002
313.15	.8941	1526.1	.000002
313.15	.9546	1565.6	.000002

System: 1,2-diaminoethane + octyl alcohol; phases: Liquid
Fixed: Pressure, kPa = 101
Property: Excess molar volume, m3/mol (Liquid); method: Calculated with densities of this investigation
Temperature, K	Mole fraction of 1,2-diaminoethane	Excess molar volume, m3/mol	uncertainty
293.15	.0595	-.0000001838	
293.15	.1021	-.0000003009	
293.15	.143	-.0000003896	
293.15	.2012	-.0000004763	
293.15	.2633	-.0000005308	
293.15	.3122	-.000000423	
293.15	.4113	-.000000423	
293.15	.4919	-.0000002975	
293.15	.5973	-.0000001359	
293.15	.7019	.0000000124	
293.15	.7938	.0000000928	
293.15	.8436	.0000001041	
293.15	.8941	.0000001025	
293.15	.9546	.0000000264	
298.15	.0595	-.0000001816	
298.15	.1021	-.0000002949	
298.15	.143	-.0000003797	
298.15	.2012	-.0000004618	
298.15	.2633	-.0000005115	
298.15	.3122	-.0000004215	
298.15	.4113	-.0000004011	
298.15	.4919	-.0000002764	
298.15	.5973	-.0000001162	
298.15	.7019	.0000000297	
298.15	.7938	.0000001065	
298.15	.8436	.000000115	
298.15	.8941	.0000001037	
298.15	.9546	.0000000289	
303.15	.0595	-.0000001807	
303.15	.1021	-.0000002905	
303.15	.143	-.0000003714	
303.15	.2012	-.0000004487	
303.15	.2633	-.0000004949	
303.15	.3122	-.0000004208	
303.15	.4113	-.0000003809	
303.15	.4919	-.0000002563	
303.15	.5973	-.0000000974	
303.15	.7019	.0000000465	
303.15	.7938	.0000001197	
303.15	.8436	.0000001256	
303.15	.8941	.0000001045	
303.15	.9546	.0000000314	
308.15	.0595	-.0000001782	
308.15	.1021	-.0000002853	
308.15	.143	-.0000003638	
308.15	.2012	-.0000004364	
308.15	.2633	-.0000004775	
308.15	.3122	-.0000004201	
308.15	.4113	-.0000003615	
308.15	.4919	-.0000002374	
308.15	.5973	-.0000000794	
308.15	.7019	.0000000622	
308.15	.7938	.0000001323	
308.15	.8436	.0000001356	
308.15	.8941	.0000001065	
308.15	.9546	.0000000337	
313.15	.0595	-.0000001795	
313.15	.1021	-.0000002743	
313.15	.143	-.0000003498	
313.15	.2012	-.0000004196	
313.15	.2633	-.0000004567	
313.15	.3122	-.0000004304	
313.15	.4113	-.0000003381	
313.15	.4919	-.0000002148	
313.15	.5973	-.0000000585	
313.15	.7019	.0000000804	
313.15	.7938	.0000001468	
313.15	.8436	.0000001475	
313.15	.8941	.0000001074	
313.15	.9546	.0000000369	

System: 1,2-diaminoethane + octyl alcohol; phases: Liquid
Fixed: Pressure, kPa = 101
Property: Viscosity, Pa*s (Liquid); method: Capillary tube (Ostwald; Ubbelohde) method
Temperature, K	Mole fraction of 1,2-diaminoethane	Viscosity, Pa*s	uncertainty
298.15	.0596	.006934	.000003
298.15	.1021	.006834	.000003
298.15	.143	.006713	.000003
298.15	.2012	.006457	.000003
298.15	.2633	.006099	.000003
298.15	.3122	.005734	.000003
298.15	.4113	.004957	.000003
298.15	.4919	.004251	.000003
298.15	.5973	.003406	.000003
298.15	.7019	.002707	.000003
298.15	.7938	.002214	.000003
298.15	.8436	.001985	.000003
298.15	.8941	.001751	.000003
298.15	.9546	.00154	.000003
303.15	.0596	.005792	.000003
303.15	.1021	.005694	.000003
303.15	.143	.005569	.000003
303.15	.2012	.005331	.000003
303.15	.2633	.005041	.000003
303.15	.3122	.00475	.000003
303.15	.4113	.004144	.000003
303.15	.4919	.003595	.000003
303.15	.5973	.002917	.000003
303.15	.7019	.002395	.000003
303.15	.7938	.001956	.000003
303.15	.8436	.001748	.000003
303.15	.8941	.001532	.000003
303.15	.9546	.00134	.000003
308.15	.0596	.004848	.000003
308.15	.1021	.004757	.000003
308.15	.143	.004662	.000003
308.15	.2012	.004461	.000003
308.15	.2633	.004211	.000003
308.15	.3122	.003975	.000003
308.15	.4113	.003497	.000003
308.15	.4919	.003054	.000003
308.15	.5973	.002515	.000003
308.15	.7019	.002031	.000003
308.15	.7938	.001669	.000003
308.15	.8436	.0015	.000003
308.15	.8941	.001342	.000003
308.15	.9546	.0012	.000003

System: 1,2-diaminoethane + 1-decanol; phases: Liquid
Fixed: Pressure, kPa = 101
Property: Mass density, kg/m3 (Liquid); method: Vibrating tube method
Temperature, K	Mole fraction of 1,2-diaminoethane	Mass density, kg/m3	uncertainty
293.15	.0424	831.534	.002
293.15	.1063	834.058	.002
293.15	.1512	835.766	.002
293.15	.1995	837.56	.002
293.15	.2511	839.445	.002
293.15	.2957	841.022	.002
293.15	.3961	844.521	.002
293.15	.4929	848.18	.002
293.15	.609	853.458	.002
293.15	.6962	858.67	.002
293.15	.7975	866.833	.002
293.15	.855	872.943	.002
293.15	.9054	879.622	.002
293.15	.9591	888.704	.002
298.15	.0424	828.092	.002
298.15	.1063	830.545	.002
298.15	.1512	832.202	.002
298.15	.1995	833.938	.002
298.15	.2511	835.76	.002
298.15	.2957	837.289	.002
298.15	.3961	840.693	.002
298.15	.4929	844.262	.002
298.15	.609	849.415	.002
298.15	.6962	854.51	.002
298.15	.7975	862.525	.002
298.15	.855	868.535	.002
298.15	.9054	875.128	.002
298.15	.9591	884.107	.002
303.15	.0424	824.641	.002
303.15	.1063	827.029	.002
303.15	.1512	828.635	.002
303.15	.1995	830.31	.002
303.15	.2511	832.075	.002
303.15	.2957	833.56	.002
303.15	.3961	836.868	.002
303.15	.4929	840.345	.002
303.15	.609	845.37	.002
303.15	.6962	850.353	.002
303.15	.7975	858.212	.002
303.15	.855	864.125	.002
303.15	.9054	870.631	.002
303.15	.9591	879.506	.002
308.15	.0424	821.178	.002
308.15	.1063	823.508	.002
308.15	.1512	825.064	.002
308.15	.1995	826.684	.002
308.15	.2511	828.392	.002
308.15	.2957	829.829	.002
308.15	.3961	833.045	.002
308.15	.4929	836.429	.002
308.15	.609	841.323	.002
308.15	.6962	846.189	.002
308.15	.7975	853.898	.002
308.15	.855	859.714	.002
308.15	.9054	866.124	.002
308.15	.9591	874.895	.002
313.15	.0424	817.698	.002
313.15	.1063	819.969	.002
313.15	.1512	821.476	.002
313.15	.1995	823.045	.002
313.15	.2511	824.7	.002
313.15	.2957	826.089	.002
313.15	.3961	829.21	.002
313.15	.4929	832.502	.002
313.15	.609	837.271	.002
313.15	.6962	842.017	.002
313.15	.7975	849.57	.002
313.15	.855	855.287	.002
313.15	.9054	861.605	.002
313.15	.9591	870.264	.002

System: 1,2-diaminoethane + 1-decanol; phases: Liquid
Fixed: Pressure, kPa = 101
Property: Speed of sound, m/s (Liquid); method: Sing-around technique in a fixed-path interferometer
Temperature, K	Mole fraction of 1,2-diaminoethane	Speed of sound, m/s	uncertainty
293.15	.0424	1402.1	.1
293.15	.1063	1408.9	.1
293.15	.1512	1414.8	.1
293.15	.1995	1420.8	.1
293.15	.2511	1427.1	.1
293.15	.2957	1432.6	.1
293.15	.3961	1445.5	.1
293.15	.4929	1459.7	.1
293.15	.609	1481.8	.1
293.15	.6962	1504.6	.1
293.15	.7975	1541.1	.1
293.15	.855	1570.1	.1
293.15	.9054	1602.3	.1
293.15	.9591	1648.1	.1
298.15	.0424	1384.9	.1
298.15	.1063	1391.6	.1
298.15	.1512	1397.5	.1
298.15	.1995	1403.3	.1
298.15	.2511	1409.5	.1
298.15	.2957	1414.9	.1
298.15	.3961	1427.6	.1
298.15	.4929	1441.5	.1
298.15	.609	1463.1	.1
298.15	.6962	1485.4	.1
298.15	.7975	1521.3	.1
298.15	.855	1549.7	.1
298.15	.9054	1581.4	.1
298.15	.9591	1626.4	.1
303.15	.0424	1367.8	.1
303.15	.1063	1374.7	.1
303.15	.1512	1380.3	.1
303.15	.1995	1386.1	.1
303.15	.2511	1392.1	.1
303.15	.2957	1397.5	.1
303.15	.3961	1409.8	.1
303.15	.4929	1423.5	.1
303.15	.609	1444.5	.1
303.15	.6962	1466.5	.1
303.15	.7975	1501.6	.1
303.15	.855	1529.5	.1
303.15	.9054	1560.8	.1
303.15	.9591	1604.9	.1
308.15	.0424	1350.9	.1
308.15	.1063	1358	.1
308.15	.1512	1363.4	.1
308.15	.1995	1369.1	.1
308.15	.2511	1375	.1
308.15	.2957	1380.3	.1
308.15	.3961	1392.3	.1
308.15	.4929	1405.6	.1
308.15	.609	1426.1	.1
308.15	.6962	1447.5	.1
308.15	.7975	1481.9	.1
308.15	.855	1509.4	.1
308.15	.9054	1540.1	.1
308.15	.9591	1583.6	.1
313.15	.0424	1334.2	.1
313.15	.1063	1341.6	.1
313.15	.1512	1346.8	.1
313.15	.1995	1352.3	.1
313.15	.2511	1358.1	.1
313.15	.2957	1363.2	.1
313.15	.3961	1375	.1
313.15	.4929	1387.9	.1
313.15	.609	1407.9	.1
313.15	.6962	1428.6	.1
313.15	.7975	1462.5	.1
313.15	.855	1489.4	.1
313.15	.9054	1519.8	.1
313.15	.9591	1562.4	.1

System: 1,2-diaminoethane + 1-decanol; phases: Liquid
Fixed: Pressure, kPa = 101
Property: Excess molar volume, m3/mol (Liquid); method: Calculated with densities of this investigation
Temperature, K	Mole fraction of 1,2-diaminoethane	Excess molar volume, m3/mol	uncertainty
293.15	.0424	-.0000001386	
293.15	.1063	-.000000315	
293.15	.1512	-.0000003962	
293.15	.1995	-.0000004494	
293.15	.2511	-.0000004717	
293.15	.2957	-.0000004584	
293.15	.3961	-.0000003445	
293.15	.4929	-.0000001821	
293.15	.609	.0000000259	
293.15	.6962	.0000001444	
293.15	.7975	.0000002187	
293.15	.855	.0000002204	
293.15	.9054	.0000001844	
293.15	.9591	.0000000902	
298.15	.0424	-.0000001375	
298.15	.1063	-.0000003067	
298.15	.1512	-.0000003832	
298.15	.1995	-.0000004312	
298.15	.2511	-.0000004484	
298.15	.2957	-.0000004324	
298.15	.3961	-.0000003163	
298.15	.4929	-.0000001544	
298.15	.609	.0000000522	
298.15	.6962	.0000001692	
298.15	.7975	.0000002385	
298.15	.855	.0000002365	
298.15	.9054	.0000001953	
298.15	.9591	.0000000944	
303.15	.0424	-.0000001359	
303.15	.1063	-.0000002992	
303.15	.1512	-.0000003708	
303.15	.1995	-.0000004129	
303.15	.2511	-.0000004262	
303.15	.2957	-.0000004081	
303.15	.3961	-.0000002896	
303.15	.4929	-.0000001276	
303.15	.609	.0000000779	
303.15	.6962	.0000001927	
303.15	.7975	.0000002579	
303.15	.855	.0000002519	
303.15	.9054	.0000002056	
303.15	.9591	.000000098	
308.15	.0424	-.0000001358	
308.15	.1063	-.0000002945	
308.15	.1512	-.0000003614	
308.15	.1995	-.0000003985	
308.15	.2511	-.0000004075	
308.15	.2957	-.0000003865	
308.15	.3961	-.0000002658	
308.15	.4929	-.0000001033	
308.15	.609	.0000001019	
308.15	.6962	.0000002155	
308.15	.7975	.0000002762	
308.15	.855	.0000002662	
308.15	.9054	.0000002156	
308.15	.9591	.0000001014	
313.15	.0424	-.0000001512	
313.15	.1063	-.0000003039	
313.15	.1512	-.0000003654	
313.15	.1995	-.0000003976	
313.15	.2511	-.0000004021	
313.15	.2957	-.0000003773	
313.15	.3961	-.0000002521	
313.15	.4929	-.0000000876	
313.15	.609	.0000001187	
313.15	.6962	.000000233	
313.15	.7975	.0000002915	
313.15	.855	.0000002787	
313.15	.9054	.0000002243	
313.15	.9591	.0000001049	

System: 1,2-diaminoethane + 1-decanol; phases: Liquid
Fixed: Pressure, kPa = 101
Property: Viscosity, Pa*s (Liquid); method: Capillary tube (Ostwald; Ubbelohde) method
Temperature, K	Mole fraction of 1,2-diaminoethane	Viscosity, Pa*s	uncertainty
298.15	.0424	.010958	.000003
298.15	.1063	.010599	.000003
298.15	.1512	.010361	.000003
298.15	.1995	.009921	.000003
298.15	.2511	.009382	.000003
298.15	.2957	.008821	.000003
298.15	.3961	.007355	.000003
298.15	.4929	.006047	.000003
298.15	.609	.004514	.000003
298.15	.6962	.003644	.000003
298.15	.7975	.002699	.000003
298.15	.855	.002198	.000003
298.15	.9054	.001874	.000003
298.15	.9591	.001598	.000003
303.15	.0424	.009008	.000003
303.15	.1063	.008713	.000003
303.15	.1512	.008442	.000003
303.15	.1995	.008104	.000003
303.15	.2511	.007658	.000003
303.15	.2957	.007229	.000003
303.15	.3961	.006168	.000003
303.15	.4929	.005062	.000003
303.15	.609	.003892	.000003
303.15	.6962	.003107	.000003
303.15	.7975	.002343	.000003
303.15	.855	.001985	.000003
303.15	.9054	.00166	.000003
303.15	.9591	.001403	.000003
308.15	.0424	.007295	.000003
308.15	.1063	.007087	.000003
308.15	.1512	.006852	.000003
308.15	.1995	.006563	.000003
308.15	.2511	.006202	.000003
308.15	.2957	.005881	.000003
308.15	.3961	.005028	.000003
308.15	.4929	.00423	.000003
308.15	.609	.003288	.000003
308.15	.6962	.002661	.000003
308.15	.7975	.002032	.000003
308.15	.855	.001708	.000003
308.15	.9054	.001485	.000003
308.15	.9591	.001238	.000003
