Measured thermophysical data. Vapour pressures, densities, and viscosities of the aqueous solutions containing  (triethylene glycol or propylene glycol) and (LiCl or LiBr)
Source: J. Chem. Thermodyn., 2000, 10.1016/j.jct.2008.12.022
Compound 1: triethylene glycol, C6H14O4, purity 98%
Compound 2: 1,2-propanediol, C3H8O2, purity 99%
Compound 3: Lithium Bromide, BrLi, purity 98%
Compound 4: lithium chloride, ClLi, purity 99%
Compound 5: water, H2O, purity 99.9%

System: triethylene glycol; phases: Liquid
Fixed: Pressure, kPa = 101.325
Property: Mass density, kg/m3 (Liquid); method: Pycnometric method
Temperature, K	Mass density, kg/m3	uncertainty
303.15	1116	.558
313.15	1109	.5545
323.15	1101	.5505
333.15	1093	.5465
343.15	1086	.543

System: triethylene glycol; phases: Liquid
Fixed: Pressure, kPa = 101.325
Property: Viscosity, Pa*s (Liquid); method: Capillary tube (Ostwald; Ubbelohde) method
Temperature, K	Viscosity, Pa*s	uncertainty
303.15	.02927	.0002927
313.15	.01896	.0001896
323.15	.01296	.0001296
333.15	.009288	.00009288
343.15	.006906	.00006906

System: 1,2-propanediol; phases: Liquid
Fixed: Pressure, kPa = 101.325
Property: Mass density, kg/m3 (Liquid); method: Pycnometric method
Temperature, K	Mass density, kg/m3	uncertainty
303.15	1029	.5145
313.15	1021	.5105
323.15	1014	.507
333.15	1006	.503
343.15	999	.4995

System: 1,2-propanediol; phases: Liquid
Fixed: Pressure, kPa = 101.325
Property: Viscosity, Pa*s (Liquid); method: Capillary tube (Ostwald; Ubbelohde) method
Temperature, K	Viscosity, Pa*s	uncertainty
303.15	.0324	.000324
313.15	.01912	.0001912
323.15	.0121	.000121
333.15	.00819	.0000819
343.15	.005704	.00005704

System: triethylene glycol + lithium chloride + water; phases: Liquid
Fixed: Pressure, kPa = 101
Property: Mass density, kg/m3 (Liquid); method: Pycnometric method
Temperature, K	Mass fraction of triethylene glycol	Mass fraction of lithium chloride	Mass density, kg/m3	uncertainty
303.15	.8	.04	1133	.5665
313.15	.8	.04	1126	.563
323.15	.8	.04	1118	.559
333.15	.8	.04	1111	.5555
343.15	.8	.04	1104	.552
303.15	.7	.09	1158	.579
313.15	.7	.09	1151	.5755
323.15	.7	.09	1145	.5725
333.15	.7	.09	1138	.569
343.15	.7	.09	1133	.5665
303.15	.6	.16	1190	.595
313.15	.6	.16	1184	.592
323.15	.6	.16	1178	.589
333.15	.6	.16	1172	.586
343.15	.6	.16	1167	.5835
303.15	.5	.25	1234	.617
313.15	.5	.25	1229	.6145
323.15	.5	.25	1224	.612
333.15	.5	.25	1219	.6095
343.15	.5	.25	1215	.6075

System: triethylene glycol + lithium chloride + water; phases: Liquid
Fixed: Pressure, kPa = 101
Property: Viscosity, Pa*s (Liquid); method: Capillary tube (Ostwald; Ubbelohde) method
Temperature, K	Mass fraction of triethylene glycol	Mass fraction of lithium chloride	Viscosity, Pa*s	uncertainty
303.15	.8	.04	.036931	.00036931
313.15	.8	.04	.023077	.00023077
323.15	.8	.04	.015354	.00015354
333.15	.8	.04	.010835	.00010835
343.15	.8	.04	.007987	.00007987
303.15	.7	.09	.059045	.00059045
313.15	.7	.09	.035489	.00035489
323.15	.7	.09	.022974	.00022974
333.15	.7	.09	.015768	.00015768
343.15	.7	.09	.011622	.00011622
303.15	.6	.16	.133527	.00133527
313.15	.6	.16	.075245	.00075245
323.15	.6	.16	.045942	.00045942
333.15	.6	.16	.030083	.00030083
343.15	.6	.16	.021308	.00021308
303.15	.5	.25	.469841	.00469841
313.15	.5	.25	.237263	.00237263
323.15	.5	.25	.13207	.0013207
333.15	.5	.25	.077972	.00077972
343.15	.5	.25	.049846	.00049846

System: triethylene glycol + lithium chloride + water; phases: Liquid, Gas
Property: Vapor or sublimation pressure, kPa (Liquid); method: Ebulliometric method (Recirculating still)
Temperature, K	Mass fraction of triethylene glycol	Mass fraction of lithium chloride	Vapor or sublimation pressure, kPa	uncertainty
303.15	.8	.04	1.791	
313.15	.8	.04	2.998	
323.15	.8	.04	4.986	
333.15	.8	.04	8.187	
343.15	.8	.04	13.098	
303.15	.7	.09	1.617	
313.15	.7	.09	2.686	
323.15	.7	.09	4.442	
333.15	.7	.09	7.229	
343.15	.7	.09	11.631	
303.15	.6	.16	1.143	
313.15	.6	.16	1.991	
323.15	.6	.16	3.314	
333.15	.6	.16	5.533	
343.15	.6	.16	8.893	
303.15	.5	.25	.564	
313.15	.5	.25	.965	
323.15	.5	.25	1.624	
333.15	.5	.25	2.702	
343.15	.5	.25	4.458	

System: 1,2-propanediol + lithium chloride + water; phases: Liquid
Fixed: Pressure, kPa = 101
Property: Mass density, kg/m3 (Liquid); method: Pycnometric method
Temperature, K	Mass fraction of 1,2-propanediol	Mass fraction of lithium chloride	Mass density, kg/m3	uncertainty
303.15	.8	.04	1059	.5295
313.15	.8	.04	1052	.526
323.15	.8	.04	1044	.522
333.15	.8	.04	1037	.5185
343.15	.8	.04	1030	.515
303.15	.7	.09	1087	.5435
313.15	.7	.09	1080	.54
323.15	.7	.09	1074	.537
333.15	.7	.09	1067	.5335
343.15	.7	.09	1061	.5305
303.15	.6	.16	1126	.563
313.15	.6	.16	1120	.56
323.15	.6	.16	1114	.557
333.15	.6	.16	1108	.554
343.15	.6	.16	1103	.5515
303.15	.5	.25	1177	.5885
313.15	.5	.25	1171	.5855
323.15	.5	.25	1167	.5835
333.15	.5	.25	1161	.5805
343.15	.5	.25	1156	.578

System: 1,2-propanediol + lithium chloride + water; phases: Liquid
Fixed: Pressure, kPa = 101
Property: Viscosity, Pa*s (Liquid); method: Capillary tube (Ostwald; Ubbelohde) method
Temperature, K	Mass fraction of 1,2-propanediol	Mass fraction of lithium chloride	Viscosity, Pa*s	uncertainty
303.15	.8	.04	.024181	.00024181
313.15	.8	.04	.015154	.00015154
323.15	.8	.04	.010097	.00010097
333.15	.8	.04	.007082	.00007082
343.15	.8	.04	.005425	.00005425
303.15	.7	.09	.030323	.00030323
313.15	.7	.09	.019045	.00019045
323.15	.7	.09	.012694	.00012694
333.15	.7	.09	.008933	.00008933
343.15	.7	.09	.006654	.00006654
303.15	.6	.16	.054517	.00054517
313.15	.6	.16	.03339	.0003339
323.15	.6	.16	.021871	.00021871
333.15	.6	.16	.015174	.00015174
343.15	.6	.16	.011032	.00011032
303.15	.5	.25	.15873	.0015873
313.15	.5	.25	.08969	.0008969
323.15	.5	.25	.054602	.00054602
333.15	.5	.25	.035765	.00035765
343.15	.5	.25	.024523	.00024523

System: 1,2-propanediol + lithium chloride + water; phases: Liquid, Gas
Property: Vapor or sublimation pressure, kPa (Liquid); method: Ebulliometric method (Recirculating still)
Temperature, K	Mass fraction of 1,2-propanediol	Mass fraction of lithium chloride	Vapor or sublimation pressure, kPa	uncertainty
303.15	.8	.04	1.835	
313.15	.8	.04	3.018	
323.15	.8	.04	4.977	
333.15	.8	.04	8.079	
343.15	.8	.04	12.819	
303.15	.7	.09	1.769	
313.15	.7	.09	2.902	
323.15	.7	.09	4.804	
333.15	.7	.09	7.673	
343.15	.7	.09	12.495	
303.15	.6	.16	1.323	
313.15	.6	.16	2.226	
323.15	.6	.16	3.684	
333.15	.6	.16	6.02	
343.15	.6	.16	9.61	
303.15	.5	.25	.58	
313.15	.5	.25	1.003	
323.15	.5	.25	1.733	
333.15	.5	.25	2.956	
343.15	.5	.25	4.921	

System: triethylene glycol + Lithium Bromide + water; phases: Liquid
Fixed: Pressure, kPa = 101
Property: Mass density, kg/m3 (Liquid); method: Pycnometric method
Temperature, K	Mass fraction of triethylene glycol	Mass fraction of Lithium Bromide	Mass density, kg/m3	uncertainty
303.15	.8	.04	1140	.57
313.15	.8	.04	1133	.5665
323.15	.8	.04	1125	.5625
333.15	.8	.04	1117	.5585
343.15	.8	.04	1110	.555
303.15	.7	.09	1176	.588
313.15	.7	.09	1169	.5845
323.15	.7	.09	1162	.581
333.15	.7	.09	1154	.577
343.15	.7	.09	1148	.574
303.15	.6	.16	1231	.6155
313.15	.6	.16	1224	.612
323.15	.6	.16	1217	.6085
333.15	.6	.16	1210	.605
343.15	.6	.16	1203	.6015
303.15	.5	.25	1310	.655
313.15	.5	.25	1303	.6515
323.15	.5	.25	1297	.6485
333.15	.5	.25	1290	.645
343.15	.5	.25	1285	.6425

System: triethylene glycol + Lithium Bromide + water; phases: Liquid
Fixed: Pressure, kPa = 101
Property: Viscosity, Pa*s (Liquid); method: Capillary tube (Ostwald; Ubbelohde) method
Temperature, K	Mass fraction of triethylene glycol	Mass fraction of Lithium Bromide	Viscosity, Pa*s	uncertainty
303.15	.8	.04	.02525	.0002525
313.15	.8	.04	.016215	.00016215
323.15	.8	.04	.01108	.0001108
333.15	.8	.04	.007984	.00007984
343.15	.8	.04	.005964	.00005964
303.15	.7	.09	.026595	.00026595
313.15	.7	.09	.016998	.00016998
323.15	.7	.09	.011595	.00011595
333.15	.7	.09	.008326	.00008326
343.15	.7	.09	.006238	.00006238
303.15	.6	.16	.030907	.00030907
313.15	.6	.16	.019732	.00019732
323.15	.6	.16	.013413	.00013413
333.15	.6	.16	.009659	.00009659
343.15	.6	.16	.007246	.00007246
303.15	.5	.25	.043301	.00043301
313.15	.5	.25	.027389	.00027389
323.15	.5	.25	.018481	.00018481
333.15	.5	.25	.013347	.00013347
343.15	.5	.25	.010068	.00010068

System: triethylene glycol + Lithium Bromide + water; phases: Liquid, Gas
Property: Vapor or sublimation pressure, kPa (Liquid); method: Ebulliometric method (Recirculating still)
Temperature, K	Mass fraction of triethylene glycol	Mass fraction of Lithium Bromide	Vapor or sublimation pressure, kPa	uncertainty
303.15	.8	.04	2.137	
313.15	.8	.04	3.589	
323.15	.8	.04	5.946	
333.15	.8	.04	9.639	
343.15	.8	.04	15.275	
303.15	.7	.09	2.274	
313.15	.7	.09	3.796	
323.15	.7	.09	6.246	
333.15	.7	.09	10.075	
343.15	.7	.09	15.925	
303.15	.6	.16	2.325	
313.15	.6	.16	3.849	
323.15	.6	.16	6.277	
333.15	.6	.16	10.098	
343.15	.6	.16	15.845	
303.15	.5	.25	1.985	
313.15	.5	.25	3.226	
323.15	.5	.25	5.169	
333.15	.5	.25	8.17	
343.15	.5	.25	12.758	

System: 1,2-propanediol + Lithium Bromide + water; phases: Liquid
Fixed: Pressure, kPa = 101
Property: Mass density, kg/m3 (Liquid); method: Pycnometric method
Temperature, K	Mass fraction of 1,2-propanediol	Mass fraction of Lithium Bromide	Mass density, kg/m3	uncertainty
303.15	.8	.04	1064	.532
313.15	.8	.04	1057	.5285
323.15	.8	.04	1049	.5245
333.15	.8	.04	1042	.521
343.15	.8	.04	1034	.517
303.15	.7	.09	1104	.552
313.15	.7	.09	1096	.548
323.15	.7	.09	1089	.5445
333.15	.7	.09	1081	.5405
343.15	.7	.09	1075	.5375
303.15	.6	.16	1162	.581
313.15	.6	.16	1155	.5775
323.15	.6	.16	1148	.574
333.15	.6	.16	1140	.57
343.15	.6	.16	1133	.5665
303.15	.5	.25	1245	.6225
313.15	.5	.25	1238	.619
323.15	.5	.25	1231	.6155
333.15	.5	.25	1224	.612
343.15	.5	.25	1218	.609

System: 1,2-propanediol + Lithium Bromide + water; phases: Liquid
Fixed: Pressure, kPa = 101
Property: Viscosity, Pa*s (Liquid); method: Capillary tube (Ostwald; Ubbelohde) method
Temperature, K	Mass fraction of 1,2-propanediol	Mass fraction of Lithium Bromide	Viscosity, Pa*s	uncertainty
303.15	.8	.04	.018177	.00018177
313.15	.8	.04	.011552	.00011552
323.15	.8	.04	.007772	.00007772
333.15	.8	.04	.005494	.00005494
343.15	.8	.04	.004052	.00004052
303.15	.7	.09	.016978	.00016978
313.15	.7	.09	.010876	.00010876
323.15	.7	.09	.007452	.00007452
333.15	.7	.09	.005351	.00005351
343.15	.7	.09	.004084	.00004084
303.15	.6	.16	.017786	.00017786
313.15	.6	.16	.011652	.00011652
323.15	.6	.16	.008082	.00008082
333.15	.6	.16	.005922	.00005922
343.15	.6	.16	.004468	.00004468
303.15	.5	.25	.023	.00023
313.15	.5	.25	.015143	.00015143
323.15	.5	.25	.010551	.00010551
333.15	.5	.25	.007716	.00007716
343.15	.5	.25	.005903	.00005903

System: 1,2-propanediol + Lithium Bromide + water; phases: Liquid, Gas
Property: Vapor or sublimation pressure, kPa (Liquid); method: Ebulliometric method (Recirculating still)
Temperature, K	Mass fraction of 1,2-propanediol	Mass fraction of Lithium Bromide	Vapor or sublimation pressure, kPa	uncertainty
303.15	.8	.04	2.017	
313.15	.8	.04	3.369	
323.15	.8	.04	5.609	
333.15	.8	.04	9.057	
343.15	.8	.04	14.312	
303.15	.7	.09	2.181	
313.15	.7	.09	3.674	
323.15	.7	.09	6.091	
333.15	.7	.09	9.891	
343.15	.7	.09	15.715	
303.15	.6	.16	2.206	
313.15	.6	.16	3.652	
323.15	.6	.16	6.025	
333.15	.6	.16	9.685	
343.15	.6	.16	15.268	
303.15	.5	.25	1.747	
313.15	.5	.25	2.948	
323.15	.5	.25	4.86	
333.15	.5	.25	7.879	
343.15	.5	.25	12.45	
