Measured thermophysical data. Volumetric, acoustic and spectroscopic properties of 3-chloroaniline with substituted ethanols at various temperatures
Source: J. Chem. Thermodyn., 2016, 10.1016/j.jct.2015.11.012
Compound 1: 3-chloroaniline, C6H6ClN, purity 99%
Compound 2: 2-phenylethanol, C8H10O, purity 99%
Compound 3: 2-chloroethanol, C2H5ClO, purity 99.5%
Compound 4: 2-aminoethanol, C2H7NO, purity 99%

System: 3-chloroaniline; phases: Liquid
Property: Mass density, kg/m3 (Liquid); method: Vibrating tube method
Temperature, K	Pressure, kPa	Mass density, kg/m3	uncertainty
303.15	100	1205.32	2
308.15	100	1200.75	2
313.15	100	1196.02	2
318.15	100	1191.25	2

System: 3-chloroaniline; phases: Liquid
Property: Viscosity, Pa*s (Liquid); method: Capillary tube (Ostwald; Ubbelohde) method
Temperature, K	Pressure, kPa	Viscosity, Pa*s	uncertainty
303.15	100	.0042554	.0005
308.15	100	.003842	.0005
313.15	100	.0034302	.0005
318.15	100	.0030224	.0005

System: 3-chloroaniline; phases: Liquid
Fixed: Frequency, MHz = 2
Property: Speed of sound, m/s (Liquid); method: Linear variable-path acoustic interferometer
Temperature, K	Pressure, kPa	Speed of sound, m/s	uncertainty
303.15	100	1517.5	4.5525
308.15	100	1501.2	4.5036
313.15	100	1480.3	4.4409
318.15	100	1464.8	4.3944

System: 2-phenylethanol; phases: Liquid
Property: Mass density, kg/m3 (Liquid); method: Vibrating tube method
Temperature, K	Pressure, kPa	Mass density, kg/m3	uncertainty
303.15	100	1012.34	2
308.15	100	1008.63	2
313.15	100	1004.84	2
318.15	100	1000.94	2

System: 2-phenylethanol; phases: Liquid
Property: Viscosity, Pa*s (Liquid); method: Capillary tube (Ostwald; Ubbelohde) method
Temperature, K	Pressure, kPa	Viscosity, Pa*s	uncertainty
303.15	100	.009045	.0005
308.15	100	.007193	.0005
313.15	100	.006085	.0005
318.15	100	.004984	.0005

System: 2-phenylethanol; phases: Liquid
Fixed: Frequency, MHz = 2
Property: Speed of sound, m/s (Liquid); method: Linear variable-path acoustic interferometer
Temperature, K	Pressure, kPa	Speed of sound, m/s	uncertainty
303.15	100	1508.4	4.5252
308.15	100	1490.8	4.4724
313.15	100	1470.6	4.4118
318.15	100	1456.4	4.3692

System: 2-chloroethanol; phases: Liquid
Property: Mass density, kg/m3 (Liquid); method: Vibrating tube method
Temperature, K	Pressure, kPa	Mass density, kg/m3	uncertainty
303.15	100	1192.12	2
308.15	100	1186.63	2
313.15	100	1178.05	2
318.15	100	1170.87	2

System: 2-chloroethanol; phases: Liquid
Property: Viscosity, Pa*s (Liquid); method: Capillary tube (Ostwald; Ubbelohde) method
Temperature, K	Pressure, kPa	Viscosity, Pa*s	uncertainty
303.15	100	.002578	.0005
308.15	100	.002259	.0005
313.15	100	.001852	.0005
318.15	100	.001564	.0005

System: 2-chloroethanol; phases: Liquid
Fixed: Frequency, MHz = 2
Property: Speed of sound, m/s (Liquid); method: Linear variable-path acoustic interferometer
Temperature, K	Pressure, kPa	Speed of sound, m/s	uncertainty
303.15	100	1342.8	4.0284
308.15	100	1328.5	3.9855
313.15	100	1315.5	3.9465
318.15	100	1301.2	3.9036

System: 2-aminoethanol; phases: Liquid
Property: Mass density, kg/m3 (Liquid); method: Vibrating tube method
Temperature, K	Pressure, kPa	Mass density, kg/m3	uncertainty
303.15	100	1008.72	2
308.15	100	1004.65	2
313.15	100	1000.74	2
318.15	100	996.04	2

System: 2-aminoethanol; phases: Liquid
Property: Viscosity, Pa*s (Liquid); method: Capillary tube (Ostwald; Ubbelohde) method
Temperature, K	Pressure, kPa	Viscosity, Pa*s	uncertainty
303.15	100	.014424	.0005
308.15	100	.011707	.0005
313.15	100	.009564	.0005
318.15	100	.007558	.0005

System: 2-aminoethanol; phases: Liquid
Fixed: Frequency, MHz = 2
Property: Speed of sound, m/s (Liquid); method: Linear variable-path acoustic interferometer
Temperature, K	Pressure, kPa	Speed of sound, m/s	uncertainty
303.15	100	1703.1	5.1093
308.15	100	1685.8	5.0574
313.15	100	1671.2	5.0136
318.15	100	1653.2	4.9596

System: 2-phenylethanol + 3-chloroaniline; phases: Liquid
Fixed: Pressure, kPa = 100
Property: Mass density, kg/m3 (Liquid); method: Vibrating tube method
Temperature, K	Mole fraction of 3-chloroaniline	Mass density, kg/m3	uncertainty
303.15	0	1012.34	2
303.15	.0855	1027.23	2
303.15	.1746	1043.06	2
303.15	.2665	1059.74	2
303.15	.3613	1077.27	2
303.15	.4491	1093.81	2
303.15	.5201	1107.41	2
303.15	.6594	1134.71	2
303.15	.7692	1156.83	2
303.15	.8787	1179.49	2
303.15	1	1205.32	2
308.15	0	1008.63	2
308.15	.0855	1023.5	2
308.15	.1746	1039.28	2
308.15	.2665	1055.88	2
308.15	.3613	1073.34	2
308.15	.4491	1089.81	2
308.15	.5201	1103.34	2
308.15	.6594	1130.52	2
308.15	.7692	1152.56	2
308.15	.8787	1175.08	2
308.15	1	1200.75	2
313.15	0	1004.84	2
313.15	.0855	1019.67	2
313.15	.1746	1035.39	2
313.15	.2665	1051.92	2
313.15	.3613	1069.28	2
313.15	.4491	1085.67	2
313.15	.5201	1099.15	2
313.15	.6594	1126.19	2
313.15	.7692	1148.11	2
313.15	.8787	1170.53	2
313.15	1	1196.02	2
318.15	0	1000.94	2
318.15	.0855	1015.75	2
318.15	.1746	1031.43	2
318.15	.2665	1047.87	2
318.15	.3613	1065.15	2
318.15	.4491	1081.46	2
318.15	.5201	1094.86	2
318.15	.6594	1121.8	2
318.15	.7692	1143.63	2
318.15	.8787	1165.92	2
318.15	1	1191.25	2

System: 2-phenylethanol + 3-chloroaniline; phases: Liquid
Fixed: Pressure, kPa = 100
Property: Viscosity, Pa*s (Liquid); method: Capillary tube (Ostwald; Ubbelohde) method
Temperature, K	Mole fraction of 3-chloroaniline	Viscosity, Pa*s	uncertainty
303.15	0	.009045	.0005
303.15	.0855	.0086435	.0005
303.15	.1746	.0082227	.0005
303.15	.2665	.0077866	.0005
303.15	.3613	.0073355	.0005
303.15	.4491	.0069163	.0005
303.15	.5201	.0065764	.0005
303.15	.6594	.0059068	.0005
303.15	.7692	.0053766	.0005
303.15	.8787	.0048456	.0005
303.15	1	.0042554	.0005
308.15	0	.007193	.0005
308.15	.0855	.006915	.0005
308.15	.1746	.0066228	.0005
308.15	.2665	.0063194	.0005
308.15	.3613	.0060048	.0005
308.15	.4491	.0057118	.0005
308.15	.5201	.0054734	.0005
308.15	.6594	.0050047	.0005
308.15	.7692	.0046323	.0005
308.15	.8787	.0042587	.0005
308.15	1	.003842	.0005
313.15	0	.006085	.0005
313.15	.0855	.0058674	.0005
313.15	.1746	.0056379	.0005
313.15	.2665	.0053984	.0005
313.15	.3613	.0051494	.0005
313.15	.4491	.0049175	.0005
313.15	.5201	.0047286	.0005
313.15	.6594	.0043568	.0005
313.15	.7692	.0040609	.0005
313.15	.8787	.0037632	.0005
313.15	1	.0034302	.0005
318.15	0	.004984	.0005
318.15	.0855	.0048271	.0005
318.15	.1746	.0046594	.0005
318.15	.2665	.0044834	.0005
318.15	.3613	.0043	.0005
318.15	.4491	.004129	.0005
318.15	.5201	.0039893	.0005
318.15	.6594	.003714	.0005
318.15	.7692	.0034944	.0005
318.15	.8787	.0032723	.0005
318.15	1	.0030224	.0005

System: 2-phenylethanol + 3-chloroaniline; phases: Liquid
Fixed: Pressure, kPa = 100
Fixed: Frequency, MHz = 2
Property: Speed of sound, m/s (Liquid); method: Linear variable-path acoustic interferometer
Temperature, K	Mole fraction of 3-chloroaniline	Speed of sound, m/s	uncertainty
303.15	0	1508.4	4.5252
303.15	.0855	1509.6	4.5288
303.15	.1746	1511	4.533
303.15	.2665	1512.3	4.5369
303.15	.3613	1513.6	4.5408
303.15	.4491	1514.6	4.5438
303.15	.5201	1515.4	4.5462
303.15	.6594	1516.5	4.5495
303.15	.7692	1517	4.551
303.15	.8787	1517.3	4.5519
303.15	1	1517.5	4.5525
308.15	0	1490.8	4.4724
308.15	.0855	1492.2	4.4766
308.15	.1746	1493.6	4.4808
308.15	.2665	1495	4.485
308.15	.3613	1496.3	4.4889
308.15	.4491	1497.4	4.4922
308.15	.5201	1498.3	4.4949
308.15	.6594	1499.6	4.4988
308.15	.7692	1500.4	4.5012
308.15	.8787	1500.9	4.5027
308.15	1	1501.2	4.5036
313.15	0	1470.6	4.4118
313.15	.0855	1472	4.416
313.15	.1746	1473.4	4.4202
313.15	.2665	1474.6	4.4238
313.15	.3613	1475.8	4.4274
313.15	.4491	1476.9	4.4307
313.15	.5201	1477.7	4.4331
313.15	.6594	1478.9	4.4367
313.15	.7692	1479.7	4.4391
313.15	.8787	1480.3	4.4409
313.15	1	1480.3	4.4409
318.15	0	1456.4	4.3692
318.15	.0855	1457.9	4.3737
318.15	.1746	1459.1	4.3773
318.15	.2665	1460.2	4.3806
318.15	.3613	1461.2	4.3836
318.15	.4491	1462.1	4.3863
318.15	.5201	1462.8	4.3884
318.15	.6594	1463.9	4.3917
318.15	.7692	1464.6	4.3938
318.15	.8787	1464.8	4.3944
318.15	1	1464.8	4.3944

System: 2-chloroethanol + 3-chloroaniline; phases: Liquid
Fixed: Pressure, kPa = 100
Property: Mass density, kg/m3 (Liquid); method: Vibrating tube method
Temperature, K	Mole fraction of 3-chloroaniline	Mass density, kg/m3	uncertainty
303.15	0	1192.12	2
303.15	.0844	1194.38	2
303.15	.1759	1196.5	2
303.15	.2675	1198.32	2
303.15	.3622	1199.9	2
303.15	.4808	1201.48	2
303.15	.5814	1202.58	2
303.15	.6862	1203.51	2
303.15	.7938	1204.28	2
303.15	.8902	1204.84	2
303.15	1	1205.32	2
308.15	0	1186.63	2
308.15	.0844	1189.08	2
308.15	.1759	1191.33	2
308.15	.2675	1193.26	2
308.15	.3622	1194.92	2
308.15	.4808	1196.62	2
308.15	.5814	1197.79	2
308.15	.6862	1198.8	2
308.15	.7938	1199.65	2
308.15	.8902	1200.24	2
308.15	1	1200.75	2
313.15	0	1178.05	2
313.15	.0844	1181.05	2
313.15	.1759	1183.78	2
313.15	.2675	1186.13	2
313.15	.3622	1188.2	2
313.15	.4808	1190.36	2
313.15	.5814	1191.88	2
313.15	.6862	1193.24	2
313.15	.7938	1194.4	2
313.15	.8902	1195.27	2
313.15	1	1196.02	2
318.15	0	1170.87	2
318.15	.0844	1173.91	2
318.15	.1759	1176.26	2
318.15	.2675	1178.79	2
318.15	.3622	1181.24	2
318.15	.4808	1184.01	2
318.15	.5814	1185.85	2
318.15	.6862	1187.52	2
318.15	.7938	1189.32	2
318.15	.8902	1190.2	2
318.15	1	1191.25	2

System: 2-chloroethanol + 3-chloroaniline; phases: Liquid
Fixed: Pressure, kPa = 100
Property: Viscosity, Pa*s (Liquid); method: Capillary tube (Ostwald; Ubbelohde) method
Temperature, K	Mole fraction of 3-chloroaniline	Viscosity, Pa*s	uncertainty
303.15	0	.002578	.0005
303.15	.0844	.0027278	.0005
303.15	.1759	.0028878	.0005
303.15	.2675	.0030458	.0005
303.15	.3622	.0032074	.0005
303.15	.4808	.0034076	.0005
303.15	.5814	.003576	.0005
303.15	.6862	.0037495	.0005
303.15	.7938	.0039255	.0005
303.15	.8902	.0040808	.0005
303.15	1	.0042554	.0005
308.15	0	.002259	.0005
308.15	.0844	.0024018	.0005
308.15	.1759	.0025533	.0005
308.15	.2675	.0027031	.0005
308.15	.3622	.0028554	.0005
308.15	.4808	.0030446	.0005
308.15	.5814	.0032033	.0005
308.15	.6862	.0033667	.0005
308.15	.7938	.0035323	.0005
308.15	.8902	.0036787	.0005
308.15	1	.003842	.0005
313.15	0	.001852	.0005
313.15	.0844	.0019952	.0005
313.15	.1759	.002147	.0005
313.15	.2675	.0022963	.0005
313.15	.3622	.0024481	.0005
313.15	.4808	.0026365	.0005
313.15	.5814	.0027948	.0005
313.15	.6862	.002958	.0005
313.15	.7938	.0031229	.0005
313.15	.8902	.0032687	.0005
313.15	1	.0034302	.0005
318.15	0	.001564	.0005
318.15	.0844	.0016983	.0005
318.15	.1759	.0018397	.0005
318.15	.2675	.0019778	.0005
318.15	.3622	.0021182	.0005
318.15	.4808	.0022923	.0005
318.15	.5814	.0024383	.0005
318.15	.6862	.0025891	.0005
318.15	.7938	.0027411	.0005
318.15	.8902	.0028745	.0005
318.15	1	.0030224	.0005

System: 2-chloroethanol + 3-chloroaniline; phases: Liquid
Fixed: Pressure, kPa = 100
Fixed: Frequency, MHz = 2
Property: Speed of sound, m/s (Liquid); method: Linear variable-path acoustic interferometer
Temperature, K	Mole fraction of 3-chloroaniline	Speed of sound, m/s	uncertainty
303.15	0	1342.8	4.0284
303.15	.0844	1365.5	4.0965
303.15	.1759	1388.6	4.1658
303.15	.2675	1410	4.23
303.15	.3622	1430.2	4.2906
303.15	.4808	1452.7	4.3581
303.15	.5814	1469.7	4.4091
303.15	.6862	1484.7	4.4541
303.15	.7938	1498	4.494
303.15	.8902	1508.2	4.5246
303.15	1	1517.5	4.5525
308.15	0	1328.5	3.9855
308.15	.0844	1351.3	4.0539
308.15	.1759	1374.1	4.1223
308.15	.2675	1395.1	4.1853
308.15	.3622	1415	4.245
308.15	.4808	1437.1	4.3113
308.15	.5814	1454	4.362
308.15	.6862	1469.2	4.4076
308.15	.7938	1482.5	4.4475
308.15	.8902	1492.7	4.4781
308.15	1	1501.2	4.5036
313.15	0	1315.5	3.9465
313.15	.0844	1337.6	4.0128
313.15	.1759	1359.6	4.0788
313.15	.2675	1379.6	4.1388
313.15	.3622	1398.4	4.1952
313.15	.4808	1419.6	4.2588
313.15	.5814	1435.7	4.3071
313.15	.6862	1450.5	4.3515
313.15	.7938	1463.3	4.3899
313.15	.8902	1472.8	4.4184
313.15	1	1480.3	4.4409
318.15	0	1301.2	3.9036
318.15	.0844	1323.6	3.9708
318.15	.1759	1345.1	4.0353
318.15	.2675	1365.6	4.0968
318.15	.3622	1384.1	4.1523
318.15	.4808	1404.8	4.2144
318.15	.5814	1420.8	4.2624
318.15	.6862	1435.5	4.3065
318.15	.7938	1448.6	4.3458
318.15	.8902	1458	4.374
318.15	1	1464.8	4.3944

System: 3-chloroaniline + 2-aminoethanol; phases: Liquid
Fixed: Pressure, kPa = 100
Property: Mass density, kg/m3 (Liquid); method: Vibrating tube method
Temperature, K	Mole fraction of 3-chloroaniline	Mass density, kg/m3	uncertainty
303.15	0	1008.72	2
303.15	.0857	1037.07	2
303.15	.1749	1063.03	2
303.15	.2679	1086.86	2
303.15	.3619	1108.19	2
303.15	.4597	1127.88	2
303.15	.5607	1145.96	2
303.15	.6649	1162.61	2
303.15	.7726	1177.97	2
303.15	.8835	1192.12	2
303.15	1	1205.32	2
308.15	0	1004.65	2
308.15	.0857	1032.99	2
308.15	.1749	1058.89	2
308.15	.2679	1082.69	2
308.15	.3619	1103.96	2
308.15	.4597	1123.59	2
308.15	.5607	1141.65	2
308.15	.6649	1158.22	2
308.15	.7726	1173.53	2
308.15	.8835	1187.62	2
308.15	1	1200.75	2
313.15	0	1000.74	2
313.15	.0857	1029.02	2
313.15	.1749	1054.84	2
313.15	.2679	1078.52	2
313.15	.3619	1099.7	2
313.15	.4597	1119.25	2
313.15	.5607	1137.2	2
313.15	.6649	1153.72	2
313.15	.7726	1168.97	2
313.15	.8835	1182.98	2
313.15	1	1196.02	2
318.15	0	996.04	2
318.15	.0857	1024.4	2
318.15	.1749	1050.2	2
318.15	.2679	1073.86	2
318.15	.3619	1095.02	2
318.15	.4597	1114.53	2
318.15	.5607	1132.47	2
318.15	.6649	1149	2
318.15	.7726	1164.23	2
318.15	.8835	1178.23	2
318.15	1	1191.25	2

System: 3-chloroaniline + 2-aminoethanol; phases: Liquid
Fixed: Pressure, kPa = 100
Property: Viscosity, Pa*s (Liquid); method: Capillary tube (Ostwald; Ubbelohde) method
Temperature, K	Mole fraction of 3-chloroaniline	Viscosity, Pa*s	uncertainty
303.15	0	.014424	.0005
303.15	.0857	.0135616	.0005
303.15	.1749	.0126615	.0005
303.15	.2679	.0117198	.0005
303.15	.3619	.010767	.0005
303.15	.4597	.0097735	.0005
303.15	.5607	.0087465	.0005
303.15	.6649	.0076849	.0005
303.15	.7726	.0065857	.0005
303.15	.8835	.005451	.0005
303.15	1	.0042554	.0005
308.15	0	.011707	.0005
308.15	.0857	.0110426	.0005
308.15	.1749	.0103482	.0005
308.15	.2679	.0096214	.0005
308.15	.3619	.0088849	.0005
308.15	.4597	.0081166	.0005
308.15	.5607	.0073219	.0005
308.15	.6649	.0065004	.0005
308.15	.7726	.0056493	.0005
308.15	.8835	.0047702	.0005
308.15	1	.003842	.0005
313.15	0	.009564	.0005
313.15	.0857	.0090493	.0005
313.15	.1749	.0085095	.0005
313.15	.2679	.0079438	.0005
313.15	.3619	.0073698	.0005
313.15	.4597	.0067709	.0005
313.15	.5607	.006151	.0005
313.15	.6649	.0055103	.0005
313.15	.7726	.0048455	.0005
313.15	.8835	.0041575	.0005
313.15	1	.0034302	.0005
318.15	0	.007558	.0005
318.15	.0857	.0071819	.0005
318.15	.1749	.006785	.0005
318.15	.2679	.0063678	.0005
318.15	.3619	.0059435	.0005
318.15	.4597	.0055011	.0005
318.15	.5607	.0050427	.0005
318.15	.6649	.004568	.0005
318.15	.7726	.0040755	.0005
318.15	.8835	.003565	.0005
318.15	1	.0030224	.0005

System: 3-chloroaniline + 2-aminoethanol; phases: Liquid
Fixed: Pressure, kPa = 100
Fixed: Frequency, MHz = 2
Property: Speed of sound, m/s (Liquid); method: Linear variable-path acoustic interferometer
Temperature, K	Mole fraction of 3-chloroaniline	Speed of sound, m/s	uncertainty
303.15	0	1703.1	5.1093
303.15	.0857	1689	5.067
303.15	.1749	1674.4	5.0232
303.15	.2679	1658.9	4.9767
303.15	.3619	1642.4	4.9272
303.15	.4597	1624.3	4.8729
303.15	.5607	1604.9	4.8147
303.15	.6649	1584.1	4.7523
303.15	.7726	1562.3	4.6869
303.15	.8835	1540.1	4.6203
303.15	1	1517.5	4.5525
308.15	0	1685.8	5.0574
308.15	.0857	1673.4	5.0202
308.15	.1749	1659.2	4.9776
308.15	.2679	1643.1	4.9293
308.15	.3619	1626	4.878
308.15	.4597	1607.5	4.8225
308.15	.5607	1588.1	4.7643
308.15	.6649	1568.1	4.7043
308.15	.7726	1547.2	4.6416
308.15	.8835	1525.2	4.5756
308.15	1	1501.2	4.5036
313.15	0	1671.2	5.0136
313.15	.0857	1658.8	4.9764
313.15	.1749	1643.8	4.9314
313.15	.2679	1626.5	4.8795
313.15	.3619	1608.2	4.8246
313.15	.4597	1588.8	4.7664
313.15	.5607	1568.9	4.7067
313.15	.6649	1548.6	4.6458
313.15	.7726	1527.7	4.5831
313.15	.8835	1505.5	4.5165
313.15	1	1480.3	4.4409
318.15	0	1653.2	4.9596
318.15	.0857	1642	4.926
318.15	.1749	1627.5	4.8825
318.15	.2679	1610.2	4.8306
318.15	.3619	1591.7	4.7751
318.15	.4597	1572.2	4.7166
318.15	.5607	1552.5	4.6575
318.15	.6649	1532.6	4.5978
318.15	.7726	1512.3	4.5369
318.15	.8835	1490.5	4.4715
318.15	1	1464.8	4.3944
