Measured thermophysical data. Interaction of homologous series of amino acids with sarcosine in presence of denaturant: Volumetric and calorimetric approach
Source: J. Chem. Thermodyn., 2014, 10.1016/j.jct.2013.09.009
Compound 1: glycine, C2H5NO2, purity 99%
Compound 2: L-alanine, C3H7NO2, purity 99%
Compound 3: DL-.alpha.-amino-n-butyric acid, C4H9NO2, purity 98%
Compound 4: L-valine, C5H11NO2, purity 99%
Compound 5: L-leucine, C6H13NO2, purity 99%
Compound 6: sarcosine, C3H7NO2, purity 99%
Compound 7: urea, CH4N2O, purity 99%
Compound 8: water, H2O

System: glycine + sarcosine + water; phases: Liquid
Fixed: Pressure, kPa = 101
Fixed: Temperature, K = 298.15
Fixed: Solvent: Amount concentration (molarity), mol/dm3 of sarcosine = 1
Property: Mass density, kg/m3 (Liquid); method: Vibrating tube method
Molality, mol/kg of glycine	Mass density, kg/m3	uncertainty
0	1023.241	.05
.08974	1025.934	.05
.17409	1028.428	.05
.37963	1034.416	.05
.41374	1035.319	.05
.47723	1037.127	.05
.55466	1039.274	.05
.79119	1045.718	.05
.63327	1041.506	.05
.71422	1043.667	.05

System: glycine + sarcosine + water; phases: Liquid
Fixed: Pressure, kPa = 101
Fixed: Temperature, K = 298.15
Fixed: Solvent: Amount concentration (molarity), mol/dm3 of sarcosine = 1
Property: Speed of sound, m/s (Liquid); method: Sing-around technique in a fixed-path interferometer
Molality, mol/kg of glycine	Speed of sound, m/s	uncertainty
0	1561.33	.5
.08974	1565.8	.5
.17409	1569.93	.5
.37963	1579.89	.5
.41374	1581.43	.5
.47723	1584.47	.5
.55466	1588.03	.5
.79119	1598.91	.5
.63327	1591.82	.5
.71422	1595.45	.5

System: L-alanine + sarcosine + water; phases: Liquid
Fixed: Pressure, kPa = 101
Fixed: Temperature, K = 298.15
Fixed: Solvent: Amount concentration (molarity), mol/dm3 of sarcosine = 1
Property: Mass density, kg/m3 (Liquid); method: Vibrating tube method
Molality, mol/kg of L-alanine	Mass density, kg/m3	uncertainty
0	1023.257	.05
.04395	1024.438	.05
.10997	1026.177	.05
.14814	1027.16	.05
.18149	1028.028	.05
.20184	1028.54	.05
.24664	1029.688	.05
.33039	1031.817	.05
.37699	1032.947	.05
.40481	1033.654	.05

System: L-alanine + sarcosine + water; phases: Liquid
Fixed: Pressure, kPa = 101
Fixed: Temperature, K = 298.15
Fixed: Solvent: Amount concentration (molarity), mol/dm3 of sarcosine = 1
Property: Speed of sound, m/s (Liquid); method: Sing-around technique in a fixed-path interferometer
Molality, mol/kg of L-alanine	Speed of sound, m/s	uncertainty
0	1561.33	.5
.04395	1564.13	.5
.10997	1568.23	.5
.14814	1570.55	.5
.18149	1572.61	.5
.20184	1573.82	.5
.24664	1576.55	.5
.33039	1581.61	.5
.37699	1584.3	.5
.40481	1585.99	.5

System: sarcosine + DL-.alpha.-amino-n-butyric acid + water; phases: Liquid
Fixed: Pressure, kPa = 101
Fixed: Temperature, K = 298.15
Fixed: Solvent: Amount concentration (molarity), mol/dm3 of sarcosine = 1
Property: Mass density, kg/m3 (Liquid); method: Vibrating tube method
Molality, mol/kg of DL-.alpha.-amino-n-butyric acid	Mass density, kg/m3	uncertainty
0	1023.255	.05
.01972	1023.761	.05
.04105	1024.302	.05
.05041	1024.544	.05
.05972	1024.752	.05
.06444	1024.903	.05
.07395	1025.143	.05
.09485	1025.654	.05
.10465	1025.942	.05
.10829	1026.017	.05
.11266	1026.095	.05

System: sarcosine + DL-.alpha.-amino-n-butyric acid + water; phases: Liquid
Fixed: Pressure, kPa = 101
Fixed: Temperature, K = 298.15
Fixed: Solvent: Amount concentration (molarity), mol/dm3 of sarcosine = 1
Property: Speed of sound, m/s (Liquid); method: Sing-around technique in a fixed-path interferometer
Molality, mol/kg of DL-.alpha.-amino-n-butyric acid	Speed of sound, m/s	uncertainty
0	1561.37	.5
.01972	1562.97	.5
.04105	1564.72	.5
.05041	1565.37	.5
.05972	1566.18	.5
.06444	1566.47	.5
.07395	1567.22	.5
.09485	1568.94	.5
.10465	1569.68	.5
.10829	1569.9	.5
.11266	1570.73	.5

System: L-valine + sarcosine + water; phases: Liquid
Fixed: Pressure, kPa = 101
Fixed: Temperature, K = 298.15
Fixed: Solvent: Amount concentration (molarity), mol/dm3 of sarcosine = 1
Property: Mass density, kg/m3 (Liquid); method: Vibrating tube method
Molality, mol/kg of L-valine	Mass density, kg/m3	uncertainty
0	1023.321	.05
.0394	1024.273	.05
.04245	1024.329	.05
.04639	1024.439	.05
.04967	1024.51	.05
.0546	1024.623	.05
.06002	1024.748	.05
.07199	1025.053	.05
.07671	1025.152	.05

System: L-valine + sarcosine + water; phases: Liquid
Fixed: Pressure, kPa = 101
Fixed: Temperature, K = 298.15
Fixed: Solvent: Amount concentration (molarity), mol/dm3 of sarcosine = 1
Property: Speed of sound, m/s (Liquid); method: Sing-around technique in a fixed-path interferometer
Molality, mol/kg of L-valine	Speed of sound, m/s	uncertainty
0	1561.5	.5
.0394	1565.24	.5
.04245	1565.47	.5
.04639	1565.89	.5
.04967	1566.18	.5
.0546	1566.62	.5
.06002	1567.12	.5
.07199	1568.32	.5
.07671	1568.7	.5

System: L-leucine + sarcosine + water; phases: Liquid
Fixed: Pressure, kPa = 101
Fixed: Temperature, K = 298.15
Fixed: Solvent: Amount concentration (molarity), mol/dm3 of sarcosine = 1
Property: Mass density, kg/m3 (Liquid); method: Vibrating tube method
Molality, mol/kg of L-leucine	Mass density, kg/m3	uncertainty
0	1023.246	.05
.00338	1023.313	.05
.00489	1023.343	.05
.00537	1023.353	.05
.00763	1023.579	.05
.00862	1023.428	.05
.01035	1023.636	.05
.02014	1023.844	.05
.02012	1023.825	.05

System: L-leucine + sarcosine + water; phases: Liquid
Fixed: Pressure, kPa = 101
Fixed: Temperature, K = 298.15
Fixed: Solvent: Amount concentration (molarity), mol/dm3 of sarcosine = 1
Property: Speed of sound, m/s (Liquid); method: Sing-around technique in a fixed-path interferometer
Molality, mol/kg of L-leucine	Speed of sound, m/s	uncertainty
0	1561.31	.5
.00338	1561.65	.5
.00489	1561.93	.5
.00537	1561.92	.5
.00763	1562.53	.5
.00862	1562.25	.5
.01035	1562.86	.5
.02014	1563.97	.5
.02012	1563.82	.5

System: urea + sarcosine + water; phases: Liquid
Fixed: Pressure, kPa = 101
Fixed: Temperature, K = 298.15
Fixed: Amount concentration (molarity), mol/dm3 of sarcosine = 1
Property: Mass density, kg/m3 (Liquid); method: Vibrating tube method
Amount concentration (molarity), mol/dm3 of urea	Mass density, kg/m3	uncertainty
1	1038.595	.05

System: urea + sarcosine + water; phases: Liquid
Fixed: Pressure, kPa = 101
Fixed: Temperature, K = 298.15
Fixed: Amount concentration (molarity), mol/dm3 of urea = 1
Property: Speed of sound, m/s (Liquid); method: Sing-around technique in a fixed-path interferometer
Amount concentration (molarity), mol/dm3 of sarcosine	Speed of sound, m/s	uncertainty
1	1585.81	.5

System: sarcosine + water; phases: Liquid
Property: Mass density, kg/m3 (Liquid); method: Vibrating tube method
Pressure, kPa	Temperature, K	Amount concentration (molarity), mol/dm3 of sarcosine	Mass density, kg/m3	uncertainty
101	298.15	1	1023.264	.05

System: sarcosine + water; phases: Liquid
Property: Speed of sound, m/s (Liquid); method: Sing-around technique in a fixed-path interferometer
Pressure, kPa	Temperature, K	Amount concentration (molarity), mol/dm3 of sarcosine	Speed of sound, m/s	uncertainty
101	298.15	1	1561.37	.5
