Measured thermophysical data. Solubility of 3-chloro-N-phenylphthalimide in ten organic solvents from T = (288.15 to 323.15) K: Determination and modelling
Source: J. Chem. Thermodyn., 2016, 10.1016/j.jct.2016.01.003
Compound 1: 3-chloro-N-phenylphthalimide, C14H8ClNO2, purity 97.7%
Compound 2: acetonitrile, C2H3N, purity 99.6%
Compound 3: methanol, CH4O, purity 99.5%
Compound 4: n-propanol, C3H8O, purity 99.5%
Compound 5: isopropanol, C3H8O, purity 99.7%
Compound 6: n-butanol, C4H10O, purity 99.5%
Compound 7: 2-methyl-1-propanol, C4H10O, purity 99.7%
Compound 8: ethyl acetate, C4H8O2, purity 99.5%
Compound 9: acetone, C3H6O, purity 99.5%
Compound 10: 1,4-dioxane, C4H8O2, purity 99.5%
Compound 11: acetic acid, C2H4O2, purity 99.5%

System: 3-chloro-N-phenylphthalimide; phases: Crystal, Liquid, Air at 1 atmosphere
Property: Normal melting temperature, K (Crystal); method: DSC/DTA
Normal melting temperature, K	uncertainty
466.05	.5

System: 3-chloro-N-phenylphthalimide; phases: Crystal, Liquid, Air at 1 atmosphere
Property: Molar enthalpy of transition or fusion, kJ/mol (Crystal); method: DSC
Molar enthalpy of transition or fusion, kJ/mol	uncertainty
29.14	.4

System: 3-chloro-N-phenylphthalimide; phases: Crystal
Fixed: Pressure, kPa = 101.325
Property: Mass density, kg/m3 (Crystal); method: flotation method
Temperature, K	Mass density, kg/m3	uncertainty
298.15	1397	.9

System: acetonitrile + 3-chloro-N-phenylphthalimide; phases: Liquid, Crystal
Fixed: Pressure, kPa = 100
Property: Mole fraction of 3-chloro-N-phenylphthalimide (Liquid); method: Chromatography
Temperature, K	Mole fraction of 3-chloro-N-phenylphthalimide	uncertainty
288.15	.001963	
290.65	.002161	
293.15	.002364	
295.65	.00258	
298.15	.002799	
300.65	.003048	
303.15	.003316	
305.65	.003609	
308.15	.003972	
310.65	.004297	
313.15	.004695	
315.65	.005143	
318.15	.005531	
320.65	.006033	
323.15	.006548	

System: methanol + 3-chloro-N-phenylphthalimide; phases: Liquid, Crystal
Fixed: Pressure, kPa = 100
Property: Mole fraction of 3-chloro-N-phenylphthalimide (Liquid); method: Chromatography
Temperature, K	Mole fraction of 3-chloro-N-phenylphthalimide	uncertainty
288.15	.0001474	
290.65	.0001706	
293.15	.0001936	
295.65	.0002201	
298.15	.0002492	
300.65	.0002797	
303.15	.0003078	
305.65	.0003393	
308.15	.000381	
310.65	.0004278	
313.15	.0004777	
315.65	.0005328	
318.15	.0005896	
320.65	.0006561	
323.15	.0007453	

System: n-propanol + 3-chloro-N-phenylphthalimide; phases: Liquid, Crystal
Fixed: Pressure, kPa = 100
Property: Mole fraction of 3-chloro-N-phenylphthalimide (Liquid); method: Chromatography
Temperature, K	Mole fraction of 3-chloro-N-phenylphthalimide	uncertainty
288.15	.0001619	
290.65	.0001866	
293.15	.0002256	
295.65	.000266	
298.15	.0003112	
300.65	.0003529	
303.15	.0004106	
305.65	.0004678	
308.15	.0005268	
310.65	.0005929	
313.15	.0006683	
315.65	.0007471	
318.15	.0008303	
320.65	.0009171	
323.15	.001026	

System: isopropanol + 3-chloro-N-phenylphthalimide; phases: Liquid, Crystal
Fixed: Pressure, kPa = 100
Property: Mole fraction of 3-chloro-N-phenylphthalimide (Liquid); method: Chromatography
Temperature, K	Mole fraction of 3-chloro-N-phenylphthalimide	uncertainty
288.15	.00007267	
290.65	.00008362	
293.15	.00009823	
295.65	.0001114	
298.15	.0001318	
300.65	.0001515	
303.15	.0001778	
305.65	.0002076	
308.15	.0002374	
310.65	.0002682	
313.15	.0003046	
315.65	.0003445	
318.15	.0003867	
320.65	.0004448	
323.15	.0005295	

System: n-butanol + 3-chloro-N-phenylphthalimide; phases: Liquid, Crystal
Fixed: Pressure, kPa = 100
Property: Mole fraction of 3-chloro-N-phenylphthalimide (Liquid); method: Chromatography
Temperature, K	Mole fraction of 3-chloro-N-phenylphthalimide	uncertainty
288.15	.000183	
290.65	.0002042	
293.15	.000234	
295.65	.0002663	
298.15	.0003079	
300.65	.0003452	
303.15	.0003879	
305.65	.0004323	
308.15	.0004775	
310.65	.0005354	
313.15	.0005966	
315.65	.0006646	
318.15	.0007399	
320.65	.0008208	
323.15	.0009081	

System: 2-methyl-1-propanol + 3-chloro-N-phenylphthalimide; phases: Liquid, Crystal
Fixed: Pressure, kPa = 100
Property: Mole fraction of 3-chloro-N-phenylphthalimide (Liquid); method: Chromatography
Temperature, K	Mole fraction of 3-chloro-N-phenylphthalimide	uncertainty
288.15	.0001165	
290.65	.0001282	
293.15	.0001493	
295.65	.0001671	
298.15	.0001894	
300.65	.000221	
303.15	.0002579	
305.65	.0002958	
308.15	.0003406	
310.65	.0003916	
313.15	.0004566	
315.65	.0005262	
318.15	.0005994	
320.65	.000679	
323.15	.0007621	

System: ethyl acetate + 3-chloro-N-phenylphthalimide; phases: Liquid, Crystal
Fixed: Pressure, kPa = 100
Property: Mole fraction of 3-chloro-N-phenylphthalimide (Liquid); method: Chromatography
Temperature, K	Mole fraction of 3-chloro-N-phenylphthalimide	uncertainty
288.15	.002104	
290.65	.002319	
293.15	.002553	
295.65	.002836	
298.15	.003146	
300.65	.003473	
303.15	.003802	
305.65	.004124	
308.15	.004483	
310.65	.004838	
313.15	.005247	
315.65	.005679	
318.15	.006166	
320.65	.00669	
323.15	.007343	

System: acetone + 3-chloro-N-phenylphthalimide; phases: Liquid, Crystal
Fixed: Pressure, kPa = 100
Property: Mole fraction of 3-chloro-N-phenylphthalimide (Liquid); method: Chromatography
Temperature, K	Mole fraction of 3-chloro-N-phenylphthalimide	uncertainty
288.15	.002981	
290.65	.003244	
293.15	.003584	
295.65	.003919	
298.15	.004291	
300.65	.004682	
303.15	.005046	
305.65	.005509	
308.15	.005968	
310.65	.006537	
313.15	.007184	
315.65	.007793	
318.15	.008505	
320.65	.009192	
323.15	.00995	

System: 1,4-dioxane + 3-chloro-N-phenylphthalimide; phases: Liquid, Crystal
Fixed: Pressure, kPa = 100
Property: Mole fraction of 3-chloro-N-phenylphthalimide (Liquid); method: Chromatography
Temperature, K	Mole fraction of 3-chloro-N-phenylphthalimide	uncertainty
288.15	.008248	
290.65	.008978	
293.15	.009793	
295.65	.01072	
298.15	.01153	
300.65	.01249	
303.15	.01337	
305.65	.01448	
308.15	.01576	
310.65	.01711	
313.15	.01878	
315.65	.0204	
318.15	.02239	
320.65	.02425	
323.15	.02664	

System: acetic acid + 3-chloro-N-phenylphthalimide; phases: Liquid, Crystal
Fixed: Pressure, kPa = 100
Property: Mole fraction of 3-chloro-N-phenylphthalimide (Liquid); method: Chromatography
Temperature, K	Mole fraction of 3-chloro-N-phenylphthalimide	uncertainty
288.15	.0009235	
290.65	.001038	
293.15	.001164	
295.65	.001297	
298.15	.001452	
300.65	.001589	
303.15	.001745	
305.65	.00189	
308.15	.002058	
310.65	.00225	
313.15	.002485	
315.65	.002731	
318.15	.002994	
320.65	.003276	
323.15	.003638	
