Measured thermophysical data. Experimentally determined thermodynamic properties of schapbachite (a-AgBiS2) below T = 700 K
Source: J. Chem. Thermodyn., 2014, 10.1016/j.jct.2013.11.006
Compound 1: bismuth silver sulfide (Bi3AgS5), AgBi3S5, purity 97%
Compound 2: bismuth silver sulfide (BiAgS2), AgBiS2, purity 97%
Compound 3: bismuth, Bi, purity 99.99%
Compound 4: silver, Ag, purity 99.9985%
Compound 5: sulfur, S

System: bismuth silver sulfide (BiAgS2); phases: Crystal 2, Crystal 1, Air at 1 atmosphere
Property: Triple point temperature, K (Crystal 2); method: from the slopes of electrochemical cell potential
Triple point temperature, K	uncertainty
465.6	5

System: bismuth silver sulfide (BiAgS2); phases: Crystal 2, Crystal 1, Air at 1 atmosphere
Property: Molar enthalpy of transition or fusion, kJ/mol (Crystal 2); method: Electrochemical cell potential
Molar enthalpy of transition or fusion, kJ/mol	uncertainty
7.3	2.1

System: bismuth; phases: Crystal, Liquid, Air at 1 atmosphere
Property: Triple point temperature, K (Crystal); method: from the slope of electrochemical cell potential
Triple point temperature, K	uncertainty
544	4

System: bismuth; phases: Crystal, Liquid, Air at 1 atmosphere
Property: Molar enthalpy of transition or fusion, kJ/mol (Crystal); method: Electrochemical cell potential
Molar enthalpy of transition or fusion, kJ/mol	uncertainty
12.9	1.3

Reaction: -0.6 silver + 0.2 bismuth + 1 bismuth silver sulfide (BiAgS2) + -0.4 bismuth silver sulfide (Bi3AgS5)
Property: Molar Gibbs energy of reaction, kJ/mol
429	-4.79
434	-4.70
439	-4.61
444	-4.53
449	-4.44
454	-4.35
459	-4.27
464	-4.18

Reaction: -0.6 silver + 0.2 bismuth + 1 bismuth silver sulfide (BiAgS2) + -0.4 bismuth silver sulfide (Bi3AgS5)
Property: Molar Gibbs energy of reaction, kJ/mol
474	-4.13
484	-4.11
494	-4.10
504	-4.08
514	-4.07
524	-4.05
534	-4.04
544	-4.02
543	-4.02

Reaction: -0.6 silver + 0.2 bismuth + 1 bismuth silver sulfide (BiAgS2) + -0.4 bismuth silver sulfide (Bi3AgS5)
Property: Molar Gibbs energy of reaction, kJ/mol
550	-4.05
560	-4.09
570	-4.12
580	-4.16
590	-4.20
600	-4.23
610	-4.27
620	-4.31
630	-4.34
640	-4.38
650	-4.42
660	-4.46
670	-4.49
680	-4.53
690	-4.57
699	-4.60

Reaction: -1 silver + -1 bismuth + -2 sulfur + 1 bismuth silver sulfide (BiAgS2)
Property: Molar enthalpy of reaction, kJ/mol
-112.1
