Measured thermophysical data. Thermochemical properties of 4-N,N-dialkylamino-7-nitrobenzofurazan derivatives (alkyl = methyl, ethyl)
Source: J. Chem. Thermodyn., 2014, 10.1016/j.jct.2013.09.004
Compound 1: 4-N,N-dimethylamino-7-nitrobenzofurazan, C8H8N4O3
Compound 2: 4-N,N-diethylamino-7-nitrobenzofurazan, C10H12N4O3
Compound 3: carbon dioxide, CO2
Compound 4: nitrogen, N2
Compound 5: water, H2O
Compound 6: oxygen, O2

System: 4-N,N-dimethylamino-7-nitrobenzofurazan; phases: Crystal, Gas
Property: Molar enthalpy of vaporization or sublimation, kJ/mol (Crystal); method: Derived by Second law
Temperature, K	Molar enthalpy of vaporization or sublimation, kJ/mol	uncertainty
388.8	127.56	2.03
388.8	126.48	3.82
383.8	128.39	1.2
387.7	129.81	.81
395.2	135.83	5.11

System: 4-N,N-diethylamino-7-nitrobenzofurazan; phases: Crystal, Gas
Property: Molar enthalpy of vaporization or sublimation, kJ/mol (Crystal); method: Derived by Second law
Temperature, K	Molar enthalpy of vaporization or sublimation, kJ/mol	uncertainty
367.7	136.18	1.22
367.7	133.15	1.21
370.2	137.57	1.31
370.2	134.39	1.58
371.2	136.72	1

Reaction: -1 4-N,N-dimethylamino-7-nitrobenzofurazan + 8 carbon dioxide + 2 nitrogen + 4 water + -8.5 oxygen
Property: Specific internal energy of reaction at constant volume, J/g
-21444.14

Reaction: -1 4-N,N-diethylamino-7-nitrobenzofurazan + 10 carbon dioxide + 2 nitrogen + 6 water + -11.5 oxygen
Property: Specific internal energy of reaction at constant volume, J/g
-24485.36
