Measured thermophysical data. Thermochemical investigation of the (phosphonic acid + N,N-dimethylformamide) system at T = (298.15 to 328.15) K
Source: J. Chem. Thermodyn., 2016, 10.1016/j.jct.2016.03.001
Compound 1: phosphonic acid, H3O3P, purity 98.5%
Compound 2: N,N-dimethylformamide, C3H7NO, purity 99.8%

System: phosphonic acid; phases: Crystal
Fixed: Pressure, kPa = 101.325
Property: Molar heat capacity at constant pressure, J/K/mol (Crystal); method: Small sample (50 mg) scanning calorimetry
Temperature, K	Molar heat capacity at constant pressure, J/K/mol	uncertainty
243.2	48.295515009	
244.2	48.541502352	
245.2	48.623498133	
246.2	48.869485476	
247.2	49.033477038	
248.2	49.361460162	
249.2	49.689443286	
250.2	49.771439067	
251.2	50.099422191	
252.2	50.345409534	
253.2	50.591396877	
254.2	50.591396877	
255.2	50.83738422	
256.2	51.001375782	
257.2	51.083371563	
258.2	51.165367344	
259.2	51.329358906	
260.2	51.493350468	
261.2	51.903329373	
262.2	52.149316716	
263.2	52.47729984	
264.2	52.723287183	
265.2	52.969274526	
266.2	53.215261869	
267.2	53.543244993	
268.2	53.871228117	
269.2	54.199211241	
270.2	54.281207022	
271.2	54.445198584	
272.2	54.691185927	
273.2	54.855177489	
274.2	55.347152175	
275.2	55.75713108	
276.2	57.807025605	
277.2	58.462991853	
278.2	57.315050919	
279.2	56.905072014	
280.2	57.151059357	
281.2	57.315050919	
282.2	57.561038262	
283.2	57.807025605	
284.2	57.643034043	
285.2	57.643034043	
286.2	57.889021386	
287.2	58.872970758	
288.2	60.184903254	
289.2	60.020911692	
290.2	60.020911692	
291.2	60.102907473	
292.2	60.594882159	
293.2	61.086856845	
294.2	61.004861064	
295.2	61.086856845	
296.2	61.49683575	
297.2	61.578831531	
298.2	62.070806217	
299.2	62.480785122	
300.2	62.808768246	
301.2	63.382738713	
302.2	63.628726056	
303.2	64.448683866	
304.2	64.940658552	
305.2	65.350637457	
306.2	65.760616362	
307.2	66.334586829	
308.2	66.744565734	
309.2	67.400531982	
310.2	67.646519325	
311.2	68.05649823	
312.2	68.712464478	
313.2	69.368430726	
314.2	70.106392755	
315.2	70.352380098	
316.2	71.090342127	
317.2	71.664312594	
318.2	72.484270404	
319.2	73.222232433	
320.2	73.878198681	
321.2	75.026139615	
322.2	75.928093206	
323.2	77.240025702	
324.2	78.551958198	
325.2	80.437861161	
326.2	81.913785219	
327.2	83.63569662	
328.2	85.111620678	

System: N,N-dimethylformamide + phosphonic acid; phases: Liquid
Fixed: Pressure, kPa = 100
Property: Molar enthalpy of solution, kJ/mol (Liquid); method: Isoperibol calorimetry
Temperature, K	Molality, mol/kg of phosphonic acid	Molar enthalpy of solution, kJ/mol	uncertainty
298.15	.0113	-3.71	
298.15	.0192	-3.83	
298.15	.028	-3.81	
298.15	.0424	-3.78	
298.15	.0497	-3.72	
298.15	.0732	-3.87	
298.15	.107	-3.94	
298.15	.144	-4.04	
308.15	.0138	-3.38	
308.15	.0283	-3.3	
308.15	.032	-3.42	
308.15	.0445	-3.32	
308.15	.0659	-3.41	
308.15	.126	-3.39	
308.15	.198	-3.48	
308.15	.288	-3.6	
308.15	.383	-3.74	
318.15	.0084	-3.11	
318.15	.015	-3.06	
318.15	.0255	-3.15	
318.15	.0383	-3.15	
318.15	.05	-3.15	
318.15	.0767	-3.15	
318.15	.12	-3.18	
318.15	.182	-3.35	
328.15	.0105	-3.04	
328.15	.016	-2.79	
328.15	.0281	-2.87	
328.15	.0326	-2.86	
328.15	.0507	-3.06	
328.15	.058	-2.97	
328.15	.107	-3.11	
328.15	.166	-3.16	

System: N,N-dimethylformamide + phosphonic acid; phases: Liquid
Fixed: Pressure, kPa = 100
Property: Molar enthalpy of dilution, kJ/mol (Liquid); method: Isoperibol calorimetry
Temperature, K	Initial molality of solute, mol/kg	Final molality of solute, mol/kg	Molar enthalpy of dilution, kJ/mol	uncertainty
298.15	48.8	.0572	-9.72	
298.15	48.8	.136	-9.93	
298.15	48.8	.248	-10.1	
298.15	48.8	.427	-10.2	
298.15	48.8	.602	-10.3	
298.15	48.8	.807	-10.3	
298.15	45.4	.192	-9.72	
298.15	45.4	.385	-9.94	
298.15	45.4	.606	-10.2	
298.15	30.2	.149	-6.58	
298.15	30.2	.347	-6.94	
298.15	20.5	.18	-3.96	
298.15	20.5	.337	-4.1	
298.15	20.5	.498	-4.31	
298.15	20.5	.693	-4.33	
298.15	13.2	.119	-.91	
298.15	13.2	.24	-1.23	
298.15	9	.0724	.27	
298.15	9	.2	-.12	
298.15	5.64	.0385	.71	
298.15	5.64	.1	.54	
298.15	3.39	.0254	.92	
298.15	3.39	.0559	.81	
298.15	3.39	.0873	.7	
298.15	3.39	.135	.56	
308.15	48.8	.0492	-9.98	
308.15	48.8	.116	-10.2	
308.15	48.8	.197	-10.4	
308.15	48.8	.344	-10.4	
308.15	48.8	.474	-10.6	
308.15	48.8	.671	-10.7	
308.15	30.2	.34	-6.38	
308.15	30.2	.193	-6.04	
308.15	20.5	.129	-3.58	
308.15	20.5	.269	-4.03	
308.15	20.5	.425	-4.15	
308.15	20.5	.612	-4.25	
308.15	13.2	.111	-1.01	
308.15	13.2	.238	-1.28	
308.15	9	.0728	.16	
308.15	9	.173	-.08	
308.15	5.64	.0502	.74	
308.15	5.64	.11	.57	
308.15	3.39	.0343	.93	
308.15	3.39	.0588	.84	
308.15	3.39	.0959	.71	
308.15	3.39	.139	.6	
318.15	48.8	.0603	-9.84	
318.15	48.8	.125	-10.1	
318.15	48.8	.192	-10.1	
318.15	48.8	.349	-10.4	
318.15	48.8	.525	-10.5	
318.15	30.2	.172	-6.28	
318.15	30.2	.345	-6.51	
318.15	20.5	.15	-4.01	
318.15	20.5	.269	-4.2	
318.15	13.2	.094	-1.17	
318.15	13.2	.192	-1.41	
318.15	13.2	.3	-1.59	
318.15	13.2	.439	-1.65	
318.15	9	.0789	.07	
318.15	9	.167	-.13	
318.15	5.64	.0521	.73	
318.15	5.64	.11	.55	
318.15	3.39	.0306	.95	
318.15	3.39	.0632	.87	
318.15	3.39	.0966	.77	
318.15	3.39	.147	.66	
328.15	47.5	.0886	-10	
328.15	47.5	.191	-10.3	
328.15	47.5	.348	-10.4	
328.15	47.5	.526	-10.5	
328.15	47.5	.759	-10.7	
328.15	30.2	.15	-7.02	
328.15	30.2	.301	-7.07	
328.15	30.2	.466	-7.28	
328.15	30.2	.657	-7.41	
328.15	20.5	.151	-3.78	
328.15	20.5	.322	-4.18	
328.15	13.2	.0913	-1.18	
328.15	13.2	.197	-1.43	
328.15	13.2	.312	-1.58	
328.15	13.2	.463	-1.74	
328.15	9	.0818	.18	
328.15	9	.175	-.05	
328.15	5.64	.0507	.9	
328.15	5.64	.108	.73	
328.15	3.39	.0321	.96	
328.15	3.39	.0637	.96	
328.15	3.39	.105	.81	
328.15	3.39	.152	.7	
