Measured thermophysical data. Excess properties of binary mixtures containing 1-hexyl-3-methylimidazolium bis(trifluoromethylsulfonyl)imide ionic liquid and polar organic compounds
Source: J. Chem. Thermodyn., 2012, 10.1016/j.jct.2011.11.007
Compound 1: methanol, CH4O
Compound 2: ethanol, C2H6O
Compound 3: propyl alcohol, C3H8O
Compound 4: 2-propanol, C3H8O
Compound 5: acetone, C3H6O
Compound 6: ethanonitrile, C2H3N
Compound 7: dichloromethane, CH2Cl2
Compound 8: 1-hexyl-3-methylimidazolium bis[(trifluoromethyl)sulfonyl]imide, C12H19F6N3O4S2, purity 99%

System: methanol + 1-hexyl-3-methylimidazolium bis[(trifluoromethyl)sulfonyl]imide; phases: Liquid
Fixed: Pressure, kPa = 101.3
Property: Mass density, kg/m3 (Liquid); method: Vibrating tube method
Temperature, K	Mole fraction of methanol	Mass density, kg/m3	uncertainty
298.15	0	1371.94	.05
298.15	.0538	1367.72	.05
298.15	.1081	1363.15	.05
298.15	.1812	1356.24	.05
298.15	.2739	1345.89	.05
298.15	.3962	1328.34	.05
298.15	.4824	1312.07	.05
298.15	.5846	1286.24	.05
298.15	.6882	1248.05	.05
298.15	.7994	1181.33	.05
298.15	.8991	1068.53	.05
298.15	.9495	965.98	.05
298.15	.9802	871.06	.05
298.15	1	786.64	.05
313.15	0	1358.19	.05
313.15	.0538	1353.91	.05
313.15	.1081	1349.31	.05
313.15	.1812	1342.34	.05
313.15	.2739	1331.92	.05
313.15	.3962	1314.25	.05
313.15	.4824	1297.88	.05
313.15	.5846	1271.92	.05
313.15	.6882	1233.51	.05
313.15	.7994	1166.69	.05
313.15	.8991	1053.81	.05
313.15	.9495	951.33	.05
313.15	.9802	856.59	.05
313.15	1	772.39	.05

System: methanol + 1-hexyl-3-methylimidazolium bis[(trifluoromethyl)sulfonyl]imide; phases: Liquid
Fixed: Pressure, kPa = 101.3
Property: Speed of sound, m/s (Liquid); method: Sing-around technique in a fixed-path interferometer
Temperature, K	Mole fraction of methanol	Speed of sound, m/s	uncertainty
298.15	0	1227	1
298.15	.0538	1225.7	1
298.15	.1081	1224.1	1
298.15	.1812	1221.8	1
298.15	.2739	1218.3	1
298.15	.3962	1212.3	1
298.15	.4824	1206.7	1
298.15	.5846	1198	1
298.15	.6882	1185.4	1
298.15	.7994	1165.3	1
298.15	.8991	1138.3	1
298.15	.9495	1121.4	1
298.15	.9802	1111.2	1
298.15	1	1102.6	1
313.15	0	1193.2	1
313.15	.0538	1191.7	1
313.15	.1081	1190.1	1
313.15	.1812	1187.7	1
313.15	.2739	1184	1
313.15	.3962	1177.7	1
313.15	.4824	1171.9	1
313.15	.5846	1162.7	1
313.15	.6882	1149.5	1
313.15	.7994	1128.3	1
313.15	.8991	1098.8	1
313.15	.9495	1078.7	1
313.15	.9802	1065.5	1
313.15	1	1053.8	1

System: methanol + 1-hexyl-3-methylimidazolium bis[(trifluoromethyl)sulfonyl]imide; phases: Liquid
Fixed: Pressure, kPa = 101.3
Fixed: Temperature, K = 298.15
Property: Refractive index (Na D-line) (Liquid); method: Standard Abbe refractometry
Mole fraction of methanol	Refractive index (Na D-line)	uncertainty
0	1.43024	.00004
.0538	1.42948	.00004
.1081	1.42869	.00004
.1812	1.42749	.00004
.2739	1.42575	.00004
.3962	1.42303	.00004
.4824	1.42026	.00004
.5846	1.41597	.00004
.6882	1.40963	.00004
.7994	1.39797	.00004
.8991	1.37814	.00004
.9495	1.35929	.00004
.9802	1.34219	.00004
1	1.32657	.00004

System: ethanol + 1-hexyl-3-methylimidazolium bis[(trifluoromethyl)sulfonyl]imide; phases: Liquid
Fixed: Pressure, kPa = 101.3
Property: Mass density, kg/m3 (Liquid); method: Vibrating tube method
Temperature, K	Mole fraction of ethanol	Mass density, kg/m3	uncertainty
298.15	0	1371.94	.05
298.15	.0649	1364.62	.05
298.15	.0942	1361.06	.05
298.15	.1816	1349.38	.05
298.15	.2856	1332.64	.05
298.15	.3939	1310.78	.05
298.15	.4966	1284.14	.05
298.15	.5943	1250.79	.05
298.15	.6976	1201.91	.05
298.15	.8045	1125.49	.05
298.15	.847	1082.71	.05
298.15	.9017	1010.24	.05
298.15	.9482	925.13	.05
298.15	1	785.2	.05
313.15	0	1358.19	.05
313.15	.0649	1350.85	.05
313.15	.0942	1347.26	.05
313.15	.1816	1335.56	.05
313.15	.2856	1318.72	.05
313.15	.3939	1296.76	.05
313.15	.4966	1270.02	.05
313.15	.5943	1236.58	.05
313.15	.6976	1187.64	.05
313.15	.8045	1111.24	.05
313.15	.847	1068.54	.05
313.15	.9017	996.24	.05
313.15	.9482	911.43	.05
313.15	1	772.17	.05
328.15	0	1344.55	.05
328.15	.0649	1337.19	.05
328.15	.0942	1333.57	.05
328.15	.1816	1321.82	.05
328.15	.2856	1304.88	.05
328.15	.3939	1282.79	.05
328.15	.4966	1255.93	.05
328.15	.5943	1222.37	.05
328.15	.6976	1173.31	.05
328.15	.8045	1096.86	.05
328.15	.847	1054.17	.05
328.15	.9017	981.99	.05
328.15	.9482	897.41	.05
328.15	1	758.7	.05

System: ethanol + 1-hexyl-3-methylimidazolium bis[(trifluoromethyl)sulfonyl]imide; phases: Liquid
Fixed: Pressure, kPa = 101.3
Property: Speed of sound, m/s (Liquid); method: Sing-around technique in a fixed-path interferometer
Temperature, K	Mole fraction of ethanol	Speed of sound, m/s	uncertainty
298.15	0	1227	1
298.15	.0649	1224.6	1
298.15	.0942	1223.6	1
298.15	.1816	1220.3	1
298.15	.2856	1215.4	1
298.15	.3939	1209.5	1
298.15	.4966	1202.4	1
298.15	.5943	1194.2	1
298.15	.6976	1183.1	1
298.15	.8045	1168.5	1
298.15	.847	1161.8	1
298.15	.9017	1152.9	1
298.15	.9482	1147	1
298.15	1	1143.2	1
313.15	0	1193.2	1
313.15	.0649	1190.8	1
313.15	.0942	1189.6	1
313.15	.1816	1186	1
313.15	.2856	1180.9	1
313.15	.3939	1174.5	1
313.15	.4966	1167	1
313.15	.5943	1158	1
313.15	.6976	1145.8	1
313.15	.8045	1129.2	1
313.15	.847	1121.5	1
313.15	.9017	1110.6	1
313.15	.9482	1101.5	1
313.15	1	1092.8	1
328.15	0	1160.6	1
328.15	.0649	1158.1	1
328.15	.0942	1156.8	1
328.15	.1816	1152.8	1
328.15	.2856	1147.3	1
328.15	.3939	1140.3	1
328.15	.4966	1132.2	1
328.15	.5943	1122.5	1
328.15	.6976	1109.1	1
328.15	.8045	1090.6	1
328.15	.847	1081.7	1
328.15	.9017	1068.7	1
328.15	.9482	1056.8	1
328.15	1	1042.8	1

System: ethanol + 1-hexyl-3-methylimidazolium bis[(trifluoromethyl)sulfonyl]imide; phases: Liquid
Fixed: Pressure, kPa = 101.3
Fixed: Temperature, K = 298.15
Property: Refractive index (Na D-line) (Liquid); method: Standard Abbe refractometry
Mole fraction of ethanol	Refractive index (Na D-line)	uncertainty
0	1.43024	.00004
.0649	1.42937	.00004
.0942	1.42894	.00004
.1816	1.42756	.00004
.2856	1.42553	.00004
.3939	1.42297	.00004
.4966	1.41983	.00004
.5943	1.41595	.00004
.6976	1.41018	.00004
.8045	1.40127	.00004
.847	1.39616	.00004
.9017	1.38762	.00004
.9482	1.37722	.00004
1	1.35929	.00004

System: propyl alcohol + 1-hexyl-3-methylimidazolium bis[(trifluoromethyl)sulfonyl]imide; phases: Liquid
Fixed: Pressure, kPa = 101.3
Property: Mass density, kg/m3 (Liquid); method: Vibrating tube method
Temperature, K	Mole fraction of propyl alcohol	Mass density, kg/m3	uncertainty
298.15	0	1371.94	.05
298.15	.0406	1366.28	.05
298.15	.1017	1357.09	.05
298.15	.1756	1344.84	.05
298.15	.2693	1326.77	.05
298.15	.3963	1296.42	.05
298.15	.4944	1266.5	.05
298.15	.608	1221.47	.05
298.15	.7013	1171.64	.05
298.15	.8	1098.39	.05
298.15	.8986	989.02	.05
298.15	.9422	920.79	.05
298.15	1	799.6	.05
313.15	0	1358.19	.05
313.15	.0406	1352.52	.05
313.15	.1017	1343.29	.05
313.15	.1756	1331	.05
313.15	.2693	1312.91	.05
313.15	.3963	1282.5	.05
313.15	.4944	1252.53	.05
313.15	.608	1207.47	.05
313.15	.7013	1157.69	.05
313.15	.8	1084.64	.05
313.15	.8986	975.71	.05
313.15	.9422	907.86	.05
313.15	1	787.4	.05
328.15	0	1344.55	.05
328.15	.0406	1338.87	.05
328.15	.1017	1329.62	.05
328.15	.1756	1317.31	.05
328.15	.2693	1299.14	.05
328.15	.3963	1268.64	.05
328.15	.4944	1238.6	.05
328.15	.608	1193.46	.05
328.15	.7013	1143.86	.05
328.15	.8	1070.73	.05
328.15	.8986	962.13	.05
328.15	.9422	894.59	.05
328.15	1	774.75	.05

System: propyl alcohol + 1-hexyl-3-methylimidazolium bis[(trifluoromethyl)sulfonyl]imide; phases: Liquid
Fixed: Pressure, kPa = 101.3
Property: Speed of sound, m/s (Liquid); method: Sing-around technique in a fixed-path interferometer
Temperature, K	Mole fraction of propyl alcohol	Speed of sound, m/s	uncertainty
298.15	0	1227	1
298.15	.0406	1225.8	1
298.15	.1017	1223.9	1
298.15	.1756	1221.4	1
298.15	.2693	1217.9	1
298.15	.3963	1212.4	1
298.15	.4944	1207.6	1
298.15	.608	1201	1
298.15	.7013	1194.8	1
298.15	.8	1188.3	1
298.15	.8986	1186.8	1
298.15	.9422	1190.4	1
298.15	1	1206.1	1
313.15	0	1193.2	1
313.15	.0406	1191.8	1
313.15	.1017	1189.7	1
313.15	.1756	1187	1
313.15	.2693	1183.1	1
313.15	.3963	1176.9	1
313.15	.4944	1171.3	1
313.15	.608	1163.7	1
313.15	.7013	1156.4	1
313.15	.8	1148.3	1
313.15	.8986	1143.4	1
313.15	.9422	1144.8	1
313.15	1	1155	1
328.15	0	1160.6	1
328.15	.0406	1159.1	1
328.15	.1017	1156.8	1
328.15	.1756	1153.7	1
328.15	.2693	1149.4	1
328.15	.3963	1142.4	1
328.15	.4944	1136.1	1
328.15	.608	1127.4	1
328.15	.7013	1118.9	1
328.15	.8	1108.9	1
328.15	.8986	1100.6	1
328.15	.9422	1099.7	1
328.15	1	1104.7	1

System: propyl alcohol + 1-hexyl-3-methylimidazolium bis[(trifluoromethyl)sulfonyl]imide; phases: Liquid
Fixed: Pressure, kPa = 101.3
Fixed: Temperature, K = 298.15
Property: Refractive index (Na D-line) (Liquid); method: Standard Abbe refractometry
Mole fraction of propyl alcohol	Refractive index (Na D-line)	uncertainty
0	1.43024	.00004
.0406	1.42974	.00004
.1017	1.42894	.00004
.1756	1.42794	.00004
.2693	1.4265	.00004
.3963	1.424	.00004
.4944	1.42156	.00004
.608	1.41794	.00004
.7013	1.41398	.00004
.8	1.40802	.00004
.8986	1.3992	.00004
.9422	1.39333	.00004
1	1.38307	.00004

System: 2-propanol + 1-hexyl-3-methylimidazolium bis[(trifluoromethyl)sulfonyl]imide; phases: Liquid
Fixed: Pressure, kPa = 101.3
Property: Mass density, kg/m3 (Liquid); method: Vibrating tube method
Temperature, K	Mole fraction of 2-propanol	Mass density, kg/m3	uncertainty
298.15	0	1371.94	.05
298.15	.0621	1362.64	.05
298.15	.0926	1357.81	.05
298.15	.1725	1343.92	.05
298.15	.2926	1319.12	.05
298.15	.38	1297.05	.05
298.15	.5107	1255.39	.05
298.15	.6078	1214.28	.05
298.15	.7028	1161.62	.05
298.15	.8064	1080.98	.05
298.15	.9052	964.81	.05
298.15	.9473	895.54	.05
298.15	1	780.88	.05
313.15	0	1358.19	.05
313.15	.0621	1348.89	.05
313.15	.0926	1344.02	.05
313.15	.1725	1330.13	.05
313.15	.2926	1305.21	.05
313.15	.38	1283.07	.05
313.15	.5107	1241.28	.05
313.15	.6078	1200.07	.05
313.15	.7028	1147.38	.05
313.15	.8064	1066.83	.05
313.15	.9052	950.97	.05
313.15	.9473	881.99	.05
313.15	1	767.86	.05
328.15	0	1344.55	.05
328.15	.0621	1335.23	.05
328.15	.0926	1330.35	.05
328.15	.1725	1316.41	.05
328.15	.2926	1291.39	.05
328.15	.38	1269.16	.05
328.15	.5107	1227.19	.05
328.15	.6078	1185.84	.05
328.15	.7028	1133.04	.05
328.15	.8064	1052.4	.05
328.15	.9052	936.67	.05
328.15	.9473	867.82	.05
328.15	1	753.94	.05

System: 2-propanol + 1-hexyl-3-methylimidazolium bis[(trifluoromethyl)sulfonyl]imide; phases: Liquid
Fixed: Pressure, kPa = 101.3
Property: Speed of sound, m/s (Liquid); method: Sing-around technique in a fixed-path interferometer
Temperature, K	Mole fraction of 2-propanol	Speed of sound, m/s	uncertainty
298.15	0	1227	1
298.15	.0621	1224	1
298.15	.0926	1222.4	1
298.15	.1725	1218.4	1
298.15	.2926	1211.3	1
298.15	.38	1205.2	1
298.15	.5107	1194.6	1
298.15	.6078	1185	1
298.15	.7028	1173.3	1
298.15	.8064	1157.8	1
298.15	.9052	1142.6	1
298.15	.9473	1138.6	1
298.15	1	1138.7	1
313.15	0	1193.2	1
313.15	.0621	1190.1	1
313.15	.0926	1188.5	1
313.15	.1725	1183.9	1
313.15	.2926	1176.2	1
313.15	.38	1169.7	1
313.15	.5107	1158	1
313.15	.6078	1147.3	1
313.15	.7028	1134.4	1
313.15	.8064	1116.9	1
313.15	.9052	1098	1
313.15	.9473	1091.3	1
313.15	1	1086.2	1
328.15	0	1160.6	1
328.15	.0621	1157.3	1
328.15	.0926	1157.7	1
328.15	.1725	1150.7	1
328.15	.2926	1142.3	1
328.15	.38	1135.1	1
328.15	.5107	1122.3	1
328.15	.6078	1110.3	1
328.15	.7028	1096.4	1
328.15	.8064	1076.2	1
328.15	.9052	1053.2	1
328.15	.9473	1043.7	1
328.15	1	1032.6	1

System: 2-propanol + 1-hexyl-3-methylimidazolium bis[(trifluoromethyl)sulfonyl]imide; phases: Liquid
Fixed: Pressure, kPa = 101.3
Fixed: Temperature, K = 298.15
Property: Refractive index (Na D-line) (Liquid); method: Standard Abbe refractometry
Mole fraction of 2-propanol	Refractive index (Na D-line)	uncertainty
0	1.43024	.00004
.0621	1.42933	.00004
.0926	1.42886	.00004
.1725	1.42757	.00004
.2926	1.42528	.00004
.38	1.42325	.00004
.5107	1.41949	.00004
.6078	1.41581	.00004
.7028	1.41109	.00004
.8064	1.40378	.00004
.9052	1.39307	.00004
.9473	1.3865	.00004
1	1.37506	.00004

System: acetone + 1-hexyl-3-methylimidazolium bis[(trifluoromethyl)sulfonyl]imide; phases: Liquid
Fixed: Pressure, kPa = 101.3
Property: Mass density, kg/m3 (Liquid); method: Vibrating tube method
Temperature, K	Mole fraction of acetone	Mass density, kg/m3	uncertainty
288.15	0	1381.11	.05
288.15	.0517	1375.53	.05
288.15	.1039	1368.89	.05
288.15	.1657	1360.76	.05
288.15	.2655	1345.14	.05
288.15	.3641	1325.68	.05
288.15	.4927	1293.33	.05
288.15	.5924	1258.72	.05
288.15	.6842	1216.13	.05
288.15	.8083	1127.34	.05
288.15	.8954	1025.14	.05
288.15	.9472	933.78	.05
288.15	1	795.67	.05
293.15	0	1376.48	.05
293.15	.0517	1370.87	.05
293.15	.1039	1364.22	.05
293.15	.1657	1356.05	.05
293.15	.2655	1340.41	.05
293.15	.3641	1320.92	.05
293.15	.4927	1288.5	.05
293.15	.5924	1253.82	.05
293.15	.6842	1211.14	.05
293.15	.8083	1122.19	.05
293.15	.8954	1019.83	.05
293.15	.9472	928.33	.05
293.15	1	790	.05
298.15	0	1371.94	.05
298.15	.0517	1366.21	.05
298.15	.1039	1359.57	.05
298.15	.1657	1351.36	.05
298.15	.2655	1335.67	.05
298.15	.3641	1316.18	.05
298.15	.4927	1283.69	.05
298.15	.5924	1248.93	.05
298.15	.6842	1206.17	.05
298.15	.8083	1117.05	.05
298.15	.8954	1014.5	.05
298.15	.9472	922.85	.05
298.15	1	784.29	.05

System: acetone + 1-hexyl-3-methylimidazolium bis[(trifluoromethyl)sulfonyl]imide; phases: Liquid
Fixed: Pressure, kPa = 101.3
Property: Speed of sound, m/s (Liquid); method: Sing-around technique in a fixed-path interferometer
Temperature, K	Mole fraction of acetone	Speed of sound, m/s	uncertainty
288.15	0	1250.5	1
288.15	.0517	1249.1	1
288.15	.1039	1247.4	1
288.15	.1657	1245.6	1
288.15	.2655	1242.1	1
288.15	.3641	1238.3	1
288.15	.4927	1232.9	1
288.15	.5924	1227.9	1
288.15	.6842	1222.6	1
288.15	.8083	1214.2	1
288.15	.8954	1207.9	1
288.15	.9472	1205.7	1
288.15	1	1206.5	1
293.15	0	1238.7	1
293.15	.0517	1237.1	1
293.15	.1039	1235.4	1
293.15	.1657	1233.4	1
293.15	.2655	1229.8	1
293.15	.3641	1225.7	1
293.15	.4927	1219.8	1
293.15	.5924	1214.2	1
293.15	.6842	1208.2	1
293.15	.8083	1198.4	1
293.15	.8954	1190.2	1
293.15	.9472	1186.2	1
293.15	1	1184.1	1
298.15	0	1227	1
298.15	.0517	1225.5	1
298.15	.1039	1223.7	1
298.15	.1657	1221.5	1
298.15	.2655	1217.7	1
298.15	.3641	1213.3	1
298.15	.4927	1206.9	1
298.15	.5924	1200.8	1
298.15	.6842	1194.1	1
298.15	.8083	1182.6	1
298.15	.8954	1172.7	1
298.15	.9472	1166.9	1
298.15	1	1161.6	1

System: acetone + 1-hexyl-3-methylimidazolium bis[(trifluoromethyl)sulfonyl]imide; phases: Liquid
Fixed: Pressure, kPa = 101.3
Fixed: Temperature, K = 298.15
Property: Refractive index (Na D-line) (Liquid); method: Standard Abbe refractometry
Mole fraction of acetone	Refractive index (Na D-line)	uncertainty
0	1.43024	.00004
.0517	1.42964	.00004
.1039	1.42887	.00004
.1657	1.42801	.00004
.2655	1.42645	.00004
.3641	1.42415	.00004
.4927	1.42082	.00004
.5924	1.41676	.00004
.6842	1.41197	.00004
.8083	1.40143	.00004
.8954	1.38904	.00004
.9472	1.37677	.00004
1	1.35602	.00004

System: ethanonitrile + 1-hexyl-3-methylimidazolium bis[(trifluoromethyl)sulfonyl]imide; phases: Liquid
Fixed: Pressure, kPa = 101.3
Property: Mass density, kg/m3 (Liquid); method: Vibrating tube method
Temperature, K	Mole fraction of ethanonitrile	Mass density, kg/m3	uncertainty
298.15	0	1371.94	.05
298.15	.0753	1364.43	.05
298.15	.0943	1362.32	.05
298.15	.1999	1349.86	.05
298.15	.2894	1336.94	.05
298.15	.3915	1318.57	.05
298.15	.4968	1293.71	.05
298.15	.6009	1260.18	.05
298.15	.6954	1217.05	.05
298.15	.8126	1133.12	.05
298.15	.8979	1028.25	.05
298.15	.9493	928.7	.05
298.15	1	776.62	.05
313.15	0	1358.19	.05
313.15	.0753	1350.63	.05
313.15	.0943	1348.57	.05
313.15	.1999	1335.97	.05
313.15	.2894	1322.93	.05
313.15	.3915	1304.45	.05
313.15	.4968	1279.29	.05
313.15	.6009	1245.51	.05
313.15	.6954	1202.1	.05
313.15	.8126	1117.66	.05
313.15	.8979	1012.31	.05
313.15	.9493	912.45	.05
313.15	1	760.24	.05
328.15	0	1344.55	.05
328.15	.0753	1336.93	.05
328.15	.0943	1334.88	.05
328.15	.1999	1322.16	.05
328.15	.2894	1308.98	.05
328.15	.3915	1290.34	.05
328.15	.4968	1264.96	.05
328.15	.6009	1230.91	.05
328.15	.6954	1187.18	.05
328.15	.8126	1102.17	.05
328.15	.8979	996.25	.05
328.15	.9493	896.01	.05
328.15	1	743.54	.05
328.15	1	758.7	.05

System: ethanonitrile + 1-hexyl-3-methylimidazolium bis[(trifluoromethyl)sulfonyl]imide; phases: Liquid
Fixed: Pressure, kPa = 101.3
Property: Speed of sound, m/s (Liquid); method: Sing-around technique in a fixed-path interferometer
Temperature, K	Mole fraction of ethanonitrile	Speed of sound, m/s	uncertainty
298.15	0	1227	1
298.15	.0753	1226.6	1
298.15	.0943	1226.6	1
298.15	.1999	1226.4	1
298.15	.2894	1225.9	1
298.15	.3915	1225.5	1
298.15	.4968	1225.1	1
298.15	.6009	1224.6	1
298.15	.6954	1224.1	1
298.15	.8126	1225	1
298.15	.8979	1231.6	1
298.15	.9493	1244.4	1
298.15	1	1278.9	1
313.15	0	1193.2	1
313.15	.0753	1192.6	1
313.15	.0943	1192.4	1
313.15	.1999	1191.5	1
313.15	.2894	1190.5	1
313.15	.3915	1189.3	1
313.15	.4968	1187.6	1
313.15	.6009	1185.6	1
313.15	.6954	1183.2	1
313.15	.8126	1180.5	1
313.15	.8979	1182.6	1
313.15	.9493	1190.9	1
313.15	1	1218.2	1
328.15	0	1160.6	1
328.15	.0753	1159.7	1
328.15	.0943	1159.5	1
328.15	.1999	1157.9	1
328.15	.2894	1156.3	1
328.15	.3915	1154.2	1
328.15	.4968	1151.3	1
328.15	.6009	1147.6	1
328.15	.6954	1143.3	1
328.15	.8126	1136.9	1
328.15	.8979	1134.3	1
328.15	.9493	1138.1	1
328.15	1	1157.7	1

System: ethanonitrile + 1-hexyl-3-methylimidazolium bis[(trifluoromethyl)sulfonyl]imide; phases: Liquid
Fixed: Pressure, kPa = 101.3
Fixed: Temperature, K = 298.15
Property: Refractive index (Na D-line) (Liquid); method: Standard Abbe refractometry
Mole fraction of ethanonitrile	Refractive index (Na D-line)	uncertainty
0	1.43024	.00004
.0753	1.42919	.00004
.0943	1.42892	.00004
.1999	1.42722	.00004
.2894	1.42545	.00004
.3915	1.42287	.00004
.4968	1.4195	.00004
.6009	1.41473	.00004
.6954	1.40875	.00004
.8126	1.39665	.00004
.8979	1.38088	.00004
.9493	1.36582	.00004
1	1.34149	.00004

System: dichloromethane + 1-hexyl-3-methylimidazolium bis[(trifluoromethyl)sulfonyl]imide; phases: Liquid
Fixed: Pressure, kPa = 101.3
Property: Mass density, kg/m3 (Liquid); method: Vibrating tube method
Temperature, K	Mole fraction of dichloromethane	Mass density, kg/m3	uncertainty
288.15	0	1381.11	.05
288.15	.0301	1381.02	.05
288.15	.1024	1380.49	.05
288.15	.1412	1380.18	.05
288.15	.2765	1378.89	.05
288.15	.3243	1378.41	.05
288.15	.4846	1376.07	.05
288.15	.536	1375.07	.05
288.15	.694	1370.62	.05
288.15	.7854	1366.38	.05
288.15	.8916	1357.62	.05
288.15	.943	1350.12	.05
288.15	1	1334.82	.05
293.15	0	1376.48	.05
293.15	.0301	1376.36	.05
293.15	.1024	1375.78	.05
293.15	.1412	1375.45	.05
293.15	.2765	1374.06	.05
293.15	.3243	1373.53	.05
293.15	.4846	1370.94	.05
293.15	.536	1369.85	.05
293.15	.694	1364.97	.05
293.15	.7854	1360.29	.05
293.15	.8916	1350.64	.05
293.15	.943	1342.38	.05
293.15	1	1325.68	.05
298.15	0	1371.94	.05
298.15	.0301	1371.7	.05
298.15	.1024	1371.08	.05
298.15	.1412	1370.73	.05
298.15	.2765	1369.23	.05
298.15	.3243	1368.65	.05
298.15	.4846	1365.82	.05
298.15	.536	1364.64	.05
298.15	.694	1359.3	.05
298.15	.7854	1354.19	.05
298.15	.8916	1343.63	.05
298.15	.943	1334.61	.05
298.15	1	1316.48	.05

System: dichloromethane + 1-hexyl-3-methylimidazolium bis[(trifluoromethyl)sulfonyl]imide; phases: Liquid
Fixed: Pressure, kPa = 101.3
Property: Speed of sound, m/s (Liquid); method: Sing-around technique in a fixed-path interferometer
Temperature, K	Mole fraction of dichloromethane	Speed of sound, m/s	uncertainty
288.15	0	1250.5	1
288.15	.0301	1249.3	1
288.15	.1024	1245.9	1
288.15	.1412	1243.8	1
288.15	.2765	1235.7	1
288.15	.3243	1232.9	1
288.15	.4846	1219.2	1
288.15	.536	1213.6	1
288.15	.694	1191	1
288.15	.7854	1171.9	1
288.15	.8916	1142	1
288.15	.943	1125.3	1
288.15	1	1111.3	1
293.15	0	1238.7	1
293.15	.0301	1237.4	1
293.15	.1024	1233.9	1
293.15	.1412	1231.8	1
293.15	.2765	1223.7	1
293.15	.3243	1220.5	1
293.15	.4846	1206.1	1
293.15	.536	1200.4	1
293.15	.694	1176.6	1
293.15	.7854	1156.5	1
293.15	.8916	1125.1	1
293.15	.943	1107.2	1
293.15	1	1091.7	1
298.15	0	1227	1
298.15	.0301	1225.9	1
298.15	.1024	1222	1
298.15	.1412	1219.9	1
298.15	.2765	1211.5	1
298.15	.3243	1208.2	1
298.15	.4846	1193.4	1
298.15	.536	1187.3	1
298.15	.694	1162.6	1
298.15	.7854	1141.4	1
298.15	.8916	1108.3	1
298.15	.943	1089.2	1
298.15	1	1072.2	1

System: dichloromethane + 1-hexyl-3-methylimidazolium bis[(trifluoromethyl)sulfonyl]imide; phases: Liquid
Fixed: Pressure, kPa = 101.3
Fixed: Temperature, K = 298.15
Property: Refractive index (Na D-line) (Liquid); method: Standard Abbe refractometry
Mole fraction of dichloromethane	Refractive index (Na D-line)	uncertainty
0	1.43024	.00004
.0301	1.4302	.00004
.1024	1.43014	.00004
.1412	1.43011	.00004
.2765	1.42998	.00004
.3243	1.4299	.00004
.4846	1.42961	.00004
.536	1.42948	.00004
.694	1.42886	.00004
.7854	1.42827	.00004
.8916	1.42664	.00004
.943	1.42489	.00004
1	1.42103	.00004
