Measured thermophysical data. Characterisation of a microwave re-entrant cavity resonator for phase-equilibrium measurements and new dew-point data for a (0.25 argon + 0.75 carbon dioxide) mixture
Source: J. Chem. Thermodyn., 2016, 10.1016/j.jct.2016.06.005
Compound 1: carbon dioxide, CO2, purity 99.9995%
Compound 2: argon, Ar, purity 99.9990%

System: carbon dioxide + argon; phases: Gas, Liquid
Fixed: Mole fraction of argon = .2501
Property: Vapor or sublimation pressure, kPa (Gas); method: Closed cell (Static) method
Temperature, K	Vapor or sublimation pressure, kPa	uncertainty
280.338	6915.7	
280.444	6944.8	
279.123	6626.2	
278.028	6377.2	
277.565	6281.5	
276.574	6075.8	
272.895	5387.1	
270.027	4913.3	
269.787	4875.7	
266.866	4441.7	
263.418	3979	
260.973	3677.9	
257.8	3320.3	
252.953	2832	
