Measured thermophysical data. Ionic molar volumes in methanol mixtures with acetonitrile, N,N-dimethylformamide and propylene carbonate at T = 298.15 K
Source: J. Chem. Thermodyn., 2014, 10.1016/j.jct.2014.02.021
Compound 1: methanol, CH4O, purity 99%
Compound 2: acetonitrile, C2H3N, purity 99.9%
Compound 3: propylene carbonate, C4H6O3, purity 99.7%
Compound 4: N,N-dimethylformamide, C3H7NO, purity 99.8%
Compound 5: sodium iodide, INa, purity 99.5%
Compound 6: sodium tetraphenylboron, C24H20BNa, purity 99.5%
Compound 7: tetraphenylphosphonium iodide, C24H20IP, purity 99%

System: methanol; phases: Liquid
Property: Mass density, kg/m3 (Liquid); method: Vibrating tube method
Pressure, kPa	Temperature, K	Mass density, kg/m3	uncertainty
101	298.15	786.58	.5

System: acetonitrile; phases: Liquid
Property: Mass density, kg/m3 (Liquid); method: Vibrating tube method
Pressure, kPa	Temperature, K	Mass density, kg/m3	uncertainty
101	298.15	776.615	.5

System: propylene carbonate; phases: Liquid
Property: Mass density, kg/m3 (Liquid); method: Vibrating tube method
Temperature, K	Pressure, kPa	Mass density, kg/m3	uncertainty
298.15	101	1199.488	.5

System: N,N-dimethylformamide; phases: Liquid
Property: Mass density, kg/m3 (Liquid); method: Vibrating tube method
Temperature, K	Pressure, kPa	Mass density, kg/m3	uncertainty
298.15	101	943.974	.5

System: methanol + acetonitrile; phases: Liquid
Fixed: Pressure, kPa = 101
Fixed: Temperature, K = 298.15
Property: Mass density, kg/m3 (Liquid); method: Vibrating tube method
Mole fraction of acetonitrile	Mass density, kg/m3	uncertainty
0	786.58	.5
.0992	787.14	.5
.197	786.692	.5
.4002	784.701	.5
.4653	784.25	.5
.5041	783.427	.5
.6056	781.935	.5
.8012	779.292	.5
.9007	777.825	.5
.9382	777.385	.5
1	776.615	.5
.1002	787.104	.5
.1984	786.63	.5
.4013	784.644	.5
.465	784.22	.5
.5047	783.356	.5
.601	782.103	.5
.8067	779.242	.5
.9049	777.896	.5
.9376	777.347	.5
.1075	787.149	.5
.2008	786.647	.5
.4004	784.66	.5
.4653	784.25	.5
.5042	783.347	.5
.601	782.009	.5
.7992	779.248	.5
.9044	777.935	.5
.9358	777.391	.5

System: methanol + N,N-dimethylformamide; phases: Liquid
Fixed: Temperature, K = 298.15
Fixed: Pressure, kPa = 101
Property: Mass density, kg/m3 (Liquid); method: Vibrating tube method
Mole fraction of N,N-dimethylformamide	Mass density, kg/m3	uncertainty
0	786.58	.5
.0496	803.451	.5
.0991	818.484	.5
.1981	843.566	.5
.4022	881.976	.5
.4986	896.174	.5
.5982	909.277	.5
.8028	928.308	.5
.8997	936.786	.5
1	943.974	.5
.0502	803.39	.5
.1084	818.189	.5
.1988	843.761	.5
.4022	882.138	.5
.5013	896.278	.5
.6008	908.588	.5
.8054	928.317	.5
.9039	936.718	.5
.0511	803.056	.5
.1021	818.46	.5
.2004	843	.5
.4054	881.38	.5
.5002	894.978	.5
.6031	909.254	.5
.7998	928.355	.5
.9033	936.655	.5

System: methanol + propylene carbonate; phases: Liquid
Fixed: Temperature, K = 298.15
Fixed: Pressure, kPa = 101
Property: Mass density, kg/m3 (Liquid); method: Vibrating tube method
Mole fraction of propylene carbonate	Mass density, kg/m3	uncertainty
0	786.58	.5
.051	829.62	.5
.0999	869.111	.5
.2001	939.29	.5
.4001	1037.343	.5
.4998	1069.62	.5
.598	1103.429	.5
.7939	1159.25	.5
.9	1179.23	.5
1	1199.488	.5
.0497	828.25	.5
.0991	870.05	.5
.1972	932.83	.5
.3998	1021.45	10
.505	1072.84	.5
.6049	1103.9	.5
.8009	1158.72	.5
.9011	1179.68	.5
.0484	828.25	.5
.0987	871.34	.5
.1991	936.46	.5
.3942	1035.57	.5
.5022	1072.85	.5
.6017	1106.39	.5
.7979	1159.25	.5
.9031	1179.23	.5

System: methanol + acetonitrile + sodium iodide; phases: Liquid
Fixed: Pressure, kPa = 101
Fixed: Temperature, K = 298.15
Fixed: Molality, mol/kg of sodium iodide = .06
Property: Apparent molar volume, m3/mol (Liquid); method: Calculated with densities of this investigation
Solvent: Mole fraction of acetonitrile	Apparent molar volume, m3/mol	uncertainty
0	.00001335	.0000005
.0992	.00001363	.0000005
.197	.0000136	.0000005
.4002	.00001412	.0000005
.4653	.00001436	.0000005
.5041	.00001383	.0000005
.6056	.00001371	.0000005
.8012	.00001216	.0000005
.9007	.00001129	.0000005
.9382	.00001108	.0000005
1	.00000878	.0000005

System: methanol + acetonitrile + sodium tetraphenylboron; phases: Liquid
Fixed: Pressure, kPa = 101
Fixed: Temperature, K = 298.15
Fixed: Molality, mol/kg of sodium tetraphenylboron = .06
Property: Apparent molar volume, m3/mol (Liquid); method: Calculated with densities of this investigation
Solvent: Mole fraction of acetonitrile	Apparent molar volume, m3/mol	uncertainty
0	.00024521	.0000005
.1002	.00025219	.0000005
.1984	.00025491	.0000005
.4013	.00025787	.0000005
.465	.00026055	.0000005
.5047	.00026121	.0000005
.601	.0002618	.0000005
.8067	.00026107	.0000005
.9049	.0002605	.0000005
.9376	.00026044	.0000005
1	.0002592	.0000005

System: methanol + acetonitrile + tetraphenylphosphonium iodide; phases: Liquid
Fixed: Pressure, kPa = 101
Fixed: Temperature, K = 298.15
Fixed: Molality, mol/kg of tetraphenylphosphonium iodide = .06
Property: Apparent molar volume, m3/mol (Liquid); method: Calculated with densities of this investigation
Solvent: Mole fraction of acetonitrile	Apparent molar volume, m3/mol	uncertainty
0	.00029576	.0000005
.1075	.00030025	.0000005
.2008	.00030151	.0000005
.4004	.00030381	.0000005
.4653	.00030496	.0000005
.5042	.00030539	.0000005
.601	.00030588	.0000005
.7992	.00030424	.0000005
.9044	.00030404	.0000005
.9358	.00030281	.0000005
1	.00030053	.0000005

System: methanol + N,N-dimethylformamide + sodium iodide; phases: Liquid
Fixed: Pressure, kPa = 101
Fixed: Temperature, K = 298.15
Fixed: Molality, mol/kg of sodium iodide = .06
Property: Apparent molar volume, m3/mol (Liquid); method: Calculated with densities of this investigation
Solvent: Mole fraction of N,N-dimethylformamide	Apparent molar volume, m3/mol	uncertainty
0	.00001335	.0000005
.0496	.00001351	.0000005
.0991	.00001838	.0000005
.1981	.00002086	.0000005
.4022	.0000222	.0000005
.4986	.00002432	.0000005
.5982	.0000234	.0000005
.8028	.00002233	.0000005
.8997	.00002333	.0000005
1	.00002365	.0000005

System: methanol + N,N-dimethylformamide + sodium tetraphenylboron; phases: Liquid
Fixed: Pressure, kPa = 101
Fixed: Temperature, K = 298.15
Fixed: Molality, mol/kg of sodium tetraphenylboron = .06
Property: Apparent molar volume, m3/mol (Liquid); method: Calculated with densities of this investigation
Solvent: Mole fraction of N,N-dimethylformamide	Apparent molar volume, m3/mol	uncertainty
0	.00024521	.0000005
.0502	.0002513	.0000005
.1084	.00025766	.0000005
.1988	.00026869	.0000005
.4022	.00027886	.0000005
.5013	.00028092	.0000005
.6008	.00028083	.0000005
.8054	.00027907	.0000005
.9039	.00027849	.0000005
1	.0002796	.0000005

System: methanol + N,N-dimethylformamide + tetraphenylphosphonium iodide; phases: Liquid
Fixed: Pressure, kPa = 101
Fixed: Temperature, K = 298.15
Fixed: Molality, mol/kg of tetraphenylphosphonium iodide = .06
Property: Apparent molar volume, m3/mol (Liquid); method: Calculated with densities of this investigation
Solvent: Mole fraction of N,N-dimethylformamide	Apparent molar volume, m3/mol	uncertainty
0	.00029576	.0000005
.0511	.0002972	.0000005
.1021	.0003024	.0000005
.2004	.00031	.0000005
.4054	.00031128	.0000005
.5002	.00031253	.0000005
.6031	.00031364	.0000005
.7998	.0003104	.0000005
.9033	.00030992	.0000005
1	.00030792	.0000005

System: methanol + propylene carbonate + sodium iodide; phases: Liquid
Fixed: Pressure, kPa = 101
Fixed: Temperature, K = 298.15
Fixed: Molality, mol/kg of sodium iodide = .06
Property: Apparent molar volume, m3/mol (Liquid); method: Calculated with densities of this investigation
Solvent: Mole fraction of propylene carbonate	Apparent molar volume, m3/mol	uncertainty
0	.00001335	.0000005
.051	.0000196	.0000005
.0999	.00002467	.0000005
.2001	.00002836	.0000005
.4001	.00003037	.0000005
.4998	.00003197	.0000005
.598	.00003243	.0000005
.7939	.00003189	.0000005
.9	.00003211	.0000005
1	.00003276	.0000005

System: methanol + propylene carbonate + sodium tetraphenylboron; phases: Liquid
Fixed: Pressure, kPa = 101
Fixed: Temperature, K = 298.15
Fixed: Molality, mol/kg of sodium tetraphenylboron = .06
Property: Apparent molar volume, m3/mol (Liquid); method: Calculated with densities of this investigation
Solvent: Mole fraction of propylene carbonate	Apparent molar volume, m3/mol	uncertainty
0	.00024521	.0000005
.0497	.00025118	.0000005
.0991	.00025676	.0000005
.1972	.00026262	.0000005
.3998	.0002756	.0000005
.505	.00028051	.0000005
.6049	.00028221	.0000005
.8009	.00028242	.0000005
.9011	.00028279	.0000005
1	.0002826	.0000005

System: methanol + propylene carbonate + tetraphenylphosphonium iodide; phases: Liquid
Fixed: Pressure, kPa = 101
Fixed: Temperature, K = 298.15
Fixed: Molality, mol/kg of tetraphenylphosphonium iodide = .06
Property: Apparent molar volume, m3/mol (Liquid); method: Calculated with densities of this investigation
Solvent: Mole fraction of propylene carbonate	Apparent molar volume, m3/mol	uncertainty
0	.00029576	.0000005
.0484	.00029634	.0000005
.0987	.00029801	.0000005
.1991	.00030462	.0000005
.3942	.00031466	.0000005
.5022	.00031951	.0000005
.6017	.00032104	.0000005
.7979	.00032554	.0000005
.9031	.00032434	.0000005
1	.00032355	.0000005

System: methanol + sodium iodide; phases: Liquid
Property: Apparent molar volume, m3/mol (Liquid); method: Calculated with densities of this investigation
Pressure, kPa	Temperature, K	Molality, mol/kg of sodium iodide	Apparent molar volume, m3/mol	uncertainty
101	298.15	.06	.00001335	.0000005

System: acetonitrile + sodium iodide; phases: Liquid
Property: Apparent molar volume, m3/mol (Liquid); method: Calculated with densities of this investigation
Pressure, kPa	Temperature, K	Molality, mol/kg of sodium iodide	Apparent molar volume, m3/mol	uncertainty
101	298.15	.06	.00000878	.0000005

System: methanol + sodium tetraphenylboron; phases: Liquid
Property: Apparent molar volume, m3/mol (Liquid); method: Calculated with densities of this investigation
Pressure, kPa	Temperature, K	Molality, mol/kg of sodium tetraphenylboron	Apparent molar volume, m3/mol	uncertainty
101	298.15	.06	.00024521	.0000005

System: acetonitrile + sodium tetraphenylboron; phases: Liquid
Property: Apparent molar volume, m3/mol (Liquid); method: Calculated with densities of this investigation
Pressure, kPa	Temperature, K	Molality, mol/kg of sodium tetraphenylboron	Apparent molar volume, m3/mol	uncertainty
101	298.15	.06	.0002592	.0000005

System: methanol + tetraphenylphosphonium iodide; phases: Liquid
Property: Apparent molar volume, m3/mol (Liquid); method: Calculated with densities of this investigation
Pressure, kPa	Temperature, K	Molality, mol/kg of tetraphenylphosphonium iodide	Apparent molar volume, m3/mol	uncertainty
101	298.15	.06	.00029576	.0000005

System: acetonitrile + tetraphenylphosphonium iodide; phases: Liquid
Property: Apparent molar volume, m3/mol (Liquid); method: Calculated with densities of this investigation
Pressure, kPa	Temperature, K	Molality, mol/kg of tetraphenylphosphonium iodide	Apparent molar volume, m3/mol	uncertainty
101	298.15	.06	.00030053	.0000005

System: N,N-dimethylformamide + sodium iodide; phases: Liquid
Property: Apparent molar volume, m3/mol (Liquid); method: Calculated with densities of this investigation
Pressure, kPa	Temperature, K	Molality, mol/kg of sodium iodide	Apparent molar volume, m3/mol	uncertainty
101	298.15	.06	.00002365	.0000005

System: N,N-dimethylformamide + sodium tetraphenylboron; phases: Liquid
Property: Apparent molar volume, m3/mol (Liquid); method: Calculated with densities of this investigation
Pressure, kPa	Temperature, K	Molality, mol/kg of sodium tetraphenylboron	Apparent molar volume, m3/mol	uncertainty
101	298.15	.06	.0002796	.0000005

System: N,N-dimethylformamide + tetraphenylphosphonium iodide; phases: Liquid
Property: Apparent molar volume, m3/mol (Liquid); method: Calculated with densities of this investigation
Pressure, kPa	Temperature, K	Molality, mol/kg of tetraphenylphosphonium iodide	Apparent molar volume, m3/mol	uncertainty
101	298.15	.06	.00030792	.0000005

System: propylene carbonate + sodium iodide; phases: Liquid
Property: Apparent molar volume, m3/mol (Liquid); method: Calculated with densities of this investigation
Pressure, kPa	Temperature, K	Molality, mol/kg of sodium iodide	Apparent molar volume, m3/mol	uncertainty
101	298.15	.06	.00003276	.0000005

System: propylene carbonate + sodium tetraphenylboron; phases: Liquid
Property: Apparent molar volume, m3/mol (Liquid); method: Calculated with densities of this investigation
Pressure, kPa	Temperature, K	Molality, mol/kg of sodium tetraphenylboron	Apparent molar volume, m3/mol	uncertainty
101	298.15	.06	.0002826	.0000005

System: propylene carbonate + tetraphenylphosphonium iodide; phases: Liquid
Property: Apparent molar volume, m3/mol (Liquid); method: Calculated with densities of this investigation
Pressure, kPa	Temperature, K	Molality, mol/kg of tetraphenylphosphonium iodide	Apparent molar volume, m3/mol	uncertainty
101	298.15	.06	.00032355	.0000005
