Measured thermophysical data. Nucleic acid bases in 1-alkyl-3-methylimidazolium acetate ionic liquids:  A thermophysical and ionic conductivity analysis
Source: J. Chem. Thermodyn., 2013, 10.1016/j.jct.2012.07.022
Compound 1: 3,6-dihydro-6-iminopurine, C5H5N5, purity 99%
Compound 2: uracil, C4H4N2O2, purity 99%
Compound 3: 1-ethyl-3-methylimidazolium acetate, C8H14N2O2, purity 95%
Compound 4: 1-butyl-3-methylimidazolium acetate, C10H18N2O2, purity 95%

System: 1-ethyl-3-methylimidazolium acetate; phases: Liquid
Fixed: Pressure, kPa = 101.325
Property: Mass density, kg/m3 (Liquid); method: Vibrating tube method
Temperature, K	Mass density, kg/m3	uncertainty
283.15	1107.56	.2
288.15	1104.47	.2
293.15	1101.36	.2
298.15	1098.26	.2
303.15	1095.16	.2
308.15	1092.07	.2
313.15	1089	.2
318.15	1085.94	.2
323.15	1082.9	.2
328.15	1079.87	.2
333.15	1076.84	.2
338.15	1073.83	.2
343.15	1070.83	.2

System: 1-ethyl-3-methylimidazolium acetate; phases: Liquid
Fixed: Pressure, kPa = 101.325
Property: Viscosity, Pa*s (Liquid); method: Capillary tube (Ostwald; Ubbelohde) method
Temperature, K	Viscosity, Pa*s	uncertainty
283.15	.3886	.007772
288.15	.2584	.005168
293.15	.1791	.003582
298.15	.1285	.00257
303.15	.09523	.0019046
308.15	.07242	.0014484
313.15	.05638	.0011276
318.15	.04479	.0008958
323.15	.03623	.0007246
328.15	.02978	.0005956
333.15	.02482	.0004964
338.15	.02095	.000419
343.15	.01788	.0003576

System: 1-ethyl-3-methylimidazolium acetate; phases: Liquid
Fixed: Pressure, kPa = 101.325
Property: Speed of sound, m/s (Liquid); method: Linear variable-path acoustic interferometer
Temperature, K	Speed of sound, m/s	uncertainty
283.15	1778	1
288.15	1764	1
293.15	1750	1
298.15	1737	1
303.15	1725	1
308.15	1712	1
313.15	1700	1
318.15	1687	1
323.15	1675	1
328.15	1664	1
333.15	1652	1
338.15	1640	1
343.15	1628	1

System: 1-ethyl-3-methylimidazolium acetate; phases: Liquid
Fixed: Pressure, kPa = 101.325
Property: Refractive index (Na D-line) (Liquid); method: Standard Abbe refractometry
Temperature, K	Refractive index (Na D-line)	uncertainty
283.15	1.50423	.00004
288.15	1.50283	.00004
293.15	1.50144	.00004
298.15	1.50001	.00004
303.15	1.49861	.00004
308.15	1.49718	.00004
313.15	1.49577	.00004
318.15	1.49436	.00004
323.15	1.49295	.00004
328.15	1.49154	.00004
333.15	1.49015	.00004
338.15	1.48876	.00004
343.15	1.48734	.00004

System: 1-ethyl-3-methylimidazolium acetate; phases: Liquid
Fixed: Pressure, kPa = 101.325
Property: Electrical conductivity, S/m (Liquid); method: Alternating current cell with electrodes
Temperature, K	Electrical conductivity, S/m	uncertainty
283.15	.114	.00114
288.15	.162	.00162
293.15	.222	.00222
298.15	.296	.00296
303.15	.382	.00382
308.15	.48	.0048
313.15	.594	.00594
318.15	.827	.00827
323.15	.986	.00986

System: 1-butyl-3-methylimidazolium acetate; phases: Liquid
Fixed: Pressure, kPa = 101.325
Property: Mass density, kg/m3 (Liquid); method: Vibrating tube method
Temperature, K	Mass density, kg/m3	uncertainty
283.15	1061.85	.2
288.15	1058.77	.2
293.15	1055.69	.2
298.15	1052.63	.2
303.15	1049.61	.2
308.15	1046.6	.2
313.15	1043.59	.2
318.15	1040.59	.2
323.15	1037.58	.2
328.15	1034.58	.2
333.15	1031.59	.2
338.15	1028.61	.2
343.15	1025.64	.2

System: 1-butyl-3-methylimidazolium acetate; phases: Liquid
Fixed: Pressure, kPa = 101.325
Property: Viscosity, Pa*s (Liquid); method: Capillary tube (Ostwald; Ubbelohde) method
Temperature, K	Viscosity, Pa*s	uncertainty
283.15	1.927	.03854
288.15	1.165	.0233
293.15	.7366	.014732
298.15	.4851	.009702
303.15	.3309	.006618
308.15	.233	.00466
313.15	.1687	.003374
318.15	.1252	.002504
323.15	.09505	.001901
328.15	.07363	.0014726
333.15	.05809	.0011618
338.15	.04657	.0009314
343.15	.03791	.0007582

System: 1-butyl-3-methylimidazolium acetate; phases: Liquid
Fixed: Pressure, kPa = 101.325
Property: Speed of sound, m/s (Liquid); method: Linear variable-path acoustic interferometer
Temperature, K	Speed of sound, m/s	uncertainty
283.15	1700	1
288.15	1683	1
293.15	1666	1
298.15	1650	1
303.15	1635	1
308.15	1621	1
313.15	1608	1
318.15	1595	1
323.15	1582	1
328.15	1570	1
333.15	1558	1
338.15	1546	1
343.15	1534	1

System: 1-butyl-3-methylimidazolium acetate; phases: Liquid
Fixed: Pressure, kPa = 101.325
Property: Refractive index (Na D-line) (Liquid); method: Standard Abbe refractometry
Temperature, K	Refractive index (Na D-line)	uncertainty
283.15	1.49925	.00004
288.15	1.49781	.00004
293.15	1.49634	.00004
298.15	1.49488	.00004
303.15	1.49342	.00004
308.15	1.49197	.00004
313.15	1.49053	.00004
318.15	1.48909	.00004
323.15	1.48765	.00004
328.15	1.48619	.00004
333.15	1.48477	.00004
338.15	1.48332	.00004
343.15	1.48189	.00004

System: 1-butyl-3-methylimidazolium acetate; phases: Liquid
Fixed: Pressure, kPa = 101.325
Property: Electrical conductivity, S/m (Liquid); method: Alternating current cell with electrodes
Temperature, K	Electrical conductivity, S/m	uncertainty
283.15	.0131	.000131
288.15	.0215	.000215
293.15	.0331	.000331
298.15	.049	.00049
303.15	.0699	.000699
308.15	.0968	.000968
313.15	.131	.00131
318.15	.172	.00172
323.15	.221	.00221

System: uracil + 1-ethyl-3-methylimidazolium acetate; phases: Liquid
Fixed: Pressure, kPa = 101
Property: Mass density, kg/m3 (Liquid); method: Vibrating tube method
Temperature, K	Mass fraction of 1-ethyl-3-methylimidazolium acetate	Mass density, kg/m3	uncertainty
298.15	0	1097.6	.02
298.15	.0486	1111	.02
298.15	.1019	1125	.02
298.15	.1471	1135.7	.02
298.15	.2029	1148.6	.02
298.15	.2505	1157.9	.02
298.15	.298	1166.8	.02
303.15	0	1094.5	.02
303.15	.0486	1107.9	.02
303.15	.1019	1122	.02
303.15	.1471	1132.5	.02
303.15	.2029	1145.2	.02
303.15	.2505	1154.6	.02
303.15	.298	1163.7	.02
308.15	0	1091.4	.02
308.15	.0486	1104.9	.02
308.15	.1019	1118.9	.02
308.15	.1471	1129.3	.02
308.15	.2029	1141.9	.02
308.15	.2505	1151.2	.02
308.15	.298	1160.5	.02
313.15	0	1088.4	.02
313.15	.0486	1101.8	.02
313.15	.1019	1115.8	.02
313.15	.1471	1126.2	.02
313.15	.2029	1138.8	.02
313.15	.2505	1148	.02
313.15	.298	1157.1	.02
318.15	0	1085.3	.02
318.15	.0486	1098.8	.02
318.15	.1019	1112.8	.02
318.15	.1471	1123.2	.02
318.15	.2029	1135.7	.02
318.15	.2505	1144.8	.02
318.15	.298	1153.9	.02
323.15	0	1082.3	.02
323.15	.0486	1095.8	.02
323.15	.1019	1109.9	.02
323.15	.1471	1120.2	.02
323.15	.2029	1132.7	.02
323.15	.2505	1141.7	.02
323.15	.298	1150.8	.02
328.15	0	1079.3	.02
328.15	.0486	1092.9	.02
328.15	.1019	1106.9	.02
328.15	.1471	1117.1	.02
328.15	.2029	1129.6	.02
328.15	.2505	1138.7	.02
328.15	.298	1147.8	.02
333.15	0	1076.2	.02
333.15	.0486	1089.9	.02
333.15	.1019	1103.9	.02
333.15	.1471	1114.1	.02
333.15	.2029	1126.6	.02
333.15	.2505	1135.7	.02
333.15	.298	1144.7	.02
338.15	0	1073.3	.02
338.15	.0486	1086.9	.02
338.15	.1019	1100.9	.02
338.15	.1471	1111.1	.02
338.15	.2029	1123.6	.02
338.15	.2505	1132.7	.02
338.15	.298	1141.7	.02
343.15	0	1070.3	.02
343.15	.0486	1083.9	.02
343.15	.1019	1097.9	.02
343.15	.1471	1108.1	.02
343.15	.2029	1120.5	.02
343.15	.2505	1129.6	.02
343.15	.298	1138.7	.02

System: uracil + 1-ethyl-3-methylimidazolium acetate; phases: Liquid
Fixed: Pressure, kPa = 101
Property: Viscosity, Pa*s (Liquid); method: Capillary tube (Ostwald; Ubbelohde) method
Temperature, K	Mass fraction of 1-ethyl-3-methylimidazolium acetate	Viscosity, Pa*s	uncertainty
298.15	0	.1285	.00257
298.15	.0486	.1906	.003812
298.15	.1019	.294	.00588
298.15	.1471	.4376	.008752
298.15	.2029	.6828	.013656
298.15	.2505	1.01	.0202
298.15	.298	1.589	.03178
303.15	0	.09523	.0019046
303.15	.0486	.1366	.002732
303.15	.1019	.204	.00408
303.15	.1471	.2931	.005862
303.15	.2029	.4414	.008828
303.15	.2505	.6308	.012616
303.15	.298	.9526	.019052
308.15	0	.07242	.0014484
308.15	.0486	.1009	.002018
308.15	.1019	.1464	.002928
308.15	.1471	.2042	.004084
308.15	.2029	.2978	.005956
308.15	.2505	.4131	.008262
308.15	.298	.6022	.012044
313.15	0	.05638	.0011276
313.15	.0486	.0766	.001532
313.15	.1019	.1082	.002164
313.15	.1471	.1471	.002942
313.15	.2029	.2086	.004172
313.15	.2505	.2818	.005636
313.15	.298	.3982	.007964
318.15	0	.04479	.0008958
318.15	.0486	.0595	.00119
318.15	.1019	.0822	.001644
318.15	.1471	.1091	.002182
318.15	.2029	.1509	.003018
318.15	.2505	.1992	.003984
318.15	.298	.2738	.005476
323.15	0	.03623	.0007246
323.15	.0486	.04716	.0009432
323.15	.1019	.06379	.0012758
323.15	.1471	.08298	.0016596
323.15	.2029	.1122	.002244
323.15	.2505	.1452	.002904
323.15	.298	.1948	.003896
328.15	0	.02978	.0005956
328.15	.0486	.03806	.0007612
328.15	.1019	.05053	.0010106
328.15	.1471	.06455	.001291
328.15	.2029	.08556	.0017112
328.15	.2505	.1087	.002174
328.15	.298	.1427	.002854
333.15	0	.02482	.0004964
333.15	.0486	.0312	.000624
333.15	.1019	.04073	.0008146
333.15	.1471	.05122	.0010244
333.15	.2029	.06666	.0013332
333.15	.2505	.08331	.0016662
333.15	.298	.1073	.002146
338.15	0	.02095	.000419
338.15	.0486	.02594	.0005188
338.15	.1019	.03334	.0006668
338.15	.1471	.04134	.0008268
338.15	.2029	.05292	.0010584
338.15	.2505	.0652	.001304
338.15	.298	.08259	.0016518
343.15	0	.01788	.0003576
343.15	.0486	.02184	.0004368
343.15	.1019	.02767	.0005534
343.15	.1471	.03387	.0006774
343.15	.2029	.04275	.000855
343.15	.2505	.05197	.0010394
343.15	.298	.06484	.0012968

System: uracil + 1-ethyl-3-methylimidazolium acetate; phases: Liquid
Fixed: Pressure, kPa = 101
Property: Electrical conductivity, S/m (Liquid); method: Alternating current cell with electrodes
Temperature, K	Mass fraction of 1-ethyl-3-methylimidazolium acetate	Electrical conductivity, S/m	uncertainty
298.15	0	.296	.00296
298.15	.0486	.221	.00221
298.15	.1019	.159	.00159
298.15	.1471	.11	.0011
298.15	.2029	.0807	.000807
298.15	.2505	.0585	.000585
298.15	.298	.0388	.000388
303.15	0	.382	.00382
303.15	.0486	.293	.00293
303.15	.1019	.214	.00214
303.15	.1471	.156	.00156
303.15	.2029	.117	.00117
303.15	.2505	.0878	.000878
303.15	.298	.0602	.000602
308.15	0	.48	.0048
308.15	.0486	.38	.0038
308.15	.1019	.288	.00288
308.15	.1471	.212	.00212
308.15	.2029	.163	.00163
308.15	.2505	.125	.00125
308.15	.298	.0892	.000892
313.15	0	.594	.00594
313.15	.0486	.48	.0048
313.15	.1019	.372	.00372
313.15	.1471	.281	.00281
313.15	.2029	.221	.00221
313.15	.2505	.173	.00173
313.15	.298	.127	.00127
318.15	0	.827	.00827
318.15	.0486	.592	.00592
318.15	.1019	.469	.00469
318.15	.1471	.362	.00362
318.15	.2029	.29	.0029
318.15	.2505	.233	.00233
318.15	.298	.176	.00176
323.15	0	.986	.00986
323.15	.0486	.718	.00718
323.15	.1019	.579	.00579
323.15	.1471	.456	.00456
323.15	.2029	.371	.00371
323.15	.2505	.304	.00304
323.15	.298	.233	.00233

System: 3,6-dihydro-6-iminopurine + 1-ethyl-3-methylimidazolium acetate; phases: Liquid
Fixed: Pressure, kPa = 101
Property: Mass density, kg/m3 (Liquid); method: Vibrating tube method
Temperature, K	Mass fraction of 1-ethyl-3-methylimidazolium acetate	Mass density, kg/m3	uncertainty
298.15	0	1097.6	.02
298.15	.0482	1111.1	.02
298.15	.1008	1124.3	.02
298.15	.1514	1135	.02
298.15	.2055	1146.4	.02
298.15	.2481	1154.5	.02
303.15	0	1094.5	.02
303.15	.0482	1107.9	.02
303.15	.1008	1121.1	.02
303.15	.1514	1131.7	.02
303.15	.2055	1143	.02
303.15	.2481	1151.2	.02
308.15	0	1091.4	.02
308.15	.0482	1104.9	.02
308.15	.1008	1118	.02
308.15	.1514	1128.6	.02
308.15	.2055	1139.8	.02
308.15	.2481	1147.9	.02
313.15	0	1088.4	.02
313.15	.0482	1101.9	.02
313.15	.1008	1114.9	.02
313.15	.1514	1125.5	.02
313.15	.2055	1136.6	.02
313.15	.2481	1144.7	.02
318.15	0	1085.3	.02
318.15	.0482	1098.8	.02
318.15	.1008	1111.9	.02
318.15	.1514	1122.4	.02
318.15	.2055	1133.5	.02
318.15	.2481	1141.6	.02
323.15	0	1082.3	.02
323.15	.0482	1095.8	.02
323.15	.1008	1108.9	.02
323.15	.1514	1119.4	.02
323.15	.2055	1130.4	.02
323.15	.2481	1138.5	.02
328.15	0	1079.3	.02
328.15	.0482	1092.9	.02
328.15	.1008	1105.9	.02
328.15	.1514	1116.4	.02
328.15	.2055	1127.5	.02
328.15	.2481	1135.4	.02
333.15	0	1076.2	.02
333.15	.0482	1089.9	.02
333.15	.1008	1102.9	.02
333.15	.1514	1113.4	.02
333.15	.2055	1124.5	.02
333.15	.2481	1132.5	.02
338.15	0	1073.3	.02
338.15	.0482	1086.9	.02
338.15	.1008	1099.9	.02
338.15	.1514	1110.4	.02
338.15	.2055	1121.5	.02
338.15	.2481	1129.5	.02
343.15	0	1070.3	.02
343.15	.0482	1083.9	.02
343.15	.1008	1096.9	.02
343.15	.1514	1107.4	.02
343.15	.2055	1118.5	.02
343.15	.2481	1126.4	.02

System: 3,6-dihydro-6-iminopurine + 1-ethyl-3-methylimidazolium acetate; phases: Liquid
Fixed: Pressure, kPa = 101
Property: Viscosity, Pa*s (Liquid); method: Capillary tube (Ostwald; Ubbelohde) method
Temperature, K	Mass fraction of 1-ethyl-3-methylimidazolium acetate	Viscosity, Pa*s	uncertainty
298.15	0	.1285	.00257
298.15	.0482	.1977	.003954
298.15	.1008	.318	.00636
298.15	.1514	.4981	.009962
298.15	.2055	.8232	.016464
298.15	.2481	1.2357	.024714
303.15	0	.09523	.0019046
303.15	.0482	.141	.00282
303.15	.1008	.218	.00436
303.15	.1514	.3281	.006562
303.15	.2055	.5179	.010358
303.15	.2481	.7489	.014978
308.15	0	.07242	.0014484
308.15	.0482	.1037	.002074
308.15	.1008	.1548	.003096
308.15	.1514	.2247	.004494
308.15	.2055	.3412	.006824
308.15	.2481	.4775	.00955
313.15	0	.05638	.0011276
313.15	.0482	.07837	.0015674
313.15	.1008	.1134	.002268
313.15	.1514	.1596	.003192
313.15	.2055	.2339	.004678
313.15	.2481	.3181	.006362
318.15	0	.04479	.0008958
318.15	.0482	.06064	.0012128
318.15	.1008	.08536	.0017072
318.15	.1514	.1168	.002336
318.15	.2055	.166	.00332
318.15	.2481	.2201	.004402
323.15	0	.03623	.0007246
323.15	.0482	.04791	.0009582
323.15	.1008	.06578	.0013156
323.15	.1514	.0879	.001758
323.15	.2055	.1214	.002428
323.15	.2481	.1574	.003148
328.15	0	.02978	.0005956
328.15	.0482	.03855	.000771
328.15	.1008	.05175	.001035
328.15	.1514	.06764	.0013528
328.15	.2055	.09114	.0018228
328.15	.2481	.1159	.002318
333.15	0	.02482	.0004964
333.15	.0482	.03151	.0006302
333.15	.1008	.04148	.0008296
333.15	.1514	.05316	.0010632
333.15	.2055	.07005	.001401
333.15	.2481	.0875	.00175
338.15	0	.02095	.000419
338.15	.0482	.02614	.0005228
338.15	.1008	.03378	.0006756
338.15	.1514	.04255	.000851
338.15	.2055	.05495	.001099
338.15	.2481	.06757	.0013514
343.15	0	.01788	.0003576
343.15	.0482	.02196	.0004392
343.15	.1008	.02791	.0005582
343.15	.1514	.03461	.0006922
343.15	.2055	.04391	.0008782
343.15	.2481	.05321	.0010642

System: 3,6-dihydro-6-iminopurine + 1-ethyl-3-methylimidazolium acetate; phases: Liquid
Fixed: Pressure, kPa = 101
Property: Electrical conductivity, S/m (Liquid); method: Alternating current cell with electrodes
Temperature, K	Mass fraction of 1-ethyl-3-methylimidazolium acetate	Electrical conductivity, S/m	uncertainty
298.15	0	.296	.00296
298.15	.0482	.209	.00209
298.15	.1008	.143	.00143
298.15	.1514	.0996	.000996
298.15	.2055	.0672	.000672
298.15	.2481	.0471	.000471
303.15	0	.382	.00382
303.15	.0482	.278	.00278
303.15	.1008	.197	.00197
303.15	.1514	.142	.00142
303.15	.2055	.0995	.000995
303.15	.2481	.0718	.000718
308.15	0	.48	.0048
308.15	.0482	.362	.00362
308.15	.1008	.264	.00264
308.15	.1514	.196	.00196
308.15	.2055	.142	.00142
308.15	.2481	.105	.00105
313.15	0	.594	.00594
313.15	.0482	.459	.00459
313.15	.1008	.346	.00346
313.15	.1514	.262	.00262
313.15	.2055	.194	.00194
313.15	.2481	.148	.00148
318.15	0	.827	.00827
318.15	.0482	.571	.00571
318.15	.1008	.439	.00439
318.15	.1514	.34	.0034
318.15	.2055	.259	.00259
318.15	.2481	.202	.00202
323.15	0	.986	.00986
323.15	.0482	.695	.00695
323.15	.1008	.546	.00546
323.15	.1514	.431	.00431
323.15	.2055	.336	.00336
323.15	.2481	.267	.00267
