Measured thermophysical data. Volumetric studies to examine the interactions of imidazolium based ionic liquids with water by means of density and speed of sound measurements
Source: J. Chem. Thermodyn., 2012, 10.1016/j.jct.2012.03.025
Compound 1: 1-butyl-3-methylimidazolium chloride, C8H15ClN2, purity 95%
Compound 2: 1-n-butyl-3-methylimidazolium bromide, C8H15BrN2, purity 98.5%
Compound 3: 1-butyl-3-methylimidazolium iodide, C8H15IN2, purity 98.5%
Compound 4: 1-butyl-3-methylimidazolium acetate, C10H18N2O2, purity 95%
Compound 5: [BMIM][BF4], C8H15BF4N2, purity 97%
Compound 6: 1-butyl-3-methylimidazolium triflate, C9H15F3N2O3S, purity 95%
Compound 7: water, H2O, purity 99.8%

System: water; phases: Liquid
Property: Mass density, kg/m3 (Liquid); method: Vibrating tube method
Temperature, K	Pressure, kPa	Mass density, kg/m3	uncertainty
288.15	101	999.134	.005
293.15	101	998.245	.005
298.15	101	997.089	.005
303.15	101	995.688	.005
308.15	101	994.058	.005

System: water; phases: Liquid
Property: Speed of sound, m/s (Liquid); method: Sing-around technique in a fixed-path interferometer
Temperature, K	Pressure, kPa	Speed of sound, m/s	uncertainty
288.15	101	1466.52	.05
293.15	101	1482.49	.05
298.15	101	1496.69	.05
303.15	101	1509.11	.05
308.15	101	1519.78	.05

System: water + 1-butyl-3-methylimidazolium chloride; phases: Liquid
Fixed: Pressure, kPa = 101
Property: Mass density, kg/m3 (Liquid); method: Vibrating tube method
Temperature, K	Molality, mol/kg of 1-butyl-3-methylimidazolium chloride	Mass density, kg/m3	uncertainty
288.15	0	999.134	.005
288.15	.0519	999.802	.005
288.15	.1011	1000.446	.005
288.15	.1548	1001.136	.005
288.15	.2011	1001.766	.005
288.15	.2583	1002.556	.005
288.15	.311	1003.252	.005
288.15	.3619	1003.979	.005
288.15	.4064	1004.593	.005
288.15	.451	1005.232	.005
288.15	.5069	1005.994	.005
293.15	0	998.245	.005
293.15	.0519	998.874	.005
293.15	.1011	999.477	.005
293.15	.1548	1000.163	.005
293.15	.2011	1000.756	.005
293.15	.2583	1001.519	.005
293.15	.311	1002.177	.005
293.15	.3619	1002.876	.005
293.15	.4064	1003.459	.005
293.15	.451	1004.074	.005
293.15	.5069	1004.797	.005
298.15	0	997.089	.005
298.15	.0519	997.684	.005
298.15	.1011	998.265	.005
298.15	.1548	998.918	.005
298.15	.2011	999.494	.005
298.15	.2583	1000.204	.005
298.15	.311	1000.856	.005
298.15	.3619	1001.527	.005
298.15	.4064	1002.086	.005
298.15	.451	1002.675	.005
298.15	.5069	1003.396	.005
303.15	0	995.688	.005
303.15	.0519	996.264	.005
303.15	.1011	996.836	.005
303.15	.1548	997.452	.005
303.15	.2011	998.007	.005
303.15	.2583	998.699	.005
303.15	.311	999.317	.005
303.15	.3619	999.989	.005
303.15	.4064	1000.536	.005
303.15	.451	1001.079	.005
303.15	.5069	1001.795	.005
308.15	0	994.058	.005
308.15	.0519	994.611	.005
308.15	.1011	995.146	.005
308.15	.1548	995.754	.005
308.15	.2011	996.292	.005
308.15	.2583	996.957	.005
308.15	.311	997.577	.005
308.15	.3619	998.169	.005
308.15	.4064	998.737	.005
308.15	.451	999.294	.005
308.15	.5069	999.991	.005

System: water + 1-butyl-3-methylimidazolium chloride; phases: Liquid
Fixed: Pressure, kPa = 101
Property: Speed of sound, m/s (Liquid); method: Sing-around technique in a fixed-path interferometer
Temperature, K	Molality, mol/kg of 1-butyl-3-methylimidazolium chloride	Speed of sound, m/s	uncertainty
288.15	0	1466.52	.05
288.15	.0519	1474.61	.05
288.15	.1011	1481.97	.05
288.15	.1548	1489.84	.05
288.15	.2011	1496.48	.05
288.15	.2583	1504.28	.05
288.15	.311	1511.44	.05
288.15	.3619	1518.11	.05
288.15	.4064	1524.01	.05
288.15	.451	1530.04	.05
288.15	.5069	1536.89	.05
293.15	0	1482.49	.05
293.15	.0519	1489.86	.05
293.15	.1011	1496.71	.05
293.15	.1548	1503.98	.05
293.15	.2011	1510.13	.05
293.15	.2583	1517.79	.05
293.15	.311	1524.54	.05
293.15	.3619	1531.01	.05
293.15	.4064	1536.43	.05
293.15	.451	1542.07	.05
293.15	.5069	1549.01	.05
298.15	0	1496.69	.05
298.15	.0519	1503.59	.05
298.15	.1011	1509.89	.05
298.15	.1548	1516.57	.05
298.15	.2011	1522.31	.05
298.15	.2583	1529.22	.05
298.15	.311	1535.59	.05
298.15	.3619	1541.44	.05
298.15	.4064	1546.76	.05
298.15	.451	1551.61	.05
298.15	.5069	1557.87	.05
303.15	0	1509.11	.05
303.15	.0519	1515.48	.05
303.15	.1011	1521.38	.05
303.15	.1548	1527.71	.05
303.15	.2011	1533.05	.05
303.15	.2583	1539.65	.05
303.15	.311	1545.63	.05
303.15	.3619	1551.32	.05
303.15	.4064	1556.21	.05
303.15	.451	1561.01	.05
303.15	.5069	1567.07	.05
308.15	0	1519.78	.05
308.15	.0519	1525.76	.05
308.15	.1011	1531.31	.05
308.15	.1548	1537.21	.05
308.15	.2011	1542.29	.05
308.15	.2583	1548.42	.05
308.15	.311	1553.92	.05
308.15	.3619	1559.32	.05
308.15	.4064	1563.87	.05
308.15	.451	1568.37	.05
308.15	.5069	1573.95	.05

System: water + 1-n-butyl-3-methylimidazolium bromide; phases: Liquid
Fixed: Pressure, kPa = 101
Property: Mass density, kg/m3 (Liquid); method: Vibrating tube method
Temperature, K	Molality, mol/kg of 1-n-butyl-3-methylimidazolium bromide	Mass density, kg/m3	uncertainty
288.15	0	999.134	.005
288.15	.0513	1001.697	.005
288.15	.1034	1004.292	.005
288.15	.1531	1006.731	.005
288.15	.2012	1009.085	.005
288.15	.2499	1011.454	.005
288.15	.2995	1013.806	.005
288.15	.35	1016.212	.005
288.15	.4008	1018.582	.005
288.15	.4565	1021.191	.005
288.15	.5012	1023.281	.005
293.15	0	998.245	.005
293.15	.0513	1000.782	.005
293.15	.1034	1003.33	.005
293.15	.1531	1005.723	.005
293.15	.2012	1008.055	.005
293.15	.2499	1010.365	.005
293.15	.2995	1012.697	.005
293.15	.35	1015.022	.005
293.15	.4008	1017.368	.005
293.15	.4565	1019.892	.005
293.15	.5012	1021.914	.005
298.15	0	997.089	.005
298.15	.0513	999.601	.005
298.15	.1034	1002.129	.005
298.15	.1531	1004.508	.005
298.15	.2012	1006.789	.005
298.15	.2499	1009.059	.005
298.15	.2995	1011.377	.005
298.15	.35	1013.643	.005
298.15	.4008	1015.958	.005
298.15	.4565	1018.446	.005
298.15	.5012	1020.502	.005
303.15	0	995.688	.005
303.15	.0513	998.177	.005
303.15	.1034	1000.673	.005
303.15	.1531	1003.023	.005
303.15	.2012	1005.288	.005
303.15	.2499	1007.536	.005
303.15	.2995	1009.809	.005
303.15	.35	1012.101	.005
303.15	.4008	1014.346	.005
303.15	.4565	1016.796	.005
303.15	.5012	1018.746	.005
308.15	0	994.058	.005
308.15	.0513	996.522	.005
308.15	.1034	998.994	.005
308.15	.1531	1001.338	.005
308.15	.2012	1003.579	.005
308.15	.2499	1005.815	.005
308.15	.2995	1008.073	.005
308.15	.35	1010.343	.005
308.15	.4008	1012.599	.005
308.15	.4565	1015.053	.005
308.15	.5012	1017.008	.005

System: water + 1-n-butyl-3-methylimidazolium bromide; phases: Liquid
Fixed: Pressure, kPa = 101
Property: Speed of sound, m/s (Liquid); method: Sing-around technique in a fixed-path interferometer
Temperature, K	Molality, mol/kg of 1-n-butyl-3-methylimidazolium bromide	Speed of sound, m/s	uncertainty
288.15	0	1466.52	.05
288.15	.0513	1472.75	.05
288.15	.1034	1478.78	.05
288.15	.1531	1484.48	.05
288.15	.2012	1489.6	.05
288.15	.2499	1494.93	.05
288.15	.2995	1500.39	.05
288.15	.35	1505.55	.05
288.15	.4008	1510.93	.05
288.15	.4565	1516.39	.05
288.15	.5012	1520.93	.05
293.15	0	1482.49	.05
293.15	.0513	1488.09	.05
293.15	.1034	1493.63	.05
293.15	.1531	1498.73	.05
293.15	.2012	1503.66	.05
293.15	.2499	1508.47	.05
293.15	.2995	1513.46	.05
293.15	.35	1518.27	.05
293.15	.4008	1522.98	.05
293.15	.4565	1528.07	.05
293.15	.5012	1532.23	.05
298.15	0	1496.69	.05
298.15	.0513	1501.78	.05
298.15	.1034	1506.77	.05
298.15	.1531	1511.46	.05
298.15	.2012	1515.95	.05
298.15	.2499	1520.39	.05
298.15	.2995	1524.87	.05
298.15	.35	1529.26	.05
298.15	.4008	1533.56	.05
298.15	.4565	1538.18	.05
298.15	.5012	1541.96	.05
303.15	0	1509.11	.05
303.15	.0513	1513.73	.05
303.15	.1034	1518.31	.05
303.15	.1531	1522.53	.05
303.15	.2012	1526.6	.05
303.15	.2499	1530.65	.05
303.15	.2995	1534.63	.05
303.15	.35	1538.71	.05
303.15	.4008	1542.63	.05
303.15	.4565	1546.81	.05
303.15	.5012	1550.24	.05
308.15	0	1519.78	.05
308.15	.0513	1524.01	.05
308.15	.1034	1528.19	.05
308.15	.1531	1532.02	.05
308.15	.2012	1535.68	.05
308.15	.2499	1539.35	.05
308.15	.2995	1543.04	.05
308.15	.35	1546.65	.05
308.15	.4008	1550.22	.05
308.15	.4565	1553.99	.05
308.15	.5012	1557.1	.05

System: water + 1-butyl-3-methylimidazolium iodide; phases: Liquid
Fixed: Pressure, kPa = 101
Property: Mass density, kg/m3 (Liquid); method: Vibrating tube method
Temperature, K	Molality, mol/kg of 1-butyl-3-methylimidazolium iodide	Mass density, kg/m3	uncertainty
288.15	0	999.134	.005
288.15	.0514	1003.511	.005
288.15	.1017	1007.712	.005
288.15	.1497	1011.653	.005
288.15	.1995	1015.689	.005
288.15	.2522	1019.867	.005
288.15	.3025	1023.815	.005
288.15	.3477	1027.295	.005
288.15	.4036	1031.571	.005
288.15	.4508	1035.084	.005
288.15	.5032	1038.951	.005
293.15	0	998.245	.005
293.15	.0514	1002.583	.005
293.15	.1017	1006.738	.005
293.15	.1497	1010.641	.005
293.15	.1995	1014.612	.005
293.15	.2522	1018.754	.005
293.15	.3025	1022.628	.005
293.15	.3477	1026.077	.005
293.15	.4036	1030.229	.005
293.15	.4508	1033.709	.005
293.15	.5032	1037.498	.005
298.15	0	997.089	.005
298.15	.0514	1001.365	.005
298.15	.1017	1005.459	.005
298.15	.1497	1009.317	.005
298.15	.1995	1013.265	.005
298.15	.2522	1017.369	.005
298.15	.3025	1021.268	.005
298.15	.3477	1024.707	.005
298.15	.4036	1028.854	.005
298.15	.4508	1032.383	.005
298.15	.5032	1036.147	.005
303.15	0	995.688	.005
303.15	.0514	999.906	.005
303.15	.1017	1003.958	.005
303.15	.1497	1007.761	.005
303.15	.1995	1011.702	.005
303.15	.2522	1015.768	.005
303.15	.3025	1019.603	.005
303.15	.3477	1022.998	.005
303.15	.4036	1027.139	.005
303.15	.4508	1030.578	.005
303.15	.5032	1034.406	.005
308.15	0	994.058	.005
308.15	.0514	998.257	.005
308.15	.1017	1002.278	.005
308.15	.1497	1006.076	.005
308.15	.1995	1009.951	.005
308.15	.2522	1013.978	.005
308.15	.3025	1017.781	.005
308.15	.3477	1021.141	.005
308.15	.4036	1025.227	.005
308.15	.4508	1028.634	.005
308.15	.5032	1032.402	.005

System: water + 1-butyl-3-methylimidazolium iodide; phases: Liquid
Fixed: Pressure, kPa = 101
Property: Speed of sound, m/s (Liquid); method: Sing-around technique in a fixed-path interferometer
Temperature, K	Molality, mol/kg of 1-butyl-3-methylimidazolium iodide	Speed of sound, m/s	uncertainty
288.15	0	1466.52	.05
288.15	.0514	1471.23	.05
288.15	.1017	1475.58	.05
288.15	.1497	1479.55	.05
288.15	.1995	1483.34	.05
288.15	.2522	1487.16	.05
288.15	.3025	1491.01	.05
288.15	.3477	1494.21	.05
288.15	.4036	1497.99	.05
288.15	.4508	1501.11	.05
288.15	.5032	1504.88	.05
293.15	0	1482.49	.05
293.15	.0514	1486.33	.05
293.15	.1017	1489.79	.05
293.15	.1497	1493.16	.05
293.15	.1995	1496.42	.05
293.15	.2522	1499.63	.05
293.15	.3025	1502.69	.05
293.15	.3477	1505.24	.05
293.15	.4036	1508.49	.05
293.15	.4508	1511.07	.05
293.15	.5032	1514.11	.05
298.15	0	1496.69	.05
298.15	.0514	1500.01	.05
298.15	.1017	1502.99	.05
298.15	.1497	1505.77	.05
298.15	.1995	1508.54	.05
298.15	.2522	1511.36	.05
298.15	.3025	1513.98	.05
298.15	.3477	1516.12	.05
298.15	.4036	1518.95	.05
298.15	.4508	1521.12	.05
298.15	.5032	1523.73	.05
303.15	0	1509.11	.05
303.15	.0514	1511.92	.05
303.15	.1017	1514.52	.05
303.15	.1497	1516.85	.05
303.15	.1995	1519.12	.05
303.15	.2522	1521.57	.05
303.15	.3025	1523.7	.05
303.15	.3477	1525.51	.05
303.15	.4036	1527.65	.05
303.15	.4508	1529.7	.05
303.15	.5032	1531.81	.05
308.15	0	1519.78	.05
308.15	.0514	1522.24	.05
308.15	.1017	1524.42	.05
308.15	.1497	1526.24	.05
308.15	.1995	1528.13	.05
308.15	.2522	1530.1	.05
308.15	.3025	1531.92	.05
308.15	.3477	1533.01	.05
308.15	.4036	1534.87	.05
308.15	.4508	1536.16	.05
308.15	.5032	1537.58	.05

System: water + 1-butyl-3-methylimidazolium acetate; phases: Liquid
Fixed: Pressure, kPa = 101
Property: Mass density, kg/m3 (Liquid); method: Vibrating tube method
Temperature, K	Molality, mol/kg of 1-butyl-3-methylimidazolium acetate	Mass density, kg/m3	uncertainty
288.15	0	999.134	.005
288.15	.0534	999.93	.005
288.15	.104	1000.706	.005
288.15	.1535	1001.453	.005
288.15	.209	1002.306	.005
288.15	.2498	1002.949	.005
288.15	.2997	1003.657	.005
288.15	.35	1004.507	.005
288.15	.4035	1005.333	.005
288.15	.457	1006.204	.005
288.15	.5036	1006.932	.005
293.15	0	998.245	.005
293.15	.0534	999	.005
293.15	.104	999.755	.005
293.15	.1535	1000.473	.005
293.15	.209	1001.291	.005
293.15	.2498	1001.91	.005
293.15	.2997	1002.588	.005
293.15	.35	1003.399	.005
293.15	.4035	1004.192	.005
293.15	.457	1005.022	.005
293.15	.5036	1005.718	.005
298.15	0	997.089	.005
298.15	.0534	997.824	.005
298.15	.104	998.548	.005
298.15	.1535	999.237	.005
298.15	.209	1000.027	.005
298.15	.2498	1000.623	.005
298.15	.2997	1001.274	.005
298.15	.35	1002.053	.005
298.15	.4035	1002.812	.005
298.15	.457	1003.606	.005
298.15	.5036	1004.278	.005
303.15	0	995.688	.005
303.15	.0534	996.406	.005
303.15	.104	997.105	.005
303.15	.1535	997.775	.005
303.15	.209	998.535	.005
303.15	.2498	999.11	.005
303.15	.2997	999.737	.005
303.15	.35	1000.488	.005
303.15	.4035	1001.219	.005
303.15	.457	1001.984	.005
303.15	.5036	1002.63	.005
308.15	0	994.058	.005
308.15	.0534	994.772	.005
308.15	.104	995.451	.005
308.15	.1535	996.101	.005
308.15	.209	996.836	.005
308.15	.2498	997.391	.005
308.15	.2997	997.998	.005
308.15	.35	998.725	.005
308.15	.4035	999.427	.005
308.15	.457	1000.167	.005
308.15	.5036	1000.786	.005

System: water + 1-butyl-3-methylimidazolium acetate; phases: Liquid
Fixed: Pressure, kPa = 101
Property: Speed of sound, m/s (Liquid); method: Sing-around technique in a fixed-path interferometer
Temperature, K	Molality, mol/kg of 1-butyl-3-methylimidazolium acetate	Speed of sound, m/s	uncertainty
288.15	0	1466.52	.05
288.15	.0534	1476.34	.05
288.15	.104	1485.42	.05
288.15	.1535	1494.24	.05
288.15	.209	1504.01	.05
288.15	.2498	1511.01	.05
288.15	.2997	1519.52	.05
288.15	.35	1528.12	.05
288.15	.4035	1536.86	.05
288.15	.457	1545.84	.05
288.15	.5036	1553.37	.05
293.15	0	1482.49	.05
293.15	.0534	1491.98	.05
293.15	.104	1500.59	.05
293.15	.1535	1508.81	.05
293.15	.209	1517.91	.05
293.15	.2498	1524.43	.05
293.15	.2997	1531.96	.05
293.15	.35	1540.01	.05
293.15	.4035	1548.03	.05
293.15	.457	1556.01	.05
293.15	.5036	1562.76	.05
298.15	0	1496.69	.05
298.15	.0534	1505.59	.05
298.15	.104	1513.62	.05
298.15	.1535	1521.31	.05
298.15	.209	1529.77	.05
298.15	.2498	1535.88	.05
298.15	.2997	1542.95	.05
298.15	.35	1549.97	.05
298.15	.4035	1557.57	.05
298.15	.457	1564.76	.05
298.15	.5036	1571.03	.05
303.15	0	1509.11	.05
303.15	.0534	1517.55	.05
303.15	.104	1525.15	.05
303.15	.1535	1532.33	.05
303.15	.209	1540.05	.05
303.15	.2498	1545.74	.05
303.15	.2997	1552.52	.05
303.15	.35	1559.05	.05
303.15	.4035	1566.03	.05
303.15	.457	1572.88	.05
303.15	.5036	1578.51	.05
308.15	0	1519.78	.05
308.15	.0534	1527.33	.05
308.15	.104	1534.35	.05
308.15	.1535	1541.05	.05
308.15	.209	1548.35	.05
308.15	.2498	1553.75	.05
308.15	.2997	1560.29	.05
308.15	.35	1566.75	.05
308.15	.4035	1573.35	.05
308.15	.457	1579.91	.05
308.15	.5036	1585.62	.05

System: water + [BMIM][BF4]; phases: Liquid
Fixed: Pressure, kPa = 101
Property: Mass density, kg/m3 (Liquid); method: Vibrating tube method
Temperature, K	Molality, mol/kg of [BMIM][BF4]	Mass density, kg/m3	uncertainty
288.15	0	999.134	.005
288.15	.0514	1001.127	.005
288.15	.1056	1003.188	.005
288.15	.1559	1005.098	.005
288.15	.201	1006.765	.005
288.15	.2573	1008.833	.005
288.15	.3001	1010.355	.005
288.15	.3504	1012.172	.005
288.15	.4093	1014.256	.005
288.15	.4506	1015.701	.005
288.15	.508	1017.704	.005
293.15	0	998.245	.005
293.15	.0514	1000.191	.005
293.15	.1056	1002.208	.005
293.15	.1559	1004.063	.005
293.15	.201	1005.673	.005
293.15	.2573	1007.688	.005
293.15	.3001	1009.207	.005
293.15	.3504	1010.965	.005
293.15	.4093	1012.976	.005
293.15	.4506	1014.405	.005
293.15	.508	1016.362	.005
298.15	0	997.089	.005
298.15	.0514	998.93	.005
298.15	.1056	1000.848	.005
298.15	.1559	1002.601	.005
298.15	.201	1004.181	.005
298.15	.2573	1006.131	.005
298.15	.3001	1007.593	.005
298.15	.3504	1009.261	.005
298.15	.4093	1011.218	.005
298.15	.4506	1012.583	.005
298.15	.508	1014.496	.005
303.15	0	995.688	.005
303.15	.0514	997.535	.005
303.15	.1056	999.439	.005
303.15	.1559	1001.171	.005
303.15	.201	1002.702	.005
303.15	.2573	1004.584	.005
303.15	.3001	1005.981	.005
303.15	.3504	1007.631	.005
303.15	.4093	1009.473	.005
303.15	.4506	1010.779	.005
303.15	.508	1012.561	.005
308.15	0	994.058	.005
308.15	.0514	995.822	.005
308.15	.1056	997.645	.005
308.15	.1559	999.334	.005
308.15	.201	1000.821	.005
308.15	.2573	1002.651	.005
308.15	.3001	1004.051	.005
308.15	.3504	1005.656	.005
308.15	.4093	1007.537	.005
308.15	.4506	1008.783	.005
308.15	.508	1010.586	.005

System: water + [BMIM][BF4]; phases: Liquid
Fixed: Pressure, kPa = 101
Property: Speed of sound, m/s (Liquid); method: Sing-around technique in a fixed-path interferometer
Temperature, K	Molality, mol/kg of [BMIM][BF4]	Speed of sound, m/s	uncertainty
288.15	0	1466.52	.05
288.15	.0514	1471.89	.05
288.15	.1056	1476.87	.05
288.15	.1559	1481.53	.05
288.15	.201	1485.35	.05
288.15	.2573	1490.02	.05
288.15	.3001	1493.18	.05
288.15	.3504	1496.91	.05
288.15	.4093	1501.06	.05
288.15	.4506	1503.95	.05
288.15	.508	1507.4	.05
293.15	0	1482.49	.05
293.15	.0514	1487.34	.05
293.15	.1056	1491.95	.05
293.15	.1559	1495.93	.05
293.15	.201	1499.34	.05
293.15	.2573	1503.37	.05
293.15	.3001	1506.22	.05
293.15	.3504	1509.51	.05
293.15	.4093	1513.17	.05
293.15	.4506	1515.61	.05
293.15	.508	1519.02	.05
298.15	0	1496.69	.05
298.15	.0514	1500.92	.05
298.15	.1056	1504.99	.05
298.15	.1559	1508.55	.05
298.15	.201	1511.33	.05
298.15	.2573	1515.05	.05
298.15	.3001	1517.55	.05
298.15	.3504	1520.44	.05
298.15	.4093	1523.64	.05
298.15	.4506	1525.77	.05
298.15	.508	1528.48	.05
303.15	0	1509.11	.05
303.15	.0514	1512.81	.05
303.15	.1056	1516.25	.05
303.15	.1559	1519.49	.05
303.15	.201	1522.09	.05
303.15	.2573	1525.16	.05
303.15	.3001	1527.33	.05
303.15	.3504	1529.83	.05
303.15	.4093	1532.61	.05
303.15	.4506	1534.45	.05
303.15	.508	1536.79	.05
308.15	0	1519.78	.05
308.15	.0514	1523.01	.05
308.15	.1056	1526.04	.05
308.15	.1559	1528.82	.05
308.15	.201	1531.07	.05
308.15	.2573	1533.71	.05
308.15	.3001	1535.58	.05
308.15	.3504	1537.72	.05
308.15	.4093	1540.1	.05
308.15	.4506	1541.67	.05
308.15	.508	1543.66	.05

System: water + 1-butyl-3-methylimidazolium triflate; phases: Liquid
Fixed: Pressure, kPa = 101
Property: Mass density, kg/m3 (Liquid); method: Vibrating tube method
Temperature, K	Molality, mol/kg of 1-butyl-3-methylimidazolium triflate	Mass density, kg/m3	uncertainty
288.15	0	999.134	.005
288.15	.051	1002.683	.005
288.15	.1023	1006.178	.005
288.15	.1499	1009.372	.005
288.15	.1996	1012.645	.005
288.15	.2496	1015.854	.005
288.15	.3019	1019.196	.005
288.15	.3489	1022.132	.005
288.15	.4034	1025.457	.005
288.15	.4532	1028.455	.005
288.15	.5045	1031.504	.005
293.15	0	998.245	.005
293.15	.051	1001.729	.005
293.15	.1023	1005.168	.005
293.15	.1499	1008.305	.005
293.15	.1996	1011.503	.005
293.15	.2496	1014.679	.005
293.15	.3019	1017.921	.005
293.15	.3489	1020.784	.005
293.15	.4034	1024.102	.005
293.15	.4532	1027.056	.005
293.15	.5045	1030.04	.005
298.15	0	997.089	.005
298.15	.051	1000.526	.005
298.15	.1023	1003.905	.005
298.15	.1499	1007.005	.005
298.15	.1996	1010.169	.005
298.15	.2496	1013.285	.005
298.15	.3019	1016.516	.005
298.15	.3489	1019.364	.005
298.15	.4034	1022.574	.005
298.15	.4532	1025.501	.005
298.15	.5045	1028.461	.005
303.15	0	995.688	.005
303.15	.051	999.089	.005
303.15	.1023	1002.431	.005
303.15	.1499	1005.489	.005
303.15	.1996	1008.596	.005
303.15	.2496	1011.697	.005
303.15	.3019	1014.859	.005
303.15	.3489	1017.644	.005
303.15	.4034	1020.802	.005
303.15	.4532	1023.648	.005
303.15	.5045	1026.571	.005
308.15	0	994.058	.005
308.15	.051	997.44	.005
308.15	.1023	1000.759	.005
308.15	.1499	1003.778	.005
308.15	.1996	1006.865	.005
308.15	.2496	1009.907	.005
308.15	.3019	1013.019	.005
308.15	.3489	1015.771	.005
308.15	.4034	1018.883	.005
308.15	.4532	1021.689	.005
308.15	.5045	1024.498	.005

System: water + 1-butyl-3-methylimidazolium triflate; phases: Liquid
Fixed: Pressure, kPa = 101
Property: Speed of sound, m/s (Liquid); method: Sing-around technique in a fixed-path interferometer
Temperature, K	Molality, mol/kg of 1-butyl-3-methylimidazolium triflate	Speed of sound, m/s	uncertainty
288.15	0	1466.52	.05
288.15	.051	1472.79	.05
288.15	.1023	1478.54	.05
288.15	.1499	1483.82	.05
288.15	.1996	1489.11	.05
288.15	.2496	1494.24	.05
288.15	.3019	1499.2	.05
288.15	.3489	1503.5	.05
288.15	.4034	1508.19	.05
288.15	.4532	1512.35	.05
288.15	.5045	1516.98	.05
293.15	0	1482.49	.05
293.15	.051	1488.04	.05
293.15	.1023	1493.23	.05
293.15	.1499	1497.89	.05
293.15	.1996	1502.36	.05
293.15	.2496	1507.01	.05
293.15	.3019	1511.33	.05
293.15	.3489	1515.05	.05
293.15	.4034	1519.01	.05
293.15	.4532	1522.7	.05
293.15	.5045	1526.91	.05
298.15	0	1496.69	.05
298.15	.051	1501.69	.05
298.15	.1023	1506.23	.05
298.15	.1499	1510.18	.05
298.15	.1996	1514.24	.05
298.15	.2496	1518.07	.05
298.15	.3019	1521.81	.05
298.15	.3489	1525.01	.05
298.15	.4034	1528.37	.05
298.15	.4532	1531.5	.05
298.15	.5045	1534.1	.05
303.15	0	1509.11	.05
303.15	.051	1513.48	.05
303.15	.1023	1517.41	.05
303.15	.1499	1520.82	.05
303.15	.1996	1524.52	.05
303.15	.2496	1527.6	.05
303.15	.3019	1530.77	.05
303.15	.3489	1533.47	.05
303.15	.4034	1536.29	.05
303.15	.4532	1538.91	.05
303.15	.5045	1541.02	.05
308.15	0	1519.78	.05
308.15	.051	1523.59	.05
308.15	.1023	1526.96	.05
308.15	.1499	1529.85	.05
308.15	.1996	1533.03	.05
308.15	.2496	1535.59	.05
308.15	.3019	1538.23	.05
308.15	.3489	1540.48	.05
308.15	.4034	1542.78	.05
308.15	.4532	1544.92	.05
308.15	.5045	1546.59	.05
