Measured thermophysical data. Thermodynamic assessment of the neptunium-oxygen system: Mass spectrometric studies and thermodynamic modelling
Source: J. Chem. Thermodyn., 2016, 10.1016/j.jct.2016.07.040
Compound 1: neptunium dioxide, NpO2, purity 99.8%

System: neptunium dioxide; phases: Crystal
Fixed: Pressure, kPa = 101.325
Property: Mass density, kg/m3 (Crystal); method: X-ray diffraction
Temperature, K	Mass density, kg/m3	uncertainty
295	11140	10

System: neptunium dioxide; phases: Crystal, Gas
Property: Vapor or sublimation pressure, kPa (Crystal); method: Knudsen effusion method
Temperature, K	Vapor or sublimation pressure, kPa	uncertainty
2149.8	.0001358	
2151.3	.0001375	
2152.2	.0001394	
2152.8	.0001433	
2154.4	.0001447	
2156	.0001482	
2157.3	.0001517	
2158.4	.0001543	
2160.3	.0001598	
2161.7	.0001597	
2162.9	.0001642	
2164.5	.0001713	
2166.2	.0001748	
2167.4	.000178	
2168.5	.0001787	
2170.6	.0001874	
2172.1	.0001888	
2173.8	.0001909	
2175.3	.0001994	
2176.6	.0002036	
2178.6	.0002068	
2179.8	.0002135	
2181	.0002199	
2183.2	.0002228	
2184.5	.0002278	
2186.2	.0002338	
2187.7	.0002364	
2189.2	.0002417	
2191.4	.0002525	
2193.1	.0002543	
2194.3	.0002622	
2196	.0002656	
2197.8	.0002726	
2199.7	.0002771	
2200.8	.0002867	
2202.4	.0002946	
2204.7	.0002992	
2206.6	.0003045	
2207.4	.0003104	
2209.3	.0003162	
2211.2	.0003286	
2212.7	.0003354	
2214.4	.0003408	
2216.4	.0003502	
2218.1	.0003597	
2218.9	.0003644	
2220.7	.0003741	
2222.9	.0003833	
2224.6	.0003931	
2225.9	.0004013	
2227.7	.000407	
2229.2	.0004206	
2231	.0004254	
2232.9	.0004344	
2233.8	.0004466	
2235.8	.0004515	
2237.8	.0004628	
2239.3	.0004711	
2240.7	.0004792	
2242.2	.0004974	
2243.7	.0005095	
2245.8	.0005148	
2247.3	.0005247	
2249.2	.00054	
2250.6	.0005507	
2252.1	.0005593	
2254.2	.0005708	
2255.6	.0005856	
2257.4	.0005944	
2258.3	.0006052	
2258.7	.0006098	
2259.2	.0006132	

System: neptunium dioxide; phases: Crystal, Gas
Property: Vapor or sublimation pressure, kPa (Crystal); method: Knudsen effusion method
Temperature, K	Vapor or sublimation pressure, kPa	uncertainty
2054.9	.00003295	
2056.2	.00003366	
2057.9	.0000351	
2060.1	.00003662	
2062.3	.00003796	
2064.8	.00003874	
2067.1	.00004025	
2069.1	.00004246	
2071.4	.00004393	
2073.9	.00004623	
2076.6	.00004712	
2078.6	.00004956	
2081.3	.00005123	
2083.9	.00005383	
2086.1	.00005495	
2088.4	.00005784	
2090.9	.00005955	
2093.2	.00006187	
2095.7	.00006433	
2098.6	.00006692	
2100.8	.00006877	
2103.4	.00007176	
2105.9	.00007462	
2108.1	.00007729	
2111.2	.00008054	
2113.1	.00008434	
2115.9	.00008748	
2118.1	.00009035	
2120.3	.00009314	
2122.9	.00009644	
2125.2	.0000994	
2127.9	.0001045	
2130.5	.0001097	
2132.7	.0001123	
2135.3	.0001157	
2137.4	.0001217	
2139.9	.0001239	
2142.7	.0001288	
2145.2	.0001332	
2147.5	.0001386	
2150.2	.0001442	
2152.6	.0001498	
2154.9	.0001542	
2155.9	.0001583	
