Measured thermophysical data. Thermodynamic properties of caesium manganese phosphate CsMnPO4
Source: J. Chem. Thermodyn., 2014, 10.1016/j.jct.2014.06.012
Compound 1: cesium manganese(II) phosphate, CsMnO4P, purity 99.5%

System: cesium manganese(II) phosphate; phases: Crystal 3, Crystal 2, Gas
Property: Triple point temperature, K (Crystal 3); method: Adiabatic calorimetry
Triple point temperature, K	uncertainty
6.9	.1

System: cesium manganese(II) phosphate; phases: Crystal 2, Crystal 1, Gas
Property: Triple point temperature, K (Crystal 2); method: Adiabatic calorimetry
Triple point temperature, K	uncertainty
127	.4

System: cesium manganese(II) phosphate; phases: Crystal 3, Crystal 2, Gas
Property: Molar enthalpy of transition or fusion, kJ/mol (Crystal 3); method: Adiabatic calorimetry
Molar enthalpy of transition or fusion, kJ/mol	uncertainty
.0128	.0002

System: cesium manganese(II) phosphate; phases: Crystal 2, Crystal 1, Gas
Property: Molar enthalpy of transition or fusion, kJ/mol (Crystal 2); method: Adiabatic calorimetry
Molar enthalpy of transition or fusion, kJ/mol	uncertainty
.159	.0014

System: cesium manganese(II) phosphate; phases: Crystal 3
Fixed: Pressure, kPa = 101.325
Property: Molar heat capacity at constant pressure, J/K/mol (Crystal 3); method: Vacuum adiabatic calorimetry
Temperature, K	Molar heat capacity at constant pressure, J/K/mol	uncertainty
6.34	4.9886832	.099773664
6.73	13.63573408	.2727146816
6.86	41.07349168	.8214698336
5.85	2.32805216	.0465610432
6.04	3.49207824	.0698415648
6.38	5.65384096	.1130768192
6.59	21.86706136	.4373412272

System: cesium manganese(II) phosphate; phases: Crystal 2
Fixed: Pressure, kPa = 101.325
Property: Molar heat capacity at constant pressure, J/K/mol (Crystal 2); method: Vacuum adiabatic calorimetry
Temperature, K	Molar heat capacity at constant pressure, J/K/mol	uncertainty
7.01	15.7974968	16.628944
7.33	6.235854	16.628944
7.8	5.98641984	16.628944
8.15	5.8201304	16.628944
8.3	5.48755152	16.628944
8.79	5.23811736	16.628944
9.54	5.4044068	16.628944
10.3	5.65384096	16.628944
11.03	5.90327512	16.628944
11.57	6.31899872	16.628944
12.47	6.81786704	16.628944
12.55	6.90101176	16.628944
13.98	7.81560368	16.628944
15.39	8.97962976	4.157236
16.79	10.243429504	4.157236
18.22	11.59868844	4.157236
19.65	12.953947376	4.157236
20.79	14.05145768	4.157236
21.93	15.148967984	4.157236
23.17	16.479283504	4.157236
24.41	17.809599024	4.157236
26.16	19.680355224	4.157236
27.91	21.559425896	4.157236
29.7	23.554899176	4.157236
30.98	25.001617304	4.157236
31.52	25.550372456	4.157236
32.86	26.955518224	4.157236
34.2	28.452123184	4.157236
36	30.30625044	4.157236
37.79	32.152063224	4.157236
39.59	33.823272096	4.157236
41.48	35.494480968	2.4943416
43.18	36.824796488	2.4943416
45.05	38.296458032	2.4943416
46.84	39.61845908	2.4943416
48.73	41.07349168	2.4943416
50.55	42.503580864	2.4943416
52.38	44.000185824	2.4943416
54.21	45.39701712	2.4943416
56.04	46.793848416	2.4943416
57.87	48.082591576	2.4943416
59.7	49.363020264	2.4943416
61.53	50.685021312	2.4943416
63.37	51.998707888	2.4943416
65.2	53.237564216	2.4943416
67.03	54.468106072	2.4943416
68.87	55.657075568	2.4943416
70.7	56.846045064	2.4943416
72.42	57.918611952	2.4943416
73.98	58.8248894	2.4943416
75.54	59.722852376	2.4943416
76.62	60.346437776	2.4943416
77.7	60.978337648	2.4943416
78.93	61.69338224	2.4943416
80.15	62.416741304	2.4943416
81.49	63.06527012	2.4943416
82.8	63.722113408	2.4943416
7.32	9.1459192	16.628944
8.09	5.32126208	16.628944
9.13	5.48755152	16.628944
9.95	5.65384096	16.628944
79.65	62.092476896	2.4943416
82.19	63.431106888	2.4943416
84.9	64.703221104	2.4943416
87.44	66.075108984	2.4943416
89.1	66.981386432	2.4943416
92.52	68.768997912	2.4943416
95.06	70.082684488	2.4943416
97.6	71.404685536	2.4943416
99.96	72.651856336	2.4943416
102.68	74.115203408	2.4943416
105.79	75.836299112	2.4943416
108.49	77.5324514	2.4943416
110.3	78.388842016	2.4943416
111.89	79.037370832	2.4943416
113.69	80.093308776	2.4943416
115.29	81.132617776	2.4943416
116.83	82.038895224	2.4943416
118.24	82.704052984	2.4943416
120.39	84.89075912	2.4943416
123.17	91.8749156	2.4943416
124.56	100.77140064	2.4943416
125.56	106.25895216	2.4943416
126.99	117.73292352	2.4943416
108.49	77.5324514	2.4943416
112.89	79.619383872	2.4943416
119.21	83.22786472	2.4943416

System: cesium manganese(II) phosphate; phases: Crystal 1
Fixed: Pressure, kPa = 101.325
Property: Molar heat capacity at constant pressure, J/K/mol (Crystal 1); method: Vacuum adiabatic calorimetry
Temperature, K	Molar heat capacity at constant pressure, J/K/mol	uncertainty
128.73	107.75555712	.32326667136
130.58	93.28837584	.27986512752
131.88	89.29742928	.26789228784
132.69	88.29969264	.26489907792
133.47	88.38283736	.26514851208
135.31	89.29742928	.26789228784
136.46	89.87944232	.26963832696
137.83	90.46145536	.27138436608
138.61	90.79403424	.27238210272
140.05	91.459192	.274377576
141.84	92.20749448	.27662248344
143.65	92.87265224	.27861795672
146.58	93.9535336	.2818606008
149.52	95.03441496	.28510324488
152.45	96.19844104	.28859532312
155.39	97.36246712	.29208740136
158.13	98.36020376	.29508061128
160.88	99.3579404	.2980738212
163.62	100.43882176	.30131646528
166.37	101.4365584	.3043096752
168.91	102.35115032	.30705345096
171.45	103.26574224	.30979722672
174.38	104.26347888	.31279043664
177.32	105.26121552	.31578364656
180.25	106.25895216	.31877685648
183.19	107.2566888	.3217700664
186.12	108.17128072	.32451384216
189.06	109.16901736	.32750705208
191.79	110.08360928	.33025082784
194.53	110.9982012	.3329946036
197.27	111.91279312	.33573837936
199.58	112.57795088	.33773385264
201.38	113.0768192	.3392304576
203.92	113.82512168	.34147536504
206.38	114.57342416	.34372027248
209.38	115.65430552	.34696291656
212.32	116.56889744	.34970669232
215.39	117.48348936	.35245046808
218.18	118.31493656	.35494480968
219.88	118.73066016	.35619198048
221.58	119.22952848	.35768858544
224.09	119.97783096	.35993349288
226.59	120.72613344	.36217840032
229.5	121.55758064	.36467274192
232.41	122.38902784	.36716708352
235.32	123.30361976	.36991085928
238.23	124.21821168	.37265463504
240.73	124.88336944	.37465010832
243.23	125.5485272	.3766455816
245.29	126.13054024	.37839162072
247.36	126.795698	.380387094
250.13	127.46085576	.38238256728
252.55	128.0428688	.3841286064
255.37	128.79117128	.38637351384
258.11	129.45632904	.38836898712
260.99	130.28777624	.39086332872
263.88	131.11922344	.39335767032
266.76	131.86752592	.39560257776
269.64	132.6158284	.3978474852
272.52	133.4472756	.4003418268
275.39	134.2787228	.4028361684
278.26	135.19331472	.40557994416
281.34	136.02476192	.40807428576
283.99	136.7730644	.4103191932
286.86	137.68765632	.41306296896
289.06	138.10337992	.41431013976
291.64	139.01797184	.41705391552
295.04	140.18199792	.42054599376
297.8	141.01344512	.42304033536
300.2	141.7617476	.4252852428
302.7	142.51005008	.42753015024
305.33	143.34149728	.43002449184
308.4	144.17294448	.43251883344
310.94	144.92124696	.43476374088
314	145.9189836	.4377569508
317.6	146.99986496	.44099959488
320.46	147.91445688	.44374337064
323.3	148.91219352	.44673658056
326.66	150.0762196	.4502286588
329.3	150.9076668	.4527230004
331.64	151.57282456	.45471847368
335.3	152.48741648	.45746224944
338.7	153.4020084	.4602060252
343.13	154.6491792	.4639475376
128.36	113.15996392	.33947989176
134.22	88.79856096	.26639568288
139.44	91.12661312	.27337983936

System: cesium manganese(II) phosphate; phases: Crystal 1
Fixed: Pressure, kPa = 101.325
Property: Molar heat capacity at constant pressure, J/K/mol (Crystal 1); method: Small sample (50 mg) scanning calorimetry
Temperature, K	Molar heat capacity at constant pressure, J/K/mol	uncertainty
330.7	151.3233904	3.78308476
332.7	152.1548376	3.80387094
333.9	152.1548376	3.80387094
337	152.9862848	3.82465712
340	153.817732	3.8454433
341.6	153.817732	3.8454433
345	155.4806264	3.88701566
347.5	155.4806264	3.88701566
350	156.3120736	3.90780184
352.5	157.1435208	3.92858802
355	157.1435208	3.92858802
357.7	157.974968	3.9493742
360.2	157.974968	3.9493742
362.5	158.8064152	3.97016038
364.9	158.8064152	3.97016038
367.5	159.6378624	3.99094656
370	160.4693096	4.01173274
372.5	160.4693096	4.01173274
374.8	161.3007568	4.03251892
377.3	161.3007568	4.03251892
380	162.132204	4.0533051
382.2	162.132204	4.0533051
385	162.9636512	4.07409128
387.5	162.9636512	4.07409128
390	163.7950984	4.09487746
392.5	163.7950984	4.09487746
395	164.6265456	4.11566364
397.5	164.6265456	4.11566364
400.3	165.4579928	4.13644982
402.8	165.4579928	4.13644982
405.3	166.28944	4.157236
407.5	166.28944	4.157236
409.5	166.28944	4.157236
412.6	166.28944	4.157236
415	167.1208872	4.17802218
417.5	167.1208872	4.17802218
420	167.1208872	4.17802218
422.5	167.1208872	4.17802218
425	167.9523344	4.19880836
427.5	167.9523344	4.19880836
430	167.9523344	4.19880836
432.5	167.9523344	4.19880836
435	168.7837816	4.21959454
437.5	168.7837816	4.21959454
440	168.7837816	4.21959454
442.5	169.6152288	4.24038072
445	169.6152288	4.24038072
447.5	169.6152288	4.24038072
450	170.446676	4.2611669
452.5	170.446676	4.2611669
455	170.446676	4.2611669
457.5	170.446676	4.2611669
460	171.2781232	4.28195308
462.5	171.2781232	4.28195308
465	171.2781232	4.28195308
467.5	171.2781232	4.28195308
469.9	172.1095704	4.30273926
472.5	172.1095704	4.30273926
475	172.1095704	4.30273926
477.5	172.1095704	4.30273926
480	172.9410176	4.32352544
482.5	172.9410176	4.32352544
485	172.9410176	4.32352544
487.5	172.9410176	4.32352544
490	173.7724648	4.34431162
492.5	173.7724648	4.34431162
495	173.7724648	4.34431162
497.5	174.603912	4.3650978
500	174.603912	4.3650978
502.5	174.603912	4.3650978
505.3	174.603912	4.3650978
507.5	175.4353592	4.38588398
510	175.4353592	4.38588398
512.5	175.4353592	4.38588398
515	175.4353592	4.38588398
517.5	176.2668064	4.40667016
520	176.2668064	4.40667016
522.5	176.2668064	4.40667016
525	176.2668064	4.40667016
527.5	177.0982536	4.42745634
530	177.0982536	4.42745634
532.5	177.0982536	4.42745634
535	177.0982536	4.42745634
537.5	177.9297008	4.44824252
540	177.9297008	4.44824252
542.5	177.9297008	4.44824252
545	177.9297008	4.44824252
547.5	178.761148	4.4690287
550	178.761148	4.4690287
552.5	178.761148	4.4690287
555	178.761148	4.4690287
557.5	179.5925952	4.48981488
560	179.5925952	4.48981488
562.5	179.5925952	4.48981488
565	179.5925952	4.48981488
567.5	180.4240424	4.51060106
570	180.4240424	4.51060106
572.5	180.4240424	4.51060106
575	180.4240424	4.51060106
577.5	181.2554896	4.53138724
580	181.2554896	4.53138724
582.5	181.2554896	4.53138724
585	181.2554896	4.53138724
587.5	182.0869368	4.55217342
590	182.0869368	4.55217342
592.5	182.0869368	4.55217342
595	182.0869368	4.55217342
597.5	182.918384	4.5729596
600	182.918384	4.5729596
602.5	182.918384	4.5729596
605	183.7498312	4.59374578
607.5	183.7498312	4.59374578
610	183.7498312	4.59374578
612.5	183.7498312	4.59374578
615	184.5812784	4.61453196
617.5	184.5812784	4.61453196
620	184.5812784	4.61453196
622.4	184.5812784	4.61453196
625	185.4127256	4.63531814
627.5	185.4127256	4.63531814
630	185.4127256	4.63531814
632.5	186.2441728	4.65610432
635	186.2441728	4.65610432
637.5	186.2441728	4.65610432
640	186.2441728	4.65610432
642.5	186.2441728	4.65610432
645.1	187.07562	4.6768905
647.5	187.07562	4.6768905
650	187.07562	4.6768905

System: cesium manganese(II) phosphate; phases: Crystal 3
Fixed: Pressure, kPa = 101.325
Property: Molar heat capacity at constant pressure, J/K/mol (Crystal 3); method: Vacuum adiabatic calorimetry
Temperature, K	Molar heat capacity at constant pressure, J/K/mol	uncertainty
5	1.712781232	16.628944
6	2.918379672	16.628944
6.9	4.28195308	16.628944

System: cesium manganese(II) phosphate; phases: Crystal 3
Fixed: Pressure, kPa = 101.325
Property: Molar enthalpy function {Hm(T)-Hm(0)}/T, J/K/mol (Crystal 3); method: Vacuum adiabatic calorimetry
Temperature, K	Molar enthalpy function {Hm(T)-Hm(0)}/T, J/K/mol	uncertainty
5	.419880836	18.2918384
6	.7333364304	18.2918384
6.9	1.097510304	18.2918384

System: cesium manganese(II) phosphate; phases: Crystal 3
Fixed: Pressure, kPa = 101.325
Property: Molar entropy, J/K/mol (Crystal 3); method: Vacuum adiabatic calorimetry
Temperature, K	Molar entropy, J/K/mol	uncertainty
5	.5720356736	18.2918384
6	.989422168	18.2918384
6.9	1.463347072	18.2918384

System: cesium manganese(II) phosphate; phases: Crystal 2
Fixed: Pressure, kPa = 101.325
Property: Molar heat capacity at constant pressure, J/K/mol (Crystal 2); method: Vacuum adiabatic calorimetry
Temperature, K	Molar heat capacity at constant pressure, J/K/mol	uncertainty
6.9	4.5729596	16.628944
7	4.622846432	16.628944
8	4.972054256	16.628944
9	5.271375248	16.628944
10	5.579010712	16.628944
15	8.64705088	16.628944
20	13.286526256	4.157236
25	18.41655548	4.157236
30	23.854220168	4.157236
35	29.291884856	4.157236
40	34.222366752	4.157236
45	38.16342648	2.4943416
50	42.054599376	2.4943416
60	49.645712312	2.4943416
70	56.405378048	2.4943416
80	62.225508448	2.4943416
90	67.480254752	2.4943416
100	72.685114224	2.4943416
110	78.180980216	2.4943416
120	83.72673304	2.4943416
127	86.55365352	2.4943416

System: cesium manganese(II) phosphate; phases: Crystal 2
Fixed: Pressure, kPa = 101.325
Property: Molar enthalpy function {Hm(T)-Hm(0)}/T, J/K/mol (Crystal 2); method: Vacuum adiabatic calorimetry
Temperature, K	Molar enthalpy function {Hm(T)-Hm(0)}/T, J/K/mol	uncertainty
6.9	2.959952032	18.2918384
7	3.001524392	18.2918384
8	3.250958552	18.2918384
9	3.40893352	18.2918384
10	3.600166376	18.2918384
15	4.730934568	18.2918384
20	6.2799207016	4.157236
25	8.1880920256	4.157236
30	10.343203168	4.157236
35	12.662940856	4.157236
40	15.04919432	4.157236
45	17.410504368	3.3257888
50	19.680355224	3.3257888
60	24.053767496	3.3257888
70	28.202689024	3.3257888
80	32.102176392	3.3257888
90	35.743915128	3.3257888
100	39.169477592	3.3257888
110	42.470322976	3.3257888
120	45.68802364	3.3257888
127	47.858100832	3.3257888

System: cesium manganese(II) phosphate; phases: Crystal 2
Fixed: Pressure, kPa = 101.325
Property: Molar entropy, J/K/mol (Crystal 2); method: Vacuum adiabatic calorimetry
Temperature, K	Molar entropy, J/K/mol	uncertainty
6.9	3.334103272	18.2918384
7	3.433876936	18.2918384
8	4.099034696	18.2918384
9	4.639475376	18.2918384
10	5.163287112	18.2918384
15	8.006836536	18.2918384
20	11.116449064	4.157236
25	14.616841776	4.157236
30	18.45812784	4.157236
35	22.540533592	4.157236
40	26.780914312	4.157236
45	31.05455292	3.3257888
50	35.269990224	3.3257888
60	43.617720112	3.3257888
70	51.790846088	3.3257888
80	59.714537904	3.3257888
90	67.3472232	3.3257888
100	74.730474336	3.3257888
110	81.905863672	3.3257888
120	88.9648504	3.3257888
127	93.78724416	3.3257888

System: cesium manganese(II) phosphate; phases: Crystal 1
Fixed: Pressure, kPa = 101.325
Property: Molar heat capacity at constant pressure, J/K/mol (Crystal 1); method: Vacuum adiabatic calorimetry
Temperature, K	Molar heat capacity at constant pressure, J/K/mol	uncertainty
127	86.55365352	.25966096056
130	87.80082432	.26340247296
140	91.54233672	.27462701016
150	95.36699384	.28610098152
160	99.02536152	.29707608456
170	102.6837292	.3080511876
180	106.17580744	.31852742232
190	109.58474096	.32875422288
200	112.74424032	.33823272096
210	115.82059496	.34746178488
220	118.81380488	.35644141464
230	121.55758064	.36467274192
240	124.3013564	.3729040692
250	126.96198744	.38088596232
260	129.62261848	.38886785544
270	132.36639424	.39709918272
280	135.11017	.40533051
290	138.0202352	.4140607056
298.15	140.43143208	.42129429624
300	141.01344512	.42304033536
310	144.17294448	.43251883344
320	147.581878	.442745634
330	151.15710096	.45347130288
340	154.89861336	.46469584008

System: cesium manganese(II) phosphate; phases: Crystal 1
Fixed: Pressure, kPa = 101.325
Property: Molar enthalpy function {Hm(T)-Hm(0)}/T, J/K/mol (Crystal 1); method: Vacuum adiabatic calorimetry
Temperature, K	Molar enthalpy function {Hm(T)-Hm(0)}/T, J/K/mol	uncertainty
127	49.113586104	.196454344416
130	49.994920136	.199979680544
140	52.821840616	.211287362464
150	55.532358488	.222129433952
160	58.134788224	.232539152896
170	60.645758768	.242583035072
180	63.081899064	.252327596256
190	65.43489464	.26173957856
200	67.729688912	.270918755648
210	69.949652936	.279798611744
220	72.103101184	.288412404736
230	74.190033656	.296760134624
240	76.218764824	.304875059296
250	78.19760916	.31279043664
260	80.126566664	.320506266656
270	82.005637336	.328022549344
280	83.89302248	.33557208992
290	85.6390616	.3425562464
298.15	87.13566656	.34854266624
300	87.46824544	.34987298176
310	89.21428456	.35685713824
320	91.0434684	.3641738736
330	92.78950752	.37115803008
340	94.53554664	.37814218656

System: cesium manganese(II) phosphate; phases: Crystal 1
Fixed: Pressure, kPa = 101.325
Property: Molar entropy, J/K/mol (Crystal 1); method: Vacuum adiabatic calorimetry
Temperature, K	Molar entropy, J/K/mol	uncertainty
127	95.03441496	.38013765984
130	97.11303296	.38845213184
140	103.68146584	.41472586336
150	110.166754	.440667016
160	116.402608	.465610432
170	122.55531728	.49022126912
180	128.54173712	.51416694848
190	134.36186752	.53744747008
200	140.01570848	.56006283392
210	145.66954944	.58267819776
220	151.07395624	.60429582496
230	156.39521832	.62558087328
240	161.63333568	.64653334272
250	166.78830832	.66715323328
260	171.86013624	.68744054496
270	176.76567472	.70706269888
280	181.58806848	.72635227392
290	186.41046224	.74564184896
298.15	190.23511936	.76094047744
300	191.14971128	.76459884512
310	195.8058156	.7832232624
320	200.46191992	.80184767968
330	205.03487952	.82013951808
340	209.60783912	.83843135648

System: cesium manganese(II) phosphate; phases: Crystal 1
Fixed: Pressure, kPa = 101.325
Property: Molar heat capacity at constant pressure, J/K/mol (Crystal 1); method: Small sample (50 mg) scanning calorimetry
Temperature, K	Molar heat capacity at constant pressure, J/K/mol	uncertainty
350	156.3120736	3.90780184
360	158.8064152	3.97016038
370	160.4693096	4.01173274
380	162.132204	4.0533051
390	163.7950984	4.09487746
400	164.6265456	4.11566364
410	166.28944	4.157236
420	167.1208872	4.17802218
430	167.9523344	4.19880836
440	169.6152288	4.24038072
450	170.446676	4.2611669
460	171.2781232	4.28195308
470	172.1095704	4.30273926
480	172.9410176	4.32352544
490	173.7724648	4.34431162
500	174.603912	4.3650978
510	175.4353592	4.38588398
520	176.2668064	4.40667016
530	177.0982536	4.42745634
540	177.9297008	4.44824252
550	178.761148	4.4690287
560	179.5925952	4.48981488
570	180.4240424	4.51060106
580	181.2554896	4.53138724
590	182.0869368	4.55217342
600	182.918384	4.5729596
610	183.7498312	4.59374578
620	184.5812784	4.61453196
630	185.4127256	4.63531814
640	186.2441728	4.65610432
650	187.07562	4.6768905

System: cesium manganese(II) phosphate; phases: Crystal 1
Fixed: Pressure, kPa = 101.325
Property: Molar enthalpy function {Hm(T)-Hm(0)}/T, J/K/mol (Crystal 1); method: Small sample (50 mg) scanning calorimetry
Temperature, K	Molar enthalpy function {Hm(T)-Hm(0)}/T, J/K/mol	uncertainty
350	96.4478752	2.41119688
360	98.1107696	2.45276924
370	99.773664	2.4943416
380	101.4365584	2.53591396
390	103.0994528	2.57748632
400	104.7623472	2.61905868
410	105.5937944	2.63984486
420	107.2566888	2.68141722
430	108.9195832	2.72298958
440	109.7510304	2.74377576
450	111.4139248	2.78534812
460	113.0768192	2.82692048
470	113.9082664	2.84770666
480	115.5711608	2.88927902
490	116.402608	2.9100652
500	117.2340552	2.93085138
510	118.8969496	2.97242374
520	119.7283968	2.99320992
530	120.559844	3.0139961
540	122.2227384	3.05556846
550	123.0541856	3.07635464
560	123.8856328	3.09714082
570	124.71708	3.117927
580	125.5485272	3.13871318
590	127.2114216	3.18028554
600	128.0428688	3.20107172
610	128.874316	3.2218579
620	129.7057632	3.24264408
630	130.5372104	3.26343026
640	131.3686576	3.28421644
650	132.2001048	3.30500262

System: cesium manganese(II) phosphate; phases: Crystal 1
Fixed: Pressure, kPa = 101.325
Property: Molar entropy, J/K/mol (Crystal 1); method: Small sample (50 mg) scanning calorimetry
Temperature, K	Molar entropy, J/K/mol	uncertainty
350	214.5133776	5.36283444
360	218.6706136	5.46676534
370	222.8278496	5.57069624
380	226.9850856	5.67462714
390	231.1423216	5.77855804
400	235.2995576	5.88248894
410	239.4567936	5.98641984
420	243.6140296	6.09035074
430	247.7712656	6.19428164
440	251.9285016	6.29821254
450	255.2542904	6.38135726
460	259.4115264	6.48528816
470	262.7373152	6.56843288
480	266.063104	6.6515776
490	270.22034	6.7555085
500	273.5461288	6.83865322
510	276.8719176	6.92179794
520	280.1977064	7.00494266
530	283.5234952	7.08808738
540	286.849284	7.1712321
550	290.1750728	7.25437682
560	293.5008616	7.33752154
570	296.8266504	7.42066626
580	300.1524392	7.50381098
590	302.6467808	7.56616952
600	305.9725696	7.64931424
610	309.2983584	7.73245896
620	311.7927	7.7948175
630	315.1184888	7.87796222
640	317.6128304	7.94032076
650	320.9386192	8.02346548
