Measured thermophysical data. Calorimetric investigation of mixing enthalpy of liquid (Co + Cu + Zr) alloys at T = 1873 K
Source: J. Chem. Thermodyn., 2015, 10.1016/j.jct.2015.02.014
Compound 1: cobalt, Co, purity 99.98%
Compound 2: copper, Cu, purity 99.99%
Compound 3: zirconium, Zr, purity 99.98%

System: cobalt + copper + zirconium; phases: Liquid
Fixed: Pressure, kPa = 152
Fixed: Temperature, K = 1873
Property: Partial molar enthalpy, kJ/mol of zirconium (Liquid); method: high-temperature isoperibolic calorimeter
Solvent: Mole fraction of cobalt	Mole fraction of zirconium	Partial molar enthalpy, kJ/mol of zirconium	uncertainty
.75	.005	-144.5	-14.45
.75	.015	-141	-14.1
.75	.026	-149.8	-14.98
.75	.039	-153	-15.3
.75	.051	-141.9	-14.19
.75	.061	-142.9	-14.29
.75	.097	-133.8	-13.38
.75	.109	-132.6	-13.26
.75	.122	-124.7	-12.47
.75	.132	-119.5	-11.95
.75	.141	-106	-10.6
.75	.153	-101.3	-10.13
.75	.165	-91.2	-9.12
.75	.177	-117	-11.7
.75	.188	-121.9	-12.19
.75	.199	-112.2	-11.22
.75	.211	-99.9	-9.99
.75	.223	-103.1	-10.31
.75	.235	-81.4	-8.14
.75	.245	-93.2	-9.32
.75	.255	-76.1	-7.61
.75	.267	-57	-5.7
.75	.278	-65.9	-6.59
.75	.29	-48.2	-4.82
.75	.3	-62.8	-6.28
.75	.31	-35.5	-3.55
.75	.321	-43.9	-4.39
.75	.334	-40.7	-4.07
.75	.346	-39	-3.9
.75	.356	-46.2	-4.62
.75	.366	-35.3	-3.53
.75	.378	-28.2	-2.82
.75	.39	-25.4	-2.54
.75	.402	-24.6	-2.46
.75	.412	-27.2	-2.72
.75	.421	-21.6	-2.16
.75	.433	-16.1	-1.61
.75	.445	-20.8	-2.08
.75	.456	-25.2	-2.52
.75	.465	-19.6	-1.96
.75	.474	-23.2	-2.32
.75	.485	-20.6	-2.06
.75	.496	-22.1	-2.21
.75	.507	-19.3	-1.93
.75	.517	-20.8	-2.08
.75	.526	-24.8	-2.48
.75	.537	-16.8	-1.68
.5	.025	-139.2	-13.92
.5	.037	-134.4	-13.44
.5	.07	-127.6	-12.76
.5	.082	-112.2	-11.22
.5	.094	-116.2	-11.62
.5	.108	-100.2	-10.02
.5	.122	-98.8	-9.88
.5	.136	-89	-8.9
.5	.148	-91.2	-9.12
.5	.16	-85	-8.5
.5	.173	-101.6	-10.16
.5	.185	-85.4	-8.54
.5	.198	-71.1	-7.11
.5	.209	-70.7	-7.07
.5	.22	-56.5	-5.65
.5	.231	-43.3	-4.33
.5	.244	-47.5	-4.75
.5	.256	-43.5	-4.35
.5	.267	-49.4	-4.94
.5	.277	-43.8	-4.38
.5	.288	-36.7	-3.67
.5	.299	-47.2	-4.72
.5	.31	-26.7	-2.67
.5	.322	-36	-3.6
.5	.335	-26.9	-2.69
.5	.347	-33.5	-3.35
.5	.356	-30.2	-3.02
.5	.366	-25.9	-2.59
.5	.377	-30.3	-3.03
.5	.389	-17.6	-1.76
.5	.402	-27.6	-2.76
.5	.412	-18.7	-1.87
.5	.423	-25.2	-2.52
.5	.434	-10.3	-1.03
.5	.445	-17.3	-1.73
.5	.456	-14.3	-1.43
.5	.465	-2	-.2
.5	.474	-9	-.9
.5	.484	-7.4	-.74
.5	.494	-13.3	-1.33
.5	.504	-7.7	-.77
.5	.513	-16.6	-1.66
.5	.522	-16.6	-1.66
.5	.531	-3	-.3
.25	.016	-124.3	-12.43
.25	.028	-139.64	-13.964
.25	.039	-111.9	-11.19
.25	.051	-105.8	-10.58
.25	.064	-109.6	-10.96
.25	.076	-114.4	-11.44
.25	.087	-103.8	-10.38
.25	.1	-97.7	-9.77
.25	.114	-92.5	-9.25
.25	.128	-91.5	-9.15
.25	.14	-101.8	-10.18
.25	.151	-91.9	-9.19
.25	.164	-81.7	-8.17
.25	.178	-87.8	-8.78
.25	.193	-80.6	-8.06
.25	.204	-76.7	-7.67
.25	.216	-83.4	-8.34
.25	.242	-52.4	-5.24
.25	.255	-50.4	-5.04
.25	.267	-45.6	-4.56
.25	.278	-34.4	-3.44
.25	.291	-35.5	-3.55
.25	.304	-22.9	-2.29
.25	.317	-26.9	-2.69
.25	.328	-25.8	-2.58
.25	.339	-16.9	-1.69
.25	.352	-19.7	-1.97
.25	.364	-19	-1.9
.25	.376	-23.4	-2.34
.25	.387	-16.4	-1.64
.25	.397	-17.1	-1.71
.25	.408	-12.6	-1.26
.25	.419	-22.3	-2.23
.25	.43	-12.8	-1.28
.25	.44	-20	-2
.25	.449	-14.1	-1.41
.25	.459	-13.8	-1.38
.25	.469	-12.7	-1.27
.25	.48	-9.5	-.95
.25	.489	-13.8	-1.38
.25	.497	-10.8	-1.08
.25	.507	-14.5	-1.45
.25	.516	-13.2	-1.32
.25	.526	-9.2	-.92
.25	.536	-19.3	-1.93
.25	.545	-13.2	-1.32
.25	.55	-18.1	-1.81
