Measured thermophysical data. Measurement and correlation of solubility and solution thermodynamics of 1,3-dimethylurea in different solvents from T = (288.15 to 328.15) K
Source: J. Chem. Thermodyn., 2016, 10.1016/j.jct.2015.12.032
Compound 1: 1,3-dimethylurea, C3H8N2O, purity 99.8%
Compound 2: water, H2O
Compound 3: 2-butanol, C4H10O
Compound 4: 2-propanol, C3H8O
Compound 5: acetone, C3H6O
Compound 6: acetonitrile, C2H3N
Compound 7: ethyl acetate, C4H8O2
Compound 8: butyl acetate, C6H12O2

System: 1,3-dimethylurea; phases: Crystal, Liquid, Air at 1 atmosphere
Property: Normal melting temperature, K (Crystal); method: DSC/DTA
Normal melting temperature, K	uncertainty
376.35	.5

System: 1,3-dimethylurea; phases: Crystal, Liquid, Air at 1 atmosphere
Property: Molar enthalpy of transition or fusion, kJ/mol (Crystal); method: DSC
Molar enthalpy of transition or fusion, kJ/mol	uncertainty
12.76	.1276

System: water; phases: Liquid
Fixed: Pressure, kPa = 101.325
Property: Mass density, kg/m3 (Liquid); method: Pycnometric method
Temperature, K	Mass density, kg/m3	uncertainty
298.15	996.5	.29895

System: 2-butanol; phases: Liquid
Fixed: Pressure, kPa = 101.325
Property: Mass density, kg/m3 (Liquid); method: Pycnometric method
Temperature, K	Mass density, kg/m3	uncertainty
298.15	802.4	.24072

System: 2-propanol; phases: Liquid
Fixed: Pressure, kPa = 101.325
Property: Mass density, kg/m3 (Liquid); method: Pycnometric method
Temperature, K	Mass density, kg/m3	uncertainty
298.15	781.2	.23436

System: acetone; phases: Liquid
Fixed: Pressure, kPa = 101.325
Property: Mass density, kg/m3 (Liquid); method: Pycnometric method
Temperature, K	Mass density, kg/m3	uncertainty
298.15	785.1	.23553

System: acetonitrile; phases: Liquid
Fixed: Pressure, kPa = 101.325
Property: Mass density, kg/m3 (Liquid); method: Pycnometric method
Temperature, K	Mass density, kg/m3	uncertainty
298.15	777	.2331

System: ethyl acetate; phases: Liquid
Fixed: Pressure, kPa = 101.325
Property: Mass density, kg/m3 (Liquid); method: Pycnometric method
Temperature, K	Mass density, kg/m3	uncertainty
298.15	894.4	.26832

System: butyl acetate; phases: Liquid
Fixed: Pressure, kPa = 101.325
Property: Mass density, kg/m3 (Liquid); method: Pycnometric method
Temperature, K	Mass density, kg/m3	uncertainty
298.15	875.8	.26274

System: 1,3-dimethylurea + water; phases: Liquid, Crystal
Fixed: Pressure, kPa = 101.3
Property: Mole fraction of 1,3-dimethylurea (Liquid); method: Titration method
Temperature, K	Mole fraction of 1,3-dimethylurea	uncertainty
288.15	.3623	
293.15	.3802	
298.15	.4046	
303.15	.4359	
308.15	.4643	
313.15	.4938	
318.15	.5328	
323.15	.5702	
328.15	.6006	

System: 2-butanol + 1,3-dimethylurea; phases: Liquid, Crystal
Fixed: Pressure, kPa = 101.3
Property: Mole fraction of 1,3-dimethylurea (Liquid); method: Titration method
Temperature, K	Mole fraction of 1,3-dimethylurea	uncertainty
288.15	.3254	
293.15	.3527	
298.15	.3814	
303.15	.4121	
308.15	.4379	
313.15	.4602	
318.15	.4937	
323.15	.5235	
328.15	.5607	

System: 2-propanol + 1,3-dimethylurea; phases: Liquid, Crystal
Fixed: Pressure, kPa = 101.3
Property: Mole fraction of 1,3-dimethylurea (Liquid); method: Titration method
Temperature, K	Mole fraction of 1,3-dimethylurea	uncertainty
288.15	.3307	
293.15	.3519	
298.15	.3725	
303.15	.3901	
308.15	.4158	
313.15	.4378	
318.15	.4706	
323.15	.5005	
328.15	.5329	

System: acetone + 1,3-dimethylurea; phases: Liquid, Crystal
Fixed: Pressure, kPa = 101.3
Property: Mole fraction of 1,3-dimethylurea (Liquid); method: Titration method
Temperature, K	Mole fraction of 1,3-dimethylurea	uncertainty
288.15	.1287	
293.15	.1525	
298.15	.1771	
303.15	.2024	
308.15	.2278	
313.15	.2605	
318.15	.3008	
323.15	.3389	
328.15	.3759	

System: acetonitrile + 1,3-dimethylurea; phases: Liquid, Crystal
Fixed: Pressure, kPa = 101.3
Property: Mole fraction of 1,3-dimethylurea (Liquid); method: Titration method
Temperature, K	Mole fraction of 1,3-dimethylurea	uncertainty
288.15	.1019	
293.15	.1281	
298.15	.1509	
303.15	.1857	
308.15	.2158	
313.15	.2503	
318.15	.2818	
323.15	.3218	
328.15	.3629	

System: 1,3-dimethylurea + ethyl acetate; phases: Liquid, Crystal
Fixed: Pressure, kPa = 101.3
Property: Mole fraction of 1,3-dimethylurea (Liquid); method: Titration method
Temperature, K	Mole fraction of 1,3-dimethylurea	uncertainty
288.15	.0302	
293.15	.0421	
298.15	.0608	
303.15	.0825	
308.15	.1109	
313.15	.1403	
318.15	.1751	
323.15	.2204	
328.15	.2711	

System: 1,3-dimethylurea + butyl acetate; phases: Liquid, Crystal
Fixed: Pressure, kPa = 101.3
Property: Mole fraction of 1,3-dimethylurea (Liquid); method: Titration method
Temperature, K	Mole fraction of 1,3-dimethylurea	uncertainty
288.15	.0137	
293.15	.0205	
298.15	.0296	
303.15	.0408	
308.15	.0602	
313.15	.0834	
318.15	.1108	
323.15	.1481	
328.15	.1952	
