Measured thermophysical data. Measurement and correlation of (vapor + liquid) equilibrium data for {alpha-pinene  + p-cymene + (S)-(-)-limonene} ternary system at atmospheric pressure
Source: J. Chem. Thermodyn., 2013, 10.1016/j.jct.2012.10.017
Compound 1: .alpha.-pinene, C10H16, purity 95%
Compound 2: benzene, 1-(1-methylethyl)-4-methyl-, C10H14, purity 98%
Compound 3: cyclohexene, 1-methyl-4-(1-methylethenyl)-, (S)-,, C10H16, purity 95%

System: .alpha.-pinene; phases: Liquid, Gas
Property: Vapor or sublimation pressure, kPa (Liquid); method: Ebulliometric method (Recirculating still)
Temperature, K	Vapor or sublimation pressure, kPa	uncertainty
428.65	100.7	

System: benzene, 1-(1-methylethyl)-4-methyl-; phases: Liquid, Gas
Property: Vapor or sublimation pressure, kPa (Liquid); method: Ebulliometric method (Recirculating still)
Temperature, K	Vapor or sublimation pressure, kPa	uncertainty
449.39	100.7	

System: .alpha.-pinene + benzene, 1-(1-methylethyl)-4-methyl-; phases: Liquid, Gas
Property: Boiling temperature at pressure P, K (Liquid); method: Ebulliometric method (Recirculating still)
Mole fraction of .alpha.-pinene	Pressure, kPa	Boiling temperature at pressure P, K	uncertainty
0	100.7	449.39	.01
.0334	100.7	448.52	.01
.0747	100.7	447.52	.01
.1166	100.7	446.35	.01
.1997	100.7	444.21	.01
.2668	100.7	442.64	.01
.3422	100.7	440.9	.01
.3577	100.7	440.65	.01
.375	100.7	440.05	.01
.4195	100.7	439.36	.01
.4427	100.7	438.73	.01
.5074	100.7	437.33	.01
.5267	100.7	437.1	.01
.6083	100.7	435.45	.01
.7198	100.7	433.35	.01
.7305	100.7	432.91	.01
.8451	100.7	430.98	.01
.9021	100.7	430.1	.01
.9532	100.7	429.25	.01
1	100.7	428.65	.01

System: .alpha.-pinene + benzene, 1-(1-methylethyl)-4-methyl-; phases: Gas, Liquid
Property: Mole fraction of .alpha.-pinene (Gas); method: Chromatography
Mole fraction of .alpha.-pinene	Pressure, kPa	Mole fraction of .alpha.-pinene	uncertainty
0	100.7	0	.01
.0334	100.7	.0577	.01
.0747	100.7	.1258	.01
.1166	100.7	.1906	.01
.1997	100.7	.3059	.01
.2668	100.7	.3882	.01
.3422	100.7	.4736	.01
.3577	100.7	.4903	.01
.375	100.7	.5081	.01
.4195	100.7	.5527	.01
.4427	100.7	.5753	.01
.5074	100.7	.6354	.01
.5267	100.7	.6525	.01
.6083	100.7	.7234	.01
.7198	100.7	.8123	.01
.7305	100.7	.8204	.01
.8451	100.7	.9022	.01
.9021	100.7	.9399	.01
.9532	100.7	.9722	.01
1	100.7	1	.01

System: .alpha.-pinene + benzene, 1-(1-methylethyl)-4-methyl- + cyclohexene, 1-methyl-4-(1-methylethenyl)-, (S)-,; phases: Liquid, Gas
Property: Mole fraction of benzene, 1-(1-methylethyl)-4-methyl- (Liquid); method: Chromatography
Property: Mole fraction of .alpha.-pinene (Gas); method: Chromatography
Property: Mole fraction of benzene, 1-(1-methylethyl)-4-methyl- (Gas); method: Chromatography
Temperature, K	Pressure, kPa	Mole fraction of .alpha.-pinene	Mole fraction of benzene, 1-(1-methylethyl)-4-methyl-	uncertainty	Mole fraction of .alpha.-pinene	uncertainty	Mole fraction of benzene, 1-(1-methylethyl)-4-methyl-	uncertainty
447.15	100.7	.1028	.5951	.0001	.1515	.0001	.5762	.0001
441.66	100.7	.3315	.4358	.0001	.4528	.0001	.3569	.0001
440.35	100.7	.3845	.4077	.0001	.5123	.0001	.3284	.0001
440.14	100.7	.3852	.4057	.0001	.5167	.0001	.3231	.0001
440.11	100.7	.4041	.4012	.0001	.5285	.0001	.315	.0001
439.13	100.7	.4496	.3577	.0001	.5861	.0001	.2728	.0001
438.35	100.7	.4775	.3389	.0001	.6142	.0001	.2581	.0001
438.05	100.7	.486	.3361	.0001	.6226	.0001	.2501	.0001
437.55	100.7	.5116	.3233	.0001	.6434	.0001	.2382	.0001
437.25	100.7	.5245	.3322	.0001	.6493	.0001	.2452	.0001
437.15	100.7	.5395	.3198	.0001	.6615	.0001	.2356	.0001
445.85	100.7	.1378	.5988	.0001	.2188	.0001	.5588	.0001
436.35	100.7	.5749	.2928	.0001	.7026	.0001	.2076	.0001
435.95	100.7	.6149	.2504	.0001	.7291	.0001	.176	.0001
435.05	100.7	.6497	.2278	.0001	.7618	.0001	.1553	.0001
434.25	100.7	.6918	.1991	.0001	.7944	.0001	.1343	.0001
433.76	100.7	.7172	.1831	.0001	.8083	.0001	.1205	.0001
432.65	100.7	.7699	.1496	.0001	.8462	.0001	.0965	.0001
432.05	100.7	.7988	.1312	.0001	.8701	.0001	.0827	.0001
431.49	100.7	.8393	.1046	.0001	.8991	.0001	.0655	.0001
430.75	100.7	.8782	.0799	.0001	.9231	.0001	.0479	.0001
430.15	100.7	.9075	.0604	.0001	.9402	.0001	.0358	.0001
445.55	100.7	.1461	.5937	.0001	.2299	.0001	.5523	.0001
429.65	100.7	.9321	.0427	.0001	.9556	.0001	.0253	.0001
446.51	100.7	.0527	.8461	.0001	.0823	.0001	.8325	.0001
444.83	100.7	.1437	.7525	.0001	.2108	.0001	.7027	.0001
442.82	100.7	.2882	.6045	.0001	.3523	.0001	.5213	.0001
440.36	100.7	.4053	.4868	.0001	.5253	.0001	.3735	.0001
436.82	100.7	.5622	.3371	.0001	.687	.0001	.2733	.0001
446.57	100.7	.0593	.7518	.0001	.074	.0001	.7361	.0001
445.43	100.7	.1634	.6532	.0001	.2106	.0001	.6095	.0001
437.74	100.7	.5071	.2416	.0001	.6411	.0001	.1575	.0001
435.86	100.7	.5936	.1491	.0001	.7266	.0001	.1113	.0001
444.75	100.7	.1887	.5938	.0001	.2781	.0001	.5416	.0001
434.37	100.7	.6837	.0575	.0001	.7829	.0001	.0319	.0001
446.98	100.7	.1324	.4606	.0001	.2005	.0001	.4337	.0001
444.28	100.7	.2227	.3805	.0001	.3363	.0001	.3178	.0001
442.33	100.7	.3171	.2825	.0001	.4381	.0001	.2356	.0001
439.73	100.7	.4297	.1789	.0001	.5672	.0001	.1262	.0001
436.03	100.7	.5845	.0056	.0001	.7113	.0001	.0037	.0001
447.04	100.7	.1033	.3954	.0001	.1554	.0001	.3706	.0001
444.45	100.7	.2135	.2691	.0001	.3117	.0001	.2288	.0001
442.17	100.7	.3174	.1625	.0001	.4358	.0001	.1273	.0001
446.77	100.7	.1268	.2734	.0001	.1925	.0001	.2507	.0001
444.65	100.7	.191	.5936	.0001	.2825	.0001	.532	.0001
444.27	100.7	.2317	.1652	.0001	.3374	.0001	.1386	.0001
442.65	100.7	.3018	.0878	.0001	.4175	.0001	.0642	.0001
447.58	100.7	.0983	.1901	.0001	.1395	.0001	.1787	.0001
444.61	100.7	.2075	.0831	.0001	.3024	.0001	.0578	.0001
447.12	100.7	.1058	.0874	.0001	.1596	.0001	.0723	.0001
447.76	100.7	.0536	.0489	.0001	.1236	.0001	.0433	.0001
444.49	100.7	.2068	.5603	.0001	.3006	.0001	.5068	.0001
444.43	100.7	.2122	.5453	.0001	.3102	.0001	.4968	.0001
442.08	100.7	.3223	.4435	.0001	.4508	.0001	.367	.0001
441.73	100.7	.3298	.434	.0001	.4582	.0001	.3562	.0001
