Measured thermophysical data. A green process for recovery of 1-propanol/2-propanol from their aqueous solutions: Experimental and MD simulation studies
Source: J. Chem. Thermodyn., 2017, 10.1016/j.jct.2016.10.001
Compound 1: trishydroxymethylaminomethane, C4H11NO3, purity 99.5%
Compound 2: 1-propanol, C3H8O, purity 99.8%
Compound 3: 2-propanol, C3H8O, purity 99.9%
Compound 4: water, H2O, purity 99.9%

System: 1-propanol; phases: Liquid
Fixed: Pressure, kPa = 101.325
Property: Mass density, kg/m3 (Liquid); method: Vibrating tube method
Temperature, K	Mass density, kg/m3	uncertainty
298.2	799.92	.79992

System: 1-propanol; phases: Liquid, Gas
Property: Normal boiling temperature, K (Liquid); method: Ebulliometric method (Recirculating still)
Normal boiling temperature, K	uncertainty
370.3	.1

System: 2-propanol; phases: Liquid
Fixed: Pressure, kPa = 101.325
Property: Mass density, kg/m3 (Liquid); method: Vibrating tube method
Temperature, K	Mass density, kg/m3	uncertainty
298.2	780.85	.78085

System: 2-propanol; phases: Liquid, Gas
Property: Normal boiling temperature, K (Liquid); method: Ebulliometric method (Recirculating still)
Normal boiling temperature, K	uncertainty
355.5	.1

System: water; phases: Liquid
Fixed: Pressure, kPa = 101.325
Property: Mass density, kg/m3 (Liquid); method: Vibrating tube method
Temperature, K	Mass density, kg/m3	uncertainty
298.2	997.1	.9971

System: water; phases: Liquid, Gas
Property: Normal boiling temperature, K (Liquid); method: Ebulliometric method (Recirculating still)
Normal boiling temperature, K	uncertainty
373.2	.1

System: 1-propanol + water; phases: Liquid, Gas
Fixed: Pressure, kPa = 101.3
Property: Boiling temperature at pressure P, K (Liquid); method: Ebulliometric method (Recirculating still)
Mole fraction of 1-propanol	Boiling temperature at pressure P, K	uncertainty
0	373.2	
.011	368.3	
.029	365.1	
.04	363.9	
.034	364.3	
.057	362.5	
.087	361.6	
.225	361.1	
.242	361	
.261	361	
.312	361	
.313	361	
.354	360.9	
.473	360.9	
.607	361.3	
.727	362.3	
.791	363.2	
1	370.3	

System: 1-propanol + water; phases: Gas, Liquid
Fixed: Pressure, kPa = 101.3
Property: Mole fraction of 1-propanol (Gas); method: Chromatography
Mole fraction of 1-propanol	Mole fraction of 1-propanol	uncertainty
0	0	
.011	.176	
.029	.29	
.04	.315	
.034	.303	
.057	.358	
.087	.385	
.225	.401	
.242	.403	
.261	.402	
.312	.411	
.313	.412	
.354	.415	
.473	.438	
.607	.483	
.727	.553	
.791	.607	
1	1	

System: 2-propanol + water; phases: Liquid, Gas
Fixed: Pressure, kPa = 101.3
Property: Boiling temperature at pressure P, K (Liquid); method: Ebulliometric method (Recirculating still)
Mole fraction of 2-propanol	Boiling temperature at pressure P, K	uncertainty
0	373.2	
.004	369.7	
.006	369.2	
.009	367.3	
.017	364.4	
.027	361.7	
.05	358.5	
.234	355.1	
.297	355	
.402	354.5	
.477	354.2	
.61	353.6	
.685	353.5	
.871	354	
1	355.5	

System: 2-propanol + water; phases: Gas, Liquid
Fixed: Pressure, kPa = 101.3
Property: Mole fraction of 2-propanol (Gas); method: Chromatography
Mole fraction of 2-propanol	Mole fraction of 2-propanol	uncertainty
0	0	
.004	.123	
.006	.129	
.009	.201	
.017	.282	
.027	.354	
.05	.455	
.234	.531	
.297	.541	
.402	.567	
.477	.584	
.61	.644	
.685	.685	
.871	.844	
1	1	

System: 1-propanol + trishydroxymethylaminomethane + water; phases: Liquid, Gas
Fixed: Pressure, kPa = 101.3
Property: Mole fraction of water (Liquid); method: Chromatography
Property: Mole fraction of 1-propanol (Gas); method: Chromatography
Property: Mole fraction of water (Gas); method: Chromatography
Temperature, K	Mole fraction of 1-propanol	Mole fraction of water	uncertainty	Mole fraction of 1-propanol	uncertainty	Mole fraction of water	uncertainty
362.1	.648	.333	.005	.533	.005	.467	.005
361.7	.531	.433	.005	.488	.005	.512	.005
361.5	.496	.469	.005	.479	.005	.521	.005
361.4	.462	.504	.005	.47	.005	.53	.005
361.4	.42	.547	.005	.457	.005	.543	.005
361.4	.385	.584	.005	.445	.005	.555	.005
363.1	.595	.319	.005	.578	.005	.422	.005
362.3	.532	.387	.005	.543	.005	.457	.005
361.9	.482	.441	.005	.514	.005	.486	.005
361.7	.456	.468	.005	.501	.005	.499	.005
361.5	.42	.509	.005	.485	.005	.515	.005
361.7	.597	.384	.005	.507	.005	.493	.005
361.6	.408	.522	.005	.48	.005	.52	.005
361.6	.391	.54	.005	.475	.005	.525	.005
363.7	.552	.31	.005	.612	.005	.388	.005
363.3	.521	.346	.005	.595	.005	.405	.005
363.1	.502	.368	.005	.579	.005	.421	.005
362.7	.475	.398	.005	.559	.005	.441	.005
362.5	.439	.439	.005	.542	.005	.458	.005
362	.381	.503	.005	.511	.005	.489	.005
361.8	.333	.56	.005	.498	.005	.502	.005
361.7	.552	.43	.005	.486	.005	.514	.005
361.6	.511	.472	.005	.472	.005	.528	.005
361.5	.454	.529	.005	.454	.005	.546	.005
361.3	.42	.564	.005	.446	.005	.554	.005
361.4	.383	.602	.005	.439	.005	.561	.005
362.3	.613	.349	.005	.536	.005	.464	.005
361.9	.566	.395	.005	.512	.005	.488	.005

System: 2-propanol + trishydroxymethylaminomethane + water; phases: Liquid, Gas
Fixed: Pressure, kPa = 101.3
Property: Mole fraction of water (Liquid); method: Chromatography
Property: Mole fraction of 2-propanol (Gas); method: Chromatography
Property: Mole fraction of water (Gas); method: Chromatography
Temperature, K	Mole fraction of 2-propanol	Mole fraction of water	uncertainty	Mole fraction of 2-propanol	uncertainty	Mole fraction of water	uncertainty
354.1	.851	.125	.005	.834	.005	.166	.005
354.3	.86	.091	.005	.887	.005	.113	.005
353.9	.799	.154	.005	.827	.005	.173	.005
353.8	.772	.181	.005	.803	.005	.197	.005
353.5	.695	.263	.005	.742	.005	.258	.005
353.5	.637	.323	.005	.701	.005	.299	.005
353.6	.592	.368	.005	.673	.005	.327	.005
353.7	.522	.442	.005	.644	.005	.356	.005
354.4	.809	.088	.005	.877	.005	.123	.005
353.9	.756	.145	.005	.83	.005	.17	.005
353.6	.692	.214	.005	.785	.005	.215	.005
353.9	.805	.172	.005	.794	.005	.206	.005
353.6	.688	.219	.005	.781	.005	.219	.005
353.5	.596	.318	.005	.724	.005	.276	.005
353.6	.586	.329	.005	.715	.005	.285	.005
353.4	.528	.391	.005	.68	.005	.32	.005
353.4	.512	.41	.005	.676	.005	.324	.005
353.4	.455	.471	.005	.653	.005	.347	.005
353.6	.749	.229	.005	.753	.005	.247	.005
353.5	.72	.259	.005	.728	.005	.272	.005
353.5	.691	.289	.005	.71	.005	.29	.005
353.4	.65	.33	.005	.687	.005	.313	.005
353.5	.626	.355	.005	.674	.005	.326	.005
353.6	.561	.421	.005	.647	.005	.353	.005
353.6	.56	.422	.005	.64	.005	.36	.005
