Measured thermophysical data. Ebulliometric determination and prediction of (vapor + liquid) equilibria for binary and ternary mixtures containing alcohols (C1 C4) and dimethyl carbonate
Source: J. Chem. Thermodyn., 2012, 10.1016/j.jct.2011.08.006
Compound 1: methanol, CH4O
Compound 2: ethanol, C2H6O
Compound 3: propyl alcohol, C3H8O
Compound 4: n-butyl alcohol, C4H10O
Compound 5: dimethyl carbonate, C3H6O3
Compound 6: 2-propanol, C3H8O
Compound 7: butan-2-ol, C4H10O

System: methanol + propyl alcohol; phases: Liquid, Gas
Property: Boiling temperature at pressure P, K (Liquid); method: Ebulliometric method (Recirculating still)
Pressure, kPa	Mole fraction of methanol	Boiling temperature at pressure P, K	uncertainty
40	0	347.61	.02
40	.058	344.45	.02
40	.103	342.15	.02
40	.155	339.87	.02
40	.202	337.68	.02
40	.253	335.25	.02
40	.296	333.53	.02
40	.352	331.73	.02
40	.406	329.71	.02
40	.449	328.47	.02
40	.501	326.8	.02
40	.548	325.53	.02
40	.597	324.19	.02
40	.648	322.96	.02
40	.7	321.72	.02
40	.748	320.67	.02
40	.797	319.63	.02
40	.85	318.65	.02
40	.898	317.61	.02
40	.949	316.7	.02
40	1	315.75	.02
53.33	0	354.23	.02
53.33	.058	351.1	.02
53.33	.103	348.9	.02
53.33	.155	346.52	.02
53.33	.202	344.44	.02
53.33	.253	342.09	.02
53.33	.296	340.3	.02
53.33	.352	338.47	.02
53.33	.406	336.45	.02
53.33	.449	335.2	.02
53.33	.501	333.49	.02
53.33	.548	332.21	.02
53.33	.597	330.86	.02
53.33	.648	329.6	.02
53.33	.7	328.33	.02
53.33	.748	327.29	.02
53.33	.797	326.21	.02
53.33	.85	325.18	.02
53.33	.898	324.11	.02
53.33	.949	323.18	.02
53.33	1	322.2	.02
66.66	0	359.6	.02
66.66	.058	356.48	.02
66.66	.103	354.31	.02
66.66	.155	351.92	.02
66.66	.202	349.81	.02
66.66	.253	347.58	.02
66.66	.296	346.09	.02
66.66	.352	343.92	.02
66.66	.406	341.88	.02
66.66	.449	340.66	.02
66.66	.501	338.92	.02
66.66	.548	337.6	.02
66.66	.597	336.26	.02
66.66	.648	334.95	.02
66.66	.7	333.68	.02
66.66	.748	332.56	.02
66.66	.797	331.49	.02
66.66	.85	330.44	.02
66.66	.898	329.39	.02
66.66	.949	328.41	.02
66.66	1	327.42	.02
79.99	0	364.13	.02
79.99	.058	361.03	.02
79.99	.103	358.92	.02
79.99	.155	356.58	.02
79.99	.202	354.45	.02
79.99	.253	352.19	.02
79.99	.296	350.69	.02
79.99	.352	348.53	.02
79.99	.406	346.51	.02
79.99	.449	345.24	.02
79.99	.501	343.48	.02
79.99	.548	342.13	.02
79.99	.597	340.8	.02
79.99	.648	339.49	.02
79.99	.7	338.19	.02
79.99	.748	337.07	.02
79.99	.797	335.96	.02
79.99	.85	334.86	.02
79.99	.898	333.83	.02
79.99	.949	332.83	.02
79.99	1	331.84	.02
93.32	0	368.07	.02
93.32	.058	365.01	.02
93.32	.103	362.95	.02
93.32	.155	360.5	.02
93.32	.202	358.46	.02
93.32	.253	356.19	.02
93.32	.296	354.8	.02
93.32	.352	352.52	.02
93.32	.406	350.57	.02
93.32	.449	349.19	.02
93.32	.501	347.45	.02
93.32	.548	346.11	.02
93.32	.597	344.78	.02
93.32	.648	343.4	.02
93.32	.7	342.1	.02
93.32	.748	340.97	.02
93.32	.797	339.84	.02
93.32	.85	338.73	.02
93.32	.898	337.74	.02
93.32	.949	336.67	.02
93.32	1	335.66	.02

System: propyl alcohol + dimethyl carbonate; phases: Liquid, Gas
Property: Boiling temperature at pressure P, K (Liquid); method: Ebulliometric method (Recirculating still)
Pressure, kPa	Mole fraction of propyl alcohol	Boiling temperature at pressure P, K	uncertainty
40	0	336.68	.02
40	.056	335.69	.02
40	.103	335.11	.02
40	.15	334.74	.02
40	.201	334.56	.02
40	.251	334.45	.02
40	.302	334.46	.02
40	.352	334.52	.02
40	.399	334.6	.02
40	.45	334.81	.02
40	.498	335.04	.02
40	.601	335.72	.02
40	.697	336.74	.02
40	.745	337.35	.02
40	.8	338.48	.02
40	.902	341.66	.02
40	1	347.61	.02
53.33	0	344.38	.02
53.33	.056	343.34	.02
53.33	.103	342.7	.02
53.33	.15	342.29	.02
53.33	.201	341.96	.02
53.33	.251	341.91	.02
53.33	.302	341.88	.02
53.33	.352	341.91	.02
53.33	.399	341.96	.02
53.33	.45	342.16	.02
53.33	.498	342.36	.02
53.33	.601	342.91	.02
53.33	.697	344	.02
53.33	.745	344.64	.02
53.33	.8	345.73	.02
53.33	.902	348.75	.02
53.33	1	354.23	.02
66.66	0	350.66	.02
66.66	.056	349.57	.02
66.66	.103	348.89	.02
66.66	.15	348.43	.02
66.66	.201	348.16	.02
66.66	.251	347.96	.02
66.66	.302	347.9	.02
66.66	.352	347.91	.02
66.66	.399	347.93	.02
66.66	.45	348.13	.02
66.66	.498	348.28	.02
66.66	.601	348.71	.02
66.66	.697	349.87	.02
66.66	.745	350.53	.02
66.66	.8	351.56	.02
66.66	.902	354.52	.02
66.66	1	359.6	.02
79.99	0	356.01	.02
79.99	.056	354.87	.02
79.99	.103	354.15	.02
79.99	.15	353.67	.02
79.99	.201	353.35	.02
79.99	.251	353.12	.02
79.99	.302	352.97	.02
79.99	.352	353.02	.02
79.99	.399	352.99	.02
79.99	.45	353.19	.02
79.99	.498	353.28	.02
79.99	.601	353.67	.02
79.99	.697	354.79	.02
79.99	.745	355.52	.02
79.99	.8	356.48	.02
79.99	.902	359.29	.02
79.99	1	364.13	.02
93.32	0	360.68	.02
93.32	.056	359.5	.02
93.32	.103	358.66	.02
93.32	.15	358.23	.02
93.32	.201	357.88	.02
93.32	.251	357.63	.02
93.32	.302	357.41	.02
93.32	.352	357.48	.02
93.32	.399	357.4	.02
93.32	.45	357.6	.02
93.32	.498	357.64	.02
93.32	.601	357.77	.02
93.32	.697	359.07	.02
93.32	.745	359.85	.02
93.32	.8	360.66	.02
93.32	.902	363.46	.02
93.32	1	368.07	.02

System: propyl alcohol + dimethyl carbonate; phases: Liquid, Gas
Property: Azeotropic composition: mole fraction of propyl alcohol (Liquid); method: By X=Y
Temperature, K	Azeotropic composition: mole fraction of propyl alcohol	uncertainty
334.46	.276	.001
341.87	.291	.001
347.89	.322	.001
352.98	.344	.001
357.42	.346	.001

System: propyl alcohol + dimethyl carbonate; phases: Liquid, Gas
Property: Azeotropic composition: mole fraction of propyl alcohol (Liquid); method: By X=Y
Pressure, kPa	Azeotropic composition: mole fraction of propyl alcohol	uncertainty
40	.276	.001
53.33	.291	.001
66.66	.322	.001
79.99	.344	.001
93.32	.346	.001

System: 2-propanol + dimethyl carbonate; phases: Liquid, Gas
Property: Boiling temperature at pressure P, K (Liquid); method: Ebulliometric method (Recirculating still)
Pressure, kPa	Mole fraction of 2-propanol	Boiling temperature at pressure P, K	uncertainty
40	0	336.68	.02
40	.102	332.55	.02
40	.199	330.48	.02
40	.298	329.33	.02
40	.348	328.99	.02
40	.397	328.76	.02
40	.445	328.59	.02
40	.494	328.5	.02
40	.549	328.46	.02
40	.599	328.5	.02
40	.645	328.57	.02
40	.694	328.73	.02
40	.744	328.99	.02
40	.798	329.41	.02
40	.847	329.94	.02
40	.894	330.68	.02
40	1	333.92	.02
53.33	0	344.38	.02
53.33	.102	340.08	.02
53.33	.199	337.83	.02
53.33	.298	336.52	.02
53.33	.348	336.09	.02
53.33	.397	335.82	.02
53.33	.445	335.6	.02
53.33	.494	335.47	.02
53.33	.549	335.37	.02
53.33	.599	335.38	.02
53.33	.645	335.42	.02
53.33	.694	335.56	.02
53.33	.744	335.78	.02
53.33	.798	336.16	.02
53.33	.847	336.63	.02
53.33	.894	337.32	.02
53.33	1	340.21	.02
66.66	0	350.66	.02
66.66	.102	346.23	.02
66.66	.199	343.81	.02
66.66	.298	342.38	.02
66.66	.348	341.91	.02
66.66	.397	341.56	.02
66.66	.445	341.31	.02
66.66	.494	341.14	.02
66.66	.549	341.03	.02
66.66	.599	340.97	.02
66.66	.645	340.98	.02
66.66	.694	341.1	.02
66.66	.744	341.29	.02
66.66	.798	341.62	.02
66.66	.847	342.06	.02
66.66	.894	342.66	.02
66.66	1	345.29	.02
79.99	0	356.01	.02
79.99	.102	351.47	.02
79.99	.199	348.91	.02
79.99	.298	347.36	.02
79.99	.348	346.81	.02
79.99	.397	346.43	.02
79.99	.445	346.15	.02
79.99	.494	345.94	.02
79.99	.549	345.79	.02
79.99	.599	345.71	.02
79.99	.645	345.72	.02
79.99	.694	345.79	.02
79.99	.744	345.95	.02
79.99	.798	346.24	.02
79.99	.847	346.64	.02
79.99	.894	347.2	.02
79.99	1	349.6	.02
93.32	0	360.68	.02
93.32	.102	356.07	.02
93.32	.199	353.41	.02
93.32	.298	351.72	.02
93.32	.348	351.13	.02
93.32	.397	350.69	.02
93.32	.445	350.39	.02
93.32	.494	350.13	.02
93.32	.549	349.94	.02
93.32	.599	349.84	.02
93.32	.645	349.81	.02
93.32	.694	349.87	.02
93.32	.744	350	.02
93.32	.798	350.26	.02
93.32	.847	350.62	.02
93.32	.894	351.14	.02
93.32	1	353.34	.02

System: 2-propanol + dimethyl carbonate; phases: Liquid, Gas
Property: Azeotropic composition: mole fraction of 2-propanol (Liquid); method: By X=Y
Pressure, kPa	Azeotropic composition: mole fraction of 2-propanol	uncertainty
40	.551	.001
53.33	.581	.001
66.66	.604	.001
79.99	.623	.001
93.32	.64	.001

System: 2-propanol + dimethyl carbonate; phases: Liquid, Gas
Property: Azeotropic composition: mole fraction of 2-propanol (Liquid); method: By X=Y
Temperature, K	Azeotropic composition: mole fraction of 2-propanol	uncertainty
328.46	.551	.001
335.37	.581	.001
340.97	.604	.001
345.71	.623	.001
349.82	.64	.001

System: n-butyl alcohol + dimethyl carbonate; phases: Liquid, Gas
Property: Boiling temperature at pressure P, K (Liquid); method: Ebulliometric method (Recirculating still)
Pressure, kPa	Mole fraction of n-butyl alcohol	Boiling temperature at pressure P, K	uncertainty
40	0	336.68	.02
40	.101	337.45	.02
40	.2	338.35	.02
40	.301	339.36	.02
40	.398	340.48	.02
40	.5	341.88	.02
40	.598	343.55	.02
40	.7	345.91	.02
40	.797	349.57	.02
40	.898	356.16	.02
40	1	366.71	.02
53.33	0	344.38	.02
53.33	.101	345.17	.02
53.33	.2	346.08	.02
53.33	.301	347.15	.02
53.33	.398	348.31	.02
53.33	.5	349.77	.02
53.33	.598	351.54	.02
53.33	.7	353.92	.02
53.33	.797	357.6	.02
53.33	.898	363.73	.02
53.33	1	373.72	.02
66.66	0	350.66	.02
66.66	.101	351.46	.02
66.66	.2	352.37	.02
66.66	.301	353.46	.02
66.66	.398	354.65	.02
66.66	.5	356.17	.02
66.66	.598	358.01	.02
66.66	.7	360.38	.02
66.66	.797	364.21	.02
66.66	.898	369.77	.02
66.66	1	379.41	.02
79.99	0	356.01	.02
79.99	.101	356.8	.02
79.99	.2	357.71	.02
79.99	.301	358.83	.02
79.99	.398	360.07	.02
79.99	.5	361.6	.02
79.99	.598	363.47	.02
79.99	.7	365.69	.02
79.99	.797	369.75	.02
79.99	.898	374.76	.02
79.99	1	384.24	.02
93.32	0	360.68	.02
93.32	.101	361.46	.02
93.32	.2	362.39	.02
93.32	.301	363.51	.02
93.32	.398	364.77	.02
93.32	.5	366.34	.02
93.32	.598	368.31	.02
93.32	.7	370.28	.02
93.32	.797	374.69	.02
93.32	.898	378.75	.02
93.32	1	388.46	.02

System: butan-2-ol + dimethyl carbonate; phases: Liquid, Gas
Property: Boiling temperature at pressure P, K (Liquid); method: Ebulliometric method (Recirculating still)
Pressure, kPa	Mole fraction of butan-2-ol	Boiling temperature at pressure P, K	uncertainty
40	0	336.68	.02
40	.051	336.21	.02
40	.102	335.98	.02
40	.152	335.91	.02
40	.199	335.83	.02
40	.251	335.95	.02
40	.3	336.05	.02
40	.348	336.23	.02
40	.403	336.49	.02
40	.45	336.78	.02
40	.501	337.15	.02
40	.598	338.05	.02
40	.697	339.33	.02
40	.798	341.3	.02
40	.895	344.33	.02
40	1	349.67	.02
53.33	0	344.38	.02
53.33	.051	343.88	.02
53.33	.102	343.63	.02
53.33	.152	343.53	.02
53.33	.199	343.42	.02
53.33	.251	343.49	.02
53.33	.3	343.57	.02
53.33	.348	343.76	.02
53.33	.403	343.98	.02
53.33	.45	344.26	.02
53.33	.501	344.61	.02
53.33	.598	345.51	.02
53.33	.697	346.77	.02
53.33	.798	348.62	.02
53.33	.895	351.47	.02
53.33	1	356.33	.02
66.66	0	350.66	.02
66.66	.051	350.14	.02
66.66	.102	349.87	.02
66.66	.152	349.74	.02
66.66	.199	349.61	.02
66.66	.251	349.64	.02
66.66	.3	349.72	.02
66.66	.348	349.86	.02
66.66	.403	350.11	.02
66.66	.45	350.35	.02
66.66	.501	350.69	.02
66.66	.598	351.56	.02
66.66	.697	352.79	.02
66.66	.798	354.56	.02
66.66	.895	357.29	.02
66.66	1	361.75	.02
79.99	0	356.01	.02
79.99	.051	355.49	.02
79.99	.102	355.19	.02
79.99	.152	355.02	.02
79.99	.199	354.88	.02
79.99	.251	354.88	.02
79.99	.3	354.94	.02
79.99	.348	355.07	.02
79.99	.403	355.28	.02
79.99	.45	355.52	.02
79.99	.501	355.86	.02
79.99	.598	356.66	.02
79.99	.697	357.88	.02
79.99	.798	359.57	.02
79.99	.895	362.15	.02
79.99	1	366.35	.02
93.32	0	360.68	.02
93.32	.051	360.16	.02
93.32	.102	359.82	.02
93.32	.152	359.64	.02
93.32	.199	359.47	.02
93.32	.251	359.45	.02
93.32	.3	359.5	.02
93.32	.348	359.6	.02
93.32	.403	359.8	.02
93.32	.45	360.03	.02
93.32	.501	360.34	.02
93.32	.598	361.15	.02
93.32	.697	362.33	.02
93.32	.798	364	.02
93.32	.895	366.43	.02
93.32	1	370.38	.02

System: butan-2-ol + dimethyl carbonate; phases: Liquid, Gas
Property: Azeotropic composition: mole fraction of butan-2-ol (Liquid); method: By X=Y
Temperature, K	Azeotropic composition: mole fraction of butan-2-ol	uncertainty
335.88	.177	.001
343.45	.199	.001
349.62	.217	.001
354.88	.233	.001
359.45	.246	.001

System: butan-2-ol + dimethyl carbonate; phases: Liquid, Gas
Property: Azeotropic composition: mole fraction of butan-2-ol (Liquid); method: By X=Y
Pressure, kPa	Azeotropic composition: mole fraction of butan-2-ol	uncertainty
40	.177	.001
53.33	.199	.001
66.66	.217	.001
79.99	.233	.001
93.32	.246	.001

System: methanol + propyl alcohol + dimethyl carbonate; phases: Liquid, Gas
Property: Boiling temperature at pressure P, K (Liquid); method: Ebulliometric method (Recirculating still)
Pressure, kPa	Mole fraction of methanol	Mole fraction of propyl alcohol	Boiling temperature at pressure P, K	uncertainty
40	.104	.851	339.33	.02
40	.103	.807	337.38	.02
40	.101	.719	334.43	.02
40	.106	.626	332.45	.02
40	.103	.538	331.15	.02
40	.103	.449	330.28	.02
40	.1	.36	329.47	.02
40	.102	.269	328.65	.02
40	.1	.18	327.79	.02
40	.1	.09	327.27	.02
40	.104	.045	326.18	.02
40	.202	.758	335.08	.02
40	.199	.721	333.82	.02
40	.201	.639	330.62	.02
40	.202	.559	329.66	.02
40	.204	.478	327.61	.02
40	.202	.399	326.45	.02
40	.204	.398	326.83	.02
40	.203	.319	326.47	.02
40	.2	.24	324.99	.02
40	.199	.16	323.5	.02
40	.2	.08	322.67	.02
40	.201	.04	321.39	.02
40	.302	.663	331.33	.02
40	.3	.63	329.9	.02
40	.302	.558	327.55	.02
40	.3	.49	326.33	.02
40	.297	.351	325.13	.02
40	.301	.349	324.03	.02
40	.298	.281	322.82	.02
40	.299	.21	321.95	.02
40	.302	.14	320.66	.02
40	.301	.07	319.63	.02
40	.298	.035	319.04	.02
40	.4	.57	328.3	.02
40	.403	.538	327.49	.02
40	.401	.479	325.07	.02
40	.4	.42	324.07	.02
40	.4	.36	322.58	.02
40	.398	.301	321.65	.02
40	.399	.24	320.75	.02
40	.396	.181	319.8	.02
40	.4	.12	318.84	.02
40	.406	.059	317.61	.02
40	.401	.03	317.22	.02
40	.499	.476	325.58	.02
40	.499	.451	324.45	.02
40	.498	.402	322.97	.02
40	.496	.353	321.78	.02
40	.498	.301	320.85	.02
40	.5	.25	319.83	.02
40	.496	.202	319.11	.02
40	.5	.15	318.21	.02
40	.499	.1	317.46	.02
40	.497	.05	316.59	.02
40	.498	.025	316.21	.02
40	.6	.38	323.17	.02
40	.596	.364	322.43	.02
40	.597	.323	321.1	.02
40	.598	.241	319.23	.02
40	.597	.201	318.43	.02
40	.596	.162	317.82	.02
40	.597	.121	317.06	.02
40	.602	.08	316.43	.02
40	.597	.04	315.75	.02
40	.604	.02	315.45	.02
40	.629	.26	319.83	.02
40	.7	.27	320.43	.02
40	.697	.243	319.48	.02
40	.698	.211	318.59	.02
40	.698	.181	317.94	.02
40	.698	.151	317.24	.02
40	.697	.121	316.76	.02
40	.701	.06	315.67	.02
40	.7	.03	315.14	.02
40	.697	.015	314.95	.02
40	.713	.086	316.01	.02
40	.797	.193	319.13	.02
40	.798	.182	318.74	.02
40	.798	.161	318.05	.02
40	.799	.141	317.4	.02
40	.798	.121	316.89	.02
40	.797	.102	316.43	.02
40	.8	.08	315.95	.02
40	.799	.06	315.52	.02
40	.799	.04	315.17	.02
40	.798	.02	314.82	.02
40	.798	.01	314.59	.02
40	.899	.096	317.4	.02
40	.899	.091	317.21	.02
40	.899	.081	316.83	.02
40	.899	.071	316.49	.02
40	.899	.061	316.18	.02
40	.9	.05	315.88	.02
40	.901	.04	315.6	.02
40	.899	.03	315.33	.02
40	.898	.02	315.08	.02
40	.899	.01	314.85	.02
40	.899	.005	314.74	.02
53.33	.104	.851	346.41	.02
53.33	.103	.807	344.36	.02
53.33	.101	.719	341.54	.02
53.33	.106	.626	339.44	.02
53.33	.103	.538	338.03	.02
53.33	.103	.449	337.09	.02
53.33	.1	.36	336.01	.02
53.33	.102	.269	335.81	.02
53.33	.1	.18	334.82	.02
53.33	.1	.09	334.4	.02
53.33	.104	.045	333.6	.02
53.33	.202	.758	341.92	.02
53.33	.199	.721	340.72	.02
53.33	.201	.639	337.64	.02
53.33	.202	.559	336.47	.02
53.33	.204	.478	334.49	.02
53.33	.202	.399	333.43	.02
53.33	.204	.398	333.58	.02
53.33	.203	.319	332.41	.02
53.33	.2	.24	331.88	.02
53.33	.199	.16	330.6	.02
53.33	.2	.08	329.62	.02
53.33	.201	.04	328.49	.02
53.33	.302	.663	338.17	.02
53.33	.3	.63	336.86	.02
53.33	.302	.558	334.5	.02
53.33	.3	.49	333.23	.02
53.33	.297	.351	332.07	.02
53.33	.301	.349	330.94	.02
53.33	.298	.281	329.67	.02
53.33	.299	.21	328.82	.02
53.33	.302	.14	327.56	.02
53.33	.301	.07	326.56	.02
53.33	.298	.035	326.04	.02
53.33	.4	.57	335	.02
53.33	.403	.538	334.3	.02
53.33	.401	.479	331.95	.02
53.33	.4	.42	330.96	.02
53.33	.4	.36	329.42	.02
53.33	.398	.301	328.48	.02
53.33	.399	.24	327.57	.02
53.33	.396	.181	326.61	.02
53.33	.4	.12	325.65	.02
53.33	.406	.059	324.44	.02
53.33	.401	.03	324.03	.02
53.33	.499	.476	332.3	.02
53.33	.499	.451	331.25	.02
53.33	.498	.402	329.77	.02
53.33	.496	.353	328.57	.02
53.33	.498	.301	327.61	.02
53.33	.5	.25	326.6	.02
53.33	.496	.202	325.84	.02
53.33	.5	.15	324.93	.02
53.33	.499	.1	324.2	.02
53.33	.497	.05	323.34	.02
53.33	.498	.025	322.92	.02
53.33	.6	.38	329.84	.02
53.33	.596	.364	329.12	.02
53.33	.597	.323	327.85	.02
53.33	.598	.241	325.96	.02
53.33	.597	.201	325.12	.02
53.33	.596	.162	324.52	.02
53.33	.597	.121	323.73	.02
53.33	.602	.08	323.1	.02
53.33	.597	.04	322.42	.02
53.33	.604	.02	322.1	.02
53.33	.629	.26	326.53	.02
53.33	.7	.27	327.06	.02
53.33	.697	.243	326.15	.02
53.33	.698	.211	325.26	.02
53.33	.698	.181	324.58	.02
53.33	.698	.151	323.88	.02
53.33	.697	.121	323.4	.02
53.33	.701	.06	322.29	.02
53.33	.7	.03	321.73	.02
53.33	.697	.015	321.55	.02
53.33	.713	.086	322.65	.02
53.33	.797	.193	325.71	.02
53.33	.798	.182	325.31	.02
53.33	.798	.161	324.6	.02
53.33	.799	.141	324.02	.02
53.33	.798	.121	323.46	.02
53.33	.797	.102	323.01	.02
53.33	.8	.08	322.52	.02
53.33	.799	.06	321.6	.02
53.33	.799	.04	321.72	.02
53.33	.798	.02	321.38	.02
53.33	.798	.01	321.17	.02
53.33	.899	.096	323.9	.02
53.33	.899	.091	323.72	.02
53.33	.899	.081	323.35	.02
53.33	.899	.071	323.01	.02
53.33	.899	.061	322.71	.02
53.33	.9	.05	322.4	.02
53.33	.901	.04	322.13	.02
53.33	.899	.03	321.86	.02
53.33	.898	.02	321.61	.02
53.33	.899	.01	321.38	.02
53.33	.899	.005	321.26	.02
66.66	.104	.851	351.9	.02
66.66	.103	.807	350.12	.02
66.66	.101	.719	347.17	.02
66.66	.106	.626	345.1	.02
66.66	.103	.538	343.65	.02
66.66	.103	.449	342.68	.02
66.66	.1	.36	341.3	.02
66.66	.102	.269	341.49	.02
66.66	.1	.18	340.57	.02
66.66	.1	.09	340.4	.02
66.66	.104	.045	339.6	.02
66.66	.202	.758	347.46	.02
66.66	.199	.721	346.24	.02
66.66	.201	.639	343.31	.02
66.66	.202	.559	341.95	.02
66.66	.204	.478	340.02	.02
66.66	.202	.399	338.94	.02
66.66	.204	.398	339.11	.02
66.66	.203	.319	337.99	.02
66.66	.2	.24	337.33	.02
66.66	.199	.16	336.4	.02
66.66	.2	.08	335.39	.02
66.66	.201	.04	334.34	.02
66.66	.302	.663	343.72	.02
66.66	.3	.63	342.48	.02
66.66	.302	.558	340.11	.02
66.66	.3	.49	338.86	.02
66.66	.297	.351	337.66	.02
66.66	.301	.349	336.45	.02
66.66	.298	.281	335.25	.02
66.66	.299	.21	334.47	.02
66.66	.302	.14	333.12	.02
66.66	.301	.07	332.24	.02
66.66	.298	.035	331.76	.02
66.66	.4	.57	340.56	.02
66.66	.403	.538	339.66	.02
66.66	.401	.479	337.5	.02
66.66	.4	.42	336.45	.02
66.66	.4	.36	334.95	.02
66.66	.398	.301	333.99	.02
66.66	.399	.24	333.1	.02
66.66	.396	.181	332.09	.02
66.66	.4	.12	331.17	.02
66.66	.406	.059	329.96	.02
66.66	.401	.03	329.54	.02
66.66	.499	.476	337.78	.02
66.66	.499	.451	336.76	.02
66.66	.498	.402	335.29	.02
66.66	.496	.353	334.07	.02
66.66	.498	.301	333.08	.02
66.66	.5	.25	332.05	.02
66.66	.496	.202	331.33	.02
66.66	.5	.15	330.41	.02
66.66	.499	.1	329.64	.02
66.66	.497	.05	328.83	.02
66.66	.498	.025	328.38	.02
66.66	.6	.38	335.22	.02
66.66	.596	.364	334.56	.02
66.66	.597	.323	333.29	.02
66.66	.598	.241	331.38	.02
66.66	.597	.201	330.54	.02
66.66	.596	.162	329.93	.02
66.66	.597	.121	329.14	.02
66.66	.602	.08	328.5	.02
66.66	.597	.04	327.82	.02
66.66	.604	.02	327.5	.02
66.66	.629	.26	331.98	.02
66.66	.7	.27	332.45	.02
66.66	.697	.243	331.53	.02
66.66	.698	.211	330.64	.02
66.66	.698	.181	329.96	.02
66.66	.698	.151	329.28	.02
66.66	.697	.121	328.77	.02
66.66	.701	.06	327.65	.02
66.66	.7	.03	327.1	.02
66.66	.697	.015	326.89	.02
66.66	.713	.086	328.02	.02
66.66	.797	.193	331.02	.02
66.66	.798	.182	330.62	.02
66.66	.798	.161	329.94	.02
66.66	.799	.141	329.36	.02
66.66	.798	.121	328.81	.02
66.66	.797	.102	328.34	.02
66.66	.8	.08	327.86	.02
66.66	.799	.06	327.43	.02
66.66	.799	.04	327.05	.02
66.66	.798	.02	326.69	.02
66.66	.798	.01	326.48	.02
66.66	.899	.096	329.15	.02
66.66	.899	.091	328.98	.02
66.66	.899	.081	328.63	.02
66.66	.899	.071	328.27	.02
66.66	.899	.061	327.97	.02
66.66	.9	.05	327.66	.02
66.66	.901	.04	327.39	.02
66.66	.899	.03	327.13	.02
66.66	.898	.02	326.88	.02
66.66	.899	.01	326.64	.02
66.66	.899	.005	326.52	.02
79.99	.104	.851	356.57	.02
79.99	.103	.807	354.82	.02
79.99	.101	.719	351.81	.02
79.99	.106	.626	349.85	.02
79.99	.103	.538	348.43	.02
79.99	.103	.449	347.36	.02
79.99	.1	.36	345.5	.02
79.99	.102	.269	346.41	.02
79.99	.1	.18	345.42	.02
79.99	.1	.09	345.24	.02
79.99	.104	.045	344.8	.02
79.99	.202	.758	352.12	.02
79.99	.199	.721	350.95	.02
79.99	.201	.639	348.08	.02
79.99	.202	.559	346.54	.02
79.99	.204	.478	344.76	.02
79.99	.202	.399	343.65	.02
79.99	.204	.398	343.74	.02
79.99	.203	.319	342.75	.02
79.99	.2	.24	341.96	.02
79.99	.199	.16	341.34	.02
79.99	.2	.08	340.29	.02
79.99	.201	.04	339.24	.02
79.99	.302	.663	348.37	.02
79.99	.3	.63	347.2	.02
79.99	.302	.558	344.81	.02
79.99	.3	.49	343.54	.02
79.99	.297	.351	342.42	.02
79.99	.301	.349	341.15	.02
79.99	.298	.281	339.92	.02
79.99	.299	.21	339.18	.02
79.99	.302	.14	337.84	.02
79.99	.301	.07	336.99	.02
79.99	.298	.035	336.6	.02
79.99	.4	.57	345.19	.02
79.99	.403	.538	344.3	.02
79.99	.401	.479	342.18	.02
79.99	.4	.42	341.12	.02
79.99	.4	.36	339.6	.02
79.99	.398	.301	338.66	.02
79.99	.399	.24	337.72	.02
79.99	.396	.181	336.76	.02
79.99	.4	.12	335.77	.02
79.99	.406	.059	334.67	.02
79.99	.401	.03	334.24	.02
79.99	.499	.476	342.38	.02
79.99	.499	.451	341.37	.02
79.99	.498	.402	339.91	.02
79.99	.496	.353	338.71	.02
79.99	.498	.301	337.72	.02
79.99	.5	.25	336.68	.02
79.99	.496	.202	335.94	.02
79.99	.5	.15	335.02	.02
79.99	.499	.1	334.25	.02
79.99	.497	.05	333.45	.02
79.99	.498	.025	332.99	.02
79.99	.6	.38	339.79	.02
79.99	.596	.364	339.13	.02
79.99	.597	.323	337.87	.02
79.99	.598	.241	335.94	.02
79.99	.597	.201	335.13	.02
79.99	.596	.162	334.52	.02
79.99	.597	.121	333.71	.02
79.99	.602	.08	333.06	.02
79.99	.597	.04	332.37	.02
79.99	.604	.02	332.05	.02
79.99	.629	.26	336.59	.02
79.99	.7	.27	336.96	.02
79.99	.697	.243	336.07	.02
79.99	.698	.211	335.19	.02
79.99	.698	.181	334.49	.02
79.99	.698	.151	333.85	.02
79.99	.697	.121	333.3	.02
79.99	.701	.06	332.16	.02
79.99	.7	.03	331.63	.02
79.99	.697	.015	331.41	.02
79.99	.713	.086	332.56	.02
79.99	.797	.193	335.51	.02
79.99	.798	.182	335.11	.02
79.99	.798	.161	334.44	.02
79.99	.799	.141	333.85	.02
79.99	.798	.121	333.31	.02
79.99	.797	.102	332.85	.02
79.99	.8	.08	332.36	.02
79.99	.799	.06	331.95	.02
79.99	.799	.04	331.55	.02
79.99	.798	.02	331.18	.02
79.99	.798	.01	330.98	.02
79.99	.899	.096	333.59	.02
79.99	.899	.091	333.42	.02
79.99	.899	.081	333.06	.02
79.99	.899	.071	332.71	.02
79.99	.899	.061	332.42	.02
79.99	.9	.05	332.11	.02
79.99	.901	.04	331.83	.02
79.99	.899	.03	331.57	.02
79.99	.898	.02	331.33	.02
79.99	.899	.01	331.09	.02
79.99	.899	.005	330.96	.02
93.32	.104	.851	360.61	.02
93.32	.103	.807	358.79	.02
93.32	.101	.719	356.02	.02
93.32	.106	.626	354	.02
93.32	.103	.538	352.38	.02
93.32	.103	.449	351.2	.02
93.32	.1	.36	349.71	.02
93.32	.102	.269	350.61	.02
93.32	.1	.18	349.6	.02
93.32	.1	.09	349.52	.02
93.32	.104	.045	349.31	.02
93.32	.202	.758	356.16	.02
93.32	.199	.721	355.04	.02
93.32	.201	.639	352.17	.02
93.32	.202	.559	350.75	.02
93.32	.204	.478	348.79	.02
93.32	.202	.399	347.72	.02
93.32	.204	.398	347.79	.02
93.32	.203	.319	346.79	.02
93.32	.2	.24	346.05	.02
93.32	.199	.16	345.51	.02
93.32	.2	.08	344.53	.02
93.32	.201	.04	343.49	.02
93.32	.302	.663	352.51	.02
93.32	.3	.63	351.31	.02
93.32	.302	.558	348.94	.02
93.32	.3	.49	347.7	.02
93.32	.297	.351	346.59	.02
93.32	.301	.349	345.23	.02
93.32	.298	.281	344.01	.02
93.32	.299	.21	343.35	.02
93.32	.302	.14	341.92	.02
93.32	.301	.07	341.15	.02
93.32	.298	.035	340.8	.02
93.32	.4	.57	349.25	.02
93.32	.403	.538	348.26	.02
93.32	.401	.479	346.22	.02
93.32	.4	.42	345.15	.02
93.32	.4	.36	343.67	.02
93.32	.398	.301	342.75	.02
93.32	.399	.24	341.75	.02
93.32	.396	.181	340.82	.02
93.32	.4	.12	339.85	.02
93.32	.406	.059	338.75	.02
93.32	.401	.03	338.3	.02
93.32	.499	.476	346.37	.02
93.32	.499	.451	345.42	.02
93.32	.498	.402	343.94	.02
93.32	.496	.353	342.75	.02
93.32	.498	.301	341.73	.02
93.32	.5	.25	340.71	.02
93.32	.496	.202	339.93	.02
93.32	.5	.15	339.03	.02
93.32	.499	.1	338.26	.02
93.32	.497	.05	337.5	.02
93.32	.498	.025	336.99	.02
93.32	.6	.38	343.69	.02
93.32	.596	.364	343.12	.02
93.32	.597	.323	341.85	.02
93.32	.598	.241	339.94	.02
93.32	.597	.201	339.13	.02
93.32	.596	.162	338.48	.02
93.32	.597	.121	337.7	.02
93.32	.602	.08	337.03	.02
93.32	.597	.04	336.39	.02
93.32	.604	.02	336.02	.02
93.32	.629	.26	340.57	.02
93.32	.7	.27	340.89	.02
93.32	.697	.243	340.01	.02
93.32	.698	.211	339.13	.02
93.32	.698	.181	338.44	.02
93.32	.698	.151	337.8	.02
93.32	.697	.121	337.23	.02
93.32	.701	.06	336.09	.02
93.32	.7	.03	335.58	.02
93.32	.697	.015	335.34	.02
93.32	.713	.086	336.5	.02
93.32	.797	.193	339.41	.02
93.32	.798	.182	339.01	.02
93.32	.798	.161	338.36	.02
93.32	.799	.141	337.76	.02
93.32	.798	.121	337.2	.02
93.32	.797	.102	336.77	.02
93.32	.8	.08	336.28	.02
93.32	.799	.06	335.86	.02
93.32	.799	.04	335.45	.02
93.32	.798	.02	335.09	.02
93.32	.798	.01	334.89	.02
93.32	.899	.096	337.44	.02
93.32	.899	.091	337.27	.02
93.32	.899	.081	336.92	.02
93.32	.899	.071	336.58	.02
93.32	.899	.061	336.27	.02
93.32	.9	.05	335.96	.02
93.32	.901	.04	335.69	.02
93.32	.899	.03	335.43	.02
93.32	.898	.02	335.19	.02
93.32	.899	.01	334.94	.02
93.32	.899	.005	334.83	.02
