Measured thermophysical data. Enthalpy of mixing in the Ag-Cd-In ternary liquid phase
Source: J. Chem. Thermodyn., 2017, 10.1016/j.jct.2016.12.005
Compound 1: silver, Ag, purity 99.99%
Compound 2: cadmium, Cd, purity 99.9999%
Compound 3: indium, In, purity 99.9999%

System: silver + cadmium + indium; phases: Liquid
Fixed: Pressure, kPa = 100
Fixed: Temperature, K = 722
Property: Excess molar enthalpy (molar enthalpy of mixing), kJ/mol (Liquid); method: Calvet calorimetry
Mole fraction of cadmium	Mole fraction of indium	Excess molar enthalpy (molar enthalpy of mixing), kJ/mol	uncertainty
.4946	.4945	1.276	
.4882	.4882	1.085	
.479	.479	.804	
.4676	.4676	.454	
.455	.455	.053	
.4892	.4892	1.132	
.4769	.4769	.757	
.4622	.4623	.298	
.4476	.4476	-.167	
.489	.489	1.107	
.4756	.4756	.712	
.4598	.4597	.221	
.4845	.4844	.99	
.4644	.4643	.382	
.1982	.7927	.729	
.1963	.7851	.639	
.1939	.7753	.531	
.1912	.7647	.408	
.1881	.7522	.271	
.1845	.7379	.107	
.1809	.7233	-.082	
.1768	.7073	-.301	
.1723	.6892	-.553	
.1669	.6676	-.859	
.1607	.6428	-1.241	
.1957	.7828	.628	
.1902	.7607	.392	
.184	.7359	.112	
.1775	.7099	-.232	
.17	.68	-.629	
.1618	.6474	-1.102	
.1899	.7593	.354	
.1797	.7184	-.112	
.1697	.6785	-.656	
.159	.6358	-1.293	
.0981	.8829	.299	
.0959	.8626	.133	
.0934	.8405	-.034	
.0905	.8143	-.272	
.0874	.7862	-.544	
.084	.7559	-.863	
.0806	.7254	-1.214	
.0772	.6946	-1.592	
.0736	.6621	-2.015	
.0701	.6303	-2.471	
.0967	.8703	.194	
.093	.8365	-.087	
.0887	.7982	-.446	
.0844	.7597	-.839	
.0797	.7168	-1.329	
.0747	.6726	-1.882	
.07	.6302	-2.485	

System: silver + cadmium + indium; phases: Liquid
Fixed: Pressure, kPa = 100
Property: Excess molar enthalpy (molar enthalpy of mixing), kJ/mol (Liquid); method: Calvet calorimetry
Temperature, K	Mole fraction of silver	Mole fraction of indium	Excess molar enthalpy (molar enthalpy of mixing), kJ/mol	uncertainty
722	.1923	.769	-1.238	
722	.183	.7317	-1.167	
722	.1712	.6847	-1.019	
722	.1586	.6342	-.876	
722	.1465	.5858	-.745	
722	.1347	.5386	-.594	
722	.1939	.7761	-1.215	
722	.1857	.7434	-1.112	
722	.1746	.699	-.96	
722	.1628	.6518	-.794	
722	.1502	.6014	-.617	
722	.138	.5524	-.48	
721	.0404	.7676	.546	
722	.0471	.8945	-.043	
722	.0434	.825	.258	
722	.0407	.7728	.49	
722	.0377	.7165	.681	
722	.0344	.6543	.873	
721	.0485	.9214	-.181	
721	.0457	.8688	.04	
721	.0429	.8158	.238	
721	.0404	.7683	.406	
721	.0376	.7151	.572	
721	.0349	.6638	.715	
