Measured thermophysical data. Thermodynamic studies of drug - .alpha.-cyclodextrin interactions in water at 298.15 K: Procaine hydrochloride/lidocaine hydrochloride/tetracaine hydrochloride/ranitidine hydrochloride + .alpha.-cyclodextrin + H2O systems
Source: J. Chem. Thermodyn., 2014, 10.1016/j.jct.2013.09.003
Compound 1: .alpha.-cyclodextrin, C36H60O30, purity 98%
Compound 2: procaine hydrochloride, C13H21ClN2O2, purity 97%
Compound 3: lidocaine hydrochloride, C14H23ClN2O, purity 97%
Compound 4: tetracaine hydrochloride, C15H25ClN2O2, purity 99%
Compound 5: ranitidine hydrochloride, C13H23ClN4O3S, purity 95%
Compound 6: water, H2O

System: procaine hydrochloride + water + .alpha.-cyclodextrin; phases: Liquid
Fixed: Pressure, kPa = 101.325
Fixed: Solvent: Molality, mol/kg of .alpha.-cyclodextrin = .1
Fixed: Temperature, K = 298.15
Property: (Relative) activity of water (Liquid); method: Vapor pressure osmometer
Molality, mol/kg of procaine hydrochloride	(Relative) activity of water	uncertainty
.01263	.9981	.001
.02741	.9977	.001
.05496	.9971	.001
.08209	.9966	.001
.10884	.996	.001
.13439	.9954	.001
.16827	.9946	.001
.20747	.9938	.001

System: lidocaine hydrochloride + water + .alpha.-cyclodextrin; phases: Liquid
Fixed: Pressure, kPa = 101.325
Fixed: Solvent: Molality, mol/kg of .alpha.-cyclodextrin = .1
Fixed: Temperature, K = 298.15
Property: (Relative) activity of water (Liquid); method: Vapor pressure osmometer
Molality, mol/kg of lidocaine hydrochloride	(Relative) activity of water	uncertainty
.01246	.998	.001
.0273	.9976	.001
.04356	.9972	.001
.05409	.9969	.001
.06464	.9966	.001
.08151	.9962	.001
.11041	.9954	.001
.12984	.9949	.001
.15278	.9942	.001

System: tetracaine hydrochloride + water + .alpha.-cyclodextrin; phases: Liquid
Fixed: Pressure, kPa = 101.325
Fixed: Solvent: Molality, mol/kg of .alpha.-cyclodextrin = .1
Fixed: Temperature, K = 298.15
Property: (Relative) activity of water (Liquid); method: Vapor pressure osmometer
Molality, mol/kg of tetracaine hydrochloride	(Relative) activity of water	uncertainty
.01237	.9983	.001
.03012	.9981	.001
.05715	.9978	.001
.08546	.9973	.001
.11592	.9968	.001
.13935	.9964	.001
.17722	.9957	.001
.21768	.9948	.001

System: water + .alpha.-cyclodextrin + ranitidine hydrochloride; phases: Liquid
Fixed: Pressure, kPa = 101.325
Fixed: Solvent: Molality, mol/kg of .alpha.-cyclodextrin = .1
Fixed: Temperature, K = 298.15
Property: (Relative) activity of water (Liquid); method: Vapor pressure osmometer
Molality, mol/kg of ranitidine hydrochloride	(Relative) activity of water	uncertainty
.01308	.9983	.001
.02708	.9978	.001
.0537	.9972	.001
.08104	.9969	.001
.10867	.9965	.001
.1311	.9956	.001
.17021	.9952	.001
.20563	.994	.001
