Measured thermophysical data. Activity coefficients at infinite dilution of organic solutes in diethylene glycol and triethylene glycol from gas-liquid chromatography
Source: J. Chem. Thermodyn., 2013, 10.1016/j.jct.2013.05.011
Compound 1: diethylene glycol, C4H10O3, purity 99%
Compound 2: triethylene glycol, C6H14O4, purity 99.5%
Compound 3: n-pentane, C5H12, purity 98%
Compound 4: n-hexane, C6H14, purity 98%
Compound 5: n-heptane, C7H16, purity 98%
Compound 6: n-octane, C8H18, purity 98%
Compound 7: n-nonane, C9H20, purity 98%
Compound 8: 1-pentene, C5H10, purity 98%
Compound 9: 1-hexene, C6H12, purity 98%
Compound 10: 1-heptene, C7H14, purity 98%
Compound 11: 1-octene, C8H16, purity 98%
Compound 12: cyclopentane, C5H10, purity 98%
Compound 13: cyclohexane, C6H12, purity 98%
Compound 14: cycloheptane, C7H14, purity 98%
Compound 15: cyclooctane, C8H16, purity 98%
Compound 16: methanol, CH4O, purity 98%
Compound 17: ethanol, C2H6O, purity 98%
Compound 18: 1-propanol, C3H8O, purity 98%
Compound 19: 2-propanol, C3H8O, purity 98%
Compound 20: benzene, C6H6, purity 98%
Compound 21: toluene, C7H8, purity 98%
Compound 22: ethylbenzene, C8H10, purity 98%
Compound 23: 1-hexyne, C6H10, purity 98%
Compound 24: 1-heptyne, C7H12, purity 98%
Compound 25: 1-octyne, C8H14, purity 98%
Compound 26: 1-pentyne, C5H8, purity 98%

System: diethylene glycol; phases: Liquid
Fixed: Pressure, kPa = 101.325
Property: Mass density, kg/m3 (Liquid); method: Vibrating tube method
Temperature, K	Mass density, kg/m3	uncertainty
288.15	1120.05	.05

System: diethylene glycol; phases: Liquid
Fixed: Pressure, kPa = 101.325
Property: Refractive index (Na D-line) (Liquid); method: Standard Abbe refractometry
Temperature, K	Refractive index (Na D-line)	uncertainty
293.15	1.4471	.0001

System: triethylene glycol; phases: Liquid
Fixed: Pressure, kPa = 101.325
Property: Mass density, kg/m3 (Liquid); method: Vibrating tube method
Temperature, K	Mass density, kg/m3	uncertainty
288.15	1127.37	.05

System: triethylene glycol; phases: Liquid
Fixed: Pressure, kPa = 101.325
Property: Refractive index (Na D-line) (Liquid); method: Standard Abbe refractometry
Temperature, K	Refractive index (Na D-line)	uncertainty
293.15	1.4563	.0001

System: n-pentane + diethylene glycol; phases: Liquid
Fixed: Pressure, kPa = 101
Fixed: Mole fraction of n-pentane = 0
Property: Activity coefficient of n-pentane (Liquid); method: Chromatography
Temperature, K	Activity coefficient of n-pentane	uncertainty
333.2	70.18	4.2108
348.2	53.76	3.2256
363.2	54.19	3.2514

System: n-hexane + diethylene glycol; phases: Liquid
Fixed: Pressure, kPa = 101
Fixed: Mole fraction of n-hexane = 0
Property: Activity coefficient of n-hexane (Liquid); method: Chromatography
Temperature, K	Activity coefficient of n-hexane	uncertainty
333.2	95.73	2.8719
348.2	84.01	2.5203
363.2	82.36	2.4708

System: diethylene glycol + n-heptane; phases: Liquid
Fixed: Pressure, kPa = 101
Fixed: Mole fraction of n-heptane = 0
Property: Activity coefficient of n-heptane (Liquid); method: Chromatography
Temperature, K	Activity coefficient of n-heptane	uncertainty
333.2	131.3	3.939
348.2	122.2	3.666
363.2	95.37	2.8611

System: diethylene glycol + n-octane; phases: Liquid
Fixed: Pressure, kPa = 101
Fixed: Mole fraction of n-octane = 0
Property: Activity coefficient of n-octane (Liquid); method: Chromatography
Temperature, K	Activity coefficient of n-octane	uncertainty
333.2	187.6	5.628
348.2	168	5.04
363.2	145.6	4.368

System: diethylene glycol + n-nonane; phases: Liquid
Fixed: Pressure, kPa = 101
Fixed: Mole fraction of n-nonane = 0
Property: Activity coefficient of n-nonane (Liquid); method: Chromatography
Temperature, K	Activity coefficient of n-nonane	uncertainty
333.2	263.9	7.917
348.2	230.4	6.912
363.2	193.4	5.802

System: 1-pentene + diethylene glycol; phases: Liquid
Fixed: Pressure, kPa = 101
Fixed: Mole fraction of 1-pentene = 0
Property: Activity coefficient of 1-pentene (Liquid); method: Chromatography
Temperature, K	Activity coefficient of 1-pentene	uncertainty
333.2	35.33	2.1198
348.2	32.92	1.9752
363.2	27.58	1.6548

System: diethylene glycol + 1-hexene; phases: Liquid
Fixed: Pressure, kPa = 101
Fixed: Mole fraction of 1-hexene = 0
Property: Activity coefficient of 1-hexene (Liquid); method: Chromatography
Temperature, K	Activity coefficient of 1-hexene	uncertainty
333.2	50.67	1.5201
348.2	47.33	1.4199
363.2	38.87	1.1661

System: diethylene glycol + 1-heptene; phases: Liquid
Fixed: Pressure, kPa = 101
Fixed: Mole fraction of 1-heptene = 0
Property: Activity coefficient of 1-heptene (Liquid); method: Chromatography
Temperature, K	Activity coefficient of 1-heptene	uncertainty
333.2	72.28	2.1684
348.2	66.59	1.9977
363.2	60.45	1.8135

System: diethylene glycol + 1-octene; phases: Liquid
Fixed: Pressure, kPa = 101
Fixed: Mole fraction of 1-octene = 0
Property: Activity coefficient of 1-octene (Liquid); method: Chromatography
Temperature, K	Activity coefficient of 1-octene	uncertainty
333.2	100.9	3.027
348.2	93.51	2.8053
363.2	82.61	2.4783

System: diethylene glycol + 1-hexyne; phases: Liquid
Fixed: Pressure, kPa = 101
Fixed: Mole fraction of 1-hexyne = 0
Property: Activity coefficient of 1-hexyne (Liquid); method: Chromatography
Temperature, K	Activity coefficient of 1-hexyne	uncertainty
333.2	14.07	.4221
348.2	14.59	.4377
363.2	13.79	.4137

System: diethylene glycol + 1-heptyne; phases: Liquid
Fixed: Pressure, kPa = 101
Fixed: Mole fraction of 1-heptyne = 0
Property: Activity coefficient of 1-heptyne (Liquid); method: Chromatography
Temperature, K	Activity coefficient of 1-heptyne	uncertainty
333.2	20.27	.6081
348.2	20.83	.6249
363.2	19.34	.5802

System: diethylene glycol + 1-octyne; phases: Liquid
Fixed: Pressure, kPa = 101
Fixed: Mole fraction of 1-octyne = 0
Property: Activity coefficient of 1-octyne (Liquid); method: Chromatography
Temperature, K	Activity coefficient of 1-octyne	uncertainty
333.2	29.89	.8967
348.2	29.72	.8916
363.2	27.04	.8112

System: diethylene glycol + cyclopentane; phases: Liquid
Fixed: Pressure, kPa = 101
Fixed: Mole fraction of cyclopentane = 0
Property: Activity coefficient of cyclopentane (Liquid); method: Chromatography
Temperature, K	Activity coefficient of cyclopentane	uncertainty
333.2	30.92	.9276
348.2	27.6	.828
363.2	25.92	.7776

System: cyclohexane + diethylene glycol; phases: Liquid
Fixed: Pressure, kPa = 101
Fixed: Mole fraction of cyclohexane = 0
Property: Activity coefficient of cyclohexane (Liquid); method: Chromatography
Temperature, K	Activity coefficient of cyclohexane	uncertainty
333.2	42.74	1.2822
348.2	39.19	1.1757
363.2	34.88	1.0464

System: diethylene glycol + cycloheptane; phases: Liquid
Fixed: Pressure, kPa = 101
Fixed: Mole fraction of cycloheptane = 0
Property: Activity coefficient of cycloheptane (Liquid); method: Chromatography
Temperature, K	Activity coefficient of cycloheptane	uncertainty
333.2	52.38	1.5714
348.2	47.41	1.4223
363.2	42.11	1.2633

System: diethylene glycol + cyclooctane; phases: Liquid
Fixed: Pressure, kPa = 101
Fixed: Mole fraction of cyclooctane = 0
Property: Activity coefficient of cyclooctane (Liquid); method: Chromatography
Temperature, K	Activity coefficient of cyclooctane	uncertainty
333.2	70.67	2.1201
348.2	61.34	1.8402
363.2	52.21	1.5663

System: methanol + diethylene glycol; phases: Liquid
Fixed: Pressure, kPa = 101
Fixed: Mole fraction of methanol = 0
Property: Activity coefficient of methanol (Liquid); method: Chromatography
Temperature, K	Activity coefficient of methanol	uncertainty
333.2	.988	.02964
348.2	1.01	.0303
363.2	1.02	.0306

System: ethanol + diethylene glycol; phases: Liquid
Fixed: Pressure, kPa = 101
Fixed: Mole fraction of ethanol = 0
Property: Activity coefficient of ethanol (Liquid); method: Chromatography
Temperature, K	Activity coefficient of ethanol	uncertainty
333.2	1.47	.0441
348.2	1.46	.0438
363.2	1.46	.0438

System: 1-propanol + diethylene glycol; phases: Liquid
Fixed: Pressure, kPa = 101
Fixed: Mole fraction of 1-propanol = 0
Property: Activity coefficient of 1-propanol (Liquid); method: Chromatography
Temperature, K	Activity coefficient of 1-propanol	uncertainty
333.2	1.8	.054
348.2	1.77	.0531
363.2	1.74	.0522

System: 2-propanol + diethylene glycol; phases: Liquid
Fixed: Pressure, kPa = 101
Fixed: Mole fraction of 2-propanol = 0
Property: Activity coefficient of 2-propanol (Liquid); method: Chromatography
Temperature, K	Activity coefficient of 2-propanol	uncertainty
333.2	1.79	.0537
348.2	1.77	.0531
363.2	1.74	.0522

System: benzene + diethylene glycol; phases: Liquid
Fixed: Pressure, kPa = 101
Fixed: Mole fraction of benzene = 0
Property: Activity coefficient of benzene (Liquid); method: Chromatography
Temperature, K	Activity coefficient of benzene	uncertainty
333.2	7.33	.2199
348.2	7.21	.2163
363.2	7.05	.2115

System: toluene + diethylene glycol; phases: Liquid
Fixed: Pressure, kPa = 101
Fixed: Mole fraction of toluene = 0
Property: Activity coefficient of toluene (Liquid); method: Chromatography
Temperature, K	Activity coefficient of toluene	uncertainty
333.2	11.22	.3366
348.2	10.94	.3282
363.2	10.53	.3159

System: ethylbenzene + diethylene glycol; phases: Liquid
Fixed: Pressure, kPa = 101
Fixed: Mole fraction of ethylbenzene = 0
Property: Activity coefficient of ethylbenzene (Liquid); method: Chromatography
Temperature, K	Activity coefficient of ethylbenzene	uncertainty
333.2	16.8	.504
348.2	16.12	.4836
363.2	15.21	.4563

System: n-pentane + triethylene glycol; phases: Liquid
Fixed: Pressure, kPa = 101
Fixed: Mole fraction of n-pentane = 0
Property: Activity coefficient of n-pentane (Liquid); method: Chromatography
Temperature, K	Activity coefficient of n-pentane	uncertainty
333.2	33.71	2.0226
348.2	30.84	1.8504
363.2	23.18	1.3908

System: n-hexane + triethylene glycol; phases: Liquid
Fixed: Pressure, kPa = 101
Fixed: Mole fraction of n-hexane = 0
Property: Activity coefficient of n-hexane (Liquid); method: Chromatography
Temperature, K	Activity coefficient of n-hexane	uncertainty
333.2	45.84	1.3752
348.2	40.27	1.2081
363.2	35.15	1.0545

System: triethylene glycol + n-heptane; phases: Liquid
Fixed: Pressure, kPa = 101
Fixed: Mole fraction of n-heptane = 0
Property: Activity coefficient of n-heptane (Liquid); method: Chromatography
Temperature, K	Activity coefficient of n-heptane	uncertainty
333.2	62.31	1.8693
348.2	52.28	1.5684
363.2	43.67	1.3101

System: n-octane + triethylene glycol; phases: Liquid
Fixed: Pressure, kPa = 101
Fixed: Mole fraction of n-octane = 0
Property: Activity coefficient of n-octane (Liquid); method: Chromatography
Temperature, K	Activity coefficient of n-octane	uncertainty
333.2	103.2	3.096
348.2	73.96	2.2188
363.2	62.86	1.8858

System: n-nonane + triethylene glycol; phases: Liquid
Fixed: Pressure, kPa = 101
Fixed: Mole fraction of n-nonane = 0
Property: Activity coefficient of n-nonane (Liquid); method: Chromatography
Temperature, K	Activity coefficient of n-nonane	uncertainty
333.2	137	4.11
348.2	98.9	2.967
363.2	83.12	2.4936

System: 1-pentene + triethylene glycol; phases: Liquid
Fixed: Pressure, kPa = 101
Fixed: Mole fraction of 1-pentene = 0
Property: Activity coefficient of 1-pentene (Liquid); method: Chromatography
Temperature, K	Activity coefficient of 1-pentene	uncertainty
333.2	17.52	1.0512
348.2	16.09	.9654
363.2	14.83	.8898

System: triethylene glycol + 1-hexene; phases: Liquid
Fixed: Pressure, kPa = 101
Fixed: Mole fraction of 1-hexene = 0
Property: Activity coefficient of 1-hexene (Liquid); method: Chromatography
Temperature, K	Activity coefficient of 1-hexene	uncertainty
333.2	24.55	.7365
348.2	22.73	.6819
363.2	20.35	.6105

System: triethylene glycol + 1-heptene; phases: Liquid
Fixed: Pressure, kPa = 101
Fixed: Mole fraction of 1-heptene = 0
Property: Activity coefficient of 1-heptene (Liquid); method: Chromatography
Temperature, K	Activity coefficient of 1-heptene	uncertainty
333.2	34.38	1.0314
348.2	30.57	.9171
363.2	27.48	.8244

System: 1-octene + triethylene glycol; phases: Liquid
Fixed: Pressure, kPa = 101
Fixed: Mole fraction of 1-octene = 0
Property: Activity coefficient of 1-octene (Liquid); method: Chromatography
Temperature, K	Activity coefficient of 1-octene	uncertainty
333.2	55.9	1.677
348.2	41.77	1.2531
363.2	36.81	1.1043

System: triethylene glycol + 1-hexyne; phases: Liquid
Fixed: Pressure, kPa = 101
Fixed: Mole fraction of 1-hexyne = 0
Property: Activity coefficient of 1-hexyne (Liquid); method: Chromatography
Temperature, K	Activity coefficient of 1-hexyne	uncertainty
333.2	7.01	.2103
348.2	7.03	.2109
363.2	6.69	.2007

System: triethylene glycol + 1-heptyne; phases: Liquid
Fixed: Pressure, kPa = 101
Fixed: Mole fraction of 1-heptyne = 0
Property: Activity coefficient of 1-heptyne (Liquid); method: Chromatography
Temperature, K	Activity coefficient of 1-heptyne	uncertainty
333.2	10.25	.3075
348.2	9.04	.2712
363.2	8.99	.2697

System: triethylene glycol + 1-octyne; phases: Liquid
Fixed: Pressure, kPa = 101
Fixed: Mole fraction of 1-octyne = 0
Property: Activity coefficient of 1-octyne (Liquid); method: Chromatography
Temperature, K	Activity coefficient of 1-octyne	uncertainty
333.2	14.37	.4311
348.2	12.75	.3825
363.2	12.19	.3657

System: triethylene glycol + cyclopentane; phases: Liquid
Fixed: Pressure, kPa = 101
Fixed: Mole fraction of cyclopentane = 0
Property: Activity coefficient of cyclopentane (Liquid); method: Chromatography
Temperature, K	Activity coefficient of cyclopentane	uncertainty
333.2	15.19	.4557
348.2	13.98	.4194
363.2	12.69	.3807

System: cyclohexane + triethylene glycol; phases: Liquid
Fixed: Pressure, kPa = 101
Fixed: Mole fraction of cyclohexane = 0
Property: Activity coefficient of cyclohexane (Liquid); method: Chromatography
Temperature, K	Activity coefficient of cyclohexane	uncertainty
333.2	21.12	.6336
348.2	18.64	.5592
363.2	16.8	.504

System: triethylene glycol + cycloheptane; phases: Liquid
Fixed: Pressure, kPa = 101
Fixed: Mole fraction of cycloheptane = 0
Property: Activity coefficient of cycloheptane (Liquid); method: Chromatography
Temperature, K	Activity coefficient of cycloheptane	uncertainty
333.2	29.55	.8865
348.2	22.34	.6702
363.2	19.83	.5949

System: triethylene glycol + cyclooctane; phases: Liquid
Fixed: Pressure, kPa = 101
Fixed: Mole fraction of cyclooctane = 0
Property: Activity coefficient of cyclooctane (Liquid); method: Chromatography
Temperature, K	Activity coefficient of cyclooctane	uncertainty
333.2	35.31	1.0593
348.2	27.17	.8151
363.2	23.89	.7167

System: methanol + triethylene glycol; phases: Liquid
Fixed: Pressure, kPa = 101
Fixed: Mole fraction of methanol = 0
Property: Activity coefficient of methanol (Liquid); method: Chromatography
Temperature, K	Activity coefficient of methanol	uncertainty
333.2	.788	.02364
348.2	.787	.02361

System: ethanol + triethylene glycol; phases: Liquid
Fixed: Pressure, kPa = 101
Fixed: Mole fraction of ethanol = 0
Property: Activity coefficient of ethanol (Liquid); method: Chromatography
Temperature, K	Activity coefficient of ethanol	uncertainty
333.2	1.18	.0354
348.2	1.15	.0345
363.2	1.12	.0336

System: 1-propanol + triethylene glycol; phases: Liquid
Fixed: Pressure, kPa = 101
Fixed: Mole fraction of 1-propanol = 0
Property: Activity coefficient of 1-propanol (Liquid); method: Chromatography
Temperature, K	Activity coefficient of 1-propanol	uncertainty
333.2	1.38	.0414
348.2	1.34	.0402
363.2	1.31	.0393

System: 2-propanol + triethylene glycol; phases: Liquid
Fixed: Pressure, kPa = 101
Fixed: Mole fraction of 2-propanol = 0
Property: Activity coefficient of 2-propanol (Liquid); method: Chromatography
Temperature, K	Activity coefficient of 2-propanol	uncertainty
333.2	1.45	.0435
348.2	1.4	.042
363.2	1.38	.0414

System: benzene + triethylene glycol; phases: Liquid
Fixed: Pressure, kPa = 101
Fixed: Mole fraction of benzene = 0
Property: Activity coefficient of benzene (Liquid); method: Chromatography
Temperature, K	Activity coefficient of benzene	uncertainty
333.2	3.91	.1173
348.2	3.86	.1158
363.2	3.36	.1008

System: toluene + triethylene glycol; phases: Liquid
Fixed: Pressure, kPa = 101
Fixed: Mole fraction of toluene = 0
Property: Activity coefficient of toluene (Liquid); method: Chromatography
Temperature, K	Activity coefficient of toluene	uncertainty
333.2	5.88	.1764
348.2	5.73	.1719
363.2	5.55	.1665

System: ethylbenzene + triethylene glycol; phases: Liquid
Fixed: Pressure, kPa = 101
Fixed: Mole fraction of ethylbenzene = 0
Property: Activity coefficient of ethylbenzene (Liquid); method: Chromatography
Temperature, K	Activity coefficient of ethylbenzene	uncertainty
333.2	8.63	.2589
348.2	8.21	.2463
363.2	7.86	.2358

System: diethylene glycol + 1-pentyne; phases: Liquid
Fixed: Pressure, kPa = 101
Fixed: Mole fraction of 1-pentyne = 0
Property: Activity coefficient of 1-pentyne (Liquid); method: Chromatography
Temperature, K	Activity coefficient of 1-pentyne	uncertainty
333.2	9.93	.5958
348.2	10.48	.6288
363.2	10.15	.609

System: triethylene glycol + 1-pentyne; phases: Liquid
Fixed: Pressure, kPa = 101
Fixed: Mole fraction of 1-pentyne = 0
Property: Activity coefficient of 1-pentyne (Liquid); method: Chromatography
Temperature, K	Activity coefficient of 1-pentyne	uncertainty
333.2	5.07	.3042
348.2	5.11	.3066
363.2	5.01	.3006
