Measured thermophysical data. Critical behavior of binary mixture of {(1   x) C6H5CN + x CH3(CH2)9CH3}: Measurements of coexistence curves, turbidity, and heat capacity
Source: J. Chem. Thermodyn., 2012, 10.1016/j.jct.2012.04.018
Compound 1: benzenenitrile, C7H5N, purity 99%
Compound 2: undecane, C11H24, purity 99%

System: benzenenitrile; phases: Liquid
Fixed: Wavelength, nm = 632.8
Property: Refractive index (other wavelength) (Liquid); method: He-Ne laser
Temperature, K	Pressure, kPa	Refractive index (other wavelength)	uncertainty
280.975	100	1.5309	.0001
281.887	100	1.5304	.0001
283.782	100	1.5296	.0001
286.191	100	1.5284	.0001
288.04	100	1.5275	.0001
290.134	100	1.5266	.0001

System: undecane; phases: Liquid
Fixed: Wavelength, nm = 632.8
Property: Refractive index (other wavelength) (Liquid); method: He-Ne laser
Temperature, K	Pressure, kPa	Refractive index (other wavelength)	uncertainty
280.078	100	1.4216	.0001
281.97	100	1.4209	.0001
283.662	100	1.4201	.0001
285.715	100	1.4192	.0001
287.842	100	1.4182	.0001
290.471	100	1.4171	.0001

System: benzenenitrile + undecane; phases: Liquid mixture 1, Liquid mixture 2
Property: Refractive index (other wavelength) (Liquid mixture 1); method: He-Ne laser
Temperature, K	Mole fraction of undecane	Refractive index (other wavelength)	uncertainty
290.047	.416	1.4616	.0001
290.039	.411	1.4622	.0001
290.025	.402	1.4632	.0001
290.002	.394	1.4641	.0001
289.965	.385	1.4652	.0001
289.902	.376	1.4663	.0001
289.812	.365	1.4676	.0001
289.69	.355	1.4689	.0001
289.53	.344	1.4703	.0001
289.335	.335	1.4715	.0001
289.337	.335	1.4715	.0001
289.094	.325	1.4728	.0001
288.778	.316	1.4742	.0001
288.347	.302	1.4762	.0001
287.866	.291	1.4778	.0001
287.482	.284	1.479	.0001
286.637	.268	1.4815	.0001
285.647	.255	1.4838	.0001
284.682	.243	1.486	.0001
283.629	.233	1.4879	.0001
282.48	.222	1.4901	.0001
281.366	.213	1.492	.0001
280.079	.203	1.4941	.0001

System: benzenenitrile + undecane; phases: Liquid mixture 2, Liquid mixture 1
Property: Refractive index (other wavelength) (Liquid mixture 2); method: He-Ne laser
Temperature, K	Mole fraction of undecane	Refractive index (other wavelength)	uncertainty
290.047	.467	1.4562	.0001
290.039	.473	1.4556	.0001
290.025	.482	1.4547	.0001
290.002	.491	1.4538	.0001
289.965	.501	1.4528	.0001
289.902	.511	1.4519	.0001
289.812	.524	1.4507	.0001
289.69	.535	1.4497	.0001
289.53	.547	1.4487	.0001
289.335	.561	1.4475	.0001
289.337	.561	1.4475	.0001
289.094	.573	1.4465	.0001
288.778	.586	1.4455	.0001
288.347	.604	1.4442	.0001
287.866	.618	1.4432	.0001
287.482	.628	1.4426	.0001
286.637	.648	1.4413	.0001
285.647	.667	1.4403	.0001
284.682	.684	1.4394	.0001
283.629	.697	1.4389	.0001
282.48	.716	1.438	.0001
281.366	.729	1.4376	.0001
280.079	.744	1.4371	.0001

System: benzenenitrile + undecane; phases: Liquid mixture 1, Liquid mixture 2
Property: Mole fraction of undecane (Liquid mixture 1); method: Index of refraction calibration data
Temperature, K	Pressure, kPa	Mole fraction of undecane	uncertainty
290.047	100	.416	.003
290.039	100	.411	.003
290.025	100	.402	.003
290.002	100	.394	.003
289.965	100	.385	.003
289.902	100	.376	.003
289.812	100	.365	.003
289.69	100	.355	.003
289.53	100	.344	.003
289.335	100	.335	.003
289.337	100	.335	.003
289.094	100	.325	.003
288.778	100	.316	.003
288.347	100	.302	.003
287.866	100	.291	.003
287.482	100	.284	.003
286.637	100	.268	.003
285.647	100	.255	.003
284.682	100	.243	.003
283.629	100	.233	.003
282.48	100	.222	.003
281.366	100	.213	.003
280.079	100	.203	.003

System: benzenenitrile + undecane; phases: Liquid mixture 2, Liquid mixture 1
Property: Mole fraction of undecane (Liquid mixture 2); method: Index of refraction calibration data
Temperature, K	Pressure, kPa	Mole fraction of undecane	uncertainty
290.047	100	.467	.003
290.039	100	.473	.003
290.025	100	.482	.003
290.002	100	.491	.003
289.965	100	.501	.003
289.902	100	.511	.003
289.812	100	.524	.003
289.69	100	.535	.003
289.53	100	.547	.003
289.335	100	.561	.003
289.337	100	.561	.003
289.094	100	.573	.003
288.778	100	.586	.003
288.347	100	.604	.003
287.866	100	.618	.003
287.482	100	.628	.003
286.637	100	.648	.003
285.647	100	.667	.003
284.682	100	.684	.003
283.629	100	.697	.003
282.48	100	.716	.003
281.366	100	.729	.003
280.079	100	.744	.003

System: benzenenitrile + undecane; phases: Liquid
Fixed: Temperature, K = 290.9
Fixed: Wavelength, nm = 632.8
Property: Refractive index (other wavelength) (Liquid); method: He-Ne laser
Mole fraction of undecane	Refractive index (other wavelength)	uncertainty
.133	1.5005	.0001
.212	1.4877	.0001
.336	1.4708	.0001
.42	1.4607	.0001
.512	1.4513	.0001
.606	1.443	.0001
.704	1.4351	.0001
.799	1.4285	.0001
.902	1.4222	.0001

System: benzenenitrile + undecane; phases: Liquid
Fixed: Mole fraction of undecane = .44
Fixed: Pressure, kPa = 101
Property: Heat capacity at constant pressure per volume, J/K/m3 (Liquid); method: DSC, calvet
Temperature, K	Heat capacity at constant pressure per volume, J/K/m3	uncertainty
324.911	1671400	300
323.857	1670100	300
322.803	1669700	300
321.748	1669700	300
320.694	1668700	300
319.64	1667900	300
318.896	1668700	300
318.153	1667700	300
317.409	1667700	300
316.666	1668100	300
315.923	1667700	300
315.18	1666800	300
314.436	1667100	300
313.692	1666100	300
312.95	1665700	300
312.206	1666000	300
311.462	1666400	300
310.718	1665900	300
309.975	1665500	300
309.233	1665400	300
308.489	1665600	300
307.745	1665500	300
307.001	1664800	300
306.259	1665000	300
305.516	1665600	300
304.771	1665400	300
304.028	1665100	300
303.285	1665200	300
302.542	1665900	300
301.798	1666200	400
301.054	1666300	400
300.312	1667200	400
299.568	1667300	400
298.824	1667900	400
298.08	1669100	400
297.338	1670100	400
290.266	1728300	4800
290.237	1732400	4900
290.208	1740600	4700
290.18	1736600	4900
290.151	1739100	5100
290.122	1747000	5000
290.094	1748200	4800
290.065	1746900	5000
290.036	1756200	5300
290.007	1757500	5200
289.979	1770500	5200
289.95	1778700	5700
289.939	1780500	5900
289.927	1786900	6000
289.916	1795800	6100
289.903	1809500	6500
289.892	1823500	7400
289.881	1858200	10800
289.875	1943900	17100
289.872	1997600	31200
289.87	2029900	72000
289.867	2067700	257000
289.864	2104500	60500
289.861	2141800	32200
289.859	2155800	24800
289.847	2111800	14200
289.835	2084100	11900
289.823	2063600	11100
289.812	2053900	10800
289.8	2046300	10800
289.789	2035800	10400
289.778	2022500	9900
289.767	2011400	9600
289.755	2003100	9200
289.737	1995400	8600
289.702	1990700	8900
296.594	1670800	400
295.851	1672100	400
295.107	1673900	400
294.804	1675100	3900
294.573	1675700	3700
294.344	1676100	3900
294.114	1678400	3900
293.885	1679000	3800
293.654	1678500	4000
293.425	1680500	3800
293.195	1682100	3900
292.851	1683400	4100
292.65	1684300	4100
292.45	1685900	4200
292.248	1688500	4200
292.048	1688200	4200
291.846	1691400	4300
291.645	1693500	4200
291.444	1694500	4200
291.243	1698500	4200
291.041	1702300	4300
290.84	1707300	4200
290.639	1711900	4300
290.438	1721500	4600
289.669	1984300	9900
289.634	1973800	8600
289.599	1953700	8200
289.565	1952300	8600
289.531	1960500	8700
289.496	1946800	9000
289.462	1918000	7800
289.427	1910800	7000
289.405	1931900	7200
289.289	1889000	6200
289.174	1913500	8000
289.059	1899000	8000
288.944	1895600	7500
288.83	1896600	7400
288.6	1887700	7500
288.37	1879100	7400
288.14	1878500	7300
287.911	1870300	6900
287.681	1867600	6900
287.451	1862800	7000
287.221	1857300	7200
286.991	1862200	7300
286.762	1854000	6900
286.543	1846500	6800
