Measured thermophysical data. Effects of structural isomerism on solution behaviour of solutes: Apparent  molar volumes and isentropic compression of catechol, resorcinal, and  hydroquinone in aqueous solution at T = (283.15, 293.15, 298.15, 303.15,  and 313.15) K
Source: J. Chem. Thermodyn., 2010, 10.1016/j.jct.2010.04.018
Compound 1: 1,2-benzenediol, C6H6O2, purity 99%
Compound 2: 1,3-benzenediol, C6H6O2, purity 99%
Compound 3: p-quinol, C6H6O2, purity 99%
Compound 4: water, H2O, purity 99.9%

System: 1,2-benzenediol + water; phases: Liquid
Fixed: Pressure, kPa = 101
Property: Mass density, kg/m3 (Liquid); method: Vibrating tube method
Temperature, K	Amount concentration (molarity), mol/dm3 of 1,2-benzenediol	Mass density, kg/m3	uncertainty
283.15	0	999.749	.005
283.15	.0354	1000.623	.005
283.15	.1697	1003.897	.005
283.15	.346	1008.132	.005
283.15	.4721	1011.093	.005
283.15	.5008	1011.777	.005
283.15	.6589	1015.399	.005
283.15	.7524	1017.526	.005
293.15	0	998.252	.005
293.15	.0354	999.093	.005
293.15	.1697	1002.239	.005
293.15	.346	1006.299	.005
293.15	.4721	1009.136	.005
293.15	.5008	1009.794	.005
293.15	.6589	1013.259	.005
293.15	.7524	1015.295	.005
298.15	0	997.093	.005
298.15	.0354	997.92	.005
298.15	.1697	1001.009	.005
298.15	.346	1004.993	.005
298.15	.4721	1007.776	.005
298.15	.5008	1008.417	.005
298.15	.6589	1011.815	.005
298.15	.7524	1013.811	.005
303.15	0	995.699	.005
303.15	.0354	996.509	.005
303.15	.1697	999.543	.005
303.15	.346	1003.456	.005
303.15	.4721	1006.187	.005
303.15	.5008	1006.818	.005
303.15	.6589	1010.151	.005
303.15	.7524	1012.109	.005
313.15	0	992.273	.005
313.15	.0354	993.058	.005
313.15	.1697	995.992	.005
313.15	.346	999.774	.005
313.15	.4721	1002.408	.005
313.15	.5008	1003.02	.005
313.15	.6589	1006.232	.005
313.15	.7524	1008.122	.005

System: 1,2-benzenediol + water; phases: Liquid
Fixed: Pressure, kPa = 101
Property: Speed of sound, m/s (Liquid); method: Sing-around technique in a fixed-path interferometer
Temperature, K	Amount concentration (molarity), mol/dm3 of 1,2-benzenediol	Speed of sound, m/s	uncertainty
283.15	0	1447.74	.5
283.15	.0354	1449.93	.5
283.15	.1697	1457.86	.5
283.15	.346	1467.86	.5
283.15	.4721	1474.5	.5
283.15	.5008	1476.53	.5
283.15	.6589	1483.97	.5
283.15	.7524	1488.49	.5
293.15	0	1482.32	.5
293.15	.0354	1484.09	.5
293.15	.1697	1490.57	.5
293.15	.346	1498.73	.5
293.15	.4721	1504.14	.5
293.15	.5008	1505.37	.5
293.15	.6589	1511.8	.5
293.15	.7524	1515.42	.5
298.15	0	1496.63	.5
298.15	.0354	1498.2	.5
298.15	.1697	1504.04	.5
298.15	.346	1511.36	.5
298.15	.4721	1516.2	.5
298.15	.5008	1517.3	.5
298.15	.6589	1523.05	.5
298.15	.7524	1526.28	.5
303.15	0	1509.05	.5
303.15	.0354	1510.46	.5
303.15	.1697	1515.69	.5
303.15	.346	1522.24	.5
303.15	.4721	1526.57	.5
303.15	.5008	1527.55	.5
303.15	.6589	1532.66	.5
303.15	.7524	1535.53	.5
313.15	0	1528.81	.5
313.15	.0354	1529.93	.5
313.15	.1697	1534.07	.5
313.15	.346	1539.22	.5
313.15	.4721	1542.6	.5
313.15	.5008	1543.36	.5
313.15	.6589	1547.32	.5
313.15	.7524	1549.53	.5

System: 1,3-benzenediol + water; phases: Liquid
Fixed: Pressure, kPa = 101
Property: Mass density, kg/m3 (Liquid); method: Vibrating tube method
Temperature, K	Amount concentration (molarity), mol/dm3 of 1,3-benzenediol	Mass density, kg/m3	uncertainty
283.15	.0479	1000.933	.005
283.15	.101	1002.081	.005
283.15	.1786	1003.79	.005
283.15	.3402	1007.381	.005
283.15	.4522	1009.802	.005
283.15	.5654	1012.22	.005
283.15	.7623	1016.355	.005
293.15	.0479	999.387	.005
293.15	.101	1000.515	.005
293.15	.1786	1002.172	.005
293.15	.3402	1005.577	.005
293.15	.4522	1007.896	.005
293.15	.5654	1010.219	.005
293.15	.7623	1014.188	.005
298.15	.0479	998.206	.005
298.15	.101	999.325	.005
298.15	.1786	1000.946	.005
298.15	.3402	1004.285	.005
298.15	.4522	1006.564	.005
298.15	.5654	1008.84	.005
298.15	.7623	1012.738	.005
303.15	.0479	996.776	.005
303.15	.101	997.875	.005
303.15	.1786	999.476	.005
303.15	.3402	1002.766	.005
303.15	.4522	1005.005	.005
303.15	.5654	1007.245	.005
303.15	.7623	1011.075	.005
313.15	.0479	993.338	.005
313.15	.101	994.393	.005
313.15	.1786	995.941	.005
313.15	.3402	999.12	.005
313.15	.4522	1001.289	.005
313.15	.5654	1003.461	.005
313.15	.7623	1007.174	.005

System: 1,3-benzenediol + water; phases: Liquid
Fixed: Pressure, kPa = 101
Property: Speed of sound, m/s (Liquid); method: Sing-around technique in a fixed-path interferometer
Temperature, K	Amount concentration (molarity), mol/dm3 of 1,3-benzenediol	Speed of sound, m/s	uncertainty
283.15	.0479	1449.46	.5
283.15	.101	1451.45	.5
283.15	.1786	1454.29	.5
283.15	.3402	1459.89	.5
283.15	.4522	1463.47	.5
283.15	.5654	1467.25	.5
283.15	.7623	1473.49	.5
293.15	.0479	1483.65	.5
293.15	.101	1485.18	.5
293.15	.1786	1487.33	.5
293.15	.3402	1491.61	.5
293.15	.4522	1494.54	.5
293.15	.5654	1497.29	.5
293.15	.7623	1502.05	.5
298.15	.0479	1497.75	.5
298.15	.101	1499.08	.5
298.15	.1786	1500.94	.5
298.15	.3402	1504.66	.5
298.15	.4522	1507.11	.5
298.15	.5654	1509.56	.5
298.15	.7623	1513.67	.5
303.15	.0479	1510.02	.5
303.15	.101	1511.17	.5
303.15	.1786	1512.75	.5
303.15	.3402	1515.93	.5
303.15	.4522	1518.05	.5
303.15	.5654	1520.13	.5
303.15	.7623	1523.65	.5
313.15	.0479	1529.47	.5
313.15	.101	1530.27	.5
313.15	.1786	1531.39	.5
313.15	.3402	1533.65	.5
313.15	.4522	1535.16	.5
313.15	.5654	1536.58	.5
313.15	.7623	1539.01	.5

System: p-quinol + water; phases: Liquid
Fixed: Pressure, kPa = 101
Property: Mass density, kg/m3 (Liquid); method: Vibrating tube method
Temperature, K	Amount concentration (molarity), mol/dm3 of p-quinol	Mass density, kg/m3	uncertainty
283.15	.011	1000.002	.005
283.15	.0342	1000.533	.005
283.15	.0554	1001.016	.005
283.15	.1035	1002.105	.005
283.15	.201	1004.281	.005
283.15	.2996	1006.438	.005
283.15	.4022	1008.641	.005
293.15	.011	998.494	.005
293.15	.0342	999.001	.005
293.15	.0554	999.463	.005
293.15	.1035	1000.503	.005
293.15	.201	1002.581	.005
293.15	.2996	1004.646	.005
293.15	.4022	1006.751	.005
298.15	.011	997.334	.005
298.15	.0342	997.84	.005
298.15	.0554	998.3	.005
298.15	.1035	999.338	.005
298.15	.201	1001.414	.005
298.15	.2996	1003.479	.005
298.15	.4022	1005.588	.005
303.15	.011	995.934	.005
303.15	.0342	996.428	.005
303.15	.0554	996.878	.005
303.15	.1035	997.892	.005
303.15	.201	999.925	.005
303.15	.2996	1001.95	.005
303.15	.4022	1004.022	.005
313.15	.011	992.505	.005
313.15	.0342	992.992	.005
313.15	.0554	993.436	.005
313.15	.1035	994.437	.005
313.15	.201	996.443	.005
313.15	.2996	998.439	.005
313.15	.4022	1000.489	.005

System: p-quinol + water; phases: Liquid
Fixed: Pressure, kPa = 101
Property: Speed of sound, m/s (Liquid); method: Sing-around technique in a fixed-path interferometer
Temperature, K	Amount concentration (molarity), mol/dm3 of p-quinol	Speed of sound, m/s	uncertainty
283.15	.011	1448.21	.5
283.15	.0342	1449.16	.5
283.15	.0554	1450.02	.5
283.15	.1035	1451.91	.5
283.15	.201	1455.49	.5
283.15	.2996	1458.87	.5
283.15	.4022	1462.24	.5
293.15	.011	1482.64	.5
293.15	.0342	1483.31	.5
293.15	.0554	1483.9	.5
293.15	.1035	1485.21	.5
293.15	.201	1487.59	.5
293.15	.2996	1489.85	.5
293.15	.4022	1492.01	.5
298.15	.011	1496.93	.5
298.15	.0342	1497.54	.5
298.15	.0554	1498.09	.5
298.15	.1035	1499.32	.5
298.15	.201	1501.75	.5
298.15	.2996	1504.09	.5
298.15	.4022	1506.41	.5
303.15	.011	1509.31	.5
303.15	.0342	1509.86	.5
303.15	.0554	1510.35	.5
303.15	.1035	1511.46	.5
303.15	.201	1513.65	.5
303.15	.2996	1515.72	.5
303.15	.4022	1517.78	.5
313.15	.011	1529	.5
313.15	.0342	1529.4	.5
313.15	.0554	1529.76	.5
313.15	.1035	1530.57	.5
313.15	.201	1532.18	.5
313.15	.2996	1533.71	.5
313.15	.4022	1535.18	.5
