Measured thermophysical data. Experimental and computational study on the energetics of the cyclic anhydrides of glycine and alanine
Source: J. Chem. Thermodyn., 2013, 10.1016/j.jct.2012.10.012
Compound 1: glycine, bimol. cyclic peptide, C4H6N2O2
Compound 2: 3,6-dimethyl-2,5-piperazinedione, C6H10N2O2, purity 99%
Compound 3: carbon dioxide, CO2
Compound 4: nitrogen, N2
Compound 5: water, H2O
Compound 6: oxygen, O2

System: glycine, bimol. cyclic peptide; phases: Crystal, Gas
Property: Vapor or sublimation pressure, kPa (Crystal); method: Knudsen effusion method
Temperature, K	Vapor or sublimation pressure, kPa	uncertainty
419.16	.000101	
421.11	.000119	
423.15	.000141	
425.16	.000162	
427.1	.000195	
429.14	.000236	
431.17	.000273	
433.11	.000347	
435.15	.00039	
437.19	.000459	
439.11	.000548	
441.16	.000646	
419.16	.0000991	
421.11	.000118	
423.15	.00014	
425.16	.000168	
427.1	.000196	
429.14	.000232	
431.17	.00029	
433.11	.00033	
435.15	.000382	
437.19	.00047	
439.11	.000519	
441.16	.000627	
419.16	.0000965	
421.11	.000114	
423.15	.000137	
425.16	.000156	
427.1	.000188	
429.14	.000226	
431.17	.000257	
433.11	.00032	
435.15	.00038	
439.11	.00052	
441.16	.000626	

System: 3,6-dimethyl-2,5-piperazinedione; phases: Crystal, Gas
Property: Vapor or sublimation pressure, kPa (Crystal); method: Knudsen effusion method
Temperature, K	Vapor or sublimation pressure, kPa	uncertainty
388.13	.000116	
390.16	.000149	
392.15	.000179	
394.13	.000216	
396.14	.000267	
398.15	.000325	
400.13	.000388	
402.13	.000463	
404.15	.000563	
406.14	.000693	
408.14	.000821	
410.15	.000977	
388.13	.000126	
390.16	.000142	
392.15	.000171	
396.14	.00026	
398.15	.000309	
400.13	.000387	
402.13	.000454	
404.15	.000543	
406.14	.000696	
408.14	.000818	
410.15	.000955	
388.13	.000116	
390.16	.00014	
394.13	.000212	
396.14	.000247	
398.15	.000298	
400.13	.000371	
402.13	.000436	
406.14	.000677	
408.14	.000785	
410.15	.000927	

Reaction: -1 glycine, bimol. cyclic peptide + 4 carbon dioxide + 1 nitrogen + 3 water + -4.5 oxygen
Property: Specific internal energy of reaction at constant volume, J/g
-17332.5

Reaction: -1 3,6-dimethyl-2,5-piperazinedione + 6 carbon dioxide + 1 nitrogen + 5 water + -7.5 oxygen
Property: Specific internal energy of reaction at constant volume, J/g
-23044.5
