Measured thermophysical data. Solubility of 2,2',4,4',6,6'-hexanitrostilbene in binary solvent of N,N-dimethylformamide and acetonitrile
Source: J. Chem. Thermodyn., 2016, 10.1016/j.jct.2015.12.004
Compound 1: 2,2',4,4',6,6'-hexanitrostilbene, C14H6N6O12
Compound 2: N,N-dimethylformamide, C3H7NO, purity 99.5%
Compound 3: acetonitrile, C2H3N, purity 99.5%

System: N,N-dimethylformamide + acetonitrile + 2,2',4,4',6,6'-hexanitrostilbene; phases: Liquid, Crystal
Fixed: Pressure, kPa = 100
Property: Mole fraction of 2,2',4,4',6,6'-hexanitrostilbene (Liquid); method: Titration method
Temperature, K	Solvent: Mole fraction of acetonitrile	Mole fraction of 2,2',4,4',6,6'-hexanitrostilbene	uncertainty
298.15	0	.001745	.00008725
298.15	.2	.001121	.00005605
298.15	.27	.000916	.0000458
298.15	.43	.000494	.0000247
298.15	.6	.000246	.0000123
298.15	.75	.000106	.0000053
303.15	0	.001957	.00009785
303.15	.2	.001277	.00006385
303.15	.27	.001031	.00005155
303.15	.43	.000558	.0000279
303.15	.6	.000287	.00001435
303.15	.75	.000139	.00000695
308.15	0	.002207	.00011035
308.15	.2	.001428	.0000714
308.15	.27	.001153	.00005765
308.15	.43	.000644	.0000322
308.15	.6	.000336	.0000168
308.15	.75	.000176	.0000088
313.15	0	.002452	.0001226
313.15	.2	.001626	.0000813
313.15	.27	.001321	.00006605
313.15	.43	.000769	.00003845
313.15	.6	.000402	.0000201
313.15	.75	.000221	.00001105
318.15	0	.002737	.00013685
318.15	.2	.001889	.00009445
318.15	.27	.001541	.00007705
318.15	.43	.000924	.0000462
318.15	.6	.000491	.00002455
318.15	.75	.000277	.00001385
323.15	0	.003012	.0001506
323.15	.2	.002111	.00010555
323.15	.27	.001783	.00008915
323.15	.43	.001111	.00005555
323.15	.6	.000588	.0000294
323.15	.75	.000341	.00001705
328.15	0	.003336	.0001668
328.15	.2	.002384	.0001192
328.15	.27	.002011	.00010055
328.15	.43	.0013	.000065
328.15	.6	.00071	.0000355
328.15	.75	.000416	.0000208
333.15	0	.003739	.00018695
333.15	.2	.002742	.0001371
333.15	.27	.00234	.000117
333.15	.43	.001526	.0000763
333.15	.6	.000858	.0000429
333.15	.75	.000502	.0000251
338.15	0	.004251	.00021255
338.15	.2	.003053	.00015265
338.15	.27	.002638	.0001319
338.15	.43	.001772	.0000886
338.15	.6	.001036	.0000518
338.15	.75	.000611	.00003055

System: N,N-dimethylformamide + 2,2',4,4',6,6'-hexanitrostilbene; phases: Liquid, Crystal
Property: Mole fraction of 2,2',4,4',6,6'-hexanitrostilbene (Liquid); method: Titration method
Temperature, K	Pressure, kPa	Mole fraction of 2,2',4,4',6,6'-hexanitrostilbene	uncertainty
298.15	100	.001745	.00008725
303.15	100	.001957	.00009785
308.15	100	.002207	.00011035
313.15	100	.002452	.0001226
318.15	100	.002737	.00013685
323.15	100	.003012	.0001506
328.15	100	.003336	.0001668
333.15	100	.003739	.00018695
338.15	100	.004251	.00021255
