Measured thermophysical data. Thermodynamic and aromaticity studies for the assessment  of the halogen...cyano interactions on Iodobenzonitrile
Source: J. Chem. Thermodyn., 2013, 10.1016/j.jct.2013.06.003
Compound 1: 2-iodobenzonitrile, C7H4IN, purity 97%
Compound 2: 3-iodobenzonitrile, C7H4IN, purity 99%
Compound 3: 4-iodobenzonitrile, C7H4IN, purity 97%
Compound 4: 2-bromobenzonitrile, C7H4BrN, purity 99.95%
Compound 5: 3-bromobenzonitrile, C7H4BrN, purity 99.72%
Compound 6: 4-bromobenzonitrile, C7H4BrN, purity 99.89%
Compound 7: carbon dioxide, CO2
Compound 8: nitrogen, N2
Compound 9: water, H2O
Compound 10: oxygen, O2
Compound 11: iodine, I2

System: 2-iodobenzonitrile; phases: Crystal, Liquid, Air at 1 atmosphere
Property: Normal melting temperature, K (Crystal); method: DSC/DTA
Normal melting temperature, K	uncertainty
326.69	

System: 2-iodobenzonitrile; phases: Crystal, Liquid, Air at 1 atmosphere
Property: Molar enthalpy of transition or fusion, kJ/mol (Crystal); method: DSC/DTA
Molar enthalpy of transition or fusion, kJ/mol	uncertainty
16.6	

System: 2-iodobenzonitrile; phases: Crystal, Gas
Property: Vapor or sublimation pressure, kPa (Crystal); method: Knudsen effusion method
Temperature, K	Vapor or sublimation pressure, kPa	uncertainty
283.19	.000104	
285.15	.000129	
287.17	.000168	
288.91	.000205	
291.13	.000268	
293.15	.000346	
295.15	.000427	
297.15	.000547	
299.12	.000671	
301.15	.000864	
303.17	.00103	
283.19	.000103	
285.15	.000128	
287.17	.00016	
288.91	.000199	
291.13	.000263	
293.15	.000336	
295.15	.000419	
297.15	.000521	
299.12	.000651	
301.15	.000857	
303.17	.00103	
283.19	.000101	
285.15	.000125	
287.17	.000159	
288.91	.000199	
291.13	.000257	
293.15	.000341	
295.15	.000414	
297.15	.000521	
299.12	.00066	
301.15	.000861	
303.17	.00103	

System: 3-iodobenzonitrile; phases: Crystal, Liquid, Air at 1 atmosphere
Property: Normal melting temperature, K (Crystal); method: DSC/DTA
Normal melting temperature, K	uncertainty
313.27	

System: 3-iodobenzonitrile; phases: Crystal, Liquid, Air at 1 atmosphere
Property: Molar enthalpy of transition or fusion, kJ/mol (Crystal); method: DSC/DTA
Molar enthalpy of transition or fusion, kJ/mol	uncertainty
15.1	

System: 3-iodobenzonitrile; phases: Crystal, Gas
Property: Vapor or sublimation pressure, kPa (Crystal); method: Knudsen effusion method
Temperature, K	Vapor or sublimation pressure, kPa	uncertainty
276.18	.0000988	
278.16	.000125	
280.26	.000163	
282.15	.000207	
284.15	.000269	
286.17	.000336	
288.17	.000441	
290.14	.00054	
292.13	.000699	
294.21	.000882	
296.14	.0011	
276.18	.0001	
278.16	.000122	
280.26	.000161	
282.15	.000204	
284.15	.000269	
286.17	.00034	
288.17	.000437	
290.14	.000539	
292.13	.00069	
294.21	.000869	
296.14	.00111	
276.18	.0000993	
278.16	.000123	
280.26	.00016	
282.15	.000206	
284.15	.000269	
286.17	.000339	
288.17	.000432	
290.14	.000537	
292.13	.000686	
294.21	.000876	
296.14	.00111	

System: 4-iodobenzonitrile; phases: Crystal, Liquid, Air at 1 atmosphere
Property: Normal melting temperature, K (Crystal); method: DSC/DTA
Normal melting temperature, K	uncertainty
398.61	

System: 4-iodobenzonitrile; phases: Crystal, Liquid, Air at 1 atmosphere
Property: Molar enthalpy of transition or fusion, kJ/mol (Crystal); method: DSC/DTA
Molar enthalpy of transition or fusion, kJ/mol	uncertainty
23.6	

System: 4-iodobenzonitrile; phases: Crystal, Gas
Property: Vapor or sublimation pressure, kPa (Crystal); method: Knudsen effusion method
Temperature, K	Vapor or sublimation pressure, kPa	uncertainty
294.17	.000111	
296.2	.000141	
298.18	.000182	
300.18	.000223	
302.26	.000294	
304.29	.000368	
306.28	.000444	
308.2	.000565	
310.15	.000701	
312.16	.000882	
314.05	.00108	
294.17	.000109	
296.2	.000141	
298.18	.000182	
300.18	.000226	
302.26	.000294	
304.29	.000353	
306.28	.000452	
308.2	.000562	
310.15	.000715	
312.16	.000889	
314.05	.00106	
294.17	.00011	
296.2	.000143	
298.18	.000182	
300.18	.000228	
302.26	.000296	
304.29	.000365	
306.28	.000454	
308.2	.000563	
310.15	.000717	
312.16	.000889	
314.05	.00106	

System: 2-bromobenzonitrile; phases: Crystal, Liquid, Air at 1 atmosphere
Property: Normal melting temperature, K (Crystal); method: DSC/DTA
Normal melting temperature, K	uncertainty
327.1	

System: 2-bromobenzonitrile; phases: Crystal, Liquid, Air at 1 atmosphere
Property: Molar enthalpy of transition or fusion, kJ/mol (Crystal); method: DSC/DTA
Molar enthalpy of transition or fusion, kJ/mol	uncertainty
17.2	

System: 3-bromobenzonitrile; phases: Crystal, Liquid, Air at 1 atmosphere
Property: Normal melting temperature, K (Crystal); method: DSC/DTA
Normal melting temperature, K	uncertainty
312.65	

System: 3-bromobenzonitrile; phases: Crystal, Liquid, Air at 1 atmosphere
Property: Molar enthalpy of transition or fusion, kJ/mol (Crystal); method: DSC/DTA
Molar enthalpy of transition or fusion, kJ/mol	uncertainty
16.6	

System: 4-bromobenzonitrile; phases: Crystal, Liquid, Air at 1 atmosphere
Property: Normal melting temperature, K (Crystal); method: DSC/DTA
Normal melting temperature, K	uncertainty
384.3	

System: 4-bromobenzonitrile; phases: Crystal, Liquid, Air at 1 atmosphere
Property: Molar enthalpy of transition or fusion, kJ/mol (Crystal); method: DSC/DTA
Molar enthalpy of transition or fusion, kJ/mol	uncertainty
20.7	

Reaction: -1 2-iodobenzonitrile + 0.5 iodine + 7 carbon dioxide + 0.5 nitrogen + 2 water + -8 oxygen
Property: Specific internal energy of reaction at constant volume, J/g
-15515

Reaction: 0.5 iodine + -1 3-iodobenzonitrile + 7 carbon dioxide + 0.5 nitrogen + 2 water + -8 oxygen
Property: Specific internal energy of reaction at constant volume, J/g
-15525.7

Reaction: -1 4-iodobenzonitrile + 0.5 iodine + 7 carbon dioxide + 0.5 nitrogen + 2 water + -8 oxygen
Property: Specific internal energy of reaction at constant volume, J/g
-15501.2
