Measured thermophysical data. Thermodynamics of (solute + solute) and (solute + solvent) interactions of homologous series of amino acids with thiamine hydrochloride in aqueous medium at T = (305.15, 310.15, 315.15) K: A volumetric and acoustic approach
Source: J. Chem. Thermodyn., 2016, 10.1016/j.jct.2016.06.026
Compound 1: glycine, C2H5NO2, purity 99%
Compound 2: L-alanine, C3H7NO2, purity 99%
Compound 3: L-valine, C5H11NO2, purity 99%
Compound 4: L-leucine, C6H13NO2, purity 99%
Compound 5: thiamine hydrochloride, C12H18Cl2N4OS, purity 99%
Compound 6: water, H2O

System: glycine + thiamine hydrochloride + water; phases: Liquid
Fixed: Pressure, kPa = 100
Property: Mass density, kg/m3 (Liquid); method: Vibrating tube method
Temperature, K	Solvent: Molality, mol/kg of thiamine hydrochloride	Molality, mol/kg of glycine	Mass density, kg/m3	uncertainty
305.15	.05	0	999.878	
305.15	.05	.01091	1000.167	
305.15	.05	.02005	1000.409	
305.15	.05	.04048	1000.947	
305.15	.05	.06035	1001.468	
305.15	.05	.07976	1001.975	
305.15	.05	.10077	1002.521	
305.15	.05	.12468	1003.14	
305.15	.05	.15019	1003.793	
310.15	.05	0	998.198	
310.15	.05	.01091	998.481	
310.15	.05	.02005	998.717	
310.15	.05	.04048	999.243	
310.15	.05	.06035	999.753	
310.15	.05	.07976	1000.248	
310.15	.05	.10077	1000.783	
310.15	.05	.12468	1001.388	
310.15	.05	.15019	1002.028	
315.15	.05	0	996.269	
315.15	.05	.01091	996.547	
315.15	.05	.02005	996.779	
315.15	.05	.04048	997.296	
315.15	.05	.06035	997.797	
315.15	.05	.07976	998.283	
315.15	.05	.10077	998.809	
315.15	.05	.12468	999.403	
315.15	.05	.15019	1000.031	
305.15	.1	0	1004.718	
305.15	.1	.01071	1004.985	
305.15	.1	.02104	1005.241	
305.15	.1	.04218	1005.765	
305.15	.1	.06104	1006.229	
305.15	.1	.0814	1006.729	
305.15	.1	.10056	1007.197	
305.15	.1	.12556	1007.804	
305.15	.1	.14961	1008.385	
310.15	.1	0	1003.068	
310.15	.1	.01071	1003.328	
310.15	.1	.02104	1003.579	
310.15	.1	.04218	1004.09	
310.15	.1	.06104	1004.544	
310.15	.1	.0814	1005.031	
310.15	.1	.10056	1005.488	
310.15	.1	.12556	1006.08	
310.15	.1	.14961	1006.648	
315.15	.1	0	1001.099	
315.15	.1	.01071	1001.355	
315.15	.1	.02104	1001.601	
315.15	.1	.04218	1002.104	
315.15	.1	.06104	1002.549	
315.15	.1	.0814	1003.028	
315.15	.1	.10056	1003.477	
315.15	.1	.12556	1004.06	
315.15	.1	.14961	1004.616	
305.15	.15	0	1009.558	
305.15	.15	.01127	1009.82	
305.15	.15	.02071	1010.04	
305.15	.15	.04042	1010.496	
305.15	.15	.06057	1010.96	
305.15	.15	.08099	1011.429	
305.15	.15	.09983	1011.858	
305.15	.15	.12525	1012.435	
305.15	.15	.15041	1013.001	
310.15	.15	0	1007.938	
310.15	.15	.01127	1008.194	
310.15	.15	.02071	1008.408	
310.15	.15	.04042	1008.853	
310.15	.15	.06057	1009.306	
310.15	.15	.08099	1009.763	
310.15	.15	.09983	1010.181	
310.15	.15	.12525	1010.744	
310.15	.15	.15041	1011.297	
315.15	.15	0	1005.929	
315.15	.15	.01127	1006.18	
315.15	.15	.02071	1006.389	
315.15	.15	.04042	1006.825	
315.15	.15	.06057	1007.268	
315.15	.15	.08099	1007.715	
315.15	.15	.09983	1008.125	
315.15	.15	.12525	1008.675	
315.15	.15	.15041	1009.215	
305.15	.2	0	1014.398	
305.15	.2	.01095	1014.636	
305.15	.2	.0209	1014.851	
305.15	.2	.04115	1015.288	
305.15	.2	.06027	1015.698	
305.15	.2	.08338	1016.191	
305.15	.2	.10031	1016.55	
305.15	.2	.12511	1017.073	
305.15	.2	.14995	1017.594	
310.15	.2	0	1012.808	
310.15	.2	.01095	1013.04	
310.15	.2	.0209	1013.25	
310.15	.2	.04115	1013.675	
310.15	.2	.06027	1014.075	
310.15	.2	.08338	1014.555	
310.15	.2	.10031	1014.905	
310.15	.2	.12511	1015.414	
310.15	.2	.14995	1015.922	
315.15	.2	0	1010.759	
315.15	.2	.01095	1010.985	
315.15	.2	.0209	1011.19	
315.15	.2	.04115	1011.606	
315.15	.2	.06027	1011.996	
315.15	.2	.08338	1012.465	
315.15	.2	.10031	1012.806	
315.15	.2	.12511	1013.304	
315.15	.2	.14995	1013.801	

System: glycine + thiamine hydrochloride + water; phases: Liquid
Fixed: Pressure, kPa = 100
Fixed: Frequency, MHz = 3
Property: Speed of sound, m/s (Liquid); method: Sing-around technique in a fixed-path interferometer
Temperature, K	Solvent: Molality, mol/kg of thiamine hydrochloride	Molality, mol/kg of glycine	Speed of sound, m/s	uncertainty
305.15	.05	0	1521.64	
305.15	.05	.01091	1522.2	
305.15	.05	.02005	1522.67	
305.15	.05	.04048	1523.73	
305.15	.05	.06035	1524.75	
305.15	.05	.07976	1525.75	
305.15	.05	.10077	1526.83	
305.15	.05	.12468	1528.06	
305.15	.05	.15019	1529.38	
310.15	.05	0	1531.18	
310.15	.05	.01091	1531.74	
310.15	.05	.02005	1532.21	
310.15	.05	.04048	1533.27	
310.15	.05	.06035	1534.29	
310.15	.05	.07976	1535.29	
310.15	.05	.10077	1536.37	
310.15	.05	.12468	1537.6	
310.15	.05	.15019	1538.92	
315.15	.05	0	1539.35	
315.15	.05	.01091	1539.91	
315.15	.05	.02005	1540.38	
315.15	.05	.04048	1541.44	
315.15	.05	.06035	1542.46	
315.15	.05	.07976	1543.46	
315.15	.05	.10077	1544.54	
315.15	.05	.12468	1545.77	
315.15	.05	.15019	1547.09	
305.15	.1	0	1530.28	
305.15	.1	.01071	1530.8	
305.15	.1	.02104	1531.31	
305.15	.1	.04218	1532.34	
305.15	.1	.06104	1533.26	
305.15	.1	.0814	1534.26	
305.15	.1	.10056	1535.19	
305.15	.1	.12556	1536.41	
305.15	.1	.14961	1537.59	
310.15	.1	0	1539.63	
310.15	.1	.01071	1540.15	
310.15	.1	.02104	1540.66	
310.15	.1	.04218	1541.69	
310.15	.1	.06104	1542.61	
310.15	.1	.0814	1543.61	
310.15	.1	.10056	1544.54	
310.15	.1	.12556	1545.76	
310.15	.1	.14961	1546.94	
315.15	.1	0	1547.22	
315.15	.1	.01071	1547.74	
315.15	.1	.02104	1548.25	
315.15	.1	.04218	1549.28	
315.15	.1	.06104	1550.2	
315.15	.1	.0814	1551.2	
315.15	.1	.10056	1552.13	
315.15	.1	.12556	1553.35	
315.15	.1	.14961	1554.53	
305.15	.15	0	1538.55	
305.15	.15	.01127	1539.04	
305.15	.15	.02071	1539.45	
305.15	.15	.04042	1540.32	
305.15	.15	.06057	1541.2	
305.15	.15	.08099	1542.09	
305.15	.15	.09983	1542.91	
305.15	.15	.12525	1544.02	
305.15	.15	.15041	1545.12	
310.15	.15	0	1547.71	
310.15	.15	.01127	1548.2	
310.15	.15	.02071	1548.61	
310.15	.15	.04042	1549.48	
310.15	.15	.06057	1550.36	
310.15	.15	.08099	1551.25	
310.15	.15	.09983	1552.07	
310.15	.15	.12525	1553.18	
310.15	.15	.15041	1554.28	
315.15	.15	0	1555.07	
315.15	.15	.01127	1555.56	
315.15	.15	.02071	1555.97	
315.15	.15	.04042	1556.84	
315.15	.15	.06057	1557.72	
315.15	.15	.08099	1558.61	
315.15	.15	.09983	1559.43	
315.15	.15	.12525	1560.54	
315.15	.15	.15041	1561.64	
305.15	.2	0	1545.33	
305.15	.2	.01095	1545.89	
305.15	.2	.0209	1546.4	
305.15	.2	.04115	1547.44	
305.15	.2	.06027	1548.43	
305.15	.2	.08338	1549.61	
305.15	.2	.10031	1550.48	
305.15	.2	.12511	1551.76	
305.15	.2	.14995	1553.03	
310.15	.2	0	1553.98	
310.15	.2	.01095	1554.54	
310.15	.2	.0209	1555.05	
310.15	.2	.04115	1556.09	
310.15	.2	.06027	1557.08	
310.15	.2	.08338	1558.26	
310.15	.2	.10031	1559.13	
310.15	.2	.12511	1560.41	
310.15	.2	.14995	1561.68	
315.15	.2	0	1561.33	
315.15	.2	.01095	1561.89	
315.15	.2	.0209	1562.4	
315.15	.2	.04115	1563.44	
315.15	.2	.06027	1564.43	
315.15	.2	.08338	1565.61	
315.15	.2	.10031	1566.48	
315.15	.2	.12511	1567.76	
315.15	.2	.14995	1569.03	

System: L-alanine + thiamine hydrochloride + water; phases: Liquid
Fixed: Pressure, kPa = 100
Property: Mass density, kg/m3 (Liquid); method: Vibrating tube method
Temperature, K	Solvent: Molality, mol/kg of thiamine hydrochloride	Molality, mol/kg of L-alanine	Mass density, kg/m3	uncertainty
305.15	.05	0	999.878	
305.15	.05	.01102	1000.128	
305.15	.05	.01981	1000.326	
305.15	.05	.04001	1000.781	
305.15	.05	.05967	1001.22	
305.15	.05	.07979	1001.667	
305.15	.05	.10035	1002.121	
305.15	.05	.12523	1002.666	
305.15	.05	.1517	1003.24	
310.15	.05	0	998.198	
310.15	.05	.01102	998.444	
310.15	.05	.01981	998.639	
310.15	.05	.04001	999.086	
310.15	.05	.05967	999.519	
310.15	.05	.07979	999.959	
310.15	.05	.10035	1000.404	
310.15	.05	.12523	1000.942	
310.15	.05	.1517	1001.508	
315.15	.05	0	996.269	
315.15	.05	.01102	996.512	
315.15	.05	.01981	996.705	
315.15	.05	.04001	997.148	
315.15	.05	.05967	997.575	
315.15	.05	.07979	998.01	
315.15	.05	.10035	998.452	
315.15	.05	.12523	998.984	
315.15	.05	.1517	999.545	
305.15	.1	0	1004.718	
305.15	.1	.00981	1004.923	
305.15	.1	.02116	1005.159	
305.15	.1	.04054	1005.56	
305.15	.1	.05982	1005.957	
305.15	.1	.07922	1006.353	
305.15	.1	.10072	1006.788	
305.15	.1	.12511	1007.279	
305.15	.1	.14929	1007.763	
310.15	.1	0	1003.068	
310.15	.1	.00981	1003.269	
310.15	.1	.02116	1003.501	
310.15	.1	.04054	1003.894	
310.15	.1	.05982	1004.283	
310.15	.1	.07922	1004.672	
310.15	.1	.10072	1005.1	
310.15	.1	.12511	1005.584	
310.15	.1	.14929	1006.06	
315.15	.1	0	1001.099	
315.15	.1	.00981	1001.298	
315.15	.1	.02116	1001.527	
315.15	.1	.04054	1001.916	
315.15	.1	.05982	1002.301	
315.15	.1	.07922	1002.684	
315.15	.1	.10072	1003.107	
315.15	.1	.12511	1003.583	
315.15	.1	.14929	1004.051	
305.15	.15	0	1009.558	
305.15	.15	.01038	1009.756	
305.15	.15	.02098	1009.957	
305.15	.15	.04105	1010.336	
305.15	.15	.06038	1010.698	
305.15	.15	.08022	1011.068	
305.15	.15	.10038	1011.44	
305.15	.15	.12522	1011.896	
305.15	.15	.14997	1012.347	
310.15	.15	0	1007.938	
310.15	.15	.01038	1008.132	
310.15	.15	.02098	1008.329	
310.15	.15	.04105	1008.701	
310.15	.15	.06038	1009.056	
310.15	.15	.08022	1009.418	
310.15	.15	.10038	1009.783	
310.15	.15	.12522	1010.231	
310.15	.15	.14997	1010.671	
315.15	.15	0	1005.929	
315.15	.15	.01038	1006.12	
315.15	.15	.02098	1006.314	
315.15	.15	.04105	1006.68	
315.15	.15	.06038	1007.029	
315.15	.15	.08022	1007.386	
315.15	.15	.10038	1007.745	
315.15	.15	.12522	1008.186	
315.15	.15	.14997	1008.619	
305.15	.2	0	1014.398	
305.15	.2	.00991	1014.568	
305.15	.2	.01996	1014.74	
305.15	.2	.04073	1015.093	
305.15	.2	.05969	1015.413	
305.15	.2	.08027	1015.758	
305.15	.2	.09933	1016.074	
305.15	.2	.12502	1016.5	
305.15	.2	.14915	1016.895	
310.15	.2	0	1012.808	
310.15	.2	.00991	1012.974	
310.15	.2	.01996	1013.142	
310.15	.2	.04073	1013.488	
310.15	.2	.05969	1013.801	
310.15	.2	.08027	1014.138	
310.15	.2	.09933	1014.447	
310.15	.2	.12502	1014.863	
310.15	.2	.14915	1015.249	
315.15	.2	0	1010.759	
315.15	.2	.00991	1010.923	
315.15	.2	.01996	1011.09	
315.15	.2	.04073	1011.431	
315.15	.2	.05969	1011.741	
315.15	.2	.08027	1012.074	
315.15	.2	.09933	1012.381	
315.15	.2	.12502	1012.791	
315.15	.2	.14915	1013.172	

System: L-alanine + thiamine hydrochloride + water; phases: Liquid
Fixed: Pressure, kPa = 100
Fixed: Frequency, MHz = 3
Property: Speed of sound, m/s (Liquid); method: Sing-around technique in a fixed-path interferometer
Temperature, K	Solvent: Molality, mol/kg of thiamine hydrochloride	Molality, mol/kg of L-alanine	Speed of sound, m/s	uncertainty
305.15	.05	0	1521.64	
305.15	.05	.01102	1522.29	
305.15	.05	.01981	1522.81	
305.15	.05	.04001	1524.01	
305.15	.05	.05967	1525.18	
305.15	.05	.07979	1526.37	
305.15	.05	.10035	1527.59	
305.15	.05	.12523	1529.07	
305.15	.05	.1517	1530.64	
310.15	.05	0	1531.18	
310.15	.05	.01102	1531.83	
310.15	.05	.01981	1532.35	
310.15	.05	.04001	1533.55	
310.15	.05	.05967	1534.72	
310.15	.05	.07979	1535.91	
310.15	.05	.10035	1537.13	
310.15	.05	.12523	1538.61	
310.15	.05	.1517	1540.18	
315.15	.05	0	1539.35	
315.15	.05	.01102	1540	
315.15	.05	.01981	1540.52	
315.15	.05	.04001	1541.72	
315.15	.05	.05967	1542.89	
315.15	.05	.07979	1544.08	
315.15	.05	.10035	1545.3	
315.15	.05	.12523	1546.78	
315.15	.05	.1517	1548.35	
305.15	.1	0	1530.28	
305.15	.1	.00981	1530.88	
305.15	.1	.02116	1531.57	
305.15	.1	.04054	1532.76	
305.15	.1	.05982	1533.93	
305.15	.1	.07922	1535.12	
305.15	.1	.10072	1536.43	
305.15	.1	.12511	1537.92	
305.15	.1	.14929	1539.4	
310.15	.1	0	1539.63	
310.15	.1	.00981	1540.23	
310.15	.1	.02116	1540.92	
310.15	.1	.04054	1542.11	
310.15	.1	.05982	1543.28	
310.15	.1	.07922	1544.47	
310.15	.1	.10072	1545.78	
310.15	.1	.12511	1547.27	
310.15	.1	.14929	1548.75	
315.15	.1	0	1547.22	
315.15	.1	.00981	1547.82	
315.15	.1	.02116	1548.51	
315.15	.1	.04054	1549.7	
315.15	.1	.05982	1550.87	
315.15	.1	.07922	1552.06	
315.15	.1	.10072	1553.37	
315.15	.1	.12511	1554.86	
315.15	.1	.14929	1556.34	
305.15	.15	0	1538.55	
305.15	.15	.01038	1539.15	
305.15	.15	.02098	1539.76	
305.15	.15	.04105	1540.92	
305.15	.15	.06038	1542.04	
305.15	.15	.08022	1543.18	
305.15	.15	.10038	1544.34	
305.15	.15	.12522	1545.78	
305.15	.15	.14997	1547.21	
310.15	.15	0	1547.71	
310.15	.15	.01038	1548.31	
310.15	.15	.02098	1548.92	
310.15	.15	.04105	1550.08	
310.15	.15	.06038	1551.2	
310.15	.15	.08022	1552.34	
310.15	.15	.10038	1553.5	
310.15	.15	.12522	1554.94	
310.15	.15	.14997	1556.37	
315.15	.15	0	1555.07	
315.15	.15	.01038	1555.67	
315.15	.15	.02098	1556.28	
315.15	.15	.04105	1557.44	
315.15	.15	.06038	1558.56	
315.15	.15	.08022	1559.7	
315.15	.15	.10038	1560.86	
315.15	.15	.12522	1562.3	
315.15	.15	.14997	1563.73	
305.15	.2	0	1545.33	
305.15	.2	.00991	1545.9	
305.15	.2	.01996	1546.49	
305.15	.2	.04073	1547.69	
305.15	.2	.05969	1548.79	
305.15	.2	.08027	1549.98	
305.15	.2	.09933	1551.09	
305.15	.2	.12502	1552.58	
305.15	.2	.14915	1553.97	
310.15	.2	0	1553.98	
310.15	.2	.00991	1554.55	
310.15	.2	.01996	1555.14	
310.15	.2	.04073	1556.34	
310.15	.2	.05969	1557.44	
310.15	.2	.08027	1558.63	
310.15	.2	.09933	1559.74	
310.15	.2	.12502	1561.23	
310.15	.2	.14915	1562.62	
315.15	.2	0	1561.33	
315.15	.2	.00991	1561.9	
315.15	.2	.01996	1562.49	
315.15	.2	.04073	1563.69	
315.15	.2	.05969	1564.79	
315.15	.2	.08027	1565.98	
315.15	.2	.09933	1567.09	
315.15	.2	.12502	1568.58	
315.15	.2	.14915	1569.97	

System: thiamine hydrochloride + L-valine + water; phases: Liquid
Fixed: Pressure, kPa = 100
Property: Mass density, kg/m3 (Liquid); method: Vibrating tube method
Temperature, K	Solvent: Molality, mol/kg of thiamine hydrochloride	Molality, mol/kg of L-valine	Mass density, kg/m3	uncertainty
305.15	.05	0	999.878	
305.15	.05	.01044	1000.07	
305.15	.05	.0221	1000.283	
305.15	.05	.04039	1000.617	
305.15	.05	.06002	1000.973	
305.15	.05	.08001	1001.332	
305.15	.05	.09984	1001.687	
305.15	.05	.12408	1002.117	
305.15	.05	.14914	1002.558	
310.15	.05	0	998.198	
310.15	.05	.01044	998.387	
310.15	.05	.0221	998.597	
310.15	.05	.04039	998.925	
310.15	.05	.06002	999.275	
310.15	.05	.08001	999.628	
310.15	.05	.09984	999.977	
310.15	.05	.12408	1000.401	
310.15	.05	.14914	1000.835	
315.15	.05	0	996.269	
315.15	.05	.01044	996.456	
315.15	.05	.0221	996.664	
315.15	.05	.04039	996.989	
315.15	.05	.06002	997.335	
315.15	.05	.08001	997.686	
315.15	.05	.09984	998.032	
315.15	.05	.12408	998.451	
315.15	.05	.14914	998.881	
305.15	.1	0	1004.718	
305.15	.1	.01074	1004.899	
305.15	.1	.02007	1005.056	
305.15	.1	.04038	1005.397	
305.15	.1	.0605	1005.731	
305.15	.1	.08021	1006.057	
305.15	.1	.09985	1006.379	
305.15	.1	.12412	1006.774	
305.15	.1	.15011	1007.194	
310.15	.1	0	1003.068	
310.15	.1	.01074	1003.246	
310.15	.1	.02007	1003.401	
310.15	.1	.04038	1003.735	
310.15	.1	.0605	1004.064	
310.15	.1	.08021	1004.384	
310.15	.1	.09985	1004.701	
310.15	.1	.12412	1005.089	
310.15	.1	.15011	1005.502	
315.15	.1	0	1001.099	
315.15	.1	.01074	1001.276	
315.15	.1	.02007	1001.428	
315.15	.1	.04038	1001.76	
315.15	.1	.0605	1002.085	
315.15	.1	.08021	1002.403	
315.15	.1	.09985	1002.716	
315.15	.1	.12412	1003.1	
315.15	.1	.15011	1003.507	
305.15	.15	0	1009.558	
305.15	.15	.01028	1009.716	
305.15	.15	.02067	1009.875	
305.15	.15	.04011	1010.171	
305.15	.15	.06046	1010.478	
305.15	.15	.08004	1010.772	
305.15	.15	.10025	1011.073	
305.15	.15	.12553	1011.446	
305.15	.15	.1503	1011.807	
310.15	.15	0	1007.938	
310.15	.15	.01028	1008.093	
310.15	.15	.02067	1008.249	
310.15	.15	.04011	1008.54	
310.15	.15	.06046	1008.842	
310.15	.15	.08004	1009.131	
310.15	.15	.10025	1009.427	
310.15	.15	.12553	1009.795	
310.15	.15	.1503	1010.151	
315.15	.15	0	1005.929	
315.15	.15	.01028	1006.083	
315.15	.15	.02067	1006.238	
315.15	.15	.04011	1006.526	
315.15	.15	.06046	1006.826	
315.15	.15	.08004	1007.112	
315.15	.15	.10025	1007.405	
315.15	.15	.12553	1007.768	
315.15	.15	.1503	1008.121	
305.15	.2	0	1014.398	
305.15	.2	.01036	1014.541	
305.15	.2	.02073	1014.683	
305.15	.2	.04009	1014.948	
305.15	.2	.06027	1015.222	
305.15	.2	.07989	1015.486	
305.15	.2	.09942	1015.747	
305.15	.2	.12511	1016.088	
305.15	.2	.14944	1016.407	
310.15	.2	0	1012.808	
310.15	.2	.01036	1012.948	
310.15	.2	.02073	1013.088	
310.15	.2	.04009	1013.348	
310.15	.2	.06027	1013.617	
310.15	.2	.07989	1013.876	
310.15	.2	.09942	1014.132	
310.15	.2	.12511	1014.466	
310.15	.2	.14944	1014.779	
315.15	.2	0	1010.759	
315.15	.2	.01036	1010.898	
315.15	.2	.02073	1011.036	
315.15	.2	.04009	1011.294	
315.15	.2	.06027	1011.56	
315.15	.2	.07989	1011.817	
315.15	.2	.09942	1012.071	
315.15	.2	.12511	1012.402	
315.15	.2	.14944	1012.712	

System: thiamine hydrochloride + L-valine + water; phases: Liquid
Fixed: Pressure, kPa = 100
Fixed: Frequency, MHz = 3
Property: Speed of sound, m/s (Liquid); method: Sing-around technique in a fixed-path interferometer
Temperature, K	Solvent: Molality, mol/kg of thiamine hydrochloride	Molality, mol/kg of L-valine	Speed of sound, m/s	uncertainty
305.15	.05	0	1521.64	
305.15	.05	.01044	1522.58	
305.15	.05	.0221	1523.63	
305.15	.05	.04039	1525.28	
305.15	.05	.06002	1527.06	
305.15	.05	.08001	1528.86	
305.15	.05	.09984	1530.65	
305.15	.05	.12408	1532.84	
305.15	.05	.14914	1535.1	
310.15	.05	0	1531.18	
310.15	.05	.01044	1532.12	
310.15	.05	.0221	1533.17	
310.15	.05	.04039	1534.82	
310.15	.05	.06002	1536.6	
310.15	.05	.08001	1538.4	
310.15	.05	.09984	1540.19	
310.15	.05	.12408	1542.38	
310.15	.05	.14914	1544.64	
315.15	.05	0	1539.35	
315.15	.05	.01044	1540.29	
315.15	.05	.0221	1541.34	
315.15	.05	.04039	1542.99	
315.15	.05	.06002	1544.77	
315.15	.05	.08001	1546.57	
315.15	.05	.09984	1548.36	
315.15	.05	.12408	1550.55	
315.15	.05	.14914	1552.81	
305.15	.1	0	1530.28	
305.15	.1	.01074	1531.24	
305.15	.1	.02007	1532.08	
305.15	.1	.04038	1533.9	
305.15	.1	.0605	1535.7	
305.15	.1	.08021	1537.46	
305.15	.1	.09985	1539.22	
305.15	.1	.12412	1541.39	
305.15	.1	.15011	1543.72	
310.15	.1	0	1539.63	
310.15	.1	.01074	1540.59	
310.15	.1	.02007	1541.43	
310.15	.1	.04038	1543.25	
310.15	.1	.0605	1545.05	
310.15	.1	.08021	1546.81	
310.15	.1	.09985	1548.57	
310.15	.1	.12412	1550.74	
310.15	.1	.15011	1553.07	
315.15	.1	0	1547.22	
315.15	.1	.01074	1548.18	
315.15	.1	.02007	1549.02	
315.15	.1	.04038	1550.84	
315.15	.1	.0605	1552.64	
315.15	.1	.08021	1554.4	
315.15	.1	.09985	1556.16	
315.15	.1	.12412	1558.33	
315.15	.1	.15011	1560.66	
305.15	.15	0	1538.55	
305.15	.15	.01028	1539.44	
305.15	.15	.02067	1540.34	
305.15	.15	.04011	1542.03	
305.15	.15	.06046	1543.79	
305.15	.15	.08004	1545.49	
305.15	.15	.10025	1547.25	
305.15	.15	.12553	1549.44	
305.15	.15	.1503	1551.59	
310.15	.15	0	1547.71	
310.15	.15	.01028	1548.6	
310.15	.15	.02067	1549.5	
310.15	.15	.04011	1551.19	
310.15	.15	.06046	1552.95	
310.15	.15	.08004	1554.65	
310.15	.15	.10025	1556.41	
310.15	.15	.12553	1558.6	
310.15	.15	.1503	1560.75	
315.15	.15	0	1555.07	
315.15	.15	.01028	1555.96	
315.15	.15	.02067	1556.86	
315.15	.15	.04011	1558.55	
315.15	.15	.06046	1560.31	
315.15	.15	.08004	1562.01	
315.15	.15	.10025	1563.77	
315.15	.15	.12553	1565.96	
315.15	.15	.1503	1568.11	
305.15	.2	0	1545.33	
305.15	.2	.01036	1546.24	
305.15	.2	.02073	1547.15	
305.15	.2	.04009	1548.85	
305.15	.2	.06027	1550.62	
305.15	.2	.07989	1552.34	
305.15	.2	.09942	1554.06	
305.15	.2	.12511	1556.32	
305.15	.2	.14944	1558.45	
310.15	.2	0	1553.98	
310.15	.2	.01036	1554.89	
310.15	.2	.02073	1555.8	
310.15	.2	.04009	1557.5	
310.15	.2	.06027	1559.27	
310.15	.2	.07989	1560.99	
310.15	.2	.09942	1562.71	
310.15	.2	.12511	1564.97	
310.15	.2	.14944	1567.1	
315.15	.2	0	1561.33	
315.15	.2	.01036	1562.24	
315.15	.2	.02073	1563.15	
315.15	.2	.04009	1564.85	
315.15	.2	.06027	1566.62	
315.15	.2	.07989	1568.34	
315.15	.2	.09942	1570.06	
315.15	.2	.12511	1572.32	
315.15	.2	.14944	1574.45	

System: L-leucine + thiamine hydrochloride + water; phases: Liquid
Fixed: Pressure, kPa = 100
Property: Mass density, kg/m3 (Liquid); method: Vibrating tube method
Temperature, K	Solvent: Molality, mol/kg of thiamine hydrochloride	Molality, mol/kg of L-leucine	Mass density, kg/m3	uncertainty
305.15	.05	0	999.878	
305.15	.05	.01045	1000.07	
305.15	.05	.02016	1000.249	
305.15	.05	.04026	1000.616	
305.15	.05	.05982	1000.97	
305.15	.05	.08027	1001.339	
305.15	.05	.10033	1001.698	
305.15	.05	.12583	1002.15	
305.15	.05	.15005	1002.576	
310.15	.05	0	998.198	
310.15	.05	.01045	998.389	
310.15	.05	.02016	998.565	
310.15	.05	.04026	998.928	
310.15	.05	.05982	999.28	
310.15	.05	.08027	999.645	
310.15	.05	.10033	1000	
310.15	.05	.12583	1000.448	
310.15	.05	.15005	1000.871	
315.15	.05	0	996.269	
315.15	.05	.01045	996.459	
315.15	.05	.02016	996.634	
315.15	.05	.04026	996.996	
315.15	.05	.05982	997.346	
315.15	.05	.08027	997.709	
315.15	.05	.10033	998.062	
315.15	.05	.12583	998.507	
315.15	.05	.15005	998.928	
305.15	.1	0	1004.718	
305.15	.1	.00996	1004.881	
305.15	.1	.02042	1005.052	
305.15	.1	.0403	1005.375	
305.15	.1	.05923	1005.681	
305.15	.1	.08016	1006.016	
305.15	.1	.09917	1006.318	
305.15	.1	.12357	1006.703	
305.15	.1	.15012	1007.118	
310.15	.1	0	1003.068	
310.15	.1	.00996	1003.229	
310.15	.1	.02042	1003.398	
310.15	.1	.0403	1003.717	
310.15	.1	.05923	1004.019	
310.15	.1	.08016	1004.351	
310.15	.1	.09917	1004.65	
310.15	.1	.12357	1005.03	
310.15	.1	.15012	1005.44	
315.15	.1	0	1001.099	
315.15	.1	.00996	1001.26	
315.15	.1	.02042	1001.428	
315.15	.1	.0403	1001.747	
315.15	.1	.05923	1002.048	
315.15	.1	.08016	1002.378	
315.15	.1	.09917	1002.676	
315.15	.1	.12357	1003.055	
315.15	.1	.15012	1003.464	
305.15	.15	0	1009.558	
305.15	.15	.01071	1009.712	
305.15	.15	.02022	1009.847	
305.15	.15	.04018	1010.131	
305.15	.15	.06054	1010.418	
305.15	.15	.08009	1010.691	
305.15	.15	.09981	1010.965	
305.15	.15	.12511	1011.313	
305.15	.15	.15002	1011.653	
310.15	.15	0	1007.938	
310.15	.15	.01071	1008.09	
310.15	.15	.02022	1008.224	
310.15	.15	.04018	1008.504	
310.15	.15	.06054	1008.788	
310.15	.15	.08009	1009.059	
310.15	.15	.09981	1009.329	
310.15	.15	.12511	1009.673	
310.15	.15	.15002	1010.008	
315.15	.15	0	1005.929	
315.15	.15	.01071	1006.08	
315.15	.15	.02022	1006.214	
315.15	.15	.04018	1006.494	
315.15	.15	.06054	1006.776	
315.15	.15	.08009	1007.046	
315.15	.15	.09981	1007.316	
315.15	.15	.12511	1007.658	
315.15	.15	.15002	1007.992	
305.15	.2	0	1014.398	
305.15	.2	.01016	1014.523	
305.15	.2	.01999	1014.643	
305.15	.2	.04031	1014.889	
305.15	.2	.05969	1015.123	
305.15	.2	.08024	1015.368	
305.15	.2	.09918	1015.592	
305.15	.2	.12502	1015.896	
305.15	.2	.14851	1016.17	
310.15	.2	0	1012.808	
310.15	.2	.01016	1012.931	
310.15	.2	.01999	1013.049	
310.15	.2	.04031	1013.293	
310.15	.2	.05969	1013.523	
310.15	.2	.08024	1013.766	
310.15	.2	.09918	1013.987	
310.15	.2	.12502	1014.286	
310.15	.2	.14851	1014.554	
315.15	.2	0	1010.759	
315.15	.2	.01016	1010.882	
315.15	.2	.01999	1011	
315.15	.2	.04031	1011.243	
315.15	.2	.05969	1011.472	
315.15	.2	.08024	1011.714	
315.15	.2	.09918	1011.934	
315.15	.2	.12502	1012.232	
315.15	.2	.14851	1012.501	

System: L-leucine + thiamine hydrochloride + water; phases: Liquid
Fixed: Pressure, kPa = 100
Fixed: Frequency, MHz = 3
Property: Speed of sound, m/s (Liquid); method: Sing-around technique in a fixed-path interferometer
Temperature, K	Solvent: Molality, mol/kg of thiamine hydrochloride	Molality, mol/kg of L-leucine	Speed of sound, m/s	uncertainty
305.15	.05	0	1521.64	
305.15	.05	.01045	1522.76	
305.15	.05	.02016	1523.8	
305.15	.05	.04026	1525.96	
305.15	.05	.05982	1528.06	
305.15	.05	.08027	1530.26	
305.15	.05	.10033	1532.41	
305.15	.05	.12583	1535.15	
305.15	.05	.15005	1537.75	
310.15	.05	0	1531.18	
310.15	.05	.01045	1532.3	
310.15	.05	.02016	1533.34	
310.15	.05	.04026	1535.5	
310.15	.05	.05982	1537.6	
310.15	.05	.08027	1539.8	
310.15	.05	.10033	1541.95	
310.15	.05	.12583	1544.69	
310.15	.05	.15005	1547.29	
315.15	.05	0	1539.35	
315.15	.05	.01045	1540.47	
315.15	.05	.02016	1541.51	
315.15	.05	.04026	1543.67	
315.15	.05	.05982	1545.77	
315.15	.05	.08027	1547.97	
315.15	.05	.10033	1550.12	
315.15	.05	.12583	1552.86	
315.15	.05	.15005	1555.46	
305.15	.1	0	1530.28	
305.15	.1	.00996	1531.28	
305.15	.1	.02042	1532.33	
305.15	.1	.0403	1534.33	
305.15	.1	.05923	1536.23	
305.15	.1	.08016	1538.33	
305.15	.1	.09917	1540.24	
305.15	.1	.12357	1542.69	
305.15	.1	.15012	1545.36	
310.15	.1	0	1539.63	
310.15	.1	.00996	1540.63	
310.15	.1	.02042	1541.68	
310.15	.1	.0403	1543.68	
310.15	.1	.05923	1545.58	
310.15	.1	.08016	1547.68	
310.15	.1	.09917	1549.59	
310.15	.1	.12357	1552.04	
310.15	.1	.15012	1554.71	
315.15	.1	0	1547.22	
315.15	.1	.00996	1548.22	
315.15	.1	.02042	1549.27	
315.15	.1	.0403	1551.27	
315.15	.1	.05923	1553.17	
315.15	.1	.08016	1555.27	
315.15	.1	.09917	1557.18	
315.15	.1	.12357	1559.63	
315.15	.1	.15012	1562.3	
305.15	.15	0	1538.55	
305.15	.15	.01071	1539.64	
305.15	.15	.02022	1540.6	
305.15	.15	.04018	1542.63	
305.15	.15	.06054	1544.69	
305.15	.15	.08009	1546.68	
305.15	.15	.09981	1548.68	
305.15	.15	.12511	1551.25	
305.15	.15	.15002	1553.78	
310.15	.15	0	1547.71	
310.15	.15	.01071	1548.8	
310.15	.15	.02022	1549.76	
310.15	.15	.04018	1551.79	
310.15	.15	.06054	1553.85	
310.15	.15	.08009	1555.84	
310.15	.15	.09981	1557.84	
310.15	.15	.12511	1560.41	
310.15	.15	.15002	1562.94	
315.15	.15	0	1555.07	
315.15	.15	.01071	1556.16	
315.15	.15	.02022	1557.12	
315.15	.15	.04018	1559.15	
315.15	.15	.06054	1561.21	
315.15	.15	.08009	1563.2	
315.15	.15	.09981	1565.2	
315.15	.15	.12511	1567.77	
315.15	.15	.15002	1570.3	
305.15	.2	0	1545.33	
305.15	.2	.01016	1546.37	
305.15	.2	.01999	1547.37	
305.15	.2	.04031	1549.44	
305.15	.2	.05969	1551.41	
305.15	.2	.08024	1553.5	
305.15	.2	.09918	1555.43	
305.15	.2	.12502	1558.07	
305.15	.2	.14851	1560.46	
310.15	.2	0	1553.98	
310.15	.2	.01016	1555.02	
310.15	.2	.01999	1556.02	
310.15	.2	.04031	1558.09	
310.15	.2	.05969	1560.06	
310.15	.2	.08024	1562.15	
310.15	.2	.09918	1564.08	
310.15	.2	.12502	1566.72	
310.15	.2	.14851	1569.11	
315.15	.2	0	1561.33	
315.15	.2	.01016	1562.37	
315.15	.2	.01999	1563.37	
315.15	.2	.04031	1565.44	
315.15	.2	.05969	1567.41	
315.15	.2	.08024	1569.5	
315.15	.2	.09918	1571.43	
315.15	.2	.12502	1574.07	
315.15	.2	.14851	1576.46	

System: thiamine hydrochloride + water; phases: Liquid
Property: Mass density, kg/m3 (Liquid); method: Vibrating tube method
Temperature, K	Molality, mol/kg of thiamine hydrochloride	Pressure, kPa	Mass density, kg/m3	uncertainty
305.15	.05	100	999.878	
310.15	.05	100	998.198	
315.15	.05	100	996.269	
305.15	.1	100	1004.718	
310.15	.1	100	1003.068	
315.15	.1	100	1001.099	
305.15	.15	100	1009.558	
310.15	.15	100	1007.938	
315.15	.15	100	1005.929	
305.15	.2	100	1014.398	
310.15	.2	100	1012.808	
315.15	.2	100	1010.759	

System: thiamine hydrochloride + water; phases: Liquid
Fixed: Frequency, MHz = 3
Property: Speed of sound, m/s (Liquid); method: Sing-around technique in a fixed-path interferometer
Temperature, K	Molality, mol/kg of thiamine hydrochloride	Pressure, kPa	Speed of sound, m/s	uncertainty
305.15	.05	100	1521.64	
310.15	.05	100	1531.18	
315.15	.05	100	1539.35	
305.15	.1	100	1530.28	
310.15	.1	100	1539.63	
315.15	.1	100	1547.22	
305.15	.15	100	1538.55	
310.15	.15	100	1547.71	
315.15	.15	100	1555.07	
305.15	.2	100	1545.33	
310.15	.2	100	1553.98	
315.15	.2	100	1561.33	
