Measured thermophysical data. Thermophysical and spectroscopic study of pure N-methylcyclohexylammonium based ionic liquids
Source: J. Chem. Thermodyn., 2015, 10.1016/j.jct.2015.07.012
Compound 1: N-methylcyclohexylammonium pentanoate, C12H25NO2, purity 97%
Compound 2: N-methylcyclohexylammonium hexanoate, C13H27NO2, purity 97%
Compound 3: N-methylcyclohexylammonium heptanoate, C14H29NO2, purity 97%
Compound 4: N-methylcyclohexylammonium octanoate, C15H31NO2, purity 97%
Compound 5: water, H2O, purity 99.8%

System: N-methylcyclohexylammonium pentanoate; phases: Liquid
Fixed: Pressure, kPa = 101.325
Property: Refractive index (Na D-line) (Liquid); method: Standard Abbe refractometry
Temperature, K	Refractive index (Na D-line)	uncertainty
303.15	1.4627	.0005

System: N-methylcyclohexylammonium pentanoate; phases: Liquid
Fixed: Pressure, kPa = 101.325
Property: Mass density, kg/m3 (Liquid); method: Vibrating tube method
Temperature, K	Mass density, kg/m3	uncertainty
293.15	965.76	.5
298.15	962.21	.5
303.15	958.63	.5
308.15	955.01	.5
313.15	951.34	.5
318.15	947.63	.5
323.15	943.88	.5
328.15	940.1	.5
333.15	936.29	.5
338.15	932.44	.5
343.15	928.54	.5

System: N-methylcyclohexylammonium pentanoate; phases: Liquid
Fixed: Pressure, kPa = 101.325
Property: Speed of sound, m/s (Liquid); method: Sing-around technique in a fixed-path interferometer
Temperature, K	Speed of sound, m/s	uncertainty
293.15	1495.3	4
298.15	1475.7	4
303.15	1456.7	4
308.15	1438.2	4
313.15	1420.1	4
318.15	1402.1	4
323.15	1384.2	4
328.15	1366.5	4
333.15	1348.8	4
338.15	1331.1	4
343.15	1313.5	4

System: N-methylcyclohexylammonium hexanoate; phases: Liquid
Fixed: Pressure, kPa = 101.325
Property: Refractive index (Na D-line) (Liquid); method: Standard Abbe refractometry
Temperature, K	Refractive index (Na D-line)	uncertainty
303.15	1.4631	.0005

System: N-methylcyclohexylammonium hexanoate; phases: Liquid
Fixed: Pressure, kPa = 101.325
Property: Mass density, kg/m3 (Liquid); method: Vibrating tube method
Temperature, K	Mass density, kg/m3	uncertainty
293.15	955.14	.5
298.15	951.65	.5
303.15	948.13	.5
308.15	944.56	.5
313.15	940.96	.5
318.15	937.32	.5
323.15	933.66	.5
328.15	929.96	.5
333.15	926.23	.5
338.15	922.46	.5
343.15	918.66	.5

System: N-methylcyclohexylammonium hexanoate; phases: Liquid
Fixed: Pressure, kPa = 101.325
Property: Speed of sound, m/s (Liquid); method: Sing-around technique in a fixed-path interferometer
Temperature, K	Speed of sound, m/s	uncertainty
293.15	1484	4
298.15	1464.9	4
303.15	1446.4	4
308.15	1428.2	4
313.15	1410.3	4
318.15	1392.6	4
323.15	1375	4
328.15	1357.5	4
333.15	1340	4
338.15	1322.6	4
343.15	1305.2	4

System: N-methylcyclohexylammonium heptanoate; phases: Liquid
Fixed: Pressure, kPa = 101.325
Property: Refractive index (Na D-line) (Liquid); method: Standard Abbe refractometry
Temperature, K	Refractive index (Na D-line)	uncertainty
303.15	1.4636	.0005

System: N-methylcyclohexylammonium heptanoate; phases: Liquid
Fixed: Pressure, kPa = 101.325
Property: Mass density, kg/m3 (Liquid); method: Vibrating tube method
Temperature, K	Mass density, kg/m3	uncertainty
293.15	945.8	.5
298.15	942.18	.5
303.15	938.51	.5
308.15	934.81	.5
313.15	931.05	.5
318.15	927.26	.5
323.15	923.44	.5
328.15	919.59	.5
333.15	915.71	.5
338.15	911.8	.5
343.15	907.85	.5

System: N-methylcyclohexylammonium heptanoate; phases: Liquid
Fixed: Pressure, kPa = 101.325
Property: Speed of sound, m/s (Liquid); method: Sing-around technique in a fixed-path interferometer
Temperature, K	Speed of sound, m/s	uncertainty
293.15	1478.3	4
298.15	1458.5	4
303.15	1440.2	4
308.15	1422.2	4
313.15	1404.5	4
318.15	1385.1	4
323.15	1368.6	4
328.15	1351.4	4
333.15	1334.1	4
338.15	1316.1	4
343.15	1299.1	4

System: N-methylcyclohexylammonium octanoate; phases: Liquid
Fixed: Pressure, kPa = 101.325
Property: Refractive index (Na D-line) (Liquid); method: Standard Abbe refractometry
Temperature, K	Refractive index (Na D-line)	uncertainty
303.15	1.464	.0005

System: N-methylcyclohexylammonium octanoate; phases: Liquid
Fixed: Pressure, kPa = 101.325
Property: Mass density, kg/m3 (Liquid); method: Vibrating tube method
Temperature, K	Mass density, kg/m3	uncertainty
293.15	938.59	.5
298.15	935.17	.5
303.15	931.73	.5
308.15	928.25	.5
313.15	924.74	.5
318.15	921.21	.5
323.15	917.65	.5
328.15	914.07	.5
333.15	910.46	.5
338.15	906.82	.5
343.15	903.15	.5

System: N-methylcyclohexylammonium octanoate; phases: Liquid
Fixed: Pressure, kPa = 101.325
Property: Speed of sound, m/s (Liquid); method: Sing-around technique in a fixed-path interferometer
Temperature, K	Speed of sound, m/s	uncertainty
293.15	1471.6	4
298.15	1453.1	4
303.15	1435	4
308.15	1417.2	4
313.15	1399.5	4
318.15	1381	4
323.15	1363.7	4
328.15	1346.5	4
333.15	1329.4	4
338.15	1312.4	4
343.15	1295.4	4

System: water + N-methylcyclohexylammonium octanoate; phases: Liquid
Fixed: Pressure, kPa = 100
Fixed: Temperature, K = 298.15
Property: Mass density, kg/m3 (Liquid); method: Vibrating tube method
Mass fraction of water	Mass density, kg/m3	uncertainty
.002193	935.17	.5
.004032	935.76	.5
.005228	936.14	.5
.007628	937.01	.5
.009495	937.53	.5

System: water + N-methylcyclohexylammonium octanoate; phases: Liquid
Fixed: Pressure, kPa = 100
Fixed: Temperature, K = 298.15
Fixed: Frequency, MHz = 3
Property: Speed of sound, m/s (Liquid); method: Sing-around technique in a fixed-path interferometer
Mass fraction of water	Speed of sound, m/s	uncertainty
.002193	1453.1	4
.004032	1457.6	4
.005228	1459.7	4
.007628	1462.3	4
.009495	1463.2	4
