Measured thermophysical data. PvT and thermal-pressure coefficient measurements of diethyl ether (DEE) in the critical and supercritical regions
Source: J. Chem. Thermodyn., 2012, 10.1016/j.jct.2012.04.005
Compound 1: diethyl ether, C4H10O, purity 99.88%

System: diethyl ether; phases: Liquid, Gas
Property: Mass density, kg/m3 (Liquid); method: Isochoric PVT measurement
Temperature, K	Mass density, kg/m3	uncertainty
416.096	534.6	.2673
425.19	517.3	.25865
437.138	485.2	.2426
450.603	441.5	.22075
450.766	440.8	.2204
459.608	394.8	.1974
464.785	348.2	.1741
466.474	310.8	.1554
466.755	296.7	.14835
466.795	288.3	.14415
466.814	278.7	.13935
466.821	275.7	.13785
466.845	261.2	.1306
466.835	260.7	.13035
466.826	255	.1275
466.659	233.7	.11685
466.122	212.6	.1063

System: diethyl ether; phases: Liquid
Property: Mass density, kg/m3 (Liquid); method: Isochoric PVT measurement
Temperature, K	Pressure, kPa	Mass density, kg/m3	uncertainty
416.298	1625	534.6	.2673
416.832	1747	534.6	.2673
416.933	1693	534.6	.2673
417.259	1783	534.6	.2673
418.112	2014	534.6	.2673
420.912	2770	534.6	.2673
421.091	2823	534.6	.2673
422.046	3084	534.6	.2673
425.695	4074	534.6	.2673
425.959	4149	534.6	.2673
427.434	4552	534.6	.2673
432.776	5984	534.6	.2673
432.994	6050	534.6	.2673
433.934	6306	534.6	.2673
438.851	7649	534.6	.2673
439.137	7729	534.6	.2673
439.967	7955	534.6	.2673
448.807	10345	534.6	.2673
449.035	10408	534.6	.2673
449.957	10662	534.6	.2673
460.497	13585	534.6	.2673
460.638	13628	534.6	.2673
461.548	13877	534.6	.2673
470.712	16287	534.6	.2673
471.092	16390	534.6	.2673
471.691	16551	534.6	.2673
425.266	1926	517.3	.25865
425.748	2146	517.3	.25865
425.834	2193	517.3	.25865
426.064	2271	517.3	.25865
426.778	2602	517.3	.25865
437.476	2381	485.2	.2426
437.611	2392	485.2	.2426
437.684	2382	485.2	.2426
437.788	2430	485.2	.2426
438.722	2616	485.2	.2426
445.619	3997	485.2	.2426
445.852	4046	485.2	.2426
446.571	4191	485.2	.2426
459.552	6842	485.2	.2426
459.829	6900	485.2	.2426
460.638	7064	485.2	.2426
471.251	9234	485.2	.2426
471.591	9306	485.2	.2426
472.29	9719	485.2	.2426
478.966	10850	485.2	.2426
479.249	10911	485.2	.2426
480.041	11078	485.2	.2426
480.204	11129	485.2	.2426
480.437	11179	485.2	.2426
481.426	11386	485.2	.2426
492.582	13642	485.2	.2426
492.821	13695	485.2	.2426
493.602	13857	485.2	.2426
504.018	15987	485.2	.2426
504.278	16044	485.2	.2426
505.051	16203	485.2	.2426
450.966	2954	441.5	.22075
451.491	3039	441.5	.22075
451.695	3088	441.5	.22075
452.818	3254	441.5	.22075
461.584	4562	441.5	.22075
461.851	4602	441.5	.22075
462.658	4726	441.5	.22075
450.98	2969	440.8	.2204
451.082	2998	440.8	.2204
451.174	3017	440.8	.2204
452.308	3185	440.8	.2204
461.976	4645	440.8	.2204
463.062	4812	440.8	.2204
477.405	7063	440.8	.2204
478.456	7226	440.8	.2204
490.817	9157	440.8	.2204
491.844	9329	440.8	.2204
460.032	3345	394.8	.1974
460.234	3396	394.8	.1974
460.355	3392	394.8	.1974
461.447	3512	394.8	.1974
472.583	4780	394.8	.1974
473.487	4886	394.8	.1974
487.13	6550	394.8	.1974
488.122	6673	394.8	.1974
499.152	8032	394.8	.1974
500.215	8166	394.8	.1974
517.608	10294	394.8	.1974
518.471	10403	394.8	.1974
533.203	12288	394.8	.1974
534.358	12440	394.8	.1974
554.383	14968	394.8	.1974
555.385	15098	394.8	.1974
574.324	17455	394.8	.1974
575.318	17595	394.8	.1974
465.087	3597	348.2	.1741
465.579	3635	348.2	.1741
465.679	3649	348.2	.1741
465.84	3662	348.2	.1741
470.224	4019	348.2	.1741
471.291	4110	348.2	.1741
466.883	3641	310.8	.1554
467.086	3678	310.8	.1554
467.575	3699	310.8	.1554
467.958	3736	310.8	.1554
468.69	3780	310.8	.1554
479.794	4580	310.8	.1554
480.833	4665	310.8	.1554
499.044	6021	310.8	.1554
500.021	6096	310.8	.1554
466.764	3609	296.7	.14835
467.487	3648	296.7	.14835
470.746	3929	296.7	.14835
473.487	4095	296.7	.14835
480.437	4322	296.7	.14835
467.688	3637	288.3	.14415
473.158	3968	288.3	.14415
474.184	4037	288.3	.14415
480.081	4398	288.3	.14415
481.03	4460	288.3	.14415
467.086	3625	278.8	.1394
468.69	3721	278.8	.1394
468.828	3719	278.8	.1394
469.892	3776	278.8	.1394
466.865	3577	275.7	.13785
467.286	3602	275.7	.13785
468.941	3681	275.7	.13785
469.892	3738	275.7	.13785
466.875	3561	261.2	.1306
467.286	3582	261.2	.1306
467.501	3591	261.2	.1306
468.389	3632	261.2	.1306
479.285	4255	261.2	.1306

System: diethyl ether; phases: Gas
Property: Mass density, kg/m3 (Gas); method: Isochoric PVT measurement
Temperature, K	Pressure, kPa	Mass density, kg/m3	uncertainty
466.845	3565	260.7	.13035
467.623	3606	260.7	.13035
468.69	3669	260.7	.13035
466.895	3586	255	.1275
467.286	3605	255	.1275
467.391	3612	255	.1275
468.289	3662	255	.1275
466.67	3560	233.7	.11685
467.286	3591	233.7	.11685
467.473	3597	233.7	.11685
468.289	3629	233.7	.11685
466.132	3555	212.6	.1063
466.684	3578	212.6	.1063
468.516	3635	212.6	.1063
469.491	3681	212.6	.1063
