Measured thermophysical data. Feasibility of bio-based lactate esters as extractant for biobutanol recovery: (Liquid + liquid) equilibria
Source: J. Chem. Thermodyn., 2016, 10.1016/j.jct.2015.10.003
Compound 1: 1-butanol, C4H10O, purity 99.5%
Compound 2: butyl lactate, C7H14O3, purity 99.0%
Compound 3: 2-ethylhexyl lactate, C11H22O3, purity 99.0%
Compound 4: water, H2O, purity 99.9%

System: 1-butanol + butyl lactate + water; phases: Liquid mixture 2, Liquid mixture 1
Fixed: Temperature, K = 298.15
Fixed: Pressure, kPa = 101.3
Property: Mass fraction of water (Liquid mixture 2); method: Chromatography
Property: Mass fraction of 1-butanol (Liquid mixture 1); method: Chromatography
Property: Mass fraction of water (Liquid mixture 1); method: Chromatography
Mass fraction of 1-butanol	Mass fraction of water	uncertainty	Mass fraction of 1-butanol	uncertainty	Mass fraction of water	uncertainty
0	.144	.002	0	.002	.955	.002
.012	.148	.002	.002	.002	.94	.002
.045	.16	.002	.008	.002	.94	.002
.094	.172	.002	.016	.002	.931	.002
.201	.185	.002	.03	.002	.935	.002
.343	.199	.002	.05	.002	.92	.002
.526	.214	.002	.064	.002	.919	.002
.796	.204	.002	.077	.002	.923	.002

System: 1-butanol + 2-ethylhexyl lactate + water; phases: Liquid mixture 2, Liquid mixture 1
Fixed: Temperature, K = 298.15
Fixed: Pressure, kPa = 101.3
Property: Mass fraction of water (Liquid mixture 2); method: Chromatography
Property: Mass fraction of 1-butanol (Liquid mixture 1); method: Chromatography
Property: Mass fraction of water (Liquid mixture 1); method: Chromatography
Mass fraction of 1-butanol	Mass fraction of water	uncertainty	Mass fraction of 1-butanol	uncertainty	Mass fraction of water	uncertainty
0	.034	.002	0	.002	.984	.002
.009	.041	.002	.002	.002	.974	.002
.046	.041	.002	.01	.002	.96	.002
.095	.05	.002	.017	.002	.96	.002
.213	.067	.002	.033	.002	.954	.002
.374	.098	.002	.048	.002	.93	.002
.565	.13	.002	.062	.002	.925	.002
.796	.204	.002	.077	.002	.923	.002

System: butyl lactate + water; phases: Liquid mixture 2, Liquid mixture 1
Property: Mass fraction of water (Liquid mixture 2); method: Chromatography
Temperature, K	Pressure, kPa	Mass fraction of water	uncertainty
298.15	101.3	.144	.002

System: butyl lactate + water; phases: Liquid mixture 1, Liquid mixture 2
Property: Mass fraction of water (Liquid mixture 1); method: Chromatography
Temperature, K	Pressure, kPa	Mass fraction of water	uncertainty
298.15	101.3	.955	.002

System: 1-butanol + water; phases: Liquid mixture 2, Liquid mixture 1
Property: Mass fraction of water (Liquid mixture 2); method: Chromatography
Temperature, K	Pressure, kPa	Mass fraction of water	uncertainty
298.15	101.3	.204	.002

System: 1-butanol + water; phases: Liquid mixture 1, Liquid mixture 2
Property: Mass fraction of water (Liquid mixture 1); method: Chromatography
Temperature, K	Pressure, kPa	Mass fraction of water	uncertainty
298.15	101.3	.923	.002

System: 2-ethylhexyl lactate + water; phases: Liquid mixture 2, Liquid mixture 1
Property: Mass fraction of water (Liquid mixture 2); method: Chromatography
Temperature, K	Pressure, kPa	Mass fraction of water	uncertainty
298.15	101.3	.034	.002

System: 2-ethylhexyl lactate + water; phases: Liquid mixture 1, Liquid mixture 2
Property: Mass fraction of water (Liquid mixture 1); method: Chromatography
Temperature, K	Pressure, kPa	Mass fraction of water	uncertainty
298.15	101.3	.984	.002
