Measured thermophysical data. Physico-chemical studies of sodium tetraphenylborate and tetrabutylammonium tetraphenylborate in pure nitrobenzene and nitromethane and their binaries probed by conductometry, refractometry and FT-IR spectroscopy
Source: J. Chem. Thermodyn., 2012, 10.1016/j.jct.2012.03.002
Compound 1: sodium tetraphenylboron, C24H20BNa, purity 98%
Compound 2: ammonium, tetrabutyl-, tetraphenylborate(1-), C40H56BN, purity 98%
Compound 3: NM(nitromethane), CH3NO2, purity 99%
Compound 4: nitrobenzene, C6H5NO2, purity 99%

System: NM(nitromethane); phases: Liquid
Property: Mass density, kg/m3 (Liquid); method: Vibrating tube method
Temperature, K	Pressure, kPa	Mass density, kg/m3	uncertainty
298.15	101	1128.8	5

System: NM(nitromethane); phases: Liquid
Property: Viscosity, Pa*s (Liquid); method: Capillary tube (Ostwald; Ubbelohde) method
Temperature, K	Pressure, kPa	Viscosity, Pa*s	uncertainty
298.15	101	.000614	.000003

System: NM(nitromethane); phases: Liquid
Fixed: Pressure, kPa = 101.325
Property: Refractive index (Na D-line) (Liquid); method: Standard Abbe refractometry
Temperature, K	Refractive index (Na D-line)	uncertainty
298.15	1.3799	.0002

System: nitrobenzene; phases: Liquid
Property: Mass density, kg/m3 (Liquid); method: Vibrating tube method
Temperature, K	Pressure, kPa	Mass density, kg/m3	uncertainty
298.15	101	1197.7	5

System: nitrobenzene; phases: Liquid
Property: Viscosity, Pa*s (Liquid); method: Capillary tube (Ostwald; Ubbelohde) method
Temperature, K	Pressure, kPa	Viscosity, Pa*s	uncertainty
298.15	101	.001809	.000003

System: nitrobenzene; phases: Liquid
Fixed: Pressure, kPa = 101.325
Property: Refractive index (Na D-line) (Liquid); method: Standard Abbe refractometry
Temperature, K	Refractive index (Na D-line)	uncertainty
298.15	1.5493	.0002

System: NM(nitromethane) + nitrobenzene; phases: Liquid
Fixed: Temperature, K = 298.15
Fixed: Pressure, kPa = 101
Property: Mass density, kg/m3 (Liquid); method: Vibrating tube method
Mass fraction of NM(nitromethane)	Mass density, kg/m3	uncertainty
0	1197.7	5
.25	1178.4	5
.5	1161.1	5
.75	1144.7	5
1	1128.8	5

System: NM(nitromethane) + nitrobenzene; phases: Liquid
Fixed: Temperature, K = 298.15
Fixed: Pressure, kPa = 101
Property: Viscosity, Pa*s (Liquid); method: Capillary tube (Ostwald; Ubbelohde) method
Mass fraction of NM(nitromethane)	Viscosity, Pa*s	uncertainty
0	.001809	.000003
.25	.000918	.000003
.5	.000827	.000003
.75	.000745	.000003
1	.000614	.000003

System: NM(nitromethane) + nitrobenzene; phases: Liquid
Fixed: Temperature, K = 298.15
Fixed: Pressure, kPa = 101
Property: Refractive index (Na D-line) (Liquid); method: Standard Abbe refractometry
Mass fraction of NM(nitromethane)	Refractive index (Na D-line)	uncertainty
0	1.5493	.0002
.25	1.5051	.0002
.5	1.4623	.0002
.75	1.4201	.0002
1	1.3799	.0002

System: NM(nitromethane) + nitrobenzene; phases: Liquid
Property: Refractive index (Na D-line) (Liquid); method: Standard Abbe refractometry
Molality, mol/kg of NM(nitromethane)	Temperature, K	Pressure, kPa	Refractive index (Na D-line)	uncertainty
.25	298.15	101	1.5051	.0002
.5	298.15	101	1.4623	.0002
.75	298.15	101	1.4201	.0002
1	298.15	101	1.3799	.0002

System: NM(nitromethane) + nitrobenzene + sodium tetraphenylboron; phases: Liquid
Fixed: Temperature, K = 298.15
Fixed: Pressure, kPa = 101
Property: Molar conductivity, S*m2/mol (Liquid); method: Alternating current cell with electrodes
Solvent: Mass fraction of NM(nitromethane)	Amount concentration (molarity), mol/dm3 of sodium tetraphenylboron	Molar conductivity, S*m2/mol	uncertainty
0	.00157937	.00273	.000003
0	.00218681	.002689	.000003
0	.00270748	.00266	.000003
0	.00315873	.002634	.000003
0	.00390196	.002597	.000003
0	.00448872	.002572	.000003
0	.00496372	.002553	.000003
0	.00596649	.002516	.000003
0	.00641936	.0025	.000003
0	.00684392	.002482	.000003
0	.00721996	.002471	.000003
0	.00744769	.002463	.000003
.25	.00090875	.004338	.000003
.25	.00166605	.004251	.000003
.25	.00230683	.004192	.000003
.25	.00285608	.00414	.000003
.25	.00333209	.004106	.000003
.25	.00411611	.00405	.000003
.25	.00473508	.00401	.000003
.25	.00523614	.00398	.000003
.25	.00565007	.00396	.000003
.25	.00599776	.00394	.000003
.25	.00687244	.003898	.000003
.25	.00721953	.00388	.000003
.5	.00098948	.0056	.000003
.5	.00181405	.005491	.000003
.5	.00251176	.005408	.000003
.5	.0031098	.005349	.000003
.5	.0036281	.005303	.000003
.5	.00448177	.00522	.000003
.5	.00515572	.005178	.000003
.5	.00570129	.005134	.000003
.5	.00615199	.005106	.000003
.5	.00653057	.00508	.000003
.5	.00685307	.005057	.000003
.5	.00737323	.005027	.000003
.75	.00106612	.00718	.000003
.75	.00195455	.00702	.000003
.75	.0027063	.006928	.000003
.75	.00335066	.006838	.000003
.75	.00390911	.006782	.000003
.75	.00482889	.006695	.000003
.75	.00534361	.00665	.000003
.75	.00614288	.006587	.000003
.75	.00662848	.006543	.000003
.75	.00703639	.006503	.000003
.75	.00738387	.00648	.000003
.75	.00768341	.006452	.000003
1	.001163	.008583	.000003
1	.00213217	.008413	.000003
1	.00295223	.008296	.000003
1	.00365514	.008195	.000003
1	.00479738	.008057	.000003
1	.00568578	.007972	.000003
1	.0063965	.007909	.000003
1	.0067011	.007878	.000003
1	.00723083	.007825	.000003
1	.0076758	.007789	.000003
1	.00805485	.00776	.000003
1	.00838162	.007739	.000003

System: NM(nitromethane) + nitrobenzene + sodium tetraphenylboron; phases: Liquid
Fixed: Temperature, K = 298.15
Fixed: Pressure, kPa = 101
Property: Refractive index (Na D-line) (Liquid); method: Standard Abbe refractometry
Solvent: Molality, mol/kg of NM(nitromethane)	Amount concentration (molarity), mol/dm3 of sodium tetraphenylboron	Refractive index (Na D-line)	uncertainty
0	0	1.5493	.0002
0	.0042	1.5498	.0002
0	.0168	1.5506	.0002
0	.0295	1.5511	.0002
0	.0423	1.5518	.0002
0	.0552	1.5526	.0002
.25	0	1.5051	.0002
.25	.0042	1.5056	.0002
.25	.0171	1.5067	.0002
.25	.03	1.5077	.0002
.25	.043	1.5086	.0002
.25	.0561	1.5093	.0002
.5	0	1.4623	.0002
.5	.0043	1.4634	.0002
.5	.0173	1.4643	.0002
.5	.0304	1.4651	.0002
.5	.0436	1.4659	.0002
.5	.0569	1.4667	.0002
.75	0	1.4201	.0002
.75	.0044	1.4206	.0002
.75	.0176	1.4213	.0002
.75	.0308	1.4225	.0002
.75	.0442	1.4239	.0002
.75	.0577	1.4244	.0002
1	0	1.3799	.0002
1	.0044	1.3803	.0002
1	.0178	1.3811	.0002
1	.0313	1.3819	.0002
1	.0449	1.3826	.0002
1	.0586	1.3837	.0002

System: NM(nitromethane) + nitrobenzene + ammonium, tetrabutyl-, tetraphenylborate(1-); phases: Liquid
Fixed: Temperature, K = 298.15
Fixed: Pressure, kPa = 101
Property: Molar conductivity, S*m2/mol (Liquid); method: Alternating current cell with electrodes
Solvent: Mass fraction of NM(nitromethane)	Amount concentration (molarity), mol/dm3 of ammonium, tetrabutyl-, tetraphenylborate(1-)	Molar conductivity, S*m2/mol	uncertainty
0	.00154789	.002084	.000003
0	.00214323	.002036	.000003
0	.00265353	.002002	.000003
0	.00348276	.001952	.000003
0	.00412771	.00192	.000003
0	.00464367	.001898	.000003
0	.00524937	.001871	.000003
0	.00584759	.001845	.000003
0	.00638505	.001825	.000003
0	.00690598	.001805	.000003
0	.00735249	.001793	.000003
0	.00765799	.001784	.000003
.25	.00090875	.003231	.000003
.25	.00166605	.003137	.000003
.25	.00230683	.003074	.000003
.25	.00285608	.00303	.000003
.25	.00333209	.002986	.000003
.25	.00411611	.002936	.000003
.25	.00473508	.002898	.000003
.25	.00523614	.002865	.000003
.25	.00565007	.002842	.000003
.25	.00615155	.002814	.000003
.25	.00705619	.00276	.000003
.25	.00743312	.002747	.000003
.5	.00098417	.004253	.000003
.5	.00180431	.004128	.000003
.5	.00249828	.00405	.000003
.5	.00309311	.003991	.000003
.5	.0040597	.003903	.000003
.5	.0048115	.003844	.000003
.5	.00541294	.0038	.000003
.5	.00590502	.003766	.000003
.5	.00631509	.00374	.000003
.5	.00666207	.00372	.000003
.5	.00721725	.003688	.000003
.5	.00764179	.003668	.000003
.75	.00106871	.005351	.000003
.75	.0019593	.005208	.000003
.75	.00271288	.005113	.000003
.75	.0033588	.005038	.000003
.75	.0039186	.00498	.000003
.75	.00484063	.00489606	.000003
.75	.00556854	.004825	.000003
.75	.0061578	.00478417	.000003
.75	.00664459	.004744	.000003
.75	.00705348	.00471	.000003
.75	.0074018	.004683	.000003
.75	.0078	.004651	.000003
1	.00116126	.006375	.000003
1	.00212897	.0062	.000003
1	.0029478	.006089	.000003
1	.00425794	.00594	.000003
1	.00479018	.005888	.000003
1	.00567725	.005807	.000003
1	.00638691	.00574	.000003
1	.00696754	.00569	.000003
1	.00745139	.005655	.000003
1	.00786081	.005628	.000003
1	.00821174	.005589	.000003
1	.00851588	.005567	.000003

System: NM(nitromethane) + nitrobenzene + ammonium, tetrabutyl-, tetraphenylborate(1-); phases: Liquid
Fixed: Temperature, K = 298.15
Fixed: Pressure, kPa = 101
Property: Refractive index (Na D-line) (Liquid); method: Standard Abbe refractometry
Solvent: Mass fraction of NM(nitromethane)	Amount concentration (molarity), mol/dm3 of ammonium, tetrabutyl-, tetraphenylborate(1-)	Refractive index (Na D-line)	uncertainty
0	0	1.5493	.0002
0	.0042	1.5512	.0002
0	.0168	1.5517	.0002
0	.0296	1.5523	.0002
0	.0426	1.5529	.0002
0	.0558	1.5533	.0002
.25	0	1.5051	.0002
.25	.0042	1.5063	.0002
.25	.0171	1.5074	.0002
.25	.0301	1.5082	.0002
.25	.0433	1.5089	.0002
.25	.0567	1.5098	.0002
.5	0	1.4623	.0002
.5	.0043	1.4641	.0002
.5	.0174	1.4649	.0002
.5	.0306	1.4656	.0002
.5	.044	1.4663	.0002
.5	.0576	1.4671	.0002
.75	0	1.4201	.0002
.75	.0044	1.4222	.0002
.75	.0176	1.4231	.0002
.75	.031	1.4237	.0002
.75	.0447	1.4246	.0002
.75	.0585	1.4253	.0002
1	0	1.3799	.0002
1	.0044	1.3809	.0002
1	.0179	1.382	.0002
1	.0315	1.3831	.0002
1	.0453	1.3843	.0002
1	.0593	1.3851	.0002

System: nitrobenzene + sodium tetraphenylboron; phases: Liquid
Property: Molar conductivity, S*m2/mol (Liquid); method: Alternating current cell with electrodes
Amount concentration (molarity), mol/dm3 of sodium tetraphenylboron	Temperature, K	Pressure, kPa	Molar conductivity, S*m2/mol	uncertainty
.00157937	298.15	101	.00273	.000003
.00218681	298.15	101	.002689	.000003
.00270748	298.15	101	.00266	.000003
.00315873	298.15	101	.002634	.000003
.00390196	298.15	101	.002597	.000003
.00448872	298.15	101	.002572	.000003
.00496372	298.15	101	.002553	.000003
.00596649	298.15	101	.002516	.000003
.00641936	298.15	101	.0025	.000003
.00684392	298.15	101	.002482	.000003
.00721996	298.15	101	.002471	.000003
.00744769	298.15	101	.002463	.000003

System: nitrobenzene + sodium tetraphenylboron; phases: Liquid
Property: Refractive index (Na D-line) (Liquid); method: Standard Abbe refractometry
Amount concentration (molarity), mol/dm3 of sodium tetraphenylboron	Temperature, K	Pressure, kPa	Refractive index (Na D-line)	uncertainty
.0042	298.15	101	1.5498	.0002
.0168	298.15	101	1.5506	.0002
.0295	298.15	101	1.5511	.0002
.0423	298.15	101	1.5518	.0002
.0552	298.15	101	1.5526	.0002

System: NM(nitromethane) + sodium tetraphenylboron; phases: Liquid
Property: Molar conductivity, S*m2/mol (Liquid); method: Alternating current cell with electrodes
Amount concentration (molarity), mol/dm3 of sodium tetraphenylboron	Temperature, K	Pressure, kPa	Molar conductivity, S*m2/mol	uncertainty
.001163	298.15	101	.008583	.000003
.00213217	298.15	101	.008413	.000003
.00295223	298.15	101	.008296	.000003
.00365514	298.15	101	.008195	.000003
.00479738	298.15	101	.008057	.000003
.00568578	298.15	101	.007972	.000003
.0063965	298.15	101	.007909	.000003
.0067011	298.15	101	.007878	.000003
.00723083	298.15	101	.007825	.000003
.0076758	298.15	101	.007789	.000003
.00805485	298.15	101	.00776	.000003
.00838162	298.15	101	.007739	.000003

System: nitrobenzene + ammonium, tetrabutyl-, tetraphenylborate(1-); phases: Liquid
Property: Molar conductivity, S*m2/mol (Liquid); method: Alternating current cell with electrodes
Amount concentration (molarity), mol/dm3 of ammonium, tetrabutyl-, tetraphenylborate(1-)	Temperature, K	Pressure, kPa	Molar conductivity, S*m2/mol	uncertainty
.00154789	298.15	101	.002084	.000003
.00214323	298.15	101	.002036	.000003
.00265353	298.15	101	.002002	.000003
.00348276	298.15	101	.001952	.000003
.00412771	298.15	101	.00192	.000003
.00464367	298.15	101	.001898	.000003
.00524937	298.15	101	.001871	.000003
.00584759	298.15	101	.001845	.000003
.00638505	298.15	101	.001825	.000003
.00690598	298.15	101	.001805	.000003
.00735249	298.15	101	.001793	.000003
.00765799	298.15	101	.001784	.000003

System: nitrobenzene + ammonium, tetrabutyl-, tetraphenylborate(1-); phases: Liquid
Property: Refractive index (Na D-line) (Liquid); method: Standard Abbe refractometry
Amount concentration (molarity), mol/dm3 of ammonium, tetrabutyl-, tetraphenylborate(1-)	Temperature, K	Pressure, kPa	Refractive index (Na D-line)	uncertainty
.0042	298.15	101	1.5512	.0002
.0168	298.15	101	1.5517	.0002
.0296	298.15	101	1.5523	.0002
.0426	298.15	101	1.5529	.0002
.0558	298.15	101	1.5533	.0002

System: NM(nitromethane) + ammonium, tetrabutyl-, tetraphenylborate(1-); phases: Liquid
Property: Molar conductivity, S*m2/mol (Liquid); method: Alternating current cell with electrodes
Amount concentration (molarity), mol/dm3 of ammonium, tetrabutyl-, tetraphenylborate(1-)	Temperature, K	Pressure, kPa	Molar conductivity, S*m2/mol	uncertainty
.00116126	298.15	101	.006375	.000003
.00212897	298.15	101	.0062	.000003
.0029478	298.15	101	.006089	.000003
.00425794	298.15	101	.00594	.000003
.00479018	298.15	101	.005888	.000003
.00567725	298.15	101	.005807	.000003
.00638691	298.15	101	.00574	.000003
.00696754	298.15	101	.00569	.000003
.00745139	298.15	101	.005655	.000003
.00786081	298.15	101	.005628	.000003
.00821174	298.15	101	.005589	.000003
.00851588	298.15	101	.005567	.000003

System: NM(nitromethane) + ammonium, tetrabutyl-, tetraphenylborate(1-); phases: Liquid
Property: Refractive index (Na D-line) (Liquid); method: Standard Abbe refractometry
Amount concentration (molarity), mol/dm3 of ammonium, tetrabutyl-, tetraphenylborate(1-)	Temperature, K	Pressure, kPa	Refractive index (Na D-line)	uncertainty
.0044	298.15	101	1.3809	.0002
.0179	298.15	101	1.382	.0002
.0315	298.15	101	1.3831	.0002
.0453	298.15	101	1.3843	.0002
.0593	298.15	101	1.3851	.0002
