Measured thermophysical data. Energetic study of benzothiazole and two methylbenzothiazole derivatives: Calorimetric and computational approaches
Source: J. Chem. Thermodyn., 2014, 10.1016/j.jct.2013.06.021
Compound 1: benzothiazole, C7H5NS
Compound 2: 2-methylbenzothiazole, C8H7NS
Compound 3: 2,5-dimethylbenzothiazole, C9H9NS
Compound 4: sulfuric acid, H2O4S
Compound 5: carbon dioxide, CO2
Compound 6: nitrogen, N2
Compound 7: water, H2O
Compound 8: oxygen, O2

System: benzothiazole; phases: Liquid, Gas
Property: Molar enthalpy of vaporization or sublimation, kJ/mol (Liquid); method: Static calorimetry
Temperature, K	Molar enthalpy of vaporization or sublimation, kJ/mol	uncertainty
298.15	58.8	1.3

System: 2-methylbenzothiazole; phases: Liquid, Gas
Property: Molar enthalpy of vaporization or sublimation, kJ/mol (Liquid); method: Static calorimetry
Temperature, K	Molar enthalpy of vaporization or sublimation, kJ/mol	uncertainty
298.15	61.7	1.4

System: 2,5-dimethylbenzothiazole; phases: Crystal, Gas
Property: Molar enthalpy of vaporization or sublimation, kJ/mol (Crystal); method: Static calorimetry
Temperature, K	Molar enthalpy of vaporization or sublimation, kJ/mol	uncertainty
298.15	84.9	1.5

System: 2,5-dimethylbenzothiazole; phases: Crystal, Liquid, Air at 1 atmosphere
Property: Molar enthalpy of transition or fusion, kJ/mol (Crystal); method: DSC/DTA
Molar enthalpy of transition or fusion, kJ/mol	uncertainty
18.3	.2

System: 2,5-dimethylbenzothiazole; phases: Crystal, Liquid, Air at 1 atmosphere
Property: Normal melting temperature, K (Crystal); method: DSC/DTA
Normal melting temperature, K	uncertainty
313	.1

Reaction: -1 benzothiazole + 1 sulfuric acid + 7 carbon dioxide + 0.5 nitrogen + 1.5 water + -9.75 oxygen
Property: Specific internal energy of reaction at constant volume, J/g
-31114.37

Reaction: -1 2-methylbenzothiazole + 1 sulfuric acid + 8 carbon dioxide + 0.5 nitrogen + 2.5 water + -11.25 oxygen
Property: Specific internal energy of reaction at constant volume, J/g
-32319.15

Reaction: -1 2,5-dimethylbenzothiazole + 1 sulfuric acid + 9 carbon dioxide + 0.5 nitrogen + 3.5 water + -12.75 oxygen
Property: Specific internal energy of reaction at constant volume, J/g
-33430.93
