Measured thermophysical data. Study of the effect of electrolyte and temperature on the critical micelle concentration of dodecyltrimethylammonium bromide in aqueous medium
Source: J. Chem. Thermodyn., 2014, 10.1016/j.jct.2014.07.003
Compound 1: tetrapropylammonium bromide, C12H28BrN, purity 98%
Compound 2: tetrabutylammonium bromide, C16H36BrN, purity 99%
Compound 3: dodecyltrimethylammonium bromide, C15H34BrN, purity 98%
Compound 4: tetrapentylammoniumbromide, C20H44BrN, purity 99%
Compound 5: water, H2O

System: water; phases: Liquid
Property: Electrical conductivity, S/m (Liquid); method: Alternating current cell with electrodes
Temperature, K	Pressure, kPa	Electrical conductivity, S/m	uncertainty
288.15	99	.0005	.0015
293.15	99	.000281	.0015
298.15	99	.000585	.0015
303.15	99	.000687	.0015
308.15	99	.00057	.0015
313.15	99	.000608	.0015
318.15	99	.000835	.0015

System: dodecyltrimethylammonium bromide + water; phases: Liquid
Fixed: Pressure, kPa = 99
Property: Electrical conductivity, S/m (Liquid); method: Alternating current cell with electrodes
Temperature, K	Molality, mol/kg of dodecyltrimethylammonium bromide	Electrical conductivity, S/m	uncertainty
288.15	0	.0005	.0015
288.15	.0015	.0137	.0015
288.15	.003	.0265	.0015
288.15	.0045	.039	.0015
288.15	.0059	.05	.0015
288.15	.0073	.061	.0015
288.15	.0087	.0725	.0015
288.15	.0101	.0837	.0015
288.15	.0116	.095	.0015
288.15	.013	.106	.0015
288.15	.0144	.115	.0015
288.15	.0157	.124	.0015
288.15	.017	.1289	.0015
288.15	.0184	.132	.0015
288.15	.0197	.135	.0015
288.15	.021	.1371	.0015
288.15	.0223	.139	.0015
288.15	.0236	.141	.0015
288.15	.0249	.143	.0015
288.15	.0274	.146	.0015
288.15	.0286	.1485	.0015
288.15	.0298	.1505	.0015
293.15	0	.000281	.0015
293.15	.0015	.014	.0015
293.15	.003	.027	.0015
293.15	.0045	.0397	.0015
293.15	.0059	.052	.0015
293.15	.0073	.0635	.0015
293.15	.0087	.0748	.0015
293.15	.0101	.086	.0015
293.15	.0116	.0975	.0015
293.15	.013	.1082	.0015
293.15	.0144	.1184	.0015
293.15	.0157	.1257	.0015
293.15	.017	.1305	.0015
293.15	.0184	.133	.0015
293.15	.0197	.1358	.0015
293.15	.021	.1382	.0015
293.15	.0223	.14	.0015
293.15	.0236	.142	.0015
293.15	.0249	.1445	.0015
293.15	.0274	.149	.0015
293.15	.0286	.1512	.0015
293.15	.0298	.154	.0015
298.15	0	.000585	.0015
298.15	.0015	.01428	.0015
298.15	.003	.0273	.0015
298.15	.0045	.0412	.0015
298.15	.0059	.053	.0015
298.15	.0073	.0659	.0015
298.15	.0087	.0769	.0015
298.15	.0101	.089	.0015
298.15	.0116	.1002	.0015
298.15	.013	.1102	.0015
298.15	.0144	.1201	.0015
298.15	.0157	.1281	.0015
298.15	.017	.1315	.0015
298.15	.0184	.134	.0015
298.15	.0197	.136	.0015
298.15	.021	.139	.0015
298.15	.0223	.1418	.0015
298.15	.0236	.1433	.0015
298.15	.0249	.1456	.0015
298.15	.0274	.1505	.0015
298.15	.0286	.153	.0015
298.15	.0298	.156	.0015
303.15	0	.000687	.0015
303.15	.0015	.01439	.0015
303.15	.003	.0278	.0015
303.15	.0045	.0413	.0015
303.15	.0059	.0545	.0015
303.15	.0073	.067	.0015
303.15	.0087	.079	.0015
303.15	.0101	.0895	.0015
303.15	.0116	.1011	.0015
303.15	.013	.1122	.0015
303.15	.0144	.1225	.0015
303.15	.0157	.1291	.0015
303.15	.017	.1335	.0015
303.15	.0184	.137	.0015
303.15	.0197	.14	.0015
303.15	.021	.143	.0015
303.15	.0223	.1461	.0015
303.15	.0236	.149	.0015
303.15	.0249	.1512	.0015
303.15	.0274	.1551	.0015
303.15	.0286	.1572	.0015
303.15	.0298	.159	.0015
308.15	0	.00057	.0015
308.15	.0015	.01533	.0015
308.15	.003	.0286	.0015
308.15	.0045	.042	.0015
308.15	.0059	.0547	.0015
308.15	.0073	.0675	.0015
308.15	.0087	.0795	.0015
308.15	.0101	.0903	.0015
308.15	.0116	.102	.0015
308.15	.013	.113	.0015
308.15	.0144	.1233	.0015
308.15	.0157	.131	.0015
308.15	.017	.1361	.0015
308.15	.0184	.14	.0015
308.15	.0197	.1425	.0015
308.15	.021	.1455	.0015
308.15	.0223	.1481	.0015
308.15	.0236	.152	.0015
308.15	.0249	.1545	.0015
308.15	.0274	.158	.0015
308.15	.0286	.16	.0015
308.15	.0298	.162	.0015
313.15	0	.000608	.0015
313.15	.0015	.01688	.0015
313.15	.003	.032	.0015
313.15	.0045	.0469	.0015
313.15	.0059	.0605	.0015
313.15	.0073	.0749	.0015
313.15	.0087	.088	.0015
313.15	.0101	.101	.0015
313.15	.0116	.114	.0015
313.15	.013	.126	.0015
313.15	.0144	.135	.0015
313.15	.0157	.142	.0015
313.15	.017	.1459	.0015
313.15	.0184	.1505	.0015
313.15	.0197	.1539	.0015
313.15	.021	.1565	.0015
313.15	.0223	.159	.0015
313.15	.0236	.162	.0015
313.15	.0249	.164	.0015
313.15	.0274	.1675	.0015
313.15	.0286	.17	.0015
313.15	.0298	.1722	.0015
318.15	0	.000835	.0015
318.15	.0015	.018	.0015
318.15	.003	.034	.0015
318.15	.0045	.049	.0015
318.15	.0059	.0645	.0015
318.15	.0073	.0771	.0015
318.15	.0087	.0905	.0015
318.15	.0101	.103	.0015
318.15	.0116	.1159	.0015
318.15	.013	.1279	.0015
318.15	.0144	.1375	.0015
318.15	.0157	.1455	.0015
318.15	.017	.15	.0015
318.15	.0184	.154	.0015
318.15	.0197	.1576	.0015
318.15	.021	.1606	.0015
318.15	.0223	.1633	.0015
318.15	.0236	.167	.0015
318.15	.0249	.1696	.0015
318.15	.0274	.1745	.0015
318.15	.0286	.1767	.0015
318.15	.0298	.1791	.0015

System: dodecyltrimethylammonium bromide + tetrapropylammonium bromide + water; phases: Liquid
Fixed: Pressure, kPa = 99
Fixed: Solvent: Molality, mol/kg of tetrapropylammonium bromide = .01
Property: Electrical conductivity, S/m (Liquid); method: Alternating current cell with electrodes
Temperature, K	Molality, mol/kg of dodecyltrimethylammonium bromide	Electrical conductivity, S/m	uncertainty
288.15	0	.1172	.0015
288.15	.0015	.1264	.0015
288.15	.003	.1391	.0015
288.15	.0045	.1518	.0015
288.15	.0059	.1633	.0015
288.15	.0073	.1739	.0015
288.15	.0087	.1855	.0015
288.15	.0101	.1969	.0015
288.15	.0116	.215	.0015
288.15	.013	.221	.0015
288.15	.0144	.225	.0015
288.15	.0157	.228	.0015
288.15	.017	.231	.0015
288.15	.0184	.234	.0015
288.15	.0197	.236	.0015
288.15	.021	.238	.0015
288.15	.0223	.241	.0015
288.15	.0236	.244	.0015
288.15	.0249	.246	.0015
288.15	.0274	.248	.0015
288.15	.0286	.251	.0015
288.15	.0298	.253	.0015
293.15	0	.0912	.0015
293.15	.0015	.1035	.0015
293.15	.003	.1162	.0015
293.15	.0045	.1265	.0015
293.15	.0059	.1385	.0015
293.15	.0073	.1512	.0015
293.15	.0087	.1614	.0015
293.15	.0101	.1721	.0015
293.15	.0116	.1824	.0015
293.15	.013	.1895	.0015
293.15	.0144	.1955	.0015
293.15	.0157	.2005	.0015
293.15	.017	.205	.0015
293.15	.0184	.208	.0015
293.15	.0197	.211	.0015
293.15	.021	.213	.0015
293.15	.0223	.214	.0015
293.15	.0236	.217	.0015
293.15	.0249	.219	.0015
293.15	.0274	.221	.0015
293.15	.0286	.224	.0015
293.15	.0298	.227	.0015
298.15	0	.0847	.0015
298.15	.0015	.0967	.0015
298.15	.003	.1084	.0015
298.15	.0045	.1206	.0015
298.15	.0059	.1314	.0015
298.15	.0073	.1431	.0015
298.15	.0087	.1541	.0015
298.15	.0101	.1655	.0015
298.15	.0116	.1761	.0015
298.15	.013	.1837	.0015
298.15	.0144	.1877	.0015
298.15	.0157	.1907	.0015
298.15	.017	.1941	.0015
298.15	.0184	.197	.0015
298.15	.0197	.201	.0015
298.15	.021	.204	.0015
298.15	.0223	.2075	.0015
298.15	.0236	.2105	.0015
298.15	.0249	.214	.0015
298.15	.0274	.218	.0015
298.15	.0286	.22	.0015
298.15	.0298	.223	.0015
303.15	0	.0839	.0015
303.15	.0015	.0958	.0015
303.15	.003	.1075	.0015
303.15	.0045	.1203	.0015
303.15	.0059	.1319	.0015
303.15	.0073	.1438	.0015
303.15	.0087	.155	.0015
303.15	.0101	.1657	.0015
303.15	.0116	.1762	.0015
303.15	.013	.1846	.0015
303.15	.0144	.1917	.0015
303.15	.0157	.1975	.0015
303.15	.017	.2025	.0015
303.15	.0184	.2054	.0015
303.15	.0197	.208	.0015
303.15	.021	.21	.0015
303.15	.0223	.214	.0015
303.15	.0236	.216	.0015
303.15	.0249	.219	.0015
303.15	.0274	.221	.0015
303.15	.0286	.224	.0015
303.15	.0298	.227	.0015
308.15	0	.0868	.0015
308.15	.0015	.0996	.0015
308.15	.003	.1122	.0015
308.15	.0045	.1238	.0015
308.15	.0059	.1373	.0015
308.15	.0073	.1481	.0015
308.15	.0087	.1595	.0015
308.15	.0101	.1707	.0015
308.15	.0116	.181	.0015
308.15	.013	.1887	.0015
308.15	.0144	.1951	.0015
308.15	.0157	.2011	.0015
308.15	.017	.205	.0015
308.15	.0184	.209	.0015
308.15	.0197	.212	.0015
308.15	.021	.215	.0015
308.15	.0223	.219	.0015
308.15	.0236	.221	.0015
308.15	.0249	.224	.0015
308.15	.0274	.227	.0015
308.15	.0286	.229	.0015
308.15	.0298	.231	.0015
313.15	0	.0882	.0015
313.15	.0015	.1008	.0015
313.15	.003	.1126	.0015
313.15	.0045	.1242	.0015
313.15	.0059	.1366	.0015
313.15	.0073	.1485	.0015
313.15	.0087	.1604	.0015
313.15	.0101	.1709	.0015
313.15	.0116	.1817	.0015
313.15	.013	.1936	.0015
313.15	.0144	.2007	.0015
313.15	.0157	.206	.0015
313.15	.017	.209	.0015
313.15	.0184	.214	.0015
313.15	.0197	.218	.0015
313.15	.021	.221	.0015
313.15	.0223	.225	.0015
313.15	.0236	.227	.0015
313.15	.0249	.229	.0015
313.15	.0274	.231	.0015
313.15	.0286	.234	.0015
313.15	.0298	.237	.0015
318.15	0	.0911	.0015
318.15	.0015	.1044	.0015
318.15	.003	.1185	.0015
318.15	.0045	.1318	.0015
318.15	.0059	.1451	.0015
318.15	.0073	.158	.0015
318.15	.0087	.171	.0015
318.15	.0101	.1844	.0015
318.15	.0116	.1964	.0015
318.15	.013	.209	.0015
318.15	.0144	.214	.0015
318.15	.0157	.219	.0015
318.15	.017	.223	.0015
318.15	.0184	.226	.0015
318.15	.0197	.23	.0015
318.15	.021	.234	.0015
318.15	.0223	.238	.0015
318.15	.0236	.241	.0015
318.15	.0249	.245	.0015
318.15	.0274	.247	.0015
318.15	.0286	.249	.0015
318.15	.0298	.252	.0015

System: dodecyltrimethylammonium bromide + tetrabutylammonium bromide + water; phases: Liquid
Fixed: Pressure, kPa = 99
Fixed: Solvent: Molality, mol/kg of tetrabutylammonium bromide = .01
Property: Electrical conductivity, S/m (Liquid); method: Alternating current cell with electrodes
Temperature, K	Molality, mol/kg of dodecyltrimethylammonium bromide	Electrical conductivity, S/m	uncertainty
288.15	0	.1061	.0015
288.15	.0015	.1169	.0015
288.15	.003	.1291	.0015
288.15	.0045	.1402	.0015
288.15	.0059	.1521	.0015
288.15	.0073	.1627	.0015
288.15	.0087	.174	.0015
288.15	.0101	.1848	.0015
288.15	.0116	.1944	.0015
288.15	.013	.21	.0015
288.15	.0144	.218	.0015
288.15	.0157	.223	.0015
288.15	.017	.226	.0015
288.15	.0184	.228	.0015
288.15	.0197	.231	.0015
288.15	.021	.234	.0015
288.15	.0223	.236	.0015
288.15	.0236	.239	.0015
288.15	.0249	.241	.0015
288.15	.0274	.245	.0015
288.15	.0286	.247	.0015
288.15	.0298	.249	.0015
293.15	0	.0894	.0015
293.15	.0015	.1016	.0015
293.15	.003	.115	.0015
293.15	.0045	.1257	.0015
293.15	.0059	.1383	.0015
293.15	.0073	.1485	.0015
293.15	.0087	.1605	.0015
293.15	.0101	.1718	.0015
293.15	.0116	.1826	.0015
293.15	.013	.1896	.0015
293.15	.0144	.1936	.0015
293.15	.0157	.1973	.0015
293.15	.017	.205	.0015
293.15	.0184	.207	.0015
293.15	.0197	.209	.0015
293.15	.021	.213	.0015
293.15	.0223	.216	.0015
293.15	.0236	.218	.0015
293.15	.0249	.22	.0015
293.15	.0274	.222	.0015
293.15	.0286	.225	.0015
293.15	.0298	.228	.0015
298.15	0	.0829	.0015
298.15	.0015	.0948	.0015
298.15	.003	.1077	.0015
298.15	.0045	.1198	.0015
298.15	.0059	.1312	.0015
298.15	.0073	.1425	.0015
298.15	.0087	.1501	.0015
298.15	.0101	.1638	.0015
298.15	.0116	.1745	.0015
298.15	.013	.182	.0015
298.15	.0144	.1881	.0015
298.15	.0157	.1935	.0015
298.15	.017	.1959	.0015
298.15	.0184	.1983	.0015
298.15	.0197	.202	.0015
298.15	.021	.206	.0015
298.15	.0223	.209	.0015
298.15	.0236	.211	.0015
298.15	.0249	.215	.0015
298.15	.0274	.217	.0015
298.15	.0286	.219	.0015
298.15	.0298	.222	.0015
303.15	0	.0841	.0015
303.15	.0015	.0967	.0015
303.15	.003	.1091	.0015
303.15	.0045	.1211	.0015
303.15	.0059	.1329	.0015
303.15	.0073	.1435	.0015
303.15	.0087	.154	.0015
303.15	.0101	.1651	.0015
303.15	.0116	.1749	.0015
303.15	.013	.1837	.0015
303.15	.0144	.1883	.0015
303.15	.0157	.1913	.0015
303.15	.017	.194	.0015
303.15	.0184	.202	.0015
303.15	.0197	.205	.0015
303.15	.021	.208	.0015
303.15	.0223	.211	.0015
303.15	.0236	.214	.0015
303.15	.0249	.217	.0015
303.15	.0274	.218	.0015
303.15	.0286	.222	.0015
303.15	.0298	.224	.0015
308.15	0	.083	.0015
308.15	.0015	.0948	.0015
308.15	.003	.1078	.0015
308.15	.0045	.1199	.0015
308.15	.0059	.1328	.0015
308.15	.0073	.1443	.0015
308.15	.0087	.1568	.0015
308.15	.0101	.1676	.0015
308.15	.0116	.179	.0015
308.15	.013	.187	.0015
308.15	.0144	.1902	.0015
308.15	.0157	.1957	.0015
308.15	.017	.204	.0015
308.15	.0184	.208	.0015
308.15	.0197	.211	.0015
308.15	.021	.213	.0015
308.15	.0223	.214	.0015
308.15	.0236	.22	.0015
308.15	.0249	.223	.0015
308.15	.0274	.226	.0015
308.15	.0286	.229	.0015
308.15	.0298	.232	.0015
313.15	0	.0843	.0015
313.15	.0015	.0947	.0015
313.15	.003	.1073	.0015
313.15	.0045	.1185	.0015
313.15	.0059	.1352	.0015
313.15	.0073	.1484	.0015
313.15	.0087	.1562	.0015
313.15	.0101	.1694	.0015
313.15	.0116	.1795	.0015
313.15	.013	.1904	.0015
313.15	.0144	.197	.0015
313.15	.0157	.207	.0015
313.15	.017	.211	.0015
313.15	.0184	.215	.0015
313.15	.0197	.218	.0015
313.15	.021	.222	.0015
313.15	.0223	.225	.0015
313.15	.0236	.227	.0015
313.15	.0249	.229	.0015
313.15	.0274	.231	.0015
313.15	.0286	.234	.0015
313.15	.0298	.235	.0015
318.15	0	.0856	.0015
318.15	.0015	.0992	.0015
318.15	.003	.1132	.0015
318.15	.0045	.124	.0015
318.15	.0059	.1335	.0015
318.15	.0073	.1496	.0015
318.15	.0087	.1602	.0015
318.15	.0101	.1711	.0015
318.15	.0116	.1821	.0015
318.15	.013	.1925	.0015
318.15	.0144	.205	.0015
318.15	.0157	.21	.0015
318.15	.017	.212	.0015
318.15	.0184	.216	.0015
318.15	.0197	.219	.0015
318.15	.021	.22	.0015
318.15	.0223	.222	.0015
318.15	.0236	.225	.0015
318.15	.0249	.228	.0015
318.15	.0274	.231	.0015
318.15	.0286	.233	.0015
318.15	.0298	.236	.0015

System: tetrapentylammoniumbromide + dodecyltrimethylammonium bromide + water; phases: Liquid
Fixed: Pressure, kPa = 99
Fixed: Solvent: Molality, mol/kg of tetrapentylammoniumbromide = .01
Property: Electrical conductivity, S/m (Liquid); method: Alternating current cell with electrodes
Temperature, K	Molality, mol/kg of dodecyltrimethylammonium bromide	Electrical conductivity, S/m	uncertainty
288.15	0	.0961	.0015
288.15	.0015	.1056	.0015
288.15	.003	.1196	.0015
288.15	.0045	.1298	.0015
288.15	.0059	.1426	.0015
288.15	.0073	.1515	.0015
288.15	.0087	.1637	.0015
288.15	.0101	.1742	.0015
288.15	.0116	.184	.0015
288.15	.013	.191	.0015
288.15	.0144	.198	.0015
288.15	.0157	.201	.0015
288.15	.017	.207	.0015
288.15	.0184	.211	.0015
288.15	.0197	.215	.0015
288.15	.021	.218	.0015
288.15	.0223	.221	.0015
288.15	.0236	.224	.0015
288.15	.0249	.226	.0015
288.15	.0274	.228	.0015
288.15	.0286	.23	.0015
288.15	.0298	.231	.0015
293.15	0	.0898	.0015
293.15	.0015	.1023	.0015
293.15	.003	.1144	.0015
293.15	.0045	.1266	.0015
293.15	.0059	.14	.0015
293.15	.0073	.1501	.0015
293.15	.0087	.1626	.0015
293.15	.0101	.1736	.0015
293.15	.0116	.1835	.0015
293.15	.013	.1889	.0015
293.15	.0144	.1928	.0015
293.15	.0157	.1979	.0015
293.15	.017	.205	.0015
293.15	.0184	.208	.0015
293.15	.0197	.212	.0015
293.15	.021	.214	.0015
293.15	.0223	.216	.0015
293.15	.0236	.219	.0015
293.15	.0249	.221	.0015
293.15	.0274	.224	.0015
293.15	.0286	.226	.0015
293.15	.0298	.229	.0015
298.15	0	.0879	.0015
298.15	.0015	.1007	.0015
298.15	.003	.1133	.0015
298.15	.0045	.1251	.0015
298.15	.0059	.1379	.0015
298.15	.0073	.1494	.0015
298.15	.0087	.1598	.0015
298.15	.0101	.1715	.0015
298.15	.0116	.1817	.0015
298.15	.013	.1871	.0015
298.15	.0144	.1912	.0015
298.15	.0157	.1955	.0015
298.15	.017	.202	.0015
298.15	.0184	.205	.0015
298.15	.0197	.209	.0015
298.15	.021	.211	.0015
298.15	.0223	.213	.0015
298.15	.0236	.216	.0015
298.15	.0249	.219	.0015
298.15	.0274	.222	.0015
298.15	.0286	.224	.0015
298.15	.0298	.226	.0015
303.15	0	.09	.0015
303.15	.0015	.1026	.0015
303.15	.003	.1152	.0015
303.15	.0045	.1285	.0015
303.15	.0059	.14	.0015
303.15	.0073	.1512	.0015
303.15	.0087	.1618	.0015
303.15	.0101	.1746	.0015
303.15	.0116	.1849	.0015
303.15	.013	.1907	.0015
303.15	.0144	.1931	.0015
303.15	.0157	.1982	.0015
303.15	.017	.206	.0015
303.15	.0184	.209	.0015
303.15	.0197	.213	.0015
303.15	.021	.215	.0015
303.15	.0223	.218	.0015
303.15	.0236	.22	.0015
303.15	.0249	.222	.0015
303.15	.0274	.225	.0015
303.15	.0286	.228	.0015
303.15	.0298	.23	.0015
308.15	0	.0897	.0015
308.15	.0015	.1025	.0015
308.15	.003	.1148	.0015
308.15	.0045	.1258	.0015
308.15	.0059	.1392	.0015
308.15	.0073	.1511	.0015
308.15	.0087	.1637	.0015
308.15	.0101	.1741	.0015
308.15	.0116	.1827	.0015
308.15	.013	.1899	.0015
308.15	.0144	.1947	.0015
308.15	.0157	.203	.0015
308.15	.017	.206	.0015
308.15	.0184	.209	.0015
308.15	.0197	.211	.0015
308.15	.021	.214	.0015
308.15	.0223	.218	.0015
308.15	.0236	.221	.0015
308.15	.0249	.224	.0015
308.15	.0274	.227	.0015
308.15	.0286	.23	.0015
308.15	.0298	.233	.0015
313.15	0	.0881	.0015
313.15	.0015	.102	.0015
313.15	.003	.1138	.0015
313.15	.0045	.123	.0015
313.15	.0059	.135	.0015
313.15	.0073	.148	.0015
313.15	.0087	.159	.0015
313.15	.0101	.1695	.0015
313.15	.0116	.179	.0015
313.15	.013	.1882	.0015
313.15	.0144	.1955	.0015
313.15	.0157	.199	.0015
313.15	.017	.204	.0015
313.15	.0184	.21	.0015
313.15	.0197	.212	.0015
313.15	.021	.215	.0015
313.15	.0223	.219	.0015
313.15	.0236	.222	.0015
313.15	.0249	.2244	.0015
313.15	.0274	.228	.0015
313.15	.0286	.231	.0015
313.15	.0298	.234	.0015
318.15	0	.0903	.0015
318.15	.0015	.1032	.0015
318.15	.003	.1143	.0015
318.15	.0045	.1265	.0015
318.15	.0059	.1373	.0015
318.15	.0073	.1495	.0015
318.15	.0087	.1605	.0015
318.15	.0101	.1707	.0015
318.15	.0116	.18	.0015
318.15	.013	.1894	.0015
318.15	.0144	.1965	.0015
318.15	.0157	.202	.0015
318.15	.017	.207	.0015
318.15	.0184	.211	.0015
318.15	.0197	.214	.0015
318.15	.021	.216	.0015
318.15	.0223	.22	.0015
318.15	.0236	.223	.0015
318.15	.0249	.227	.0015
318.15	.0274	.231	.0015
318.15	.0286	.234	.0015
318.15	.0298	.236	.0015

System: tetrapropylammonium bromide + water; phases: Liquid
Property: Electrical conductivity, S/m (Liquid); method: Alternating current cell with electrodes
Temperature, K	Pressure, kPa	Molality, mol/kg of tetrapropylammonium bromide	Electrical conductivity, S/m	uncertainty
288.15	99	.01	.1172	.0015
293.15	99	.01	.0912	.0015
298.15	99	.01	.0847	.0015
303.15	99	.01	.0839	.0015
308.15	99	.01	.0868	.0015
313.15	99	.01	.0882	.0015
318.15	99	.01	.0911	.0015

System: tetrabutylammonium bromide + water; phases: Liquid
Property: Electrical conductivity, S/m (Liquid); method: Alternating current cell with electrodes
Temperature, K	Pressure, kPa	Molality, mol/kg of tetrabutylammonium bromide	Electrical conductivity, S/m	uncertainty
288.15	99	.01	.1061	.0015
293.15	99	.01	.0894	.0015
298.15	99	.01	.0829	.0015
303.15	99	.01	.0841	.0015
308.15	99	.01	.083	.0015
313.15	99	.01	.0843	.0015
318.15	99	.01	.0856	.0015

System: tetrapentylammoniumbromide + water; phases: Liquid
Property: Electrical conductivity, S/m (Liquid); method: Alternating current cell with electrodes
Temperature, K	Pressure, kPa	Molality, mol/kg of tetrapentylammoniumbromide	Electrical conductivity, S/m	uncertainty
288.15	99	.01	.0961	.0015
293.15	99	.01	.0898	.0015
298.15	99	.01	.0879	.0015
303.15	99	.01	.09	.0015
308.15	99	.01	.0897	.0015
313.15	99	.01	.0881	.0015
318.15	99	.01	.0903	.0015
