Measured thermophysical data. Comprehensive study of the thermodynamic properties for 2-methyl-3-buten-2-ol
Source: J. Chem. Thermodyn., 2015, 10.1016/j.jct.2015.07.028
Compound 1: 2-methyl-3-buten-2-ol, C5H10O
Compound 2: carbon dioxide, CO2
Compound 3: water, H2O
Compound 4: oxygen, O2

System: 2-methyl-3-buten-2-ol; phases: Crystal 2, Crystal 1, Gas
Property: Molar enthalpy of transition or fusion, kJ/mol (Crystal 2); method: Adiabatic calorimetry
Molar enthalpy of transition or fusion, kJ/mol	uncertainty
.17	.01

System: 2-methyl-3-buten-2-ol; phases: Crystal 1, Liquid, Gas
Property: Molar enthalpy of transition or fusion, kJ/mol (Crystal 1); method: Adiabatic calorimetry
Molar enthalpy of transition or fusion, kJ/mol	uncertainty
5.199	.012

System: 2-methyl-3-buten-2-ol; phases: Liquid, Gas
Property: Molar enthalpy of vaporization or sublimation, kJ/mol (Liquid); method: Static calorimetry
Temperature, K	Molar enthalpy of vaporization or sublimation, kJ/mol	uncertainty
305.12	46.9	1.6

System: 2-methyl-3-buten-2-ol; phases: Crystal 2, Crystal 1, Gas
Property: Triple point temperature, K (Crystal 2); method: Adiabatic calorimetry
Triple point temperature, K	uncertainty
88.1	.3

System: 2-methyl-3-buten-2-ol; phases: Crystal 1, Liquid, Gas
Property: Triple point temperature, K (Crystal 1); method: Adiabatic calorimetry
Triple point temperature, K	uncertainty
245.03	.03

System: 2-methyl-3-buten-2-ol; phases: Crystal 2, Gas
Property: Molar heat capacity at saturation pressure, J/K/mol (Crystal 2); method: Small (less than 1 g) adiabatic calorimetry
Temperature, K	Molar heat capacity at saturation pressure, J/K/mol	uncertainty
5	.3244	.0065
10	2.631	.026
15	6.921	.069
20	12.04	.05
25	17.22	.07
30	22.12	.09
35	26.55	.11
40	30.53	.12
45	34.27	.14
50	37.8	.15
60	44.33	.18
70	50.7	.2
80	57.08	.23
88.1	62.25	.25

System: 2-methyl-3-buten-2-ol; phases: Crystal 2
Fixed: Pressure, kPa = 101.325
Property: Molar enthalpy function {Hm(T)-Hm(0)}/T, J/K/mol (Crystal 2); method: Small (less than 1 g) adiabatic calorimetry
Temperature, K	Molar enthalpy function {Hm(T)-Hm(0)}/T, J/K/mol	uncertainty
5	.0806	.0016
10	.677	.014
15	1.999	.025
20	3.863	.042
25	6.019	.045
30	8.299	.051
35	10.6	.06
40	12.84	.06
45	15.02	.07
50	17.12	.08
60	21.12	.09
70	24.89	.11
80	28.51	.12
88.1	31.38	.13

System: 2-methyl-3-buten-2-ol; phases: Crystal 2
Fixed: Pressure, kPa = 101.325
Property: Molar entropy, J/K/mol (Crystal 2); method: Small (less than 1 g) adiabatic calorimetry
Temperature, K	Molar entropy, J/K/mol	uncertainty
5	.1073	.0021
10	.901	.018
15	2.701	.036
20	5.385	.063
25	8.631	.076
30	12.21	.09
35	15.96	.11
40	19.77	.12
45	23.58	.14
50	27.38	.15
60	34.85	.18
70	42.16	.21
80	49.35	.24
88.1	55.1	.26

System: 2-methyl-3-buten-2-ol; phases: Crystal 1, Gas
Property: Molar heat capacity at saturation pressure, J/K/mol (Crystal 1); method: Small (less than 1 g) adiabatic calorimetry
Temperature, K	Molar heat capacity at saturation pressure, J/K/mol	uncertainty
88.1	61.32	.025
90	62.35	.025
100	67.72	.27
110	73.25	.29
120	78.98	.32
130	85.52	.34
140	92.84	.37
150	100.8	.4
160	110.3	.4
170	121	.5
180	131.9	.5
190	141.7	.6
200	151.5	.6
210	161.4	.6
220	171.2	.7
230	181	.7
240	190.8	.8
245.03	195.7	.8

System: 2-methyl-3-buten-2-ol; phases: Crystal 1
Fixed: Pressure, kPa = 101.325
Property: Molar enthalpy function {Hm(T)-Hm(0)}/T, J/K/mol (Crystal 1); method: Small (less than 1 g) adiabatic calorimetry
Temperature, K	Molar enthalpy function {Hm(T)-Hm(0)}/T, J/K/mol	uncertainty
88.1	33.31	.14
90	33.91	.14
100	37.02	.15
110	40.06	.17
120	43.06	.18
130	46.07	.19
140	49.15	.2
150	52.32	.21
160	55.64	.23
170	59.16	.24
180	62.91	.25
190	66.8	.27
200	70.79	.29
210	74.87	.3
220	79.02	.32
230	83.24	.34
240	87.52	.35
245.03	89.69	.36

System: 2-methyl-3-buten-2-ol; phases: Crystal 1
Fixed: Pressure, kPa = 101.325
Property: Molar entropy, J/K/mol (Crystal 1); method: Small (less than 1 g) adiabatic calorimetry
Temperature, K	Molar entropy, J/K/mol	uncertainty
88.1	57.03	.27
90	58.35	.27
100	65.19	.3
110	71.91	.33
120	78.52	.36
130	85.1	.38
140	91.7	.41
150	98.37	.43
160	105.2	.5
170	112.2	.5
180	119.4	.5
190	126.8	.5
200	134.3	.6
210	141.9	.6
220	149.7	.6
230	157.5	.7
240	165.4	.7
245.03	169.4	.7

System: 2-methyl-3-buten-2-ol; phases: Liquid, Gas
Property: Molar heat capacity at saturation pressure, J/K/mol (Liquid); method: Small (less than 1 g) adiabatic calorimetry
Temperature, K	Molar heat capacity at saturation pressure, J/K/mol	uncertainty
245.03	193.8	.8
250	197.1	.8
260	204.4	.8
270	212.7	.9
273.15	215.4	.9
280	221.4	.9
290	230.3	.9
298.15	237.4	.9
300	238.9	1
310	246.9	1
320	253.9	1
330	259.9	1
340	264.7	1.1
350	268.3	1.1
360	270.9	1.1
370	272.9	1.1

System: 2-methyl-3-buten-2-ol; phases: Liquid
Fixed: Pressure, kPa = 101.325
Property: Molar enthalpy function {Hm(T)-Hm(0)}/T, J/K/mol (Liquid); method: Small (less than 1 g) adiabatic calorimetry
Temperature, K	Molar enthalpy function {Hm(T)-Hm(0)}/T, J/K/mol	uncertainty
245.03	110.9	.4
250	112.6	.5
260	116	.5
270	119.4	.5
273.15	120.5	.5
280	122.9	.5
290	126.4	.5
298.15	129.4	.5
300	130	.5
310	133.7	.5
320	137.3	.6
330	141	.6
340	144.5	.6
350	148	.6
360	151.4	.6
370	154.7	.6

System: 2-methyl-3-buten-2-ol; phases: Liquid
Fixed: Pressure, kPa = 101.325
Property: Molar entropy, J/K/mol (Liquid); method: Small (less than 1 g) adiabatic calorimetry
Temperature, K	Molar entropy, J/K/mol	uncertainty
245.03	190.6	.8
250	194.6	.8
260	202.4	.9
270	210.3	.9
273.15	212.8	.9
280	218.2	.9
290	226.1	.9
298.15	232.6	1
300	234.1	1
310	242	1
320	250	1
330	257.9	1.1
340	265.7	1.1
350	273.5	1.1
360	281.1	1.2
370	288.5	1.2

System: 2-methyl-3-buten-2-ol; phases: Crystal 2, Gas
Property: Molar heat capacity at saturation pressure, J/K/mol (Crystal 2); method: Small (less than 1 g) adiabatic calorimetry
Temperature, K	Molar heat capacity at saturation pressure, J/K/mol	uncertainty
78.23	57.58	.4
80.33	59.84	.4
82.27	62.81	.4
84.19	66.18	.4
86.07	73.72	.4
78.34	57.57	.4
79.01	58.22	.4
79.68	58.95	.4
80.34	59.8	.4
81.01	60.76	.4
81.67	61.8	.4
82.34	62.96	.4
83	64.02	.4
83.66	65.08	.4
84.31	66.19	.4
84.97	67.69	.4
85.62	69.64	.4
86.26	73.39	.4
77.87	57.21	.4
79.1	58.39	.4
80.23	59.74	.4
81.36	61.46	.4
82.49	63.36	.4
83.61	65.12	.4
84.72	67.2	.4
85.82	71.29	.4
79.23	58.44	.4
79.83	59.11	.4
80.38	59.82	.4
80.93	60.61	.4
81.48	61.53	.4
82.03	62.46	.4
82.57	63.46	.4
83.12	64.33	.4
83.66	65.08	.4
84.2	65.98	.4
84.74	67.26	.4
85.28	68.9	.4
85.81	71.17	.4
86.33	74.69	.4
5.363	.4026	2
5.571	.4523	2
5.832	.524	2
6.097	.6053	2
6.395	.7063	2
6.727	.8287	2
7.065	.9656	2
7.409	1.117	2
7.759	1.284	2
8.114	1.466	2
8.474	1.662	2
8.837	1.874	2
9.202	2.099	2
9.571	2.338	2
9.942	2.587	2
10.42	2.931	1
11.01	3.375	1
11.6	3.843	1
12.19	4.339	1
12.79	4.858	1
13.39	5.395	1
14	5.954	1
14.61	6.523	1
15.22	7.118	1
15.95	7.872	1
16.79	8.742	1
17.63	9.598	1
18.48	10.46	1
19.32	11.32	1
20.18	12.2	.4
21.37	13.46	.4
22.9	15.06	.4
24.44	16.66	.4
25.98	18.24	.4
27.53	19.75	.4
28.81	20.98	.4
30.24	22.33	.4
31.96	23.92	.4
33.85	25.59	.4
35.75	27.18	.4
37.65	28.7	.4
39.55	30.18	.4
41.55	31.7	.4
43.65	33.27	.4
45.75	34.79	.4
47.85	36.31	.4
49.95	37.78	.4
52.05	39.21	.4
54.16	40.59	.4
56.27	41.96	.4
58.39	43.29	.4
60.51	44.64	.4
62.64	45.97	.4
64.76	47.34	.4
66.88	48.71	.4
69.01	50.1	.4
71.24	51.62	.4
73.58	53.27	.4
75.92	55.14	.4
78.27	57.34	.4

System: 2-methyl-3-buten-2-ol; phases: Crystal 1, Gas
Property: Molar heat capacity at saturation pressure, J/K/mol (Crystal 1); method: Small (less than 1 g) adiabatic calorimetry
Temperature, K	Molar heat capacity at saturation pressure, J/K/mol	uncertainty
179.83	131.6	.5264
182.29	134.1	.5364
184.61	136.5	.546
186.93	138.7	.5548
189.23	140.9	.5636
191.52	143.1	.5724
193.79	145.4	.5816
196.05	147.7	.5908
198.3	150	.6
200.54	152.4	.6096
202.82	155.2	.6208
205.14	158.2	.6328
207.45	161.3	.6452
209.73	164.8	.6592
211.99	168.4	.6736
214.23	172.1	.6884
216.46	175.1	.7004
218.66	178.8	.7152
220.85	182.3	.7292
223.02	186.5	.746
225.17	191	.764
227.29	196	.784
229.37	202.7	.8108
231.43	210.5	.842
233.43	221.3	.8852
235.37	236.9	.9476
91.32	63.69	.25476
93.36	64.34	.25736
95.42	65.33	.26132
97.48	66.4	.2656
99.55	67.5	.27
101.81	68.72	.27488
104.26	70.06	.28024
106.72	71.41	.28564
109.18	72.79	.29116
111.65	74.18	.29672
114.12	75.6	.3024
116.6	77.03	.30812
119.07	78.49	.31396
121.55	79.98	.31992
124.02	81.49	.32596
126.49	83.07	.33228
128.96	84.71	.33884
131.43	86.54	.34616
133.88	88.39	.35356
136.33	90.2	.3608
138.78	91.98	.36792
141.22	93.76	.37504
143.66	95.62	.38248
146.09	97.56	.39024
148.5	99.58	.39832
150.92	101.6	.4064
153.32	103.8	.4152
155.71	106	.424
158.09	108.4	.4336
160.45	110.8	.4432
162.8	113.2	.4528
165.14	115.7	.4628
167.47	118.3	.4732
169.77	120.8	.4832
172.07	123.4	.4936
174.35	125.9	.5036
176.62	128.4	.5136
178.87	130.7	.5228
181.12	133	.532
183.35	135.2	.5408
185.57	137.5	.55
187.79	139.5	.558
189.99	141.7	.5668
192.18	143.7	.5748
194.36	146	.584
196.53	148.2	.5928
198.69	150.5	.602
200.84	152.9	.6116
202.98	155.5	.622
205.1	158.3	.6332
207.21	161.1	.6444
209.3	164.2	.6568
211.48	167.6	.6704
213.77	171.3	.6852
216.04	174.8	.6992
218.3	178.6	.7144
220.53	182.2	.7288
222.77	186.2	.7448
224.94	191.2	.7648
227.09	196.6	.7864
229.2	202.9	.8116
231.27	210.9	.8436
233.3	221.6	.8864
235.25	237.1	.9484
190.4	142	.568
192.46	144.1	.5764
194.42	146	.584
196.36	147.9	.5916
198.3	150	.6
200.23	152	.608
202.15	154.2	.6168
204.05	156.6	.6264
205.95	159.3	.6372
207.83	162	.648
209.7	164.9	.6596
89.61	64.85	.2594
90.78	63.53	.25412
91.97	63.75	.255
93.15	64.24	.25696
94.35	64.76	.25904
95.55	65.34	.26136
96.75	65.99	.26396
97.95	66.62	.26648
99.15	67.27	.26908
89.49	64.37	.25748
90.18	63.5	.254
90.87	63.45	.2538
91.57	63.46	.25384
92.27	63.73	.25492
92.97	64.05	.2562
93.67	64.43	.25772
94.37	64.82	.25928
95.08	65.12	.26048
96.34	65.8	.2632
98.15	66.74	.26696
99.97	67.73	.27092
101.8	68.7	.2748
103.63	69.68	.27872
105.46	70.68	.28272
107.3	71.7	.2868
109.14	72.73	.29092
110.98	73.78	.29512
112.82	74.82	.29928
114.67	75.87	.30348
116.51	76.95	.3078
118.36	78.04	.31216
120.2	79.15	.3166
122.05	80.25	.321
123.9	81.37	.32548
125.74	82.53	.33012
127.59	83.73	.33492
129.43	85.04	.34016
131.26	86.38	.34552
133.1	87.73	.35092
134.93	89.13	.35652
136.76	90.46	.36184
138.58	91.75	.367
140.4	93.1	.3724
142.22	94.49	.37796
144.04	95.9	.3836
145.85	97.31	.38924
147.65	98.82	.39528
149.45	100.3	.4012
151.37	102	.408
153.4	103.9	.4156
155.42	105.7	.4228
157.44	107.7	.4308
159.45	109.7	.4388
161.45	111.8	.4472
163.44	113.9	.4556
165.42	116	.464
167.39	118.2	.4728
169.35	120.3	.4812
171.3	122.5	.49
173.24	124.6	.4984
175.17	126.8	.5072
177.09	128.8	.5152
179	130.8	.5232
180.91	132.7	.5308
182.8	134.7	.5388
184.69	136.5	.546
186.58	138.4	.5536
188.45	140.2	.5608
190.32	141.9	.5676
192.18	143.7	.5748
194.04	145.5	.582
195.89	147.4	.5896
197.73	149.3	.5972
199.56	151.3	.6052
201.38	153.4	.6136
203.2	155.5	.622
205	157.8	.6312
206.79	160.4	.6416
208.58	163	.652
210.51	166.1	.6644
212.63	169.5	.678
214.72	172.9	.6916
216.8	176	.704
218.86	179	.716
220.9	182.4	.7296
222.93	186.4	.7456
224.97	190.4	.7616
226.94	195.7	.7828
228.88	201.4	.8056
230.8	208.3	.8332
232.67	217.3	.8692
234.49	229.7	.9188
236.24	248.1	.9924
89.48	65.12	.26048
90.04	63.82	.25528
90.62	63.44	.25376
91.19	63.49	.25396
91.77	63.59	.25436
92.34	63.78	.25512
92.92	64.01	.25604
93.5	64.26	.25704
94.08	64.54	.25816
94.67	64.85	.2594
95.25	65.18	.26072
96.44	65.84	.26336
98.26	66.77	.26708

System: 2-methyl-3-buten-2-ol; phases: Liquid, Gas
Property: Molar heat capacity at saturation pressure, J/K/mol (Liquid); method: Small (less than 1 g) adiabatic calorimetry
Temperature, K	Molar heat capacity at saturation pressure, J/K/mol	uncertainty
245.81	194.6	.7784
247.97	195.7	.7828
250.13	197.2	.7888
252.44	198.8	.7952
254.88	200.5	.802
257.32	202.4	.8096
259.76	204.2	.8168
262.18	206.2	.8248
264.6	208.1	.8324
267.01	210.2	.8408
269.4	212.2	.8488
271.79	214.3	.8572
274.18	216.2	.8648
276.55	218.4	.8736
278.91	220.5	.882
281.26	222.6	.8904
283.61	224.6	.8984
285.94	226.8	.9072
288.26	228.9	.9156
290.57	230.9	.9236
292.87	232.8	.9312
295.16	234.7	.9388
297.44	236.8	.9472
299.72	238.7	.9548
245.63	195.7	.7828
247.82	195.6	.7824
250.07	197.1	.7884
252.31	198.7	.7948
254.55	200.3	.8012
256.78	201.9	.8076
259	203.6	.8144
250.55	197.4	.7896
252.58	198.8	.7952
254.63	200.3	.8012
256.68	201.8	.8072
258.73	203.4	.8136
260.78	205	.82
262.83	206.7	.8268
264.88	208.4	.8336
266.93	210	.84
268.98	211.8	.8472
271.03	213.5	.854
273.08	215.2	.8608
275.13	217.1	.8684
277.18	218.9	.8756
279.23	220.7	.8828
281.28	222.6	.8904
283.33	224.4	.8976
285.38	226.2	.9048
287.43	228	.912
289.48	229.9	.9196
291.53	231.6	.9264
293.58	233.4	.9336
295.63	235.2	.9408
297.69	236.9	.9476
299.74	238.7	.9548
301.79	240.4	.9616
303.84	242.1	.9684
305.9	243.7	.9748
307.95	245.3	.9812
310.01	246.9	.9876
312.06	248.3	.9932
314.12	249.9	.9996
316.18	251.3	1.0052
318.23	252.8	1.0112
320.29	254.1	1.0164
322.35	255.4	1.0216
324.41	256.7	1.0268
326.47	258	1.032
328.53	259.1	1.0364
330.59	260.2	1.0408
332.65	261.4	1.0456
334.71	262.3	1.0492
336.78	263.3	1.0532
338.84	264.2	1.0568
340.9	265	1.06
342.97	265.8	1.0632
345.03	266.6	1.0664
347.09	267.3	1.0692
349.16	268	1.072
351.22	268.7	1.0748
353.29	269.1	1.0764
355.35	269.8	1.0792
357.42	270.4	1.0816
359.48	270.9	1.0836
361.55	271.3	1.0852
363.61	271.6	1.0864
365.68	272.1	1.0884
367.74	272.4	1.0896
249.15	196.4	.7856
251.38	197.9	.7916
253.62	199.5	.798
255.85	201.2	.8048
258.07	202.9	.8116
246.77	194.9	.7796
248.89	196.3	.7852
251.14	197.8	.7912
253.39	199.4	.7976
255.63	201	.804
257.86	202.7	.8108

System: 2-methyl-3-buten-2-ol; phases: Liquid, Gas
Property: Vapor or sublimation pressure, kPa (Liquid); method: Closed cell (Static) method
Temperature, K	Vapor or sublimation pressure, kPa	uncertainty
322.89	12.514	.06257
325.36	14.315	.071575
320.59	11.107	.055535
315.8	8.467	.042335
311.02	6.405	.032025
306.13	4.784	.02392
301.36	3.534	.01767
295.88	2.467	.012335
291.06	1.787	.008935
286.31	1.271	.006355
281.64	.9104	.004552
280.58	.8399	.0041995
283.94	1.0755	.0053775
288.63	1.504	.00752
293.35	2.084	.01042
298.84	2.995	.014975
303.4	4.006	.02003
308.18	5.405	.027025
313.18	7.252	.03626
313.25	7.27	.03635
318.16	9.605	.048025
322.94	12.476	.06238
325.39	14.242	.07121
320.62	11.021	.055105
315.81	8.457	.042285
311.01	6.393	.031965
306.16	4.776	.02388
301.37	3.532	.01766
295.92	2.466	.01233
291.09	1.78	.0089
285.82	1.2299	.0061495
279.82	.7934	.003967
328.07	16.345	.081725
325.66	14.413	.072065
320.82	11.119	.055595
315.98	8.484	.04242
279.12	.7477	.0037385
280.94	.8608	.004304
283.31	1.0258	.005129
288.03	1.447	.007235
293.17	2.061	.010305
298.02	2.863	.014315
303.03	3.938	.01969
307.86	5.284	.02642
312.7	7.049	.035245

System: water; phases: Liquid, Gas
Property: Vapor or sublimation pressure, kPa (Liquid); method: Closed cell (Static) method
Temperature, K	Vapor or sublimation pressure, kPa	uncertainty
322.54	11.99	.05995
325.01	13.51	.06755
320.2	10.63	.05315
315.37	8.313	.041565
310.49	6.404	.03202
305.6	4.869	.024345
300.8	3.708	.01854
295.58	2.707	.013535
290.71	2.01	.01005
285.52	1.44	.0072
280.8	1.05	.00525
276.16	.76	.0038
278.47	.894	.00447
283.11	1.223	.006115
288.24	1.708	.00854
293.51	2.398	.01199
298.33	3.202	.01601
298.22	3.182	.01591
302.99	4.213	.021065
307.8	5.499	.027495
312.73	7.192	.03596
317.67	9.333	.046665
322.5	11.93	.05965
320.11	10.56	.0528
315.28	8.236	.04118
310.42	6.36	.0318
305.57	4.882	.02441
300.72	3.703	.018515
295.49	2.697	.013485
290.65	1.994	.00997
285.49	1.43	.00715
276.1	.753	.003765

Reaction: -1 2-methyl-3-buten-2-ol + 5 carbon dioxide + 5 water + -7 oxygen
Property: Specific internal energy of reaction at constant volume, J/g
-36457.4
