Measured thermophysical data. Solubility of dimethyl ether in pentaerythritol tetrabutyrate and in pentaerythritol tetrapentanoate. Comparison with other pentaerythritol tetraalkyl esters
Source: J. Chem. Thermodyn., 2015, 10.1016/j.jct.2015.03.014
Compound 1: dimethyl ether, C2H6O
Compound 2: pentaerythritol ester of butyric acid, C21H36O8, purity 98%
Compound 3: pentaerythritol tetrapentanoate, C25H44O8, purity 98%

System: dimethyl ether + pentaerythritol ester of butyric acid; phases: Liquid, Gas
Property: Mole fraction of dimethyl ether (Liquid); method: volumetric method
Temperature, K	Pressure, kPa	Mole fraction of dimethyl ether	uncertainty
283.15	57	.2687	.008061
283.15	126.7	.4745	.014235
283.15	183	.6056	.018168
283.15	236.8	.7081	.021243
283.15	275.7	.7759	.023277
283.15	310.4	.8331	.024993
283.15	332	.8849	.026547
283.15	346.2	.917	.02751
293.15	74.9	.2482	.007446
293.15	158.3	.4497	.013491
293.15	231.8	.5831	.017493
293.15	304.3	.6905	.020715
293.15	358.4	.763	.02289
293.15	407.9	.8246	.024738
293.15	460.1	.8803	.026409
293.15	479.6	.9144	.027432
303.15	88.9	.2285	.006855
303.15	191.3	.4229	.012687
303.15	284.8	.557	.01671
303.15	379.4	.6692	.020076
303.15	453.7	.7467	.022401
303.15	523.5	.8136	.024408
303.15	596.6	.8742	.026226
303.15	637.3	.9112	.027336
313.15	103.4	.208	.00624
313.15	224.9	.3945	.011835
313.15	336.4	.5302	.015906
313.15	459.7	.6441	.019323
313.15	558.8	.7266	.021798
313.15	655.7	.7994	.023982
313.15	758.4	.8662	.025986
313.15	816.4	.9069	.027207
323.15	117.7	.1882	.005646
323.15	258.1	.3659	.010977
323.15	391.6	.4994	.014982
323.15	542.2	.6157	.018471
323.15	670.1	.7025	.021075
323.15	801.2	.7815	.023445
323.15	944.4	.8557	.025671
323.15	1028.4	.9011	.027033
333.15	131.5	.1697	.005091
333.15	290.1	.3379	.010137
333.15	445.4	.4676	.014028
333.15	623.8	.585	.01755
333.15	782.5	.6751	.020253
333.15	954.4	.7597	.022791
333.15	1151	.842	.02526
333.15	1272.2	.8935	.026805
343.15	144.7	.1527	.004581
343.15	320.8	.311	.00933
343.15	497	.436	.01308
343.15	702.5	.5531	.016593
343.15	893	.6451	.019353
343.15	1108.8	.7343	.022029
343.15	1370.8	.8245	.024735
343.15	1544.6	.8832	.026496
353.15	154.2	.1372	.004116
353.15	349.9	.2859	.008577
353.15	545.7	.4055	.012165
353.15	777.5	.5211	.015633
353.15	998.4	.6138	.018414
353.15	1258.7	.7063	.021189
353.15	1593.1	.8034	.024102
353.15	1835.9	.8697	.026091

System: dimethyl ether + pentaerythritol tetrapentanoate; phases: Liquid, Gas
Property: Mole fraction of dimethyl ether (Liquid); method: volumetric method
Temperature, K	Pressure, kPa	Mole fraction of dimethyl ether	uncertainty
283.15	60.1	.3031	.009093
283.15	124.5	.5127	.015381
283.15	175.2	.6369	.019107
283.15	224.3	.7347	.022041
283.15	256.6	.7913	.023739
283.15	284.4	.8378	.025134
283.15	316.9	.8909	.026727
283.15	336.7	.9246	.027738
293.15	74.7	.2813	.008439
293.15	157	.4876	.014628
293.15	224.6	.6149	.018447
293.15	292.8	.7179	.021537
293.15	339.1	.7786	.023358
293.15	380	.8288	.024864
293.15	428.2	.8862	.026586
293.15	457.5	.9222	.027666
303.15	89.7	.2679	.008037
303.15	190.9	.4604	.013812
303.15	278	.5893	.017679
303.15	369.2	.6973	.020919
303.15	434	.7624	.022872
303.15	492.3	.8171	.024513
303.15	563.5	.88	.0264
303.15	606.3	.9191	.027573
313.15	104.8	.2366	.007098
313.15	225.4	.4314	.012942
313.15	332.8	.561	.01683
313.15	450.3	.6731	.020193
313.15	537.7	.7426	.022278
313.15	619.7	.8022	.024066
313.15	723	.8718	.026154
313.15	786.2	.915	.02745
323.15	119.4	.2154	.006462
323.15	259.3	.4021	.012063
323.15	387.5	.5308	.015924
323.15	533.2	.6457	.019371
323.15	646.2	.719	.02157
323.15	757.6	.7836	.023508
323.15	905.5	.861	.02583
323.15	998.5	.9096	.027288
333.15	131.4	.1956	.005868
333.15	291.8	.3735	.011205
333.15	440.4	.5	.015
333.15	614.6	.6161	.018483
333.15	755	.6924	.020772
333.15	900.7	.7613	.022839
333.15	1106.1	.847	.02541
333.15	1242.8	.9022	.027066
343.15	146.8	.1773	.005319
343.15	323	.3458	.010374
343.15	490.9	.4694	.014082
343.15	693.9	.5849	.017547
343.15	860.8	.6636	.019908
343.15	1042	.7361	.022083
343.15	1317	.8293	.024879
343.15	1515.2	.8923	.026769
353.15	159.5	.1608	.004824
353.15	352.6	.3197	.009591
353.15	538.7	.4398	.013194
353.15	767.3	.5547	.016641
353.15	961.2	.6339	.019017
353.15	1177.7	.7087	.021261
353.15	1528	.8082	.024246
353.15	1807.8	.8792	.026376
