Measured thermophysical data. Thermodynamic and volumetric behavior of green solvent 1-butyl-3-methylimidazolium tetrafluoroborate with aniline from T = (293.15 to 323.15) K at atmospheric pressure
Source: J. Chem. Thermodyn., 2016, 10.1016/j.jct.2016.04.024
Compound 1: 1-butyl-3-methylimidazolium tetrafluoroborate, C8H15BF4N2, purity 99%
Compound 2: aniline, C6H7N, purity 99%

System: 1-butyl-3-methylimidazolium tetrafluoroborate; phases: Liquid
Property: Mass density, kg/m3 (Liquid); method: Vibrating tube method
Temperature, K	Pressure, kPa	Mass density, kg/m3	uncertainty
293.15	100	1203.63	

System: 1-butyl-3-methylimidazolium tetrafluoroborate; phases: Liquid
Fixed: Frequency, MHz = 3
Property: Speed of sound, m/s (Liquid); method: Sing-around technique in a fixed-path interferometer
Temperature, K	Pressure, kPa	Speed of sound, m/s	uncertainty
293.15	100	1577.48	

System: aniline; phases: Liquid
Property: Mass density, kg/m3 (Liquid); method: Vibrating tube method
Temperature, K	Pressure, kPa	Mass density, kg/m3	uncertainty
293.15	100	1021.69	
303.15	100	1013.04	
313.15	100	1004.36	
323.15	100	995.66	

System: aniline; phases: Liquid
Fixed: Frequency, MHz = 3
Property: Speed of sound, m/s (Liquid); method: Sing-around technique in a fixed-path interferometer
Temperature, K	Pressure, kPa	Speed of sound, m/s	uncertainty
293.15	100	1656.77	
303.15	100	1618.35	
313.15	100	1580.05	
323.15	100	1541.94	

System: aniline + 1-butyl-3-methylimidazolium tetrafluoroborate; phases: Liquid
Fixed: Pressure, kPa = 100
Property: Mass density, kg/m3 (Liquid); method: Vibrating tube method
Temperature, K	Mole fraction of 1-butyl-3-methylimidazolium tetrafluoroborate	Mass density, kg/m3	uncertainty
293.15	0	1021.69	
293.15	.1001	1058.27	
293.15	.4991	1150.32	
293.15	.6032	1163.88	
293.15	.7021	1175.38	
293.15	.7907	1184.36	
293.15	.9026	1194.78	
293.15	1	1203.63	
303.15	0	1013.04	
303.15	.1001	1050.3	
303.15	.4991	1143.1	
303.15	.6032	1156.61	
303.15	.7021	1168.21	
303.15	.7907	1177.25	
303.15	.9026	1187.71	
303.15	1	1195.18	
313.15	0	1004.36	
313.15	.1001	1042.33	
313.15	.4991	1135.81	
313.15	.6032	1149.6	
313.15	.7021	1161.22	
313.15	.7907	1170.51	
313.15	.9026	1180.84	
313.15	1	1188.04	
323.15	0	995.66	
323.15	.1001	1034.33	
323.15	.2028	1068.14	
323.15	.4991	1128.64	
323.15	.6032	1142.78	
323.15	.7021	1154.4	
323.15	.7907	1163.73	
323.15	.9026	1173.92	
323.15	1	1180.98	

System: aniline + 1-butyl-3-methylimidazolium tetrafluoroborate; phases: Liquid
Fixed: Pressure, kPa = 100
Fixed: Frequency, MHz = 3
Property: Speed of sound, m/s (Liquid); method: Sing-around technique in a fixed-path interferometer
Temperature, K	Mole fraction of 1-butyl-3-methylimidazolium tetrafluoroborate	Speed of sound, m/s	uncertainty
293.15	0	1656.77	
293.15	.1001	1661.01	
293.15	.4991	1624.84	
293.15	.6032	1610.6	
293.15	.7021	1599.79	
293.15	.7907	1592.65	
293.15	.9026	1584.14	
293.15	1	1577.48	
303.15	0	1618.35	
303.15	.1001	1626.45	
303.15	.4991	1598.26	
303.15	.6032	1584.8	
303.15	.7021	1574.8	
303.15	.7907	1568.54	
303.15	.9026	1559.68	
303.15	1	1553.15	
313.15	0	1580.05	
313.15	.1001	1591.98	
313.15	.4991	1571.88	
313.15	.6032	1559.42	
313.15	.7021	1549.23	
313.15	.7907	1540.84	
313.15	.9026	1535.78	
313.15	1	1529.69	
323.15	0	1541.94	
323.15	.1001	1557.66	
323.15	.2028	1569.78	
323.15	.4991	1546.1	
323.15	.6032	1534.71	
323.15	.7021	1525.07	
323.15	.7907	1518.52	
323.15	.9026	1512.38	
323.15	1	1506.8	

System: aniline + 1-butyl-3-methylimidazolium tetrafluoroborate; phases: Liquid mixture 1, Liquid mixture 2
Fixed: Pressure, kPa = 100
Property: Liquid-liquid equilibrium temperature, K (Liquid mixture 1); method: Visual observation
Mole fraction of 1-butyl-3-methylimidazolium tetrafluoroborate	Liquid-liquid equilibrium temperature, K	uncertainty
.2028	313.23	
.303	341.47	
.408	329.12	
.4991	285.92	
