Measured thermophysical data. Thermodynamic properties of 1-butyl-3-methylpyridinium tetrafluoroborate
Source: J. Chem. Thermodyn., 2011, 10.1016/j.jct.2011.03.019
Compound 1: 1-butyl-3-methylpyridinium tetrafluoroborate, C10H16BF4N, purity 98%

System: 1-butyl-3-methylpyridinium tetrafluoroborate; phases: Liquid
Property: Mass density, kg/m3 (Liquid); method: Vibrating tube method
Temperature, K	Pressure, kPa	Mass density, kg/m3	uncertainty
283.12	2024	1194.21	.955368
283.13	5410	1195.69	.956552
283.14	10608	1197.94	.958352
283.16	20395	1202.09	.961672
283.16	29989	1206.06	.964848
283.16	40399	1210.24	.968192
283.16	50021	1214	.9712
283.16	59880	1217.75	.9742
283.16	70001	1221.48	.977184
283.16	80055	1225.07	.980056
283.16	89979	1228.5	.9828
283.16	99226	1231.6	.98528
293.13	2373	1187.65	.95012
293.15	5192	1188.92	.951136
293.17	10105	1191.13	.952904
293.15	19915	1195.44	.956352
293.15	29975	1199.74	.959792
293.15	40033	1203.9	.96312
293.15	49990	1207.91	.966328
293.15	60026	1211.82	.969456
293.15	69993	1215.58	.972464
293.16	79917	1219.2	.97536
293.15	90002	1222.75	.9782
293.15	99008	1225.82	.980656
298.15	1023	1183.65	.94692
298.15	5014	1185.49	.948392
298.15	10024	1187.78	.950224
298.15	19956	1192.22	.953776
298.15	29784	1196.48	.957184
298.15	39954	1200.76	.960608
298.15	49921	1204.82	.963856
298.15	59784	1208.71	.966968
298.15	69521	1212.43	.969944
298.15	79326	1216.05	.97284
298.15	89784	1219.77	.975816
298.15	99965	1223.26	.978608
313.15	2471	1174.15	.93932
313.15	5142	1175.44	.940352
313.13	10051	1177.79	.942232
313.17	19949	1182.42	.945936
313.16	30021	1186.99	.949592
313.15	39901	1191.32	.953056
313.15	50020	1195.6	.95648
313.15	59990	1199.68	.959744
313.15	70046	1203.63	.962904
313.15	79830	1207.34	.965872
313.16	89989	1211.04	.968832
313.17	99194	1214.26	.971408
333.13	2503	1160.47	.928376
333.16	5448	1161.99	.929592
333.17	10715	1164.66	.931728
333.15	20056	1169.28	.935424
333.15	29979	1174.02	.939216
333.14	39760	1178.53	.942824
333.16	50021	1183.09	.946472
333.17	60243	1187.44	.949952
333.16	70003	1191.43	.953144
333.15	79731	1195.25	.9562
333.15	89986	1199.09	.959272
333.15	99773	1202.59	.962072
353.14	2790	1146.79	.917432
353.12	6509	1148.81	.919048
353.13	8955	1150.12	.920096
353.17	21342	1156.58	.925264
353.16	29979	1160.91	.928728
353.16	39909	1165.7	.93256
353.16	50013	1170.38	.936304
353.16	60153	1174.86	.939888
353.16	69979	1179.02	.943216
353.16	80426	1183.23	.946584
353.15	90011	1186.9	.94952
353.15	99259	1190.28	.952224
373.16	2495	1132.64	.906112
373.15	5373	1134.29	.907432
373.16	10198	1137.01	.909608
373.16	20336	1142.55	.91404
373.15	29979	1147.62	.918096
373.14	39996	1152.66	.922128
373.13	50003	1157.47	.925976
373.12	60192	1162.13	.929704
373.14	70039	1166.42	.933136
373.16	80221	1170.63	.936504
373.15	90014	1174.46	.939568
373.14	99035	1177.8	.94224
393.17	2485	1118.49	.894792
393.17	5300	1120.18	.896144
393.15	10222	1123.08	.898464
393.15	20024	1128.69	.902952
393.15	30013	1134.16	.907328
393.16	40133	1139.44	.911552
393.16	49970	1144.34	.915472
393.16	60110	1149.13	.919304
393.16	70029	1153.57	.922856
393.16	80159	1157.85	.92628
393.15	89993	1161.76	.929408
393.15	99831	1165.43	.932344

System: 1-butyl-3-methylpyridinium tetrafluoroborate; phases: Liquid
Property: Mass density, kg/m3 (Liquid); method: Vibrating tube method
Temperature, K	Pressure, kPa	Mass density, kg/m3	uncertainty
283.16	101	1192.91	.05
293.15	101	1185.85	.05
298.13	101	1182.41	.05
313.13	101	1172.19	.05
323.14	101	1165.48	.05
333.14	101	1158.81	.05
343.14	101	1152.1	.05
363.14	101	1138.4	.05
