Measured thermophysical data. Experimental excess molar properties of binary mixtures of (3-amino-1-propanol + isobutanol, 2-propanol) at T = (293.15 to 333.15) K and modelling the excess molar volume by Prigogine-Flory-Patterson theory
Source: J. Chem. Thermodyn., 2012, 10.1016/j.jct.2012.02.036
Compound 1: 3-amino-1-propanol, C3H9NO, purity 99%
Compound 2: isobutyl alcohol, C4H10O, purity 99.5%
Compound 3: 2-propanol, C3H8O, purity 99.5%

System: 3-amino-1-propanol; phases: Liquid
Fixed: Pressure, kPa = 101.325
Property: Mass density, kg/m3 (Liquid); method: Vibrating tube method
Temperature, K	Mass density, kg/m3	uncertainty
293.15	987.55	.1
303.15	979.53	.1
313.15	971.47	.1
323.15	963.37	.1
333.15	955.22	.1

System: 3-amino-1-propanol; phases: Liquid
Fixed: Pressure, kPa = 101.325
Property: Viscosity, Pa*s (Liquid); method: Capillary tube (Ostwald; Ubbelohde) method
Temperature, K	Viscosity, Pa*s	uncertainty
293.15	.04042	.000001
303.15	.023868	.000001
313.15	.015266	.000001
323.15	.010219	.000001
333.15	.007123	.000001

System: 3-amino-1-propanol; phases: Liquid
Property: Viscosity, Pa*s (Liquid); method: Capillary tube (Ostwald; Ubbelohde) method
Temperature, K	Pressure, kPa	Viscosity, Pa*s	uncertainty
293.15	101	.040452	.000001
303.15	101	.023978	.000001
313.15	101	.01531	.000001
333.15	101	.006961	.000001
293.15	101	.040456	.000001
303.15	101	.023981	.000001
313.15	101	.015312	.000001
323.15	101	.010221	.000001
333.15	101	.006962	.000001

System: 3-amino-1-propanol; phases: Liquid
Property: Mass density, kg/m3 (Liquid); method: Vibrating tube method
Temperature, K	Pressure, kPa	Mass density, kg/m3	uncertainty
293.15	101	987.65	.1
303.15	101	979.65	.1
313.15	101	971.61	.1
323.15	101	963.52	.1
333.15	101	955.38	.1

System: isobutyl alcohol; phases: Liquid
Fixed: Pressure, kPa = 101.325
Property: Mass density, kg/m3 (Liquid); method: Vibrating tube method
Temperature, K	Mass density, kg/m3	uncertainty
293.15	801.75	.1
303.15	793.99	.1
313.15	786.04	.1
323.15	777.85	.1
333.15	769.36	.1

System: isobutyl alcohol; phases: Liquid
Fixed: Pressure, kPa = 101.325
Property: Viscosity, Pa*s (Liquid); method: Capillary tube (Ostwald; Ubbelohde) method
Temperature, K	Viscosity, Pa*s	uncertainty
293.15	.004085	.000001
303.15	.002877	.000001
313.15	.002091	.000001
323.15	.001576	.000001
333.15	.001124	.000001

System: isobutyl alcohol; phases: Liquid
Property: Mass density, kg/m3 (Liquid); method: Vibrating tube method
Temperature, K	Pressure, kPa	Mass density, kg/m3	uncertainty
293.15	101	801.8	.1

System: isobutyl alcohol; phases: Liquid
Property: Viscosity, Pa*s (Liquid); method: Capillary tube (Ostwald; Ubbelohde) method
Temperature, K	Pressure, kPa	Viscosity, Pa*s	uncertainty
293.15	101	.004197	.000001
303.15	101	.002873	.000001
313.15	101	.001926	.000001
323.15	101	.001232	.000001
333.15	101	.000665	.000001

System: 2-propanol; phases: Liquid
Fixed: Pressure, kPa = 101.325
Property: Mass density, kg/m3 (Liquid); method: Vibrating tube method
Temperature, K	Mass density, kg/m3	uncertainty
293.15	785.25	.1
303.15	776.78	.1
313.15	767.98	.1
323.15	758.82	.1
333.15	749.2	.1

System: 2-propanol; phases: Liquid
Fixed: Pressure, kPa = 101.325
Property: Viscosity, Pa*s (Liquid); method: Capillary tube (Ostwald; Ubbelohde) method
Temperature, K	Viscosity, Pa*s	uncertainty
293.15	.0023621	.000001
303.15	.0017694	.000001
313.15	.0013297	.000001
323.15	.0010145	.000001
333.15	.0006241	.000001

System: 2-propanol; phases: Liquid
Property: Mass density, kg/m3 (Liquid); method: Vibrating tube method
Temperature, K	Pressure, kPa	Mass density, kg/m3	uncertainty
293.15	101	785.36	.1
303.15	101	776.87	.1
313.15	101	768.07	.1
323.15	101	758.89	.1
333.15	101	749.25	.1

System: 2-propanol; phases: Liquid
Property: Viscosity, Pa*s (Liquid); method: Capillary tube (Ostwald; Ubbelohde) method
Temperature, K	Pressure, kPa	Viscosity, Pa*s	uncertainty
293.15	101	.002318	.000001
303.15	101	.001596	.000001
313.15	101	.000996	.000001
323.15	101	.000548	.000001
333.15	101	.000256	.000001

System: isobutyl alcohol + 3-amino-1-propanol; phases: Liquid
Fixed: Pressure, kPa = 101
Property: Mass density, kg/m3 (Liquid); method: Vibrating tube method
Temperature, K	Mole fraction of 3-amino-1-propanol	Mass density, kg/m3	uncertainty
293.15	0	801.8	.1
293.15	.1037	819.8	.1
293.15	.2007	837.1	.1
293.15	.3006	854.9	.1
293.15	.4002	873.2	.1
293.15	.501	891.9	.1
293.15	.6007	910.4	.1
293.15	.7008	929.5	.1
293.15	.8005	948.6	.1
293.15	1	987.55	.1
303.15	0	793.99	.1
303.15	.1037	811.99	.1
303.15	.2007	829.27	.1
303.15	.3006	847.02	.1
303.15	.4002	865.25	.1
303.15	.501	883.89	.1
303.15	.6007	902.41	.1
303.15	.7008	921.49	.1
303.15	.8005	940.49	.1
303.15	.9005	960.24	.1
303.15	1	979.53	.1
313.15	0	786.04	.1
313.15	.1037	804.06	.1
313.15	.2007	821.32	.1
313.15	.3006	839.04	.1
313.15	.4002	857.25	.1
313.15	.501	875.86	.1
313.15	.6007	894.47	.1
313.15	.7008	913.45	.1
313.15	.8005	932.36	.1
313.15	.9005	952.19	.1
313.15	1	971.47	.1
323.15	0	777.85	.1
323.15	.1037	795.93	.1
323.15	.2007	813.22	.1
323.15	.3006	830.95	.1
323.15	.4002	849.16	.1
323.15	.501	867.78	.1
323.15	.6007	886.34	.1
323.15	.7008	905.35	.1
323.15	.8005	924.27	.1
323.15	.9005	944.09	.1
323.15	1	963.37	.1
333.15	0	769.36	.1
333.15	.1037	787.58	.1
333.15	.2007	804.93	.1
333.15	.3006	822.7	.1
333.15	.4002	840.94	.1
333.15	.501	859.58	.1
333.15	.6007	878.16	.1
333.15	.7008	897.17	.1
333.15	.8005	916.24	.1
333.15	.9005	935.93	.1
333.15	1	955.22	.1

System: isobutyl alcohol + 3-amino-1-propanol; phases: Liquid
Fixed: Pressure, kPa = 101
Property: Viscosity, Pa*s (Liquid); method: Capillary tube (Ostwald; Ubbelohde) method
Temperature, K	Mole fraction of 3-amino-1-propanol	Viscosity, Pa*s	uncertainty
293.15	0	.004197	.000001
293.15	.1037	.005051	.000001
293.15	.2007	.006346	.000001
293.15	.3006	.008282	.000001
293.15	.4002	.010892	.000001
293.15	.501	.013946	.000001
293.15	.6007	.017713	.000001
293.15	.7008	.021848	.000001
293.15	.8005	.027176	.000001
293.15	.9005	.033196	.000001
293.15	1	.040452	.000001
303.15	0	.002873	.000001
303.15	.1037	.003521	.000001
303.15	.2007	.004093	.000001
303.15	.3006	.005473	.000001
303.15	.4002	.006995	.000001
303.15	.501	.008794	.000001
303.15	.6007	.010851	.000001
303.15	.7008	.013334	.000001
303.15	.8005	.016115	.000001
303.15	.9005	.019471	.000001
303.15	1	.023978	.000001
313.15	0	.001926	.000001
313.15	.1037	.002443	.000001
313.15	.2007	.003059	.000001
313.15	.3006	.003688	.000001
313.15	.4002	.004658	.000001
313.15	.501	.005767	.000001
313.15	.6007	.007048	.000001
313.15	.7008	.008496	.000001
313.15	.8005	.010089	.000001
313.15	.9005	.012193	.000001
313.15	1	.01531	.000001
323.15	0	.001232	.000001
323.15	.1037	.001637	.000001
323.15	.2007	.002113	.000001
323.15	.3006	.002534	.000001
323.15	.4002	.003177	.000001
323.15	.501	.003903	.000001
323.15	.6007	.00473	.000001
323.15	.7008	.005666	.000001
323.15	.8005	.006695	.000001
323.15	.9005	.008029	.000001
323.15	1	.010219	.000001
333.15	0	.000665	.000001
333.15	.1037	.001025	.000001
333.15	.2007	.001408	.000001
333.15	.3006	.001699	.000001
333.15	.4002	.002155	.000001
333.15	.501	.002693	.000001
333.15	.6007	.003251	.000001
333.15	.7008	.00388	.000001
333.15	.8005	.004573	.000001
333.15	.9005	.005424	.000001
333.15	1	.006961	.000001

System: 2-propanol + 3-amino-1-propanol; phases: Liquid
Fixed: Pressure, kPa = 101
Property: Mass density, kg/m3 (Liquid); method: Vibrating tube method
Temperature, K	Mole fraction of 3-amino-1-propanol	Mass density, kg/m3	uncertainty
293.15	0	785.36	.1
293.15	.1006	807.84	.1
293.15	.2004	830.07	.1
293.15	.3	851.78	.1
293.15	.4007	873.12	.1
293.15	.5003	894.23	.1
293.15	.6	914.21	.1
293.15	.7002	933.43	.1
293.15	.8003	952.3	.1
293.15	.9001	970.56	.1
293.15	1	987.65	.1
303.15	0	776.87	.1
303.15	.1006	799.47	.1
303.15	.2004	821.75	.1
303.15	.3	843.5	.1
303.15	.4007	864.86	.1
303.15	.5003	885.99	.1
303.15	.6	906	.1
303.15	.7002	925.29	.1
303.15	.8003	944.26	.1
303.15	.9001	962.49	.1
303.15	1	979.65	.1
313.15	0	768.07	.1
313.15	.1006	790.86	.1
313.15	.2004	813.25	.1
313.15	.3	835.07	.1
313.15	.4007	856.49	.1
313.15	.5003	877.67	.1
313.15	.6	897.72	.1
313.15	.7002	916.99	.1
313.15	.8003	935.98	.1
313.15	.9001	954.37	.1
313.15	1	971.61	.1
323.15	0	758.89	.1
323.15	.1006	781.97	.1
323.15	.2004	804.55	.1
323.15	.3	826.48	.1
323.15	.4007	848	.1
323.15	.5003	869.25	.1
323.15	.6	889.36	.1
323.15	.7002	908.67	.1
323.15	.8003	927.76	.1
323.15	.9001	946.21	.1
323.15	1	963.52	.1
333.15	0	749.25	.1
333.15	.1006	772.74	.1
333.15	.2004	795.57	.1
333.15	.3	817.69	.1
333.15	.4007	839.34	.1
333.15	.5003	860.69	.1
333.15	.6	880.9	.1
333.15	.7002	900.35	.1
333.15	.8003	919.55	.1
333.15	.9001	937.99	.1
333.15	1	955.38	.1

System: 2-propanol + 3-amino-1-propanol; phases: Liquid
Fixed: Pressure, kPa = 101
Property: Viscosity, Pa*s (Liquid); method: Capillary tube (Ostwald; Ubbelohde) method
Temperature, K	Mole fraction of 3-amino-1-propanol	Viscosity, Pa*s	uncertainty
293.15	0	.002318	.000001
293.15	.1006	.003076	.000001
293.15	.2004	.004223	.000001
293.15	.3	.005489	.000001
293.15	.4007	.007957	.000001
293.15	.5003	.011009	.000001
293.15	.6	.014579	.000001
293.15	.7002	.019254	.000001
293.15	.8003	.025269	.000001
293.15	.9001	.03208	.000001
293.15	1	.040456	.000001
303.15	0	.001596	.000001
303.15	.1006	.002069	.000001
303.15	.2004	.002918	.000001
303.15	.3	.003955	.000001
303.15	.4007	.005363	.000001
303.15	.5003	.007213	.000001
303.15	.6	.009397	.000001
303.15	.7002	.012094	.000001
303.15	.8003	.015615	.000001
303.15	.9001	.019501	.000001
303.15	1	.023981	.000001
313.15	0	.000996	.000001
313.15	.1006	.001334	.000001
313.15	.2004	.001964	.000001
313.15	.3	.002745	.000001
313.15	.4007	.003704	.000001
313.15	.5003	.004931	.000001
313.15	.6	.006266	.000001
313.15	.7002	.008058	.000001
313.15	.8003	.010174	.000001
313.15	.9001	.012456	.000001
313.15	1	.015312	.000001
323.15	0	.000548	.000001
323.15	.1006	.000761	.000001
323.15	.2004	.001278	.000001
323.15	.3	.001879	.000001
323.15	.4007	.002559	.000001
323.15	.5003	.003402	.000001
323.15	.6	.004356	.000001
323.15	.7002	.005497	.000001
323.15	.8003	.006895	.000001
323.15	.9001	.008337	.000001
323.15	1	.010221	.000001
333.15	0	.000256	.000001
333.15	.1006	.000319	.000001
333.15	.2004	.000734	.000001
333.15	.3	.001203	.000001
333.15	.4007	.00175	.000001
333.15	.5003	.002367	.000001
333.15	.6	.003063	.000001
333.15	.7002	.00388	.000001
333.15	.8003	.004842	.000001
333.15	.9001	.005894	.000001
333.15	1	.006962	.000001
