Measured thermophysical data. Effect of the H/D solvent isotope substitution on enthalpy-related interaction parameters in aqueous solutions of the racemic Albicar at T = 298.15 K and ambient pressure
Source: J. Chem. Thermodyn., 2016, 10.1016/j.jct.2016.06.020
Compound 1: rac-(3aS,6aS)-1,4-diethyl-3,6-dimethyltetrahydroimidazo[4,5-d]imidazole-2,5(1H,3H)-dione, C10H18N4O2, purity 96%
Compound 2: water, H2O, purity 99.9%
Compound 3: heavy water, D2O, purity 99.9%

System: rac-(3aS,6aS)-1,4-diethyl-3,6-dimethyltetrahydroimidazo[4,5-d]imidazole-2,5(1H,3H)-dione; phases: Crystal, Liquid, Air at 1 atmosphere
Property: Normal melting temperature, K (Crystal); method: DSC/DTA
Normal melting temperature, K	uncertainty
391.7	.5

System: rac-(3aS,6aS)-1,4-diethyl-3,6-dimethyltetrahydroimidazo[4,5-d]imidazole-2,5(1H,3H)-dione; phases: Crystal, Liquid, Air at 1 atmosphere
Property: Molar enthalpy of transition or fusion, kJ/mol (Crystal); method: DSC
Molar enthalpy of transition or fusion, kJ/mol	uncertainty
20.8	.5

System: water + rac-(3aS,6aS)-1,4-diethyl-3,6-dimethyltetrahydroimidazo[4,5-d]imidazole-2,5(1H,3H)-dione; phases: Liquid
Fixed: Temperature, K = 298.15
Fixed: Pressure, kPa = 99.6
Property: Molar enthalpy of dilution, kJ/mol (Liquid); method: Isoperibol calorimetry
Initial molality of solute, mol/kg	Final molality of solute, mol/kg	Molar enthalpy of dilution, kJ/mol	uncertainty
1.0023	.01647	-.194	
1.0023	.01853	-.173	
1.31	.01836	-.501	
1.31	.02069	-.507	

System: heavy water + rac-(3aS,6aS)-1,4-diethyl-3,6-dimethyltetrahydroimidazo[4,5-d]imidazole-2,5(1H,3H)-dione; phases: Liquid
Fixed: Temperature, K = 298.15
Fixed: Pressure, kPa = 99.6
Property: Molar enthalpy of dilution, kJ/mol (Liquid); method: Isoperibol calorimetry
Initial molality of solute, mol/kg	Final molality of solute, mol/kg	Molar enthalpy of dilution, kJ/mol	uncertainty
.9602	.01647	-.167	
.9602	.01853	-.157	
1.2371	.01836	-.54	
1.2371	.01851	-.537	
1.2371	.02069	-.558	
