Measured thermophysical data. Experimental determination of the LLE data of systems consisting of {hexane + benzene + deep eutectic solvent} and prediction using the Conductor-like Screening Model for Real Solvents
Source: J. Chem. Thermodyn., 2017, 10.1016/j.jct.2016.09.021
Compound 1: benzene, C6H6, purity 99.9%
Compound 2: hexane, C6H14, purity 99%
Compound 3: tetramethylammonium chloride, C4H12ClN, purity 98%
Compound 4: tetraethylammonium chloride, C8H20ClN, purity 98%
Compound 5: tetrabutylammonium chloride, C16H36ClN, purity 97%
Compound 6: tetrahexylammonium chloride, C24H52ClN, purity 96%
Compound 7: glycerol, C3H8O3, purity 99%
Compound 8: ethylene glycol, C2H6O2, purity 99%

System: glycerol + tetramethylammonium chloride + hexane; phases: Liquid mixture 1, Liquid mixture 2
Fixed: Temperature, K = 298.2
Fixed: Pressure, kPa = 101
Property: Mass fraction of hexane (Liquid mixture 1); method: Chromatography
Solvent: Mole fraction of glycerol	Mass fraction of hexane	uncertainty
.667	.0003	

System: tetraethylammonium chloride + glycerol + hexane; phases: Liquid mixture 1, Liquid mixture 2
Fixed: Temperature, K = 298.2
Fixed: Pressure, kPa = 101
Property: Mass fraction of hexane (Liquid mixture 1); method: Chromatography
Solvent: Mole fraction of glycerol	Mass fraction of hexane	uncertainty
.667	.001	

System: glycerol + hexane + tetrahexylammonium chloride; phases: Liquid mixture 1, Liquid mixture 2
Fixed: Temperature, K = 298.2
Fixed: Pressure, kPa = 101
Property: Mass fraction of hexane (Liquid mixture 1); method: Chromatography
Solvent: Mole fraction of glycerol	Mass fraction of hexane	uncertainty
.667	.057	

System: tetraethylammonium chloride + ethylene glycol + hexane; phases: Liquid mixture 1, Liquid mixture 2
Fixed: Temperature, K = 298.2
Fixed: Pressure, kPa = 101
Property: Mass fraction of hexane (Liquid mixture 1); method: Chromatography
Solvent: Mole fraction of ethylene glycol	Mass fraction of hexane	uncertainty
.667	.003	

System: ethylene glycol + hexane + tetrabutylammonium chloride; phases: Liquid mixture 1, Liquid mixture 2
Fixed: Temperature, K = 298.2
Fixed: Pressure, kPa = 101
Property: Mass fraction of hexane (Liquid mixture 1); method: Chromatography
Solvent: Mole fraction of ethylene glycol	Mass fraction of hexane	uncertainty
.667	.025	

System: ethylene glycol + hexane + tetrahexylammonium chloride; phases: Liquid mixture 1, Liquid mixture 2
Fixed: Temperature, K = 298.2
Fixed: Pressure, kPa = 101
Property: Mass fraction of hexane (Liquid mixture 1); method: Chromatography
Solvent: Mole fraction of ethylene glycol	Mass fraction of hexane	uncertainty
.667	.157	

System: glycerol + benzene + tetramethylammonium chloride; phases: Liquid mixture 1, Liquid mixture 2
Fixed: Temperature, K = 298.2
Fixed: Pressure, kPa = 101
Property: Mass fraction of benzene (Liquid mixture 1); method: Chromatography
Solvent: Mole fraction of glycerol	Mass fraction of benzene	uncertainty
.667	.024	

System: tetraethylammonium chloride + glycerol + benzene; phases: Liquid mixture 1, Liquid mixture 2
Fixed: Temperature, K = 298.2
Fixed: Pressure, kPa = 101
Property: Mass fraction of benzene (Liquid mixture 1); method: Chromatography
Solvent: Mole fraction of glycerol	Mass fraction of benzene	uncertainty
.667	.06	

System: glycerol + benzene + tetrahexylammonium chloride; phases: Liquid mixture 1, Liquid mixture 2
Fixed: Temperature, K = 298.2
Fixed: Pressure, kPa = 101
Property: Mass fraction of benzene (Liquid mixture 1); method: Chromatography
Solvent: Mole fraction of glycerol	Mass fraction of benzene	uncertainty
.667	.46	

System: tetraethylammonium chloride + benzene + ethylene glycol; phases: Liquid mixture 1, Liquid mixture 2
Fixed: Temperature, K = 298.2
Fixed: Pressure, kPa = 101
Property: Mass fraction of benzene (Liquid mixture 1); method: Chromatography
Solvent: Mole fraction of ethylene glycol	Mass fraction of benzene	uncertainty
.667	.17	

System: benzene + ethylene glycol + tetrabutylammonium chloride; phases: Liquid mixture 1, Liquid mixture 2
Fixed: Temperature, K = 298.2
Fixed: Pressure, kPa = 101
Property: Mass fraction of benzene (Liquid mixture 1); method: Chromatography
Solvent: Mole fraction of ethylene glycol	Mass fraction of benzene	uncertainty
.667	.649	
