Measured thermophysical data. Fluorination effect on the thermodynamic properties of long-chain hydrocarbons and alcohols
Source: J. Chem. Thermodyn., 2016, 10.1016/j.jct.2016.07.037
Compound 1: 2,2,3,3,4,4,5,5,6,6,7,7,8,8,9,9,9-heptadecafluoro-1-nonanol, C9H3F17O, purity 98%
Compound 2: 1H,1H-perfluoro-1-decanol, C10H3F19O, purity 98%
Compound 3: 1H,1H-perfluoroundecan-1-ol, C11H3F21O, purity 95%
Compound 4: 1H,1H-perfluoro-1-dodecanol, C12H3F23O, purity 96%
Compound 5: 1H,1H-perfluoro-1-tetradecanol, C14H3F27O, purity 96%

System: 2,2,3,3,4,4,5,5,6,6,7,7,8,8,9,9,9-heptadecafluoro-1-nonanol; phases: Crystal
Fixed: Pressure, kPa = 101.325
Property: Molar heat capacity at constant pressure, J/K/mol (Crystal); method: Drop calorimetry
Temperature, K	Molar heat capacity at constant pressure, J/K/mol	uncertainty
298.15	515.9	

System: 1H,1H-perfluoro-1-decanol; phases: Crystal
Fixed: Pressure, kPa = 101.325
Property: Molar heat capacity at constant pressure, J/K/mol (Crystal); method: Drop calorimetry
Temperature, K	Molar heat capacity at constant pressure, J/K/mol	uncertainty
298.15	563.9	

System: 1H,1H-perfluoroundecan-1-ol; phases: Crystal
Fixed: Pressure, kPa = 101.325
Property: Molar heat capacity at constant pressure, J/K/mol (Crystal); method: Drop calorimetry
Temperature, K	Molar heat capacity at constant pressure, J/K/mol	uncertainty
298.15	602.4	.02

System: 1H,1H-perfluoro-1-dodecanol; phases: Crystal
Fixed: Pressure, kPa = 101.325
Property: Molar heat capacity at constant pressure, J/K/mol (Crystal); method: Drop calorimetry
Temperature, K	Molar heat capacity at constant pressure, J/K/mol	uncertainty
298.15	645.2	

System: 1H,1H-perfluoro-1-dodecanol; phases: Crystal, Liquid, Air at 1 atmosphere
Property: Normal melting temperature, K (Crystal); method: DSC/DTA
Normal melting temperature, K	uncertainty
387.4	1.3

System: 1H,1H-perfluoro-1-dodecanol; phases: Crystal, Liquid, Air at 1 atmosphere
Property: Molar enthalpy of transition or fusion, kJ/mol (Crystal); method: DSC
Molar enthalpy of transition or fusion, kJ/mol	uncertainty
24.6	1.2

System: 1H,1H-perfluoro-1-dodecanol; phases: Crystal, Gas
Property: Molar enthalpy of vaporization or sublimation, kJ/mol (Crystal); method: Static calorimetry
Temperature, K	Molar enthalpy of vaporization or sublimation, kJ/mol	uncertainty
298.15	110.4	3.6

System: 1H,1H-perfluoro-1-dodecanol; phases: Crystal, Gas
Property: Vapor or sublimation pressure, kPa (Crystal); method: Knudsen effusion method
Temperature, K	Vapor or sublimation pressure, kPa	uncertainty
303.6	.0000695	
306.1	.0001	
308.6	.000143	
311	.000196	
313.5	.000273	
316	.000376	
318.5	.000517	
321	.000727	
323.5	.001007	

System: 1H,1H-perfluoro-1-tetradecanol; phases: Crystal
Fixed: Pressure, kPa = 101.325
Property: Molar heat capacity at constant pressure, J/K/mol (Crystal); method: Drop calorimetry
Temperature, K	Molar heat capacity at constant pressure, J/K/mol	uncertainty
298.15	725.3	

System: 1H,1H-perfluoro-1-tetradecanol; phases: Crystal, Liquid, Air at 1 atmosphere
Property: Normal melting temperature, K (Crystal); method: DSC/DTA
Normal melting temperature, K	uncertainty
412.3	.4

System: 1H,1H-perfluoro-1-tetradecanol; phases: Crystal, Liquid, Air at 1 atmosphere
Property: Molar enthalpy of transition or fusion, kJ/mol (Crystal); method: DSC
Molar enthalpy of transition or fusion, kJ/mol	uncertainty
38	1.8

System: 1H,1H-perfluoro-1-tetradecanol; phases: Crystal, Gas
Property: Molar enthalpy of vaporization or sublimation, kJ/mol (Crystal); method: Static calorimetry
Temperature, K	Molar enthalpy of vaporization or sublimation, kJ/mol	uncertainty
298.15	126.2	3.9

System: 1H,1H-perfluoro-1-tetradecanol; phases: Crystal, Gas
Property: Vapor or sublimation pressure, kPa (Crystal); method: Knudsen effusion method
Temperature, K	Vapor or sublimation pressure, kPa	uncertainty
328.6	.00014	
330.6	.000172	
332.5	.000231	
334.5	.000302	
336.5	.000391	
338.4	.000502	
340.4	.000642	
