Measured thermophysical data. Measurements and modeling of LLE and HE for (methanol + 2,4,4-trimethyl-1-pentene), and LLE for (water + methanol + 2,4,4-trimethyl-1-pentene)
Source: J. Chem. Thermodyn., 2015, 10.1016/j.jct.2015.01.013
Compound 1: 2,4,4-trimethyl-1-pentene, C8H16
Compound 2: methanol, CH4O
Compound 3: water, H2O, purity 99.8%
Compound 4: 2-propanol, C3H8O, purity 99.8%
Compound 5: cyclohexane, C6H12, purity 99.95%

System: 2,4,4-trimethyl-1-pentene; phases: Liquid
Fixed: Pressure, kPa = 101.325
Property: Mass density, kg/m3 (Liquid); method: Vibrating tube method
Temperature, K	Mass density, kg/m3	uncertainty
298.15	710.7	.05

System: methanol; phases: Liquid
Fixed: Pressure, kPa = 101.325
Property: Mass density, kg/m3 (Liquid); method: Vibrating tube method
Temperature, K	Mass density, kg/m3	uncertainty
298.15	786.2	.05

System: 2-propanol; phases: Liquid
Fixed: Pressure, kPa = 101.325
Property: Mass density, kg/m3 (Liquid); method: Vibrating tube method
Temperature, K	Mass density, kg/m3	uncertainty
298.15	780.8	.05

System: cyclohexane; phases: Liquid
Fixed: Pressure, kPa = 101.325
Property: Mass density, kg/m3 (Liquid); method: Vibrating tube method
Temperature, K	Mass density, kg/m3	uncertainty
298.15	773.5	.05

System: methanol + 2,4,4-trimethyl-1-pentene; phases: Liquid
Fixed: Pressure, kPa = 101
Fixed: Temperature, K = 298.15
Property: Excess molar enthalpy (molar enthalpy of mixing), kJ/mol (Liquid); method: Flow calorimetry
Mole fraction of methanol	Excess molar enthalpy (molar enthalpy of mixing), kJ/mol	uncertainty
.023	.239	.005736
.1	.449	.010776
.198	.524	.012576
.301	.577	.013848
.398	.584	.014016
.498	.584	.014016
.598	.563	.013512
.698	.511	.012264
.798	.428	.010272
.899	.282	.006768

System: methanol + 2,4,4-trimethyl-1-pentene; phases: Liquid mixture 1, Liquid mixture 2
Property: Mole fraction of methanol (Liquid mixture 1); method: Chromatography
Temperature, K	Pressure, kPa	Mole fraction of methanol	uncertainty
257.75	101	.2443	.0001
263.05	101	.2861	.0001
264.55	101	.3048	.0001
266.15	101	.3352	.0001
268.05	101	.374	.0001
270.45	101	.4281	.0001

System: methanol + 2,4,4-trimethyl-1-pentene; phases: Liquid mixture 2, Liquid mixture 1
Property: Mole fraction of methanol (Liquid mixture 2); method: Chromatography
Temperature, K	Pressure, kPa	Mole fraction of methanol	uncertainty
257.75	101	.8257	.0001
263.05	101	.8046	.0001
264.55	101	.7902	.0001
266.15	101	.77	.0001
268.05	101	.7484	.0001
270.45	101	.7106	.0001

System: methanol + 2,4,4-trimethyl-1-pentene; phases: Liquid mixture 1, Liquid mixture 2
Fixed: Pressure, kPa = 101
Property: Mole fraction of methanol (Liquid mixture 1); method: Titration method
Temperature, K	Mole fraction of methanol	uncertainty
254.46	.2411	.0001
264.59	.315	.0001
269.83	.4083	.0001
271.14	.4608	.0001
271.8	.5258	.0001
271.92	.5623	.0001
254.75	.8439	.0001
263.03	.8018	.0001
265.46	.7841	.0001
268.94	.745	.0001
270.7	.7082	.0001
271.49	.6686	.0001
271.84	.6305	.0001
272.05	.596	.0001
272.05	.5664	.0001
271.9	.5378	.0001

System: methanol + 2,4,4-trimethyl-1-pentene + water; phases: Liquid mixture 1, Liquid mixture 2
Fixed: Pressure, kPa = 101
Property: Mole fraction of water (Liquid mixture 1); method: Titration method
Temperature, K	Mole fraction of methanol	Mole fraction of water	uncertainty
298	.496	.009	.01
298	.518	.009	.01
298	.518	.009	.01
298	.529	.009	.01
298	.529	.01	.01
298	.54	.009	.01
298	.539	.01	.01
298	.551	.01	.01
298	.551	.01	.01
298	.56	.01	.01
298	.56	.011	.01
298	.571	.01	.01
298	.571	.011	.01
298	.581	.011	.01
298	.581	.011	.01
298	.59	.011	.01
298	.59	.011	.01
298	.601	.011	.01
298	.601	.012	.01
298	.609	.012	.01
298	.608	.012	.01
298	.615	.012	.01
298	.614	.012	.01
298	.622	.012	.01
298	.622	.013	.01
298	.629	.012	.01
298	.629	.013	.01
298	.637	.013	.01
298	.637	.014	.01
298	.646	.014	.01
298	.645	.014	.01
298	.65	.014	.01
298	.649	.014	.01
298	.655	.014	.01
298	.654	.015	.01
298	.661	.015	.01
298	.661	.015	.01
298	.665	.015	.01
298	.665	.015	.01
298	.673	.015	.01
298	.672	.016	.01
298	.683	.015	.01
298	.683	.016	.01
298	.691	.016	.01
298	.69	.017	.01
298	.699	.016	.01
298	.698	.017	.01
298	.708	.017	.01
298	.707	.018	.01
298	.717	.017	.01
298	.716	.019	.01
298	.724	.018	.01
298	.723	.019	.01
298	.735	.019	.01
298	.734	.021	.01
298	.749	.019	.01
298	.748	.021	.01
298	.759	.02	.01
298	.758	.023	.01
298	.772	.021	.01
298	.769	.025	.01
298	.782	.024	.01
298	.779	.028	.01
298	.794	.026	.01
298	.79	.03	.01
298	.809	.028	.01
298	.803	.035	.01
298	.812	.033	.01
298	.808	.038	.01
298	.815	.036	.01
298	.811	.041	.01
298	.821	.039	.01
298	.816	.045	.01
298	.829	.042	.01
298	.824	.048	.01
298	.834	.045	.01
298	.833	.047	.01
298	.83	.05	.01
298	.836	.048	.01
298	.832	.052	.01
298	.839	.05	.01
298	.835	.055	.01
298	.841	.053	.01
298	.837	.058	.01
298	.841	.056	.01
298	.837	.06	.01
298	.843	.059	.01
298	.839	.063	.01
298	.843	.061	.01
298	.84	.065	.01
298	.845	.063	.01
298	.84	.068	.01
298	.844	.066	.01
298	.841	.07	.01
298	.846	.068	.01
298	.842	.072	.01
298	.847	.07	.01
298	.842	.076	.01
298	.847	.073	.01
298	.842	.078	.01
298	.846	.076	.01
298	.842	.08	.01
298	.848	.078	.01
298	.842	.084	.01
298	.847	.081	.01
298	.841	.087	.01
298	.844	.086	.01
298	.841	.089	.01
298	.846	.087	.01
298	.841	.092	.01
298	.845	.09	.01
298	.84	.095	.01
298	.844	.092	.01
298	.839	.098	.01
298	.842	.096	.01
298	.839	.1	.01
298	.842	.098	.01
298	.838	.102	.01
298	.843	.098	.01
298	.836	.106	.01
298	.841	.103	.01
298	.835	.11	.01
298	.839	.107	.01
298	.835	.112	.01
298	.839	.109	.01
298	.832	.116	.01
298	.84	.111	.01
298	.83	.121	.01
298	.837	.116	.01
298	.828	.126	.01
283.15	.555	.006	.01
283.15	.582	.006	.01
283.15	.581	.007	.01
283.15	.611	.006	.01
283.15	.611	.007	.01
283.15	.658	.006	.01
283.15	.657	.007	.01
283.15	.691	.007	.01
283.15	.689	.009	.01
283.15	.732	.008	.01
283.15	.73	.011	.01
283.15	.755	.01	.01
283.15	.752	.013	.01
283.15	.787	.011	.01
283.15	.783	.016	.01
283.15	.806	.015	.01
283.15	.8	.021	.01
283.15	.823	.019	.01
283.15	.817	.025	.01
283.15	.832	.023	.01
283.15	.825	.031	.01
283.15	.842	.028	.01
283.15	.834	.038	.01
283.15	.844	.036	.01
283.15	.837	.045	.01
283.15	.853	.04	.01
283.15	.844	.051	.01
283.15	.853	.048	.01

System: methanol + 2,4,4-trimethyl-1-pentene + water; phases: Liquid mixture 2, Liquid mixture 1
Property: Mole fraction of water (Liquid mixture 2); method: Titration method
Property: Mole fraction of methanol (Liquid mixture 1); method: Titration method
Property: Mole fraction of water (Liquid mixture 1); method: Titration method
Temperature, K	Pressure, kPa	Mole fraction of methanol	Mole fraction of water	uncertainty	Mole fraction of methanol	uncertainty	Mole fraction of water	uncertainty
298.28	101	.254	.001	.001	.691	.006	.02	.006
298.16	101	.02	.003	.001	.751	.006	.232	.006
298.13	101	.013	.002	.001	.647	.006	.321	.006
298.25	101	.014	.002	.001	.666	.006	.325	.006
298.11	101	.011	.002	.001	.64	.006	.351	.006
298.15	101	.007	.002	.001	.555	.006	.441	.006
298.14	101	.006	.001	.001	.486	.006	.513	.006
298.05	101	.006	.001	.001	.48	.006	.519	.006
298.18	101	0	.001	.001	.357	.006	.641	.006
298.17	101	0	.001	.001	.29	.006	.71	.006
298.24	101	0	.001	.001	.252	.006	.748	.006
298.27	101	.161	.01	.001	.783	.006	.03	.006
298.21	101	0	.001	.001	.247	.006	.753	.006
298.23	101	0	.001	.001	.243	.006	.757	.006
283.63	101	.154	.005	.001	.789	.006	.027	.006
283.63	101	.072	.005	.001	.852	.006	.065	.006
283.98	101	.053	.003	.001	.864	.006	.072	.006
283.8	101	.047	.002	.001	.861	.006	.08	.006
283.91	101	.035	.003	.001	.853	.006	.108	.006
283.8	101	.035	.003	.001	.847	.006	.115	.006
284.09	101	.027	.002	.001	.82	.006	.153	.006
283.74	101	.02	.002	.001	.799	.006	.182	.006
298.14	101	.129	.008	.001	.818	.006	.038	.006
283.86	101	.017	.002	.001	.778	.006	.207	.006
283.87	101	.014	.002	.001	.743	.006	.246	.006
283.41	101	.009	.001	.001	.661	.006	.329	.006
283.89	101	.008	.001	.001	.647	.006	.349	.006
283.92	101	.007	.001	.001	.644	.006	.349	.006
283.45	101	.007	.001	.001	.631	.006	.366	.006
283.41	101	.007	.001	.001	.618	.006	.379	.006
283.51	101	.004	.001	.001	.565	.006	.434	.006
283.32	101	.004	.001	.001	.523	.006	.477	.006
283.41	101	0	.001	.001	.493	.006	.5	.006
298.15	101	.106	.009	.001	.829	.006	.063	.006
283.46	101	0	.001	.001	.497	.006	.502	.006
283.69	101	.01	.001	.001	.471	.006	.521	.006
283.35	101	0	.003	.001	.421	.006	.578	.006
284.05	101	0	.001	.001	.291	.006	.709	.006
283.75	101	0	.001	.001	.283	.006	.717	.006
283.35	101	0	.001	.001	.21	.006	.79	.006
283.97	101	0	.001	.001	.208	.006	.792	.006
298.16	101	.057	.005	.001	.843	.006	.095	.006
298.27	101	.048	.004	.001	.843	.006	.108	.006
298.23	101	.032	.004	.001	.799	.006	.159	.006
298.16	101	.029	.004	.001	.804	.006	.166	.006
298.16	101	.023	.003	.001	.758	.006	.224	.006

System: 2-propanol + cyclohexane; phases: Liquid
Fixed: Pressure, kPa = 101
Property: Excess molar enthalpy (molar enthalpy of mixing), kJ/mol (Liquid); method: Flow calorimetry
Temperature, K	Mole fraction of 2-propanol	Excess molar enthalpy (molar enthalpy of mixing), kJ/mol	uncertainty
298.15	.9005	.239	.005736
298.15	.8005	.438	.010512
298.15	.701	.6	.0144
298.15	.6011	.723	.017352
298.15	.5016	.801	.019224
298.15	.4014	.831	.019944
298.15	.3009	.801	.019224
298.15	.2009	.702	.016848
298.15	.0995	.519	.012456
