Measured thermophysical data. Densities, viscosities, and excess properties of binary mixtures of two imidazolide anion functionalized ionic liquids with water at T = (293.15 to 313.15) K
Source: J. Chem. Thermodyn., 2015, 10.1016/j.jct.2015.08.010
Compound 1: water, H2O
Compound 2: 8-butyl-1,8-diazabicyclo[5.4.0]undec-7-enium imidazolide, C16H28N4
Compound 3: 1,8-diazabicyclo[5.4.0]undec-7-enium imidazolide, C12H20N4

System: water; phases: Liquid
Property: Mass density, kg/m3 (Liquid); method: Vibrating tube method
Temperature, K	Pressure, kPa	Mass density, kg/m3	uncertainty
293.15	100	998.22	1.99644
298.15	100	997.06	1.99412
303.15	100	995.66	1.99132
308.15	100	994.04	1.98808
313.15	100	992.22	1.98444

System: water; phases: Liquid
Property: Viscosity, Pa*s (Liquid); method: Falling or rolling sphere viscometry
Temperature, K	Pressure, kPa	Viscosity, Pa*s	uncertainty
293.15	100	.001002	.00001002
298.15	100	.00089	.0000089
303.15	100	.000797	.00000797
308.15	100	.000718	.00000718
313.15	100	.000651	.00000651

System: 8-butyl-1,8-diazabicyclo[5.4.0]undec-7-enium imidazolide; phases: Liquid
Property: Mass density, kg/m3 (Liquid); method: Vibrating tube method
Temperature, K	Pressure, kPa	Mass density, kg/m3	uncertainty
293.15	100	1014.02	2.02804
298.15	100	1010.23	2.02046
303.15	100	1006.45	2.0129
308.15	100	1002.69	2.00538
313.15	100	998.93	1.99786

System: 8-butyl-1,8-diazabicyclo[5.4.0]undec-7-enium imidazolide; phases: Liquid
Property: Viscosity, Pa*s (Liquid); method: Falling or rolling sphere viscometry
Temperature, K	Pressure, kPa	Viscosity, Pa*s	uncertainty
293.15	100	.106693	.00106693
298.15	100	.073923	.00073923
303.15	100	.053383	.00053383
308.15	100	.040187	.00040187
313.15	100	.031074	.00031074

System: 1,8-diazabicyclo[5.4.0]undec-7-enium imidazolide; phases: Liquid
Property: Mass density, kg/m3 (Liquid); method: Vibrating tube method
Temperature, K	Pressure, kPa	Mass density, kg/m3	uncertainty
293.15	100	1053.63	2.10726
298.15	100	1049.78	2.09956
303.15	100	1045.94	2.09188
308.15	100	1042.11	2.08422
313.15	100	1038.28	2.07656

System: 1,8-diazabicyclo[5.4.0]undec-7-enium imidazolide; phases: Liquid
Property: Viscosity, Pa*s (Liquid); method: Falling or rolling sphere viscometry
Temperature, K	Pressure, kPa	Viscosity, Pa*s	uncertainty
293.15	100	.047824	.00047824
298.15	100	.034938	.00034938
303.15	100	.02636	.0002636
308.15	100	.020505	.00020505
313.15	100	.016284	.00016284

System: water + 1,8-diazabicyclo[5.4.0]undec-7-enium imidazolide; phases: Liquid
Fixed: Pressure, kPa = 100
Property: Mass density, kg/m3 (Liquid); method: Vibrating tube method
Temperature, K	Mole fraction of 1,8-diazabicyclo[5.4.0]undec-7-enium imidazolide	Mass density, kg/m3	uncertainty
293.15	0	998.22	1.99644
293.15	.0298	1026.99	2.05398
293.15	.0698	1048.57	2.09714
293.15	.0998	1057.33	2.11466
293.15	.1875	1067.15	2.1343
293.15	.2994	1067.1	2.1342
293.15	.444	1063.55	2.1271
293.15	.5989	1059.62	2.11924
293.15	.7516	1056.72	2.11344
293.15	.8728	1055.11	2.11022
293.15	1	1053.63	2.10726
298.15	0	997.06	1.99412
298.15	.0298	1024.52	2.04904
298.15	.0698	1045.19	2.09038
298.15	.0998	1053.65	2.1073
298.15	.1875	1063.22	2.12644
298.15	.2994	1063.15	2.1263
298.15	.444	1059.63	2.11926
298.15	.5989	1055.73	2.11146
298.15	.7516	1052.85	2.1057
298.15	.8728	1051.25	2.1025
298.15	1	1049.78	2.09956
303.15	0	995.66	1.99132
303.15	.0298	1021.91	2.04382
303.15	.0698	1041.75	2.0835
303.15	.0998	1050.01	2.10002
303.15	.1875	1059.26	2.11852
303.15	.2994	1059.2	2.1184
303.15	.444	1055.71	2.11142
303.15	.5989	1051.85	2.1037
303.15	.7516	1048.97	2.09794
303.15	.8728	1047.41	2.09482
303.15	1	1045.94	2.09188
308.15	0	994.04	1.98808
308.15	.0298	1019.17	2.03834
308.15	.0698	1038.24	2.07648
308.15	.0998	1046.13	2.09226
308.15	.1875	1055.28	2.11056
308.15	.2994	1055.23	2.11046
308.15	.444	1051.79	2.10358
308.15	.5989	1047.97	2.09594
308.15	.7516	1045.08	2.09016
308.15	.8728	1043.56	2.08712
308.15	1	1042.11	2.08422
313.15	0	992.22	1.98444
313.15	.0298	1016.33	2.03266
313.15	.0698	1034.66	2.06932
313.15	.0998	1042.33	2.08466
313.15	.1875	1051.28	2.10256
313.15	.2994	1051.26	2.10252
313.15	.444	1047.79	2.09558
313.15	.5989	1044.1	2.0882
313.15	.7516	1041.21	2.08242
313.15	.8728	1039.73	2.07946
313.15	1	1038.28	2.07656

System: water + 1,8-diazabicyclo[5.4.0]undec-7-enium imidazolide; phases: Liquid
Fixed: Pressure, kPa = 100
Property: Viscosity, Pa*s (Liquid); method: Falling or rolling sphere viscometry
Temperature, K	Mole fraction of 1,8-diazabicyclo[5.4.0]undec-7-enium imidazolide	Viscosity, Pa*s	uncertainty
293.15	0	.001002	.00001002
293.15	.0298	.002845	.00002845
293.15	.0698	.008167	.00008167
293.15	.0998	.014126	.00014126
293.15	.1875	.034976	.00034976
293.15	.2994	.060568	.00060568
293.15	.444	.072414	.00072414
293.15	.5989	.06949	.0006949
293.15	.7516	.063935	.00063935
293.15	.8728	.055449	.00055449
293.15	1	.047824	.00047824
298.15	0	.00089	.0000089
298.15	.0298	.002428	.00002428
298.15	.0698	.00674	.0000674
298.15	.0998	.011169	.00011169
298.15	.1875	.025842	.00025842
298.15	.2994	.042645	.00042645
298.15	.444	.051276	.00051276
298.15	.5989	.049753	.00049753
298.15	.7516	.044983	.00044983
298.15	.8728	.039569	.00039569
298.15	1	.034938	.00034938
303.15	0	.000797	.00000797
303.15	.0298	.002096	.00002096
303.15	.0698	.005761	.00005761
303.15	.0998	.009019	.00009019
303.15	.1875	.019658	.00019658
303.15	.2994	.030991	.00030991
303.15	.444	.037802	.00037802
303.15	.5989	.036328	.00036328
303.15	.7516	.032905	.00032905
303.15	.8728	.029309	.00029309
303.15	1	.02636	.0002636
308.15	0	.000718	.00000718
308.15	.0298	.001835	.00001835
308.15	.0698	.004854	.00004854
308.15	.0998	.007406	.00007406
308.15	.1875	.015368	.00015368
308.15	.2994	.023319	.00023319
308.15	.444	.028368	.00028368
308.15	.5989	.027134	.00027134
308.15	.7516	.024833	.00024833
308.15	.8728	.022604	.00022604
308.15	1	.020505	.00020505
313.15	0	.000651	.00000651
313.15	.0298	.001614	.00001614
313.15	.0698	.004071	.00004071
313.15	.0998	.006217	.00006217
313.15	.1875	.012307	.00012307
313.15	.2994	.018117	.00018117
313.15	.444	.021762	.00021762
313.15	.5989	.020874	.00020874
313.15	.7516	.019334	.00019334
313.15	.8728	.017878	.00017878
313.15	1	.016284	.00016284

System: 8-butyl-1,8-diazabicyclo[5.4.0]undec-7-enium imidazolide + water; phases: Liquid
Fixed: Pressure, kPa = 100
Property: Mass density, kg/m3 (Liquid); method: Vibrating tube method
Temperature, K	Mole fraction of 8-butyl-1,8-diazabicyclo[5.4.0]undec-7-enium imidazolide	Mass density, kg/m3	uncertainty
293.15	0	998.22	1.99644
293.15	.0298	1016.23	2.03246
293.15	.0697	1025.41	2.05082
293.15	.0991	1028.04	2.05608
293.15	.2001	1029.23	2.05846
293.15	.3002	1026.66	2.05332
293.15	.439	1022.73	2.04546
293.15	.5972	1019.16	2.03832
293.15	.7501	1016.96	2.03392
293.15	.89	1015.23	2.03046
293.15	1	1014.02	2.02804
298.15	0	997.06	1.99412
298.15	.0298	1013.44	2.02688
298.15	.0697	1021.88	2.04376
298.15	.0991	1024.3	2.0486
298.15	.2001	1025.3	2.0506
298.15	.3002	1022.74	2.04548
298.15	.439	1018.86	2.03772
298.15	.5972	1015.32	2.03064
298.15	.7501	1013.16	2.02632
298.15	.89	1011.43	2.02286
298.15	1	1010.23	2.02046
303.15	0	995.66	1.99132
303.15	.0298	1010.54	2.02108
303.15	.0697	1018.28	2.03656
303.15	.0991	1020.51	2.04102
303.15	.2001	1021.35	2.0427
303.15	.3002	1018.79	2.03758
303.15	.439	1014.96	2.02992
303.15	.5972	1011.48	2.02296
303.15	.7501	1009.34	2.01868
303.15	.89	1007.64	2.01528
303.15	1	1006.45	2.0129
308.15	0	994.04	1.98808
308.15	.0298	1007.53	2.01506
308.15	.0697	1014.63	2.02926
308.15	.0991	1016.67	2.03334
308.15	.2001	1017.36	2.03472
308.15	.3002	1014.83	2.02966
308.15	.439	1011.06	2.02212
308.15	.5972	1007.63	2.01526
308.15	.7501	1005.52	2.01104
308.15	.89	1003.86	2.00772
308.15	1	1002.69	2.00538
313.15	0	992.22	1.98444
313.15	.0298	1004.43	2.00886
313.15	.0697	1010.93	2.02186
313.15	.0991	1012.8	2.0256
313.15	.2001	1013.36	2.02672
313.15	.3002	1010.86	2.02172
313.15	.439	1007.16	2.01432
313.15	.5972	1003.79	2.00758
313.15	.7501	1001.71	2.00342
313.15	.89	1000.09	2.00018
313.15	1	998.93	1.99786

System: 8-butyl-1,8-diazabicyclo[5.4.0]undec-7-enium imidazolide + water; phases: Liquid
Fixed: Pressure, kPa = 100
Property: Viscosity, Pa*s (Liquid); method: Falling or rolling sphere viscometry
Temperature, K	Mole fraction of 8-butyl-1,8-diazabicyclo[5.4.0]undec-7-enium imidazolide	Viscosity, Pa*s	uncertainty
293.15	0	.001002	.00001002
293.15	.0298	.004316	.00004316
293.15	.0697	.012266	.00012266
293.15	.0991	.01953	.0001953
293.15	.2001	.055653	.00055653
293.15	.3002	.097571	.00097571
293.15	.439	.133685	.00133685
293.15	.5972	.136607	.00136607
293.15	.7501	.127633	.00127633
293.15	.89	.117407	.00117407
293.15	1	.106693	.00106693
298.15	0	.00089	.0000089
298.15	.0298	.003347	.00003347
298.15	.0697	.009898	.00009898
298.15	.0991	.015302	.00015302
298.15	.2001	.039877	.00039877
298.15	.3002	.066686	.00066686
298.15	.439	.088914	.00088914
298.15	.5972	.091454	.00091454
298.15	.7501	.086897	.00086897
298.15	.89	.08042	.0008042
298.15	1	.073923	.00073923
303.15	0	.000797	.00000797
303.15	.0298	.002838	.00002838
303.15	.0697	.008133	.00008133
303.15	.0991	.012478	.00012478
303.15	.2001	.029503	.00029503
303.15	.3002	.047219	.00047219
303.15	.439	.061566	.00061566
303.15	.5972	.063375	.00063375
303.15	.7501	.060132	.00060132
303.15	.89	.057188	.00057188
303.15	1	.053383	.00053383
308.15	0	.000718	.00000718
308.15	.0298	.002449	.00002449
308.15	.0697	.006778	.00006778
308.15	.0991	.009929	.00009929
308.15	.2001	.022505	.00022505
308.15	.3002	.034561	.00034561
308.15	.439	.044112	.00044112
308.15	.5972	.045743	.00045743
308.15	.7501	.043804	.00043804
308.15	.89	.04193	.0004193
308.15	1	.040187	.00040187
313.15	0	.000651	.00000651
313.15	.0298	.002138	.00002138
313.15	.0697	.005738	.00005738
313.15	.0991	.008244	.00008244
313.15	.2001	.017576	.00017576
313.15	.3002	.026149	.00026149
313.15	.439	.032544	.00032544
313.15	.5972	.033548	.00033548
313.15	.7501	.032338	.00032338
313.15	.89	.031786	.00031786
313.15	1	.031074	.00031074
