Measured thermophysical data. Excess heat capacities of mixtures containing 1-methylpyrrolidin-2-one, chlorotoluenes and benzene
Source: J. Chem. Thermodyn., 2015, 10.1016/j.jct.2014.12.022
Compound 1: 1-methyl-2-pyrrolidinone, C5H9NO
Compound 2: benzene, C6H6
Compound 3: m-chlorotoluene, C7H7Cl
Compound 4: p-chlorotoluene, C7H7Cl
Compound 5: o-chlorotoluene, C7H7Cl

System: 1-methyl-2-pyrrolidinone; phases: Liquid
Fixed: Pressure, kPa = 101.325
Property: Mass density, kg/m3 (Liquid); method: Vibrating tube method
Temperature, K	Mass density, kg/m3	uncertainty
293.15	1033.3	.5
298.15	1028.3	.5
303.15	1023.5	.5

System: 1-methyl-2-pyrrolidinone; phases: Liquid
Fixed: Pressure, kPa = 101.325
Property: Speed of sound, m/s (Liquid); method: Sing-around technique in a fixed-path interferometer
Temperature, K	Speed of sound, m/s	uncertainty
293.15	1565.6	.5
298.15	1546.1	.5
303.15	1527.3	.5

System: 1-methyl-2-pyrrolidinone; phases: Liquid
Fixed: Pressure, kPa = 101.325
Property: Molar heat capacity at constant pressure, J/K/mol (Liquid); method: Small sample (50 mg) scanning calorimetry
Temperature, K	Molar heat capacity at constant pressure, J/K/mol	uncertainty
293.15	165.44	
298.15	166.22	
303.15	166.92	

System: benzene; phases: Liquid
Fixed: Pressure, kPa = 101.325
Property: Mass density, kg/m3 (Liquid); method: Vibrating tube method
Temperature, K	Mass density, kg/m3	uncertainty
293.15	878.89	.5
298.15	873.54	.5
303.15	868.2	.5

System: benzene; phases: Liquid
Fixed: Pressure, kPa = 101.325
Property: Speed of sound, m/s (Liquid); method: Sing-around technique in a fixed-path interferometer
Temperature, K	Speed of sound, m/s	uncertainty
293.15	1322.6	.5
298.15	1299.4	.5
303.15	1276.2	.5

System: benzene; phases: Liquid
Fixed: Pressure, kPa = 101.325
Property: Molar heat capacity at constant pressure, J/K/mol (Liquid); method: Small sample (50 mg) scanning calorimetry
Temperature, K	Molar heat capacity at constant pressure, J/K/mol	uncertainty
293.15	133.58	
298.15	135.28	
303.15	136.58	

System: benzene + 1-methyl-2-pyrrolidinone; phases: Liquid
Fixed: Pressure, kPa = 100
Property: Molar heat capacity at constant pressure, J/K/mol (Liquid); method: Small sample (50 mg) scanning calorimetry
Temperature, K	Mole fraction of 1-methyl-2-pyrrolidinone	Molar heat capacity at constant pressure, J/K/mol	uncertainty
293.15	.0787	137.73	
293.15	.1156	139.63	
293.15	.168	142.27	
293.15	.1983	143.75	
293.15	.2249	145.03	
293.15	.2634	146.83	
293.15	.3065	148.78	
293.15	.3325	149.91	
293.15	.3617	151.15	
293.15	.4106	153.13	
293.15	.4367	154.13	
293.15	.4635	155.13	
293.15	.5008	156.45	
293.15	.5598	158.37	
293.15	.5952	159.42	
293.15	.6245	160.24	
293.15	.6616	161.18	
293.15	.7099	162.28	
293.15	.7494	163.06	
293.15	.7748	163.51	
293.15	.8011	163.92	
293.15	.8319	164.35	
293.15	.8767	164.84	
293.15	.9152	165.15	
298.15	.0787	139.51	
298.15	.1156	141.42	
298.15	.168	144.04	
298.15	.1983	145.51	
298.15	.2249	146.77	
298.15	.2634	148.55	
298.15	.3065	150.46	
298.15	.3325	151.58	
298.15	.3617	152.8	
298.15	.4106	154.74	
298.15	.4367	155.73	
298.15	.4635	156.71	
298.15	.5008	158.01	
298.15	.5598	159.91	
298.15	.5952	160.95	
298.15	.6245	161.75	
298.15	.6616	162.69	
298.15	.7099	163.76	
298.15	.7494	164.51	
298.15	.7748	164.93	
298.15	.8011	165.31	
298.15	.8319	165.68	
298.15	.8767	166.08	
298.15	.9152	166.28	
303.15	.0787	140.9	
303.15	.1156	142.83	
303.15	.168	145.46	
303.15	.1983	146.92	
303.15	.2249	148.18	
303.15	.2634	149.94	
303.15	.3065	151.83	
303.15	.3325	152.93	
303.15	.3617	154.13	
303.15	.4106	156.04	
303.15	.4367	157.02	
303.15	.4635	157.98	
303.15	.5008	159.26	
303.15	.5598	161.13	
303.15	.5952	162.15	
303.15	.6245	162.94	
303.15	.6616	163.85	
303.15	.7099	164.9	
303.15	.7494	165.62	
303.15	.7748	166.02	
303.15	.8011	166.38	
303.15	.8319	166.72	
303.15	.8767	167.06	
303.15	.9152	167.2	

System: benzene + m-chlorotoluene; phases: Liquid
Fixed: Pressure, kPa = 100
Property: Molar heat capacity at constant pressure, J/K/mol (Liquid); method: Small sample (50 mg) scanning calorimetry
Temperature, K	Mole fraction of benzene	Molar heat capacity at constant pressure, J/K/mol	uncertainty
293.15	.1056	169.49	
293.15	.1477	167.26	
293.15	.1746	165.85	
293.15	.2065	164.21	
293.15	.2347	162.78	
293.15	.2856	160.26	
293.15	.3148	158.85	
293.15	.3452	157.42	
293.15	.3899	155.37	
293.15	.4132	154.33	
293.15	.4499	152.73	
293.15	.4967	150.76	
293.15	.5231	149.69	
293.15	.5505	148.6	
293.15	.5836	147.32	
293.15	.6335	145.46	
293.15	.6625	144.42	
293.15	.6988	143.15	
293.15	.7207	142.41	
293.15	.7756	140.58	
293.15	.8045	139.65	
293.15	.8466	138.32	
293.15	.8845	137.14	
293.15	.9197	136.05	
298.15	.1056	170.68	
298.15	.1477	168.43	
298.15	.1746	167.02	
298.15	.2065	165.37	
298.15	.2347	163.93	
298.15	.2856	161.4	
298.15	.3148	160	
298.15	.3452	158.56	
298.15	.3899	156.52	
298.15	.4132	155.48	
298.15	.4499	153.89	
298.15	.4967	151.94	
298.15	.5231	150.88	
298.15	.5505	149.81	
298.15	.5836	148.55	
298.15	.6335	146.73	
298.15	.6625	145.71	
298.15	.6988	144.47	
298.15	.7207	143.74	
298.15	.7756	141.98	
298.15	.8045	141.08	
298.15	.8466	139.8	
298.15	.8845	138.67	
298.15	.9197	137.63	
303.15	.1056	171.79	
303.15	.1477	169.51	
303.15	.1746	168.08	
303.15	.2065	166.4	
303.15	.2347	164.95	
303.15	.2856	162.4	
303.15	.3148	160.98	
303.15	.3452	159.53	
303.15	.3899	157.48	
303.15	.4132	156.44	
303.15	.4499	154.85	
303.15	.4967	152.9	
303.15	.5231	151.84	
303.15	.5505	150.77	
303.15	.5836	149.52	
303.15	.6335	147.72	
303.15	.6625	146.71	
303.15	.6988	145.5	
303.15	.7207	144.78	
303.15	.7756	143.06	
303.15	.8045	142.18	
303.15	.8466	140.94	
303.15	.8845	139.84	
303.15	.9197	138.84	

System: benzene + p-chlorotoluene; phases: Liquid
Fixed: Pressure, kPa = 100
Property: Molar heat capacity at constant pressure, J/K/mol (Liquid); method: Small sample (50 mg) scanning calorimetry
Temperature, K	Mole fraction of benzene	Molar heat capacity at constant pressure, J/K/mol	uncertainty
293.15	.0912	170.37	
293.15	.1226	168.6	
293.15	.1657	166.22	
293.15	.2012	164.3	
293.15	.2374	162.4	
293.15	.2675	160.86	
293.15	.3135	158.57	
293.15	.3456	157.02	
293.15	.3702	155.87	
293.15	.4231	153.47	
293.15	.4657	151.63	
293.15	.5093	149.83	
293.15	.5346	148.82	
293.15	.5723	147.36	
293.15	.6022	146.25	
293.15	.6357	145.04	
293.15	.6701	143.84	
293.15	.6989	142.86	
293.15	.7224	142.08	
293.15	.7564	140.98	
293.15	.8096	139.31	
293.15	.8213	138.95	
293.15	.8543	137.95	
293.15	.8886	136.92	
298.15	.0912	172.42	
298.15	.1226	170.58	
298.15	.1657	168.12	
298.15	.2012	166.15	
298.15	.2374	164.19	
298.15	.2675	162.61	
298.15	.3135	160.26	
298.15	.3456	158.69	
298.15	.3702	157.51	
298.15	.4231	155.06	
298.15	.4657	153.19	
298.15	.5093	151.35	
298.15	.5346	150.33	
298.15	.5723	148.85	
298.15	.6022	147.72	
298.15	.6357	146.49	
298.15	.6701	145.27	
298.15	.6989	144.29	
298.15	.7224	143.51	
298.15	.7564	142.41	
298.15	.8096	140.75	
298.15	.8213	140.4	
298.15	.8543	139.41	
298.15	.8886	138.42	
303.15	.0912	174.55	
303.15	.1226	172.63	
303.15	.1657	170.06	
303.15	.2012	168.01	
303.15	.2374	165.99	
303.15	.2675	164.35	
303.15	.3135	161.93	
303.15	.3456	160.3	
303.15	.3702	159.08	
303.15	.4231	156.56	
303.15	.4657	154.63	
303.15	.5093	152.74	
303.15	.5346	151.68	
303.15	.5723	150.16	
303.15	.6022	148.99	
303.15	.6357	147.73	
303.15	.6701	146.49	
303.15	.6989	145.48	
303.15	.7224	144.68	
303.15	.7564	143.56	
303.15	.8096	141.89	
303.15	.8213	141.54	
303.15	.8543	140.56	
303.15	.8886	139.57	

System: benzene + o-chlorotoluene + 1-methyl-2-pyrrolidinone; phases: Liquid
Fixed: Pressure, kPa = 100
Property: Molar heat capacity at constant pressure, J/K/mol (Liquid); method: Small sample (50 mg) scanning calorimetry
Temperature, K	Mole fraction of 1-methyl-2-pyrrolidinone	Mole fraction of benzene	Molar heat capacity at constant pressure, J/K/mol	uncertainty
293.15	.1263	.2765	163.55	
293.15	.1435	.2672	164.1	
293.15	.1654	.2587	164.66	
293.15	.1845	.2534	165.06	
293.15	.2046	.2478	165.51	
293.15	.2389	.2373	166.36	
293.15	.2543	.6213	151.08	
293.15	.2715	.5897	152.33	
293.15	.2857	.5646	153.29	
293.15	.3106	.5234	154.82	
293.15	.334	.4876	156.1	
293.15	.3549	.2057	168.91	
293.15	.3577	.4534	157.29	
293.15	.3872	.4132	158.67	
293.15	.3976	.1925	169.81	
293.15	.4154	.3765	159.94	
293.15	.4359	.1813	170.47	
293.15	.4406	.3452	161.07	
293.15	.4526	.1764	170.72	
293.15	.4759	.3012	162.75	
293.15	.4942	.1651	171.18	
293.15	.5326	.153	171.62	
293.15	.5537	.146	171.84	
293.15	.5793	.1376	172.04	
293.15	.6138	.126	172.25	
293.15	.6345	.1192	172.32	
293.15	.6524	.1131	172.36	
293.15	.6718	.1066	172.36	
293.15	.6946	.0986	172.35	
293.15	.7135	.0921	172.3	
298.15	.1263	.2765	165.73	
298.15	.1435	.2672	166.35	
298.15	.1654	.2587	167.02	
298.15	.1845	.2534	167.5	
298.15	.2046	.2478	168.03	
298.15	.2389	.2373	169.02	
298.15	.2543	.6213	153.58	
298.15	.2715	.5897	154.87	
298.15	.2857	.5646	155.85	
298.15	.3106	.5234	157.36	
298.15	.334	.4876	158.6	
298.15	.3549	.2057	171.86	
298.15	.3577	.4534	159.72	
298.15	.3872	.4132	160.98	
298.15	.3976	.1925	172.8	
298.15	.4154	.3765	162.14	
298.15	.4359	.1813	173.44	
298.15	.4406	.3452	163.18	
298.15	.4526	.1764	173.68	
298.15	.4759	.3012	164.76	
298.15	.4942	.1651	174.05	
298.15	.5326	.153	174.39	
298.15	.5537	.146	174.56	
298.15	.5793	.1376	174.69	
298.15	.6138	.126	174.79	
298.15	.6345	.1192	174.78	
298.15	.6524	.1131	174.76	
298.15	.6718	.1066	174.69	
298.15	.6946	.0986	174.6	
298.15	.7135	.0921	174.47	
303.15	.1263	.2765	167.79	
303.15	.1435	.2672	168.46	
303.15	.1654	.2587	169.18	
303.15	.1845	.2534	169.71	
303.15	.2046	.2478	170.28	
303.15	.2389	.2373	171.34	
303.15	.2543	.6213	155.24	
303.15	.2715	.5897	156.56	
303.15	.2857	.5646	157.54	
303.15	.3106	.5234	159.06	
303.15	.334	.4876	160.29	
303.15	.3549	.2057	174.29	
303.15	.3577	.4534	161.4	
303.15	.3872	.4132	162.66	
303.15	.3976	.1925	175.23	
303.15	.4154	.3765	163.81	
303.15	.4359	.1813	175.85	
303.15	.4406	.3452	164.84	
303.15	.4526	.1764	176.07	
303.15	.4759	.3012	166.46	
303.15	.4942	.1651	176.39	
303.15	.5326	.153	176.69	
303.15	.5537	.146	176.82	
303.15	.5793	.1376	176.91	
303.15	.6138	.126	176.95	
303.15	.6345	.1192	176.9	
303.15	.6524	.1131	176.85	
303.15	.6718	.1066	176.74	
303.15	.6946	.0986	176.61	
303.15	.7135	.0921	176.44	

System: benzene + m-chlorotoluene + 1-methyl-2-pyrrolidinone; phases: Liquid
Fixed: Pressure, kPa = 100
Property: Molar heat capacity at constant pressure, J/K/mol (Liquid); method: Small sample (50 mg) scanning calorimetry
Temperature, K	Mole fraction of 1-methyl-2-pyrrolidinone	Mole fraction of benzene	Molar heat capacity at constant pressure, J/K/mol	uncertainty
293.15	.1212	.1671	167.86	
293.15	.1343	.1912	166.6	
293.15	.1426	.2045	165.93	
293.15	.1586	.2489	163.79	
293.15	.1657	.2635	163.15	
293.15	.1976	.6547	146.46	
293.15	.2113	.6638	146.13	
293.15	.2395	.6356	147.06	
293.15	.2544	.6207	147.55	
293.15	.2766	.6145	147.71	
293.15	.2967	.4536	155.77	
293.15	.3116	.4456	156.2	
293.15	.3354	.4123	158.14	
293.15	.3565	.3879	159.6	
293.15	.3708	.3776	160.21	
293.15	.3925	.3212	163.53	
293.15	.4134	.2968	164.91	
293.15	.4315	.2783	165.93	
293.15	.4563	.2557	167.14	
293.15	.4765	.2391	168.01	
293.15	.4958	.2237	168.78	
293.15	.5134	.2104	169.43	
293.15	.5326	.1962	170.1	
293.15	.5543	.1808	170.8	
293.15	.5786	.1636	171.54	
293.15	.5987	.1498	172.11	
293.15	.6127	.1402	172.5	
293.15	.6348	.1252	173.09	
293.15	.6654	.1045	173.87	
293.15	.6812	.0939	174.26	
298.15	.1212	.1671	169.65	
298.15	.1343	.1912	168.41	
298.15	.1426	.2045	167.76	
298.15	.1586	.2489	165.62	
298.15	.1657	.2635	164.98	
298.15	.1976	.6547	148.9	
298.15	.2113	.6638	148.66	
298.15	.2395	.6356	149.75	
298.15	.2544	.6207	150.33	
298.15	.2766	.6145	150.59	
298.15	.2967	.4536	158.25	
298.15	.3116	.4456	158.72	
298.15	.3354	.4123	160.59	
298.15	.3565	.3879	162	
298.15	.3708	.3776	162.61	
298.15	.3925	.3212	165.69	
298.15	.4134	.2968	167.03	
298.15	.4315	.2783	168.02	
298.15	.4563	.2557	169.22	
298.15	.4765	.2391	170.08	
298.15	.4958	.2237	170.85	
298.15	.5134	.2104	171.51	
298.15	.5326	.1962	172.18	
298.15	.5543	.1808	172.89	
298.15	.5786	.1636	173.64	
298.15	.5987	.1498	174.23	
298.15	.6127	.1402	174.62	
298.15	.6348	.1252	175.22	
298.15	.6654	.1045	176.01	
298.15	.6812	.0939	176.4	
303.15	.1212	.1671	171.9	
303.15	.1343	.1912	170.71	
303.15	.1426	.2045	170.09	
303.15	.1586	.2489	167.95	
303.15	.1657	.2635	167.31	
303.15	.1976	.6547	151.31	
303.15	.2113	.6638	151.12	
303.15	.2395	.6356	152.42	
303.15	.2544	.6207	153.1	
303.15	.2766	.6145	153.45	
303.15	.2967	.4536	160.98	
303.15	.3116	.4456	161.5	
303.15	.3354	.4123	163.34	
303.15	.3565	.3879	164.72	
303.15	.3708	.3776	165.33	
303.15	.3925	.3212	168.26	
303.15	.4134	.2968	169.57	
303.15	.4315	.2783	170.56	
303.15	.4563	.2557	171.75	
303.15	.4765	.2391	172.61	
303.15	.4958	.2237	173.38	
303.15	.5134	.2104	174.03	
303.15	.5326	.1962	174.71	
303.15	.5543	.1808	175.41	
303.15	.5786	.1636	176.17	
303.15	.5987	.1498	176.75	
303.15	.6127	.1402	177.14	
303.15	.6348	.1252	177.72	
303.15	.6654	.1045	178.49	
303.15	.6812	.0939	178.86	

System: benzene + p-chlorotoluene + 1-methyl-2-pyrrolidinone; phases: Liquid
Fixed: Pressure, kPa = 100
Property: Molar heat capacity at constant pressure, J/K/mol (Liquid); method: Small sample (50 mg) scanning calorimetry
Temperature, K	Mole fraction of 1-methyl-2-pyrrolidinone	Mole fraction of benzene	Molar heat capacity at constant pressure, J/K/mol	uncertainty
293.15	.1366	.2175	167.49	
293.15	.1517	.236	167.21	
293.15	.1689	.2518	167.19	
293.15	.1987	.2684	167.65	
293.15	.2114	.2726	167.97	
293.15	.2422	.2772	168.87	
293.15	.2588	.2776	169.41	
293.15	.2711	.277	169.82	
293.15	.3012	.2732	170.8	
293.15	.3168	.6005	153	
293.15	.3354	.2664	171.89	
293.15	.3512	.2624	172.35	
293.15	.3826	.2536	173.23	
293.15	.3992	.2486	173.66	
293.15	.4034	.2473	173.77	
293.15	.4233	.2408	174.23	
293.15	.444	.4412	162.38	
293.15	.4612	.4238	163.36	
293.15	.4788	.4066	164.3	
293.15	.4933	.3928	165.02	
293.15	.5135	.3738	166.01	
293.15	.5392	.1986	176.01	
293.15	.5567	.3342	167.91	
293.15	.5712	.3212	168.47	
293.15	.5905	.3038	169.2	
293.15	.6136	.2832	169.97	
293.15	.6289	.2694	170.45	
293.15	.6412	.2582	170.82	
293.15	.6591	.2416	171.33	
293.15	.6706	.231	171.61	
293.15	.6888	.2136	172.05	
293.15	.7012	.2014	172.32	
293.15	.7232	.1786	172.78	
293.15	.7433	.1548	173.22	
298.15	.1366	.2175	168.48	
298.15	.1517	.236	168.07	
298.15	.1689	.2518	167.92	
298.15	.1987	.2684	168.18	
298.15	.2114	.2726	168.42	
298.15	.2422	.2772	169.18	
298.15	.2588	.2776	169.66	
298.15	.2711	.277	170.02	
298.15	.3012	.2732	170.92	
298.15	.3168	.6005	154.15	
298.15	.3354	.2664	171.93	
298.15	.3512	.2624	172.37	
298.15	.3826	.2536	173.22	
298.15	.3992	.2486	173.63	
298.15	.4034	.2473	173.74	
298.15	.4233	.2408	174.19	
298.15	.444	.4412	163.04	
298.15	.4612	.4238	163.99	
298.15	.4788	.4066	164.89	
298.15	.4933	.3928	165.6	
298.15	.5135	.3738	166.55	
298.15	.5392	.1986	176.03	
298.15	.5567	.3342	168.41	
298.15	.5712	.3212	168.97	
298.15	.5905	.3038	169.68	
298.15	.6136	.2832	170.44	
298.15	.6289	.2694	170.92	
298.15	.6412	.2582	171.28	
298.15	.6591	.2416	171.79	
298.15	.6706	.231	172.07	
298.15	.6888	.2136	172.5	
298.15	.7012	.2014	172.78	
298.15	.7232	.1786	173.23	
298.15	.7433	.1548	173.66	
303.15	.1366	.2175	169.48	
303.15	.1517	.236	168.93	
303.15	.1689	.2518	168.64	
303.15	.1987	.2684	168.71	
303.15	.2114	.2726	168.88	
303.15	.2422	.2772	169.5	
303.15	.2588	.2776	169.91	
303.15	.2711	.277	170.23	
303.15	.3012	.2732	171.04	
303.15	.3168	.6005	154.7	
303.15	.3354	.2664	171.99	
303.15	.3512	.2624	172.41	
303.15	.3826	.2536	173.21	
303.15	.3992	.2486	173.62	
303.15	.4034	.2473	173.72	
303.15	.4233	.2408	174.16	
303.15	.444	.4412	163.12	
303.15	.4612	.4238	164.05	
303.15	.4788	.4066	164.94	
303.15	.4933	.3928	165.64	
303.15	.5135	.3738	166.6	
303.15	.5392	.1986	176.04	
303.15	.5567	.3342	168.47	
303.15	.5712	.3212	169.03	
303.15	.5905	.3038	169.77	
303.15	.6136	.2832	170.55	
303.15	.6289	.2694	171.04	
303.15	.6412	.2582	171.42	
303.15	.6591	.2416	171.95	
303.15	.6706	.231	172.24	
303.15	.6888	.2136	172.7	
303.15	.7012	.2014	172.99	
303.15	.7232	.1786	173.48	
303.15	.7433	.1548	173.94	
