Measured thermophysical data. Application of the NRTL method to correlate solubility of diosgenin
Source: J. Chem. Thermodyn., 2014, 10.1016/j.jct.2013.12.020
Compound 1: diosgenin, C27H42O3, purity 99%
Compound 2: 1-hexanol, C6H14O, purity 98.5%
Compound 3: 1-heptanol, C7H16O, purity 99.5%

System: diosgenin; phases: Crystal, Liquid, Air at 1 atmosphere
Property: Normal melting temperature, K (Crystal); method: DSC/DTA
Normal melting temperature, K	uncertainty
480.24	

System: diosgenin; phases: Crystal, Liquid, Air at 1 atmosphere
Property: Molar enthalpy of transition or fusion, kJ/mol (Crystal); method: DSC/DTA
Molar enthalpy of transition or fusion, kJ/mol	uncertainty
34.0642	

System: 1-hexanol + diosgenin; phases: Liquid, Crystal
Fixed: Pressure, kPa = 101
Property: Mole fraction of diosgenin (Liquid); method: laser monitoring observation technique
Temperature, K	Mole fraction of diosgenin	uncertainty
300.15	.008063	.00016126
303.35	.008748	.00017496
305.45	.009051	.00018102
308.15	.009566	.00019132
309.9	.010124	.00020248
312.12	.010687	.00021374
312.46	.011273	.00022546
313.79	.011939	.00023878
315.8	.012601	.00025202
317.35	.0132	.000264
319.26	.013941	.00027882
320.77	.014705	.0002941
321.95	.015424	.00030848
323.95	.016112	.00032224
325.05	.016714	.00033428
326.2	.017371	.00034742
327.95	.018077	.00036154
329.6	.018785	.0003757

System: 1-heptanol + diosgenin; phases: Liquid, Crystal
Fixed: Pressure, kPa = 101
Property: Mole fraction of diosgenin (Liquid); method: laser monitoring observation technique
Temperature, K	Mole fraction of diosgenin	uncertainty
302.26	.008799	.00017598
305.45	.009591	.00019182
307.65	.010087	.00020174
309.9	.010635	.0002127
312.12	.011192	.00022384
312.46	.01193	.0002386
314.11	.012572	.00025144
315.8	.013273	.00026546
317.75	.014	.00028
320.05	.014728	.00029456
321.07	.015522	.00031044
323.22	.016313	.00032626
324.65	.017126	.00034252
325.35	.017912	.00035824
327.45	.018757	.00037514
328.51	.019559	.00039118
329.6	.020227	.00040454
