Measured thermophysical data. Thermodynamics of fusion and sublimation for a homologous series of eleven alkane-.alpha.,.omega.-diols HO-(CH2)n-OH: Structure-related odd even effect
Source: J. Chem. Thermodyn., 2014, 10.1016/j.jct.2013.08.019
Compound 1: 1,6-hexanediol, C6H14O2, purity 99%
Compound 2: 1,7-heptanediol, C7H16O2, purity 98%
Compound 3: 1,8-octanediol, C8H18O2, purity 98%
Compound 4: 1,9-nonanediol, C9H20O2, purity 98%
Compound 5: 1,10-decanediol, C10H22O2, purity 98%
Compound 6: 1,11-undecanediol, C11H24O2
Compound 7: 1,12-dodecanediol, C12H26O2, purity 99%
Compound 8: 1,13-tridecanediol, C13H28O2
Compound 9: 1,14-tetradecanediol, C14H30O2, purity 98.8%
Compound 10: 1,15-pentadecanediol, C15H32O2
Compound 11: 1,16-hexadecanediol, C16H34O2, purity 98%

System: 1,6-hexanediol; phases: Crystal, Liquid, Air at 1 atmosphere
Property: Normal melting temperature, K (Crystal); method: DSC/DTA
Normal melting temperature, K	uncertainty
314.7	.25176

System: 1,6-hexanediol; phases: Crystal, Liquid, Air at 1 atmosphere
Property: Molar enthalpy of transition or fusion, kJ/mol (Crystal); method: DSC/DTA
Molar enthalpy of transition or fusion, kJ/mol	uncertainty
26.4	.066

System: 1,7-heptanediol; phases: Crystal, Liquid, Air at 1 atmosphere
Property: Normal melting temperature, K (Crystal); method: DSC/DTA
Normal melting temperature, K	uncertainty
290.5	.2324

System: 1,7-heptanediol; phases: Crystal, Liquid, Air at 1 atmosphere
Property: Molar enthalpy of transition or fusion, kJ/mol (Crystal); method: DSC/DTA
Molar enthalpy of transition or fusion, kJ/mol	uncertainty
26.3	.06575

System: 1,8-octanediol; phases: Crystal, Liquid, Air at 1 atmosphere
Property: Normal melting temperature, K (Crystal); method: DSC/DTA
Normal melting temperature, K	uncertainty
331.6	.26528

System: 1,8-octanediol; phases: Crystal, Liquid, Air at 1 atmosphere
Property: Molar enthalpy of transition or fusion, kJ/mol (Crystal); method: DSC/DTA
Molar enthalpy of transition or fusion, kJ/mol	uncertainty
36.3	.09075

System: 1,9-nonanediol; phases: Crystal, Liquid, Air at 1 atmosphere
Property: Normal melting temperature, K (Crystal); method: DSC/DTA
Normal melting temperature, K	uncertainty
318.7	.25496

System: 1,9-nonanediol; phases: Crystal, Liquid, Air at 1 atmosphere
Property: Molar enthalpy of transition or fusion, kJ/mol (Crystal); method: DSC/DTA
Molar enthalpy of transition or fusion, kJ/mol	uncertainty
36.7	.09175

System: 1,10-decanediol; phases: Crystal, Liquid, Air at 1 atmosphere
Property: Normal melting temperature, K (Crystal); method: DSC/DTA
Normal melting temperature, K	uncertainty
345.8	.27664

System: 1,10-decanediol; phases: Crystal, Liquid, Air at 1 atmosphere
Property: Molar enthalpy of transition or fusion, kJ/mol (Crystal); method: DSC/DTA
Molar enthalpy of transition or fusion, kJ/mol	uncertainty
45	.1125

System: 1,11-undecanediol; phases: Crystal, Liquid, Air at 1 atmosphere
Property: Normal melting temperature, K (Crystal); method: DSC/DTA
Normal melting temperature, K	uncertainty
334.1	.26728

System: 1,11-undecanediol; phases: Crystal, Liquid, Air at 1 atmosphere
Property: Molar enthalpy of transition or fusion, kJ/mol (Crystal); method: DSC/DTA
Molar enthalpy of transition or fusion, kJ/mol	uncertainty
45.9	.11475

System: 1,12-dodecanediol; phases: Crystal, Liquid, Air at 1 atmosphere
Property: Normal melting temperature, K (Crystal); method: DSC/DTA
Normal melting temperature, K	uncertainty
352.9	.28232

System: 1,12-dodecanediol; phases: Crystal, Liquid, Air at 1 atmosphere
Property: Molar enthalpy of transition or fusion, kJ/mol (Crystal); method: DSC/DTA
Molar enthalpy of transition or fusion, kJ/mol	uncertainty
54.2	.1355

System: 1,13-tridecanediol; phases: Crystal 1, Liquid, Air at 1 atmosphere
Property: Normal melting temperature, K (Crystal 1); method: DSC/DTA
Normal melting temperature, K	uncertainty
350.3	.28024

System: 1,13-tridecanediol; phases: Crystal 2, Liquid, Air at 1 atmosphere
Property: Molar enthalpy of transition or fusion, kJ/mol (Crystal 2); method: DSC/DTA
Molar enthalpy of transition or fusion, kJ/mol	uncertainty
54.8	.137

System: 1,13-tridecanediol; phases: Crystal 2, Crystal 1, Air at 1 atmosphere
Property: Triple point temperature, K (Crystal 2); method: DSC/DTA
Triple point temperature, K	uncertainty
339.3	.27144

System: 1,14-tetradecanediol; phases: Crystal, Liquid, Air at 1 atmosphere
Property: Normal melting temperature, K (Crystal); method: DSC/DTA
Normal melting temperature, K	uncertainty
359.2	.28736

System: 1,14-tetradecanediol; phases: Crystal, Liquid, Air at 1 atmosphere
Property: Molar enthalpy of transition or fusion, kJ/mol (Crystal); method: DSC/DTA
Molar enthalpy of transition or fusion, kJ/mol	uncertainty
63.5	.15875

System: 1,15-pentadecanediol; phases: Crystal 1, Liquid, Air at 1 atmosphere
Property: Normal melting temperature, K (Crystal 1); method: DSC/DTA
Normal melting temperature, K	uncertainty
361.2	.28896

System: 1,15-pentadecanediol; phases: Crystal 2, Liquid, Air at 1 atmosphere
Property: Molar enthalpy of transition or fusion, kJ/mol (Crystal 2); method: DSC/DTA
Molar enthalpy of transition or fusion, kJ/mol	uncertainty
65.3	.16325

System: 1,15-pentadecanediol; phases: Crystal 2, Crystal 1, Air at 1 atmosphere
Property: Triple point temperature, K (Crystal 2); method: DSC/DTA
Triple point temperature, K	uncertainty
349	.2792

System: 1,15-pentadecanediol; phases: Crystal 2, Crystal 1, Air at 1 atmosphere
Property: Molar enthalpy of transition or fusion, kJ/mol (Crystal 2); method: DSC/DTA
Molar enthalpy of transition or fusion, kJ/mol	uncertainty
38.3	.09575

System: 1,16-hexadecanediol; phases: Crystal 1, Liquid, Air at 1 atmosphere
Property: Normal melting temperature, K (Crystal 1); method: DSC/DTA
Normal melting temperature, K	uncertainty
366	.2928

System: 1,16-hexadecanediol; phases: Crystal 2, Liquid, Air at 1 atmosphere
Property: Molar enthalpy of transition or fusion, kJ/mol (Crystal 2); method: DSC/DTA
Molar enthalpy of transition or fusion, kJ/mol	uncertainty
72.8	.182

System: 1,16-hexadecanediol; phases: Crystal 2, Crystal 1, Air at 1 atmosphere
Property: Triple point temperature, K (Crystal 2); method: DSC/DTA
Triple point temperature, K	uncertainty
364.1	.29128
