Measured thermophysical data. Dielectric properties of binary mixtures of three butanediols with 1,4-dioxane and 2-ethyl-1-hexanol at T = 298.2 K
Source: J. Chem. Thermodyn., 2010, 10.1016/j.jct.2010.03.011
Compound 1: .alpha.-methyltrimethyleneglycol, C4H10O2
Compound 2: butane, 1,4-dihydroxy-, C4H10O2
Compound 3: 2,3-butanediol, C4H10O2
Compound 4: 2-ethyl-1-hexanol, C8H18O
Compound 5: dioxane, C4H8O2

System: .alpha.-methyltrimethyleneglycol; phases: Liquid
Fixed: Pressure, kPa = 101.325
Property: Relative permittivity at various frequencies (Liquid); method: Parallel plate capacitor
Frequency, MHz	Temperature, K	Relative permittivity at various frequencies	uncertainty
.1	298.2	28.692	.005

System: .alpha.-methyltrimethyleneglycol; phases: Liquid
Fixed: Pressure, kPa = 101.325
Property: Refractive index (Na D-line) (Liquid); method: Standard Abbe refractometry
Temperature, K	Refractive index (Na D-line)	uncertainty
298.2	1.4383	.0001

System: .alpha.-methyltrimethyleneglycol; phases: Liquid
Property: Mass density, kg/m3 (Liquid); method: Vibrating tube method
Temperature, K	Pressure, kPa	Mass density, kg/m3	uncertainty
298.2	101	1001.22	.01

System: butane, 1,4-dihydroxy-; phases: Liquid
Fixed: Pressure, kPa = 101.325
Property: Relative permittivity at various frequencies (Liquid); method: Parallel plate capacitor
Frequency, MHz	Temperature, K	Relative permittivity at various frequencies	uncertainty
.1	298.2	31.539	.005

System: butane, 1,4-dihydroxy-; phases: Liquid
Fixed: Pressure, kPa = 101.325
Property: Refractive index (Na D-line) (Liquid); method: Standard Abbe refractometry
Temperature, K	Refractive index (Na D-line)	uncertainty
298.2	1.4447	.0001

System: butane, 1,4-dihydroxy-; phases: Liquid
Property: Mass density, kg/m3 (Liquid); method: Vibrating tube method
Temperature, K	Pressure, kPa	Mass density, kg/m3	uncertainty
298.2	101	1013.45	.01

System: 2,3-butanediol; phases: Liquid
Fixed: Pressure, kPa = 101.325
Property: Relative permittivity at various frequencies (Liquid); method: Parallel plate capacitor
Frequency, MHz	Temperature, K	Relative permittivity at various frequencies	uncertainty
.1	298.2	21.282	.005

System: 2,3-butanediol; phases: Liquid
Fixed: Pressure, kPa = 101.325
Property: Refractive index (Na D-line) (Liquid); method: Standard Abbe refractometry
Temperature, K	Refractive index (Na D-line)	uncertainty
298.2	1.4348	.0001

System: 2,3-butanediol; phases: Liquid
Property: Mass density, kg/m3 (Liquid); method: Vibrating tube method
Temperature, K	Pressure, kPa	Mass density, kg/m3	uncertainty
298.2	101	994.31	.01

System: 2-ethyl-1-hexanol; phases: Liquid
Fixed: Pressure, kPa = 101.325
Property: Relative permittivity at various frequencies (Liquid); method: Parallel plate capacitor
Frequency, MHz	Temperature, K	Relative permittivity at various frequencies	uncertainty
.1	298.2	7.611	.005

System: 2-ethyl-1-hexanol; phases: Liquid
Fixed: Pressure, kPa = 101.325
Property: Refractive index (Na D-line) (Liquid); method: Standard Abbe refractometry
Temperature, K	Refractive index (Na D-line)	uncertainty
298.2	1.4293	.0001

System: 2-ethyl-1-hexanol; phases: Liquid
Property: Mass density, kg/m3 (Liquid); method: Vibrating tube method
Temperature, K	Pressure, kPa	Mass density, kg/m3	uncertainty
298.2	101	830.62	.01

System: dioxane + 2,3-butanediol; phases: Liquid
Fixed: Frequency, MHz = .1
Fixed: Temperature, K = 298.2
Property: Relative permittivity at various frequencies (Liquid); method: Parallel plate capacitor
Mole fraction of 2,3-butanediol	Relative permittivity at various frequencies	uncertainty
.03	2.386	.005
.096	2.798	.005
.19	3.592	.005
.29	4.778	.005
.38	5.985	.005
.488	7.881	.005
.6	10.205	.005
.69	12.277	.005
.82	16.001	.005
.9	18.397	.005

System: dioxane + 2,3-butanediol; phases: Liquid
Fixed: Pressure, kPa = 101
Fixed: Temperature, K = 298.2
Property: Refractive index (Na D-line) (Liquid); method: Standard Abbe refractometry
Mole fraction of 2,3-butanediol	Refractive index (Na D-line)	uncertainty
.03	1.4205	.0001
.096	1.4212	.0001
.19	1.4223	.0001
.29	1.4235	.0001
.38	1.4249	.0001
.488	1.4264	.0001
.6	1.4281	.0001
.69	1.4294	.0001
.82	1.4316	.0001
.9	1.433	.0001

System: butane, 1,4-dihydroxy- + dioxane; phases: Liquid
Fixed: Frequency, MHz = .1
Fixed: Temperature, K = 298.2
Property: Relative permittivity at various frequencies (Liquid); method: Parallel plate capacitor
Mole fraction of butane, 1,4-dihydroxy-	Relative permittivity at various frequencies	uncertainty
.029	2.525	.005
.098	3.353	.005
.2	4.916	.005
.293	6.656	.005
.4	8.798	.005
.491	11.193	.005
.6	14.491	.005
.693	17.889	.005
.8	21.914	.005
.9	26.541	.005

System: butane, 1,4-dihydroxy- + dioxane; phases: Liquid
Fixed: Pressure, kPa = 101
Fixed: Temperature, K = 298.2
Property: Refractive index (Na D-line) (Liquid); method: Standard Abbe refractometry
Mole fraction of butane, 1,4-dihydroxy-	Refractive index (Na D-line)	uncertainty
.029	1.4207	.0001
.098	1.422	.0001
.2	1.4243	.0001
.293	1.4263	.0001
.4	1.4288	.0001
.491	1.4311	.0001
.6	1.434	.0001
.693	1.4363	.0001
.8	1.4392	.0001
.9	1.4418	.0001

System: .alpha.-methyltrimethyleneglycol + dioxane; phases: Liquid
Fixed: Frequency, MHz = .1
Fixed: Temperature, K = 298.2
Property: Relative permittivity at various frequencies (Liquid); method: Parallel plate capacitor
Mole fraction of .alpha.-methyltrimethyleneglycol	Relative permittivity at various frequencies	uncertainty
.029	2.488	.005
.098	3.231	.005
.2	4.644	.005
.293	6.316	.005
.4	8.425	.005
.491	10.465	.005
.6	13.528	.005
.693	16.725	.005
.8	20.583	.005
.9	24.335	.005

System: .alpha.-methyltrimethyleneglycol + dioxane; phases: Liquid
Fixed: Pressure, kPa = 101
Fixed: Temperature, K = 298.2
Property: Refractive index (Na D-line) (Liquid); method: Standard Abbe refractometry
Mole fraction of .alpha.-methyltrimethyleneglycol	Refractive index (Na D-line)	uncertainty
.029	1.4206	.0001
.098	1.4217	.0001
.2	1.4233	.0001
.293	1.4251	.0001
.4	1.4265	.0001
.491	1.4282	.0001
.6	1.4301	.0001
.693	1.4319	.0001
.8	1.4343	.0001
.9	1.4362	.0001

System: 2-ethyl-1-hexanol + 2,3-butanediol; phases: Liquid
Fixed: Frequency, MHz = .1
Fixed: Temperature, K = 298.2
Property: Relative permittivity at various frequencies (Liquid); method: Parallel plate capacitor
Mole fraction of 2,3-butanediol	Relative permittivity at various frequencies	uncertainty
0	7.611	.005
.1	8.197	.005
.25	9.478	.005
.401	11.075	.005
.499	12.36	.005
.55	13.125	.005
.65	14.659	.005
.75	16.407	.005
.898	19.166	.005
1	21.282	.005

System: 2-ethyl-1-hexanol + 2,3-butanediol; phases: Liquid
Fixed: Pressure, kPa = 101
Fixed: Temperature, K = 298.2
Property: Refractive index (Na D-line) (Liquid); method: Standard Abbe refractometry
Mole fraction of 2,3-butanediol	Refractive index (Na D-line)	uncertainty
0	1.4293	.0001
.1	1.4294	.0001
.25	1.4297	.0001
.401	1.4301	.0001
.499	1.4308	.0001
.55	1.4311	.0001
.65	1.4318	.0001
.75	1.4324	.0001
.898	1.4337	.0001
1	1.4348	.0001

System: 2-ethyl-1-hexanol + 2,3-butanediol; phases: Liquid
Fixed: Temperature, K = 298.2
Fixed: Pressure, kPa = 101
Property: Mass density, kg/m3 (Liquid); method: Vibrating tube method
Mole fraction of 2,3-butanediol	Mass density, kg/m3	uncertainty
0	830.62	.01
.1	837.79	.01
.25	854.38	.01
.401	874.23	.01
.499	890.64	.01
.55	897.94	.01
.65	916.49	.01
.75	934.5	.01
.898	966.52	.01
1	994.31	.01

System: 2-ethyl-1-hexanol + butane, 1,4-dihydroxy-; phases: Liquid
Fixed: Frequency, MHz = .1
Fixed: Temperature, K = 298.2
Property: Relative permittivity at various frequencies (Liquid); method: Parallel plate capacitor
Mole fraction of butane, 1,4-dihydroxy-	Relative permittivity at various frequencies	uncertainty
.099	8.795	.005
.25	11.008	.005
.4	13.706	.005
.5	15.945	.005
.6	18.45	.005
.649	19.741	.005
.749	22.751	.005
.9	27.546	.005
1	31.539	.005

System: 2-ethyl-1-hexanol + butane, 1,4-dihydroxy-; phases: Liquid
Fixed: Pressure, kPa = 101
Fixed: Temperature, K = 298.2
Property: Refractive index (Na D-line) (Liquid); method: Standard Abbe refractometry
Mole fraction of butane, 1,4-dihydroxy-	Refractive index (Na D-line)	uncertainty
.099	1.4299	.0001
.25	1.4313	.0001
.4	1.4329	.0001
.5	1.4343	.0001
.6	1.4358	.0001
.649	1.4368	.0001
.749	1.439	.0001
.9	1.4424	.0001
1	1.4447	.0001

System: 2-ethyl-1-hexanol + butane, 1,4-dihydroxy-; phases: Liquid
Fixed: Temperature, K = 298.2
Fixed: Pressure, kPa = 101
Property: Mass density, kg/m3 (Liquid); method: Vibrating tube method
Mole fraction of butane, 1,4-dihydroxy-	Mass density, kg/m3	uncertainty
.099	840.72	.01
.25	858.3	.01
.4	881.5	.01
.5	897.59	.01
.6	916.55	.01
.649	926.55	.01
.749	948.41	.01
.9	984.92	.01
1	1013.45	.01

System: 2-ethyl-1-hexanol + .alpha.-methyltrimethyleneglycol; phases: Liquid
Fixed: Frequency, MHz = .1
Fixed: Temperature, K = 298.2
Property: Relative permittivity at various frequencies (Liquid); method: Parallel plate capacitor
Mole fraction of .alpha.-methyltrimethyleneglycol	Relative permittivity at various frequencies	uncertainty
.1	8.625	.005
.25	10.605	.005
.401	13.065	.005
.501	15.056	.005
.6	17.255	.005
.649	18.524	.005
.75	21.039	.005
.9	25.228	.005
1	28.692	.005

System: 2-ethyl-1-hexanol + .alpha.-methyltrimethyleneglycol; phases: Liquid
Fixed: Pressure, kPa = 101
Fixed: Temperature, K = 298.2
Property: Refractive index (Na D-line) (Liquid); method: Standard Abbe refractometry
Mole fraction of .alpha.-methyltrimethyleneglycol	Refractive index (Na D-line)	uncertainty
.1	1.4295	.0001
.25	1.4301	.0001
.401	1.431	.0001
.501	1.4318	.0001
.6	1.4329	.0001
.649	1.4334	.0001
.75	1.4346	.0001
.9	1.4367	.0001
1	1.4383	.0001

System: 2-ethyl-1-hexanol + .alpha.-methyltrimethyleneglycol; phases: Liquid
Fixed: Temperature, K = 298.2
Fixed: Pressure, kPa = 101
Property: Mass density, kg/m3 (Liquid); method: Vibrating tube method
Mole fraction of .alpha.-methyltrimethyleneglycol	Mass density, kg/m3	uncertainty
.1	839.88	.01
.25	855.62	.01
.401	875.88	.01
.501	891.81	.01
.6	909.96	.01
.649	919.85	.01
.75	939.91	.01
.9	974.72	.01
1	1001.22	.01
