Measured thermophysical data. Carbon dioxide solubility in 1-ethyl-3-methylimidazolium  trifluoromethanesulfonate
Source: J. Chem. Thermodyn., 2009, 10.1016/j.jct.2008.11.001
Compound 1: 1-butyl-3-methylimidazolium tetrafluoroborate, C8H15BF4N2
Compound 2: 1-ethyl-3-methylimidazolium trifluoromethanesulfonate, C7H11F3N2O3S
Compound 3: carbon dioxide, CO2

System: carbon dioxide + 1-ethyl-3-methylimidazolium trifluoromethanesulfonate; phases: Liquid, Gas
Property: Molality, mol/kg of carbon dioxide (Liquid); method: thermogravimetric microbalance
Pressure, kPa	Temperature, K	Molality, mol/kg of carbon dioxide	uncertainty
180	303.2	.1333	.0001
796	303.2	.5906	.0001
1521	303.2	1.1054	.0001
2764	303.2	1.9903	.0001
4155	303.2	3.0589	.0001
5447	303.2	3.9863	.0001
205	313.2	.0987	.0001
826	313.2	.4013	.0001
1533	313.2	.7337	.0001
2789	313.2	1.3455	.0001
4215	313.2	2.0966	.0001
5571	313.2	2.8243	.0001
230	323.2	.083	.0001
865	323.2	.3091	.0001
1546	323.2	.5629	.0001
2813	323.2	1.0344	.0001
4279	323.2	1.6339	.0001
5671	323.2	2.2489	.0001
254	333.2	.0819	.0001
913	333.2	.297	.0001
1571	333.2	.5176	.0001
2863	333.2	.9657	.0001
4339	333.2	1.4786	.0001
5720	333.2	2.0011	.0001
315	343.2	.0918	.0001
957	343.2	.2827	.0001
1599	343.2	.4816	.0001
2888	343.2	.8839	.0001
4354	343.2	1.3816	.0001
5884	343.2	1.8838	.0001
