Measured thermophysical data. (Liquid + liquid) equilibria for ternary mixtures of (alkane + benzene + [EMpy]  [ESO4]) at several temperatures and atmospheric pressure
Source: J. Chem. Thermodyn., 2009, 10.1016/j.jct.2009.05.008
Compound 1: hexane, C6H14, purity 99%
Compound 2: heptane, C7H16, purity 99.5%
Compound 3: benzene, C6H6, purity 99.8%
Compound 4: 1-ethyl-3-methylpyridinium ethylsulfate, C10H17NO4S, purity 99%

System: 1-ethyl-3-methylpyridinium ethylsulfate; phases: Liquid
Fixed: Pressure, kPa = 101.325
Property: Mass density, kg/m3 (Liquid); method: Vibrating tube method
Temperature, K	Mass density, kg/m3	uncertainty
298.15	1219.61	.026

System: 1-ethyl-3-methylpyridinium ethylsulfate; phases: Liquid
Fixed: Pressure, kPa = 101.325
Property: Refractive index (Na D-line) (Liquid); method: Standard Abbe refractometry
Temperature, K	Refractive index (Na D-line)	uncertainty
298.15	1.50591	.00004

System: benzene + hexane + 1-ethyl-3-methylpyridinium ethylsulfate; phases: Liquid
Fixed: Temperature, K = 313.15
Fixed: Pressure, kPa = 101
Property: Mass density, kg/m3 (Liquid); method: Vibrating tube method
Mole fraction of hexane	Mole fraction of benzene	Mass density, kg/m3	uncertainty
.0133	.0469	1202.55	.026
.0255	.047	1202.12	.026
.0129	.0981	1195.97	.026
.0198	.0976	1195.48	.026
.0144	.1468	1188.51	.026
.0059	.1983	1180.36	.026
.0074	.2457	1172.16	.026
.004	.2452	1173.27	.026
.0018	.333	1157.28	.026
.011	.0224	1205.7	.026
.0224	.0224	1205.04	.026
.0118	.1189	1191.81	.026
.0224	.1177	1190.2	.026
.0116	.1658	1185.83	.026
.0224	.1642	1184.05	.026
.0114	.2176	1176.99	.026
.0224	.2166	1176.75	.026
.0105	.2705	1167.68	.026
.0105	.3176	1159.02	.026
.0102	.3677	1147.95	.026

System: benzene + hexane + 1-ethyl-3-methylpyridinium ethylsulfate; phases: Liquid
Fixed: Temperature, K = 313.15
Fixed: Pressure, kPa = 101
Property: Refractive index (Na D-line) (Liquid); method: Standard Abbe refractometry
Mole fraction of hexane	Mole fraction of benzene	Refractive index (Na D-line)	uncertainty
.0133	.0469	1.5017	.00004
.0255	.047	1.50168	.00004
.0129	.0981	1.50207	.00004
.0198	.0976	1.50199	.00004
.0144	.1468	1.50238	.00004
.0059	.1983	1.5026	.00004
.0074	.2457	1.50287	.00004
.004	.2452	1.50286	.00004
.0018	.333	1.50331	.00004
.011	.0224	1.50162	.00004
.0224	.0224	1.50147	.00004
.0118	.1189	1.50202	.00004
.0224	.1177	1.50162	.00004
.0116	.1658	1.50223	.00004
.0224	.1642	1.50198	.00004
.0114	.2176	1.50241	.00004
.0224	.2166	1.50212	.00004
.0105	.2705	1.50261	.00004
.0105	.3176	1.50288	.00004
.0102	.3677	1.50311	.00004

System: benzene + hexane + 1-ethyl-3-methylpyridinium ethylsulfate; phases: Liquid
Fixed: Temperature, K = 313.15
Fixed: Pressure, kPa = 101
Property: Speed of sound, m/s (Liquid); method: Sing-around technique in a fixed-path interferometer
Mole fraction of hexane	Mole fraction of benzene	Speed of sound, m/s	uncertainty
.0133	.0469	1642	.3
.0255	.047	1641.1	.3
.0129	.0981	1632.2	.3
.0198	.0976	1631.4	.3
.0144	.1468	1621	.3
.0059	.1983	1609	.3
.0074	.2457	1597	.3
.004	.2452	1598.6	.3
.0018	.333	1575.3	.3
.011	.0224	1646.4	.3
.0224	.0224	1645.2	.3
.0118	.1189	1625.9	.3
.0224	.1177	1622.6	.3
.0116	.1658	1617.1	.3
.0224	.1642	1613.6	.3
.0114	.2176	1603.9	.3
.0224	.2166	1602.9	.3
.0105	.2705	1590.1	.3
.0105	.3176	1576.9	.3
.0102	.3677	1559.9	.3

System: benzene + hexane + 1-ethyl-3-methylpyridinium ethylsulfate; phases: Liquid mixture 1, Liquid mixture 2
Property: Mole fraction of hexane (Liquid mixture 1); method: Density calibration data
Property: Mole fraction of benzene (Liquid mixture 2); method: Density calibration data
Property: Mole fraction of hexane (Liquid mixture 2); method: Density calibration data
Temperature, K	Pressure, kPa	Mole fraction of benzene	Mole fraction of hexane	uncertainty	Mole fraction of benzene	uncertainty	Mole fraction of hexane	uncertainty
283.15	101.3	.051	.949	.006	.051	.006	.025	.006
283.15	101.3	.108	.892	.006	.102	.006	.024	.006
283.15	101.3	.17	.831	.006	.15	.006	.024	.006
283.15	101.3	.235	.765	.006	.196	.006	.023	.006
283.15	101.3	.263	.737	.006	.215	.006	.023	.006
283.15	101.3	.367	.633	.006	.277	.006	.021	.006
283.15	101.3	.425	.575	.006	.303	.006	.021	.006
283.15	101.3	.493	.507	.006	.342	.006	.019	.006
283.15	101.3	.626	.374	.006	.403	.006	.014	.006
283.15	101.3	.769	.231	.006	.472	.006	.009	.006
293.15	101.3	.049	.951	.006	.049	.006	.033	.006
293.15	101.3	.103	.897	.006	.095	.006	.031	.006
293.15	101.3	.168	.832	.006	.149	.006	.03	.006
293.15	101.3	.239	.761	.006	.19	.006	.026	.006
293.15	101.3	.271	.729	.006	.211	.006	.026	.006
293.15	101.3	.3	.7	.006	.23	.006	.025	.006
293.15	101.3	.372	.628	.006	.269	.006	.023	.006
293.15	101.3	.425	.576	.006	.295	.006	.022	.006
293.15	101.3	.488	.512	.006	.327	.006	.019	.006
293.15	101.3	.573	.427	.006	.37	.006	.016	.006
293.15	101.3	.641	.359	.006	.4	.006	.014	.006
293.15	101.3	.78	.22	.006	.466	.006	.009	.006
293.15	101.3	.846	.154	.006	.499	.006	.007	.006
298.15	101.3	.05	.95	.006	.047	.006	.033	.006
298.15	101.3	.104	.896	.006	.094	.006	.031	.006
298.15	101.3	.168	.832	.006	.14	.006	.029	.006
298.15	101.3	.24	.76	.006	.188	.006	.028	.006
298.15	101.3	.272	.728	.006	.209	.006	.027	.006
298.15	101.3	.357	.643	.006	.257	.006	.023	.006
298.15	101.3	.427	.573	.006	.295	.006	.02	.006
298.15	101.3	.485	.515	.006	.326	.006	.018	.006
298.15	101.3	.626	.374	.006	.391	.006	.012	.006
298.15	101.3	.804	.196	.006	.475	.006	.006	.006
303.15	101.3	.053	.947	.006	.052	.006	.03	.006
303.15	101.3	.104	.896	.006	.095	.006	.027	.006
303.15	101.3	.174	.826	.006	.145	.006	.025	.006
303.15	101.3	.238	.762	.006	.187	.006	.024	.006
303.15	101.3	.28	.72	.006	.207	.006	.023	.006
303.15	101.3	.364	.636	.006	.254	.006	.021	.006
303.15	101.3	.431	.569	.006	.293	.006	.02	.006
303.15	101.3	.497	.503	.006	.324	.006	.019	.006
303.15	101.3	.652	.348	.006	.394	.006	.013	.006
303.15	101.3	.754	.246	.006	.446	.006	.009	.006

System: benzene + heptane + 1-ethyl-3-methylpyridinium ethylsulfate; phases: Liquid
Fixed: Temperature, K = 313.15
Fixed: Pressure, kPa = 101
Property: Mass density, kg/m3 (Liquid); method: Vibrating tube method
Mole fraction of heptane	Mole fraction of benzene	Mass density, kg/m3	uncertainty
.0022	.0467	1203.13	.026
.0041	.0487	1201.78	.026
.0107	.0481	1201.18	.026
.0114	.0989	1195.1	.026
.0058	.1002	1194.54	.026
.0087	.1005	1194.59	.026
.0018	.1519	1188.02	.026
.0069	.1452	1188	.026
.0089	.1493	1186.26	.026
.0049	.1979	1179.04	.026
.0085	.2005	1178.34	.026
.0035	.2482	1171.71	.026
.0051	.2465	1170.84	.026
.0032	.2923	1163.22	.026
.005	.2991	1161.08	.026
.0018	.39	1143.49	.026

System: benzene + heptane + 1-ethyl-3-methylpyridinium ethylsulfate; phases: Liquid
Fixed: Temperature, K = 313.15
Fixed: Pressure, kPa = 101
Property: Refractive index (Na D-line) (Liquid); method: Standard Abbe refractometry
Mole fraction of heptane	Mole fraction of benzene	Refractive index (Na D-line)	uncertainty
.0022	.0467	1.50191	.00004
.0041	.0487	1.50169	.00004
.0107	.0481	1.50139	.00004
.0114	.0989	1.50202	.00004
.0058	.1002	1.50202	.00004
.0087	.1005	1.50204	.00004
.0018	.1519	1.50258	.00004
.0069	.1452	1.5022	.00004
.0089	.1493	1.50206	.00004
.0049	.1979	1.50248	.00004
.0085	.2005	1.50229	.00004
.0035	.2482	1.50287	.00004
.0051	.2465	1.50289	.00004
.0032	.2923	1.50315	.00004
.005	.2991	1.50305	.00004
.0018	.39	1.50368	.00004

System: benzene + heptane + 1-ethyl-3-methylpyridinium ethylsulfate; phases: Liquid
Fixed: Temperature, K = 313.15
Fixed: Pressure, kPa = 101
Property: Speed of sound, m/s (Liquid); method: Sing-around technique in a fixed-path interferometer
Mole fraction of heptane	Mole fraction of benzene	Speed of sound, m/s	uncertainty
.0022	.0467	1642.8	.3
.0041	.0487	1640.5	.3
.0107	.0481	1639.1	.3
.0114	.0989	1630.7	.3
.0058	.1002	1629.8	.3
.0087	.1005	1629.8	.3
.0018	.1519	1620.7	.3
.0069	.1452	1620.5	.3
.0089	.1493	1617.3	.3
.0049	.1979	1607.2	.3
.0085	.2005	1605.6	.3
.0035	.2482	1595.9	.3
.0051	.2465	1594.7	.3
.0032	.2923	1583.5	.3
.005	.2991	1579.9	.3
.0018	.39	1553.6	.3

System: benzene + heptane + 1-ethyl-3-methylpyridinium ethylsulfate; phases: Liquid mixture 1, Liquid mixture 2
Property: Mole fraction of heptane (Liquid mixture 1); method: Density calibration data
Property: Mole fraction of benzene (Liquid mixture 2); method: Density calibration data
Property: Mole fraction of heptane (Liquid mixture 2); method: Density calibration data
Temperature, K	Pressure, kPa	Mole fraction of benzene	Mole fraction of heptane	uncertainty	Mole fraction of benzene	uncertainty	Mole fraction of heptane	uncertainty
283.15	101.3	.052	.948	.006	.045	.006	.008	.006
283.15	101.3	.163	.837	.006	.128	.006	.008	.006
283.15	101.3	.214	.786	.006	.164	.006	.009	.006
283.15	101.3	.271	.729	.006	.199	.006	.01	.006
283.15	101.3	.324	.676	.006	.231	.006	.01	.006
283.15	101.3	.442	.558	.006	.298	.006	.011	.006
283.15	101.3	.567	.433	.006	.364	.006	.009	.006
283.15	101.3	.697	.303	.006	.431	.006	.007	.006
283.15	101.3	.841	.159	.006	.509	.006	0	.006
298.15	101.3	.051	.949	.006	.042	.006	.01	.006
298.15	101.3	.105	.895	.006	.084	.006	.01	.006
298.15	101.3	.159	.841	.006	.119	.006	.01	.006
298.15	101.3	.213	.787	.006	.156	.006	.01	.006
298.15	101.3	.28	.72	.006	.192	.006	.011	.006
298.15	101.3	.33	.67	.006	.22	.006	.013	.006
298.15	101.3	.448	.552	.006	.285	.006	.013	.006
298.15	101.3	.579	.421	.006	.353	.006	.01	.006
298.15	101.3	.706	.294	.006	.42	.006	.007	.006
298.15	101.3	.842	.158	.006	.497	.006	.004	.006
298.15	101.3	.904	.096	.006	.535	.006	0	.006
