Measured thermophysical data. Study of solute solute and solute solvent interactions of L-threonine  in aqueous-glucose solutions at different temperatures by using  volumetric and viscometric methods
Source: J. Chem. Thermodyn., 2013, 10.1016/j.jct.2013.01.008
Compound 1: L-threonine, C4H9NO3
Compound 2: glucose, C6H12O6, purity 99.9%
Compound 3: water, H2O

System: water; phases: Liquid
Property: Mass density, kg/m3 (Liquid); method: Pycnometric method
Temperature, K	Pressure, kPa	Mass density, kg/m3	uncertainty
293.15	101	998.24	.02
298.15	101	997.07	.02
303.15	101	995.68	.02
308.15	101	994.07	.02
313.15	101	992.25	.02
318.15	101	990.24	.02

System: water; phases: Liquid
Property: Viscosity, Pa*s (Liquid); method: Capillary tube (Ostwald; Ubbelohde) method
Temperature, K	Pressure, kPa	Viscosity, Pa*s	uncertainty
298.15	101	.0008903	
303.15	101	.0007973	
308.15	101	.000719	
313.15	101	.0006526	
318.15	101	.0005972	

System: L-threonine + water; phases: Liquid
Fixed: Pressure, kPa = 101
Property: Mass density, kg/m3 (Liquid); method: Pycnometric method
Temperature, K	Molality, mol/kg of L-threonine	Mass density, kg/m3	uncertainty
293.15	0	998.24	.02
293.15	.025	999.31	.02
293.15	.05	1000.36	.02
293.15	.075	1001.39	.02
293.15	.0999	1002.41	.02
293.15	.1249	1003.41	.02
293.15	.15	1004.39	.02
293.15	.175	1005.36	.02
293.15	.2	1006.31	.02
298.15	0	997.07	.02
298.15	.025	998.14	.02
298.15	.05	999.18	.02
298.15	.075	1000.22	.02
298.15	.0999	1001.23	.02
298.15	.1249	1002.23	.02
298.15	.15	1003.21	.02
298.15	.175	1004.18	.02
298.15	.2	1005.12	.02
303.15	0	995.68	.02
303.15	.025	996.75	.02
303.15	.05	997.8	.02
303.15	.075	998.83	.02
303.15	.0999	999.84	.02
303.15	.1249	1000.83	.02
303.15	.15	1001.83	.02
303.15	.175	1002.79	.02
303.15	.2	1003.74	.02
308.15	0	994.07	.02
308.15	.025	995.14	.02
308.15	.05	996.19	.02
308.15	.075	997.23	.02
308.15	.0999	998.24	.02
308.15	.1249	999.24	.02
308.15	.15	1000.23	.02
308.15	.175	1001.2	.02
308.15	.2	1002.15	.02
313.15	0	992.25	.02
313.15	.025	993.32	.02
313.15	.05	994.38	.02
313.15	.075	995.42	.02
313.15	.0999	996.44	.02
313.15	.1249	997.44	.02
313.15	.15	998.43	.02
313.15	.175	999.4	.02
313.15	.2	1000.35	.02
318.15	0	990.24	.02
318.15	.025	991.32	.02
318.15	.05	992.38	.02
318.15	.075	993.42	.02
318.15	.0999	994.45	.02
318.15	.1249	995.46	.02
318.15	.15	996.45	.02
318.15	.175	997.43	.02
318.15	.2	998.39	.02

System: L-threonine + water; phases: Liquid
Fixed: Pressure, kPa = 101
Property: Viscosity, Pa*s (Liquid); method: Capillary tube (Ostwald; Ubbelohde) method
Temperature, K	Molality, mol/kg of L-threonine	Viscosity, Pa*s	uncertainty
298.15	0	.0008903	
298.15	.025	.0008981	
298.15	.05	.0009057	
298.15	.075	.0009134	
298.15	.0999	.0009211	
298.15	.1249	.0009286	
298.15	.15	.000936	
298.15	.175	.0009434	
298.15	.2	.0009511	
303.15	0	.0007973	
303.15	.025	.0008051	
303.15	.05	.0008128	
303.15	.075	.0008205	
303.15	.0999	.000828	
303.15	.1249	.0008358	
303.15	.15	.0008434	
303.15	.175	.000851	
303.15	.2	.0008584	
308.15	0	.000719	
308.15	.025	.0007266	
308.15	.05	.0007344	
308.15	.075	.0007421	
308.15	.0999	.0007496	
308.15	.1249	.0007571	
308.15	.15	.0007645	
308.15	.175	.0007719	
308.15	.2	.0007792	
313.15	0	.0006526	
313.15	.025	.00066	
313.15	.05	.0006678	
313.15	.075	.0006754	
313.15	.0999	.0006828	
313.15	.1249	.0006901	
313.15	.15	.0006974	
313.15	.175	.0007047	
313.15	.2	.0007119	
318.15	0	.0005972	
318.15	.025	.0006044	
318.15	.05	.0006121	
318.15	.075	.0006196	
318.15	.0999	.0006269	
318.15	.1249	.0006341	
318.15	.15	.0006413	
318.15	.175	.0006485	
318.15	.2	.0006556	

System: glucose + L-threonine + water; phases: Liquid
Fixed: Pressure, kPa = 101
Property: Mass density, kg/m3 (Liquid); method: Pycnometric method
Temperature, K	Molality, mol/kg of L-threonine	Solvent: Mass fraction of glucose	Mass density, kg/m3	uncertainty
293.15	0	.05	1016.28	.02
293.15	.0249	.05	1017.25	.02
293.15	.0499	.05	1018.2	.02
293.15	.0749	.05	1019.13	.02
293.15	.0999	.05	1020.05	.02
293.15	.1249	.05	1020.95	.02
293.15	.1499	.05	1021.84	.02
293.15	.1749	.05	1022.71	.02
293.15	.1999	.05	1023.56	.02
298.15	0	.05	1014.69	.02
298.15	.0249	.05	1015.66	.02
298.15	.0499	.05	1016.6	.02
298.15	.0749	.05	1017.54	.02
298.15	.0999	.05	1018.45	.02
298.15	.1249	.05	1019.35	.02
298.15	.1499	.05	1020.24	.02
298.15	.1749	.05	1021.1	.02
298.15	.1999	.05	1021.95	.02
303.15	0	.05	1013.08	.02
303.15	.0249	.05	1014.05	.02
303.15	.0499	.05	1015	.02
303.15	.0749	.05	1015.93	.02
303.15	.0999	.05	1016.84	.02
303.15	.1249	.05	1017.74	.02
303.15	.1499	.05	1018.63	.02
303.15	.1749	.05	1019.49	.02
303.15	.1999	.05	1020.34	.02
308.15	0	.05	1011.47	.02
308.15	.0249	.05	1012.44	.02
308.15	.0499	.05	1013.39	.02
308.15	.0749	.05	1014.32	.02
308.15	.0999	.05	1015.24	.02
308.15	.1249	.05	1016.14	.02
308.15	.1499	.05	1017.02	.02
308.15	.1749	.05	1017.89	.02
308.15	.1999	.05	1018.74	.02
313.15	0	.05	1009.85	.02
313.15	.0249	.05	1010.82	.02
313.15	.0499	.05	1011.77	.02
313.15	.0749	.05	1012.71	.02
313.15	.0999	.05	1013.62	.02
313.15	.1249	.05	1014.52	.02
313.15	.1499	.05	1015.41	.02
313.15	.1749	.05	1016.28	.02
313.15	.1999	.05	1017.13	.02
318.15	0	.05	1008.21	.02
318.15	.0249	.05	1009.18	.02
318.15	.0499	.05	1010.14	.02
318.15	.0749	.05	1011.07	.02
318.15	.0999	.05	1011.99	.02
318.15	.1249	.05	1012.89	.02
318.15	.1499	.05	1013.78	.02
318.15	.1749	.05	1014.65	.02
318.15	.1999	.05	1015.5	.02
293.15	0	.1	1034.79	.02
293.15	.0249	.1	1035.66	.02
293.15	.0499	.1	1036.53	.02
293.15	.0749	.1	1037.37	.02
293.15	.0999	.1	1038.21	.02
293.15	.1249	.1	1039.03	.02
293.15	.1499	.1	1039.84	.02
293.15	.1749	.1	1040.64	.02
293.15	.1999	.1	1041.43	.02
298.15	0	.1	1033.15	.02
298.15	.0249	.1	1034.02	.02
298.15	.0499	.1	1034.88	.02
298.15	.0749	.1	1035.73	.02
298.15	.0999	.1	1036.56	.02
298.15	.1249	.1	1037.39	.02
298.15	.1499	.1	1038.2	.02
298.15	.1749	.1	1039	.02
298.15	.1999	.1	1039.78	.02
303.15	0	.1	1031.5	.02
303.15	.0249	.1	1032.37	.02
303.15	.0499	.1	1033.23	.02
303.15	.0749	.1	1034.08	.02
303.15	.0999	.1	1034.91	.02
303.15	.1249	.1	1035.73	.02
303.15	.1499	.1	1036.54	.02
303.15	.1749	.1	1037.34	.02
303.15	.1999	.1	1038.13	.02
308.15	0	.1	1029.84	.02
308.15	.0249	.1	1030.71	.02
308.15	.0499	.1	1031.57	.02
308.15	.0749	.1	1032.42	.02
308.15	.0999	.1	1033.25	.02
308.15	.1249	.1	1034.08	.02
308.15	.1499	.1	1034.89	.02
308.15	.1749	.1	1035.69	.02
308.15	.1999	.1	1036.48	.02
313.15	0	.1	1028.17	.02
313.15	.0249	.1	1029.04	.02
313.15	.0499	.1	1029.9	.02
313.15	.0749	.1	1030.76	.02
313.15	.0999	.1	1031.59	.02
313.15	.1249	.1	1032.41	.02
313.15	.1499	.1	1033.23	.02
313.15	.1749	.1	1034.03	.02
313.15	.1999	.1	1034.82	.02
318.15	0	.1	1026.48	.02
318.15	.0249	.1	1027.36	.02
318.15	.0499	.1	1028.22	.02
318.15	.0749	.1	1029.07	.02
318.15	.0999	.1	1029.91	.02
318.15	.1249	.1	1030.73	.02
318.15	.1499	.1	1031.55	.02
318.15	.1749	.1	1032.35	.02
318.15	.1999	.1	1033.14	.02
293.15	0	.15	1053.29	.02
293.15	.0249	.15	1054.08	.02
293.15	.0499	.15	1054.86	.02
293.15	.0749	.15	1055.63	.02
293.15	.0999	.15	1056.39	.02
293.15	.1249	.15	1057.15	.02
293.15	.1499	.15	1057.89	.02
293.15	.1749	.15	1058.63	.02
293.15	.1999	.15	1059.35	.02
298.15	0	.15	1051.61	.02
298.15	.0249	.15	1052.39	.02
298.15	.0499	.15	1053.17	.02
298.15	.0749	.15	1053.94	.02
298.15	.0999	.15	1054.7	.02
298.15	.1249	.15	1055.46	.02
298.15	.1499	.15	1056.2	.02
298.15	.1749	.15	1056.93	.02
298.15	.1999	.15	1057.66	.02
303.15	0	.15	1049.92	.02
303.15	.0249	.15	1050.71	.02
303.15	.0499	.15	1051.49	.02
303.15	.0749	.15	1052.26	.02
303.15	.0999	.15	1053.01	.02
303.15	.1249	.15	1053.77	.02
303.15	.1499	.15	1054.51	.02
303.15	.1749	.15	1055.24	.02
303.15	.1999	.15	1055.96	.02
308.15	0	.15	1048.37	.02
308.15	.0249	.15	1049.16	.02
308.15	.0499	.15	1049.94	.02
308.15	.0749	.15	1050.71	.02
308.15	.0999	.15	1051.46	.02
308.15	.1249	.15	1052.21	.02
308.15	.1499	.15	1052.95	.02
308.15	.1749	.15	1053.69	.02
308.15	.1999	.15	1054.41	.02
313.15	0	.15	1046.62	.02
313.15	.0249	.15	1047.41	.02
313.15	.0499	.15	1048.19	.02
313.15	.0749	.15	1048.96	.02
313.15	.0999	.15	1049.71	.02
313.15	.1249	.15	1050.46	.02
313.15	.1499	.15	1051.21	.02
313.15	.1749	.15	1051.94	.02
313.15	.1999	.15	1052.67	.02
318.15	0	.15	1044.93	.02
318.15	.0249	.15	1045.72	.02
318.15	.0499	.15	1046.5	.02
318.15	.0749	.15	1047.27	.02
318.15	.0999	.15	1048.03	.02
318.15	.1249	.15	1048.78	.02
318.15	.1499	.15	1049.53	.02
318.15	.1749	.15	1050.26	.02
318.15	.1999	.15	1050.99	.02
293.15	0	.2	1072.41	.02
293.15	.0249	.2	1073.12	.02
293.15	.0499	.2	1073.82	.02
293.15	.0749	.2	1074.51	.02
293.15	.0999	.2	1075.19	.02
293.15	.1249	.2	1075.86	.02
293.15	.1499	.2	1076.53	.02
293.15	.1749	.2	1077.18	.02
293.15	.1999	.2	1077.82	.02
298.15	0	.2	1070.31	.02
298.15	.0249	.2	1071.02	.02
298.15	.0499	.2	1071.72	.02
298.15	.0749	.2	1072.41	.02
298.15	.0999	.2	1073.09	.02
298.15	.1249	.2	1073.76	.02
298.15	.1499	.2	1074.42	.02
298.15	.1749	.2	1075.07	.02
298.15	.1999	.2	1075.71	.02
303.15	0	.2	1068.17	.02
303.15	.0249	.2	1068.88	.02
303.15	.0499	.2	1069.58	.02
303.15	.0749	.2	1070.27	.02
303.15	.0999	.2	1070.95	.02
303.15	.1249	.2	1071.62	.02
303.15	.1499	.2	1072.27	.02
303.15	.1749	.2	1072.92	.02
303.15	.1999	.2	1073.56	.02
308.15	0	.2	1065.97	.02
308.15	.0249	.2	1066.68	.02
308.15	.0499	.2	1067.38	.02
308.15	.0749	.2	1068.07	.02
308.15	.0999	.2	1068.75	.02
308.15	.1249	.2	1069.42	.02
308.15	.1499	.2	1070.08	.02
308.15	.1749	.2	1070.72	.02
308.15	.1999	.2	1071.36	.02
313.15	0	.2	1063.76	.02
313.15	.0249	.2	1064.47	.02
313.15	.0499	.2	1065.17	.02
313.15	.0749	.2	1065.86	.02
313.15	.0999	.2	1066.55	.02
313.15	.1249	.2	1067.22	.02
313.15	.1499	.2	1067.88	.02
313.15	.1749	.2	1068.53	.02
313.15	.1999	.2	1069.17	.02
318.15	0	.2	1061.52	.02
318.15	.0249	.2	1062.23	.02
318.15	.0499	.2	1062.94	.02
318.15	.0749	.2	1063.63	.02
318.15	.0999	.2	1064.31	.02
318.15	.1249	.2	1064.98	.02
318.15	.1499	.2	1065.65	.02
318.15	.1749	.2	1066.3	.02
318.15	.1999	.2	1066.94	.02

System: glucose + L-threonine + water; phases: Liquid
Fixed: Pressure, kPa = 101
Property: Viscosity, Pa*s (Liquid); method: Capillary tube (Ostwald; Ubbelohde) method
Temperature, K	Molality, mol/kg of L-threonine	Solvent: Mass fraction of glucose	Viscosity, Pa*s	uncertainty
298.15	0	.05	.0009767	
298.15	.0249	.05	.0009858	
298.15	.0499	.05	.0009948	
298.15	.0749	.05	.0010038	
298.15	.0999	.05	.0010128	
298.15	.1249	.05	.0010216	
298.15	.1499	.05	.0010303	
298.15	.1749	.05	.0010391	
298.15	.1999	.05	.0010481	
303.15	0	.05	.0008605	
303.15	.0249	.05	.0008695	
303.15	.0499	.05	.0008784	
303.15	.0749	.05	.0008873	
303.15	.0999	.05	.000896	
303.15	.1249	.05	.000905	
303.15	.1499	.05	.0009138	
303.15	.1749	.05	.0009226	
303.15	.1999	.05	.0009312	
308.15	0	.05	.0007697	
308.15	.0249	.05	.0007784	
308.15	.0499	.05	.0007874	
308.15	.0749	.05	.0007965	
308.15	.0999	.05	.0008051	
308.15	.1249	.05	.0008138	
308.15	.1499	.05	.0008224	
308.15	.1749	.05	.000831	
308.15	.1999	.05	.0008395	
313.15	0	.05	.0006945	
313.15	.0249	.05	.0007028	
313.15	.0499	.05	.0007116	
313.15	.0749	.05	.0007203	
313.15	.0999	.05	.0007287	
313.15	.1249	.05	.000737	
313.15	.1499	.05	.0007453	
313.15	.1749	.05	.0007536	
313.15	.1999	.05	.0007618	
318.15	0	.05	.0006334	
318.15	.0249	.05	.0006416	
318.15	.0499	.05	.00065	
318.15	.0749	.05	.0006584	
318.15	.0999	.05	.0006667	
318.15	.1249	.05	.0006749	
318.15	.1499	.05	.0006831	
318.15	.1749	.05	.0006912	
318.15	.1999	.05	.0006992	
298.15	0	.1	.0011196	
298.15	.0249	.1	.0011303	
298.15	.0499	.1	.0011414	
298.15	.0749	.1	.0011521	
298.15	.0999	.1	.0011629	
298.15	.1249	.1	.0011735	
298.15	.1499	.1	.001184	
298.15	.1749	.1	.0011946	
298.15	.1999	.1	.0012054	
303.15	0	.1	.0009907	
303.15	.0249	.1	.0010013	
303.15	.0499	.1	.001012	
303.15	.0749	.1	.0010226	
303.15	.0999	.1	.001033	
303.15	.1249	.1	.0010437	
303.15	.1499	.1	.0010542	
303.15	.1749	.1	.0010647	
303.15	.1999	.1	.001075	
308.15	0	.1	.0008844	
308.15	.0249	.1	.0008948	
308.15	.0499	.1	.0009055	
308.15	.0749	.1	.0009163	
308.15	.0999	.1	.0009266	
308.15	.1249	.1	.000937	
308.15	.1499	.1	.0009473	
308.15	.1749	.1	.0009577	
308.15	.1999	.1	.000968	
313.15	0	.1	.0007901	
313.15	.0249	.1	.0008003	
313.15	.0499	.1	.0008108	
313.15	.0749	.1	.0008214	
313.15	.0999	.1	.0008315	
313.15	.1249	.1	.0008417	
313.15	.1499	.1	.0008519	
313.15	.1749	.1	.0008621	
313.15	.1999	.1	.0008722	
318.15	0	.1	.0007223	
318.15	.0249	.1	.0007324	
318.15	.0499	.1	.0007428	
318.15	.0749	.1	.0007532	
318.15	.0999	.1	.0007632	
318.15	.1249	.1	.0007733	
318.15	.1499	.1	.0007834	
318.15	.1749	.1	.0007935	
318.15	.1999	.1	.0008035	
298.15	0	.15	.0013157	
298.15	.0249	.15	.0013289	
298.15	.0499	.15	.0013421	
298.15	.0749	.15	.0013553	
298.15	.0999	.15	.0013685	
298.15	.1249	.15	.0013818	
298.15	.1499	.15	.0013948	
298.15	.1749	.15	.0014076	
298.15	.1999	.15	.0014204	
303.15	0	.15	.0011471	
303.15	.0249	.15	.0011601	
303.15	.0499	.15	.0011734	
303.15	.0749	.15	.0011865	
303.15	.0999	.15	.0011995	
303.15	.1249	.15	.0012126	
303.15	.1499	.15	.0012256	
303.15	.1749	.15	.0012384	
303.15	.1999	.15	.0012511	
308.15	0	.15	.0010177	
308.15	.0249	.15	.0010307	
308.15	.0499	.15	.0010435	
308.15	.0749	.15	.0010565	
308.15	.0999	.15	.0010697	
308.15	.1249	.15	.0010826	
308.15	.1499	.15	.0010955	
308.15	.1749	.15	.0011083	
308.15	.1999	.15	.0011208	
313.15	0	.15	.0008925	
313.15	.0249	.15	.000905	
313.15	.0499	.15	.0009176	
313.15	.0749	.15	.0009299	
313.15	.0999	.15	.000942	
313.15	.1249	.15	.000955	
313.15	.1499	.15	.0009675	
313.15	.1749	.15	.00098	
313.15	.1999	.15	.000992	
318.15	0	.15	.0008097	
318.15	.0249	.15	.0008218	
318.15	.0499	.15	.0008345	
318.15	.0749	.15	.0008465	
318.15	.0999	.15	.0008593	
318.15	.1249	.15	.0008714	
318.15	.1499	.15	.000884	
318.15	.1749	.15	.0008959	
318.15	.1999	.15	.000907	
298.15	0	.2	.0016696	
298.15	.0249	.2	.0016871	
298.15	.0499	.2	.0017048	
298.15	.0749	.2	.0017224	
298.15	.0999	.2	.0017398	
298.15	.1249	.2	.0017573	
298.15	.1499	.2	.0017747	
298.15	.1749	.2	.0017919	
298.15	.1999	.2	.0018093	
303.15	0	.2	.0014911	
303.15	.0249	.2	.0015084	
303.15	.0499	.2	.0015257	
303.15	.0749	.2	.0015431	
303.15	.0999	.2	.0015605	
303.15	.1249	.2	.0015777	
303.15	.1499	.2	.001595	
303.15	.1749	.2	.0016121	
303.15	.1999	.2	.0016292	
308.15	0	.2	.0013452	
308.15	.0249	.2	.0013627	
308.15	.0499	.2	.0013797	
308.15	.0749	.2	.0013971	
308.15	.0999	.2	.0014147	
308.15	.1249	.2	.0014324	
308.15	.1499	.2	.0014495	
308.15	.1749	.2	.0014664	
308.15	.1999	.2	.0014841	
313.15	0	.2	.0012098	
313.15	.0249	.2	.001227	
313.15	.0499	.2	.001244	
313.15	.0749	.2	.0012607	
313.15	.0999	.2	.001278	
313.15	.1249	.2	.0012955	
313.15	.1499	.2	.0013125	
313.15	.1749	.2	.00133	
313.15	.1999	.2	.0013465	
318.15	0	.2	.0011122	
318.15	.0249	.2	.0011294	
318.15	.0499	.2	.0011465	
318.15	.0749	.2	.0011635	
318.15	.0999	.2	.0011805	
318.15	.1249	.2	.0011975	
318.15	.1499	.2	.0012157	
318.15	.1749	.2	.0012324	
318.15	.1999	.2	.0012494	

System: glucose + water; phases: Liquid
Property: Mass density, kg/m3 (Liquid); method: Pycnometric method
Temperature, K	Mass fraction of glucose	Pressure, kPa	Mass density, kg/m3	uncertainty
293.15	.05	101	1016.28	.02
298.15	.05	101	1014.69	.02
303.15	.05	101	1013.08	.02
308.15	.05	101	1011.47	.02
313.15	.05	101	1009.85	.02
318.15	.05	101	1008.21	.02
293.15	.1	101	1034.79	.02
298.15	.1	101	1033.15	.02
303.15	.1	101	1031.5	.02
308.15	.1	101	1029.84	.02
313.15	.1	101	1028.17	.02
318.15	.1	101	1026.48	.02
293.15	.15	101	1053.29	.02
298.15	.15	101	1051.61	.02
303.15	.15	101	1049.92	.02
308.15	.15	101	1048.37	.02
313.15	.15	101	1046.62	.02
318.15	.15	101	1044.93	.02
293.15	.2	101	1072.41	.02
298.15	.2	101	1070.31	.02
303.15	.2	101	1068.17	.02
308.15	.2	101	1065.97	.02
313.15	.2	101	1063.76	.02
318.15	.2	101	1061.52	.02

System: glucose + water; phases: Liquid
Property: Viscosity, Pa*s (Liquid); method: Capillary tube (Ostwald; Ubbelohde) method
Temperature, K	Mass fraction of glucose	Pressure, kPa	Viscosity, Pa*s	uncertainty
298.15	.05	101	.0009767	
303.15	.05	101	.0008605	
308.15	.05	101	.0007697	
313.15	.05	101	.0006945	
318.15	.05	101	.0006334	
298.15	.1	101	.0011196	
303.15	.1	101	.0009907	
308.15	.1	101	.0008844	
313.15	.1	101	.0007901	
318.15	.1	101	.0007223	
298.15	.15	101	.0013157	
303.15	.15	101	.0011471	
308.15	.15	101	.0010177	
313.15	.15	101	.0008925	
318.15	.15	101	.0008097	
298.15	.2	101	.0016696	
303.15	.2	101	.0014911	
308.15	.2	101	.0013452	
313.15	.2	101	.0012098	
318.15	.2	101	.0011122	
