Measured thermophysical data. LLE data for the ionic liquid 3-methyl-N-butyl pyridinium dicyanamide  with several aromatic and aliphatic hydrocarbons
Source: J. Chem. Thermodyn., 2010, 10.1016/j.jct.2009.11.001
Compound 1: N-butyl-3-methylpyridinium dicyanamide, C12H16N4
Compound 2: 1,4-dimethylbenzene, C8H10
Compound 3: benzene, C6H6
Compound 4: isopropylbenzene, C9H12
Compound 5: n-hexane, C6H14
Compound 6: nonane, C9H20
Compound 7: ethylbenzene, C8H10
Compound 8: propanone, C3H6O

System: benzene + n-hexane + N-butyl-3-methylpyridinium dicyanamide; phases: Liquid mixture 1, Liquid mixture 2
Property: Mole fraction of n-hexane (Liquid mixture 1); method: Chromatography
Property: Mole fraction of benzene (Liquid mixture 2); method: Chromatography
Property: Mole fraction of n-hexane (Liquid mixture 2); method: Chromatography
Temperature, K	Pressure, kPa	Mole fraction of benzene	Mole fraction of n-hexane	uncertainty	Mole fraction of benzene	uncertainty	Mole fraction of n-hexane	uncertainty
303.15	100	0	.999	.024975	0	.025	.024	.025
303.15	100	.066	.934	.02335	.096	.025	.025	.025
303.15	100	.134	.865	.021625	.159	.025	.021	.025
303.15	100	.22	.779	.019475	.237	.025	.019	.025
303.15	100	.294	.705	.017625	.299	.025	.021	.025
303.15	100	.411	.588	.0147	.359	.025	.02	.025
303.15	100	.485	.515	.012875	.423	.025	.019	.025
303.15	100	.574	.425	.010625	.478	.025	.019	.025
303.15	100	.686	.313	.007825	.549	.025	.018	.025
303.15	100	.835	.164	.0041	.627	.025	.013	.025
303.15	100	.999	0	0	.742	.025	0	.025
328.15	100	0	.999	.024975	0	.025	.03	.025
328.15	100	.081	.918	.02295	.09	.025	.025	.025
328.15	100	.148	.851	.021275	.147	.025	.024	.025
328.15	100	.237	.763	.019075	.222	.025	.026	.025
328.15	100	.331	.669	.016725	.283	.025	.023	.025
328.15	100	.432	.567	.014175	.345	.025	.022	.025
328.15	100	.545	.454	.01135	.414	.025	.021	.025
328.15	100	.641	.358	.00895	.42	.025	.02	.025
328.15	100	.761	.239	.005975	.536	.025	.016	.025
328.15	100	.999	0	0	.7	.025	0	.025

System: 1,4-dimethylbenzene + n-hexane + N-butyl-3-methylpyridinium dicyanamide; phases: Liquid mixture 2, Liquid mixture 1
Property: Mole fraction of n-hexane (Liquid mixture 2); method: Chromatography
Property: Mole fraction of 1,4-dimethylbenzene (Liquid mixture 1); method: Chromatography
Property: Mole fraction of n-hexane (Liquid mixture 1); method: Chromatography
Temperature, K	Pressure, kPa	Mole fraction of 1,4-dimethylbenzene	Mole fraction of n-hexane	uncertainty	Mole fraction of 1,4-dimethylbenzene	uncertainty	Mole fraction of n-hexane	uncertainty
303.15	100	0	.025	.000625	0	0	.999	.024975
303.15	100	.032	.022	.00055	.06	.0015	.939	.023475
303.15	100	.066	.023	.000575	.131	.003275	.868	.0217
303.15	100	.102	.023	.000575	.205	.005125	.794	.01985
303.15	100	.135	.023	.000575	.287	.007175	.712	.0178
303.15	100	.169	.022	.00055	.365	.009125	.634	.01585
303.15	100	.203	.02	.0005	.462	.01155	.537	.013425
303.15	100	.244	.017	.000425	.583	.014575	.416	.0104
303.15	100	.289	.014	.00035	.697	.017425	.302	.00755
303.15	100	.344	.009	.000225	.837	.020925	.162	.00405
303.15	100	.401	0	0	.999	.024975	0	0
328.15	100	0	.026	.00065	0	0	1	.025
328.15	100	.034	.027	.000675	.071	.001775	.929	.023225
328.15	100	.071	.028	.0007	.145	.003625	.855	.021375
328.15	100	.099	.025	.000625	.226	.00565	.774	.01935
328.15	100	.135	.024	.0006	.322	.00805	.678	.01695
328.15	100	.162	.022	.00055	.395	.009875	.605	.015125
328.15	100	.216	.023	.000575	.504	.0126	.496	.0124
328.15	100	.259	.018	.00045	.639	.015975	.361	.009025
328.15	100	.274	.014	.00035	.735	.018375	.265	.006625
328.15	100	.307	.011	.000275	.802	.02005	.198	.00495
328.15	100	.381	0	0	1	.025	0	0

System: isopropylbenzene + nonane + N-butyl-3-methylpyridinium dicyanamide; phases: Liquid mixture 2, Liquid mixture 1
Property: Mole fraction of nonane (Liquid mixture 2); method: Chromatography
Property: Mole fraction of isopropylbenzene (Liquid mixture 1); method: Chromatography
Property: Mole fraction of nonane (Liquid mixture 1); method: Chromatography
Temperature, K	Pressure, kPa	Mole fraction of isopropylbenzene	Mole fraction of nonane	uncertainty	Mole fraction of isopropylbenzene	uncertainty	Mole fraction of nonane	uncertainty
303.15	100	0	.0064	.00016	0	0	.999	.024975
303.15	100	.025	.0068	.00017	.081	.002025	.917	.022925
303.15	100	.048	.0064	.00016	.178	.00445	.821	.020525
303.15	100	.07	.0058	.000145	.268	.0067	.731	.018275
303.15	100	.094	.0059	.0001475	.353	.008825	.646	.01615
303.15	100	.113	.0056	.00014	.447	.011175	.551	.013775
303.15	100	.139	.0046	.000115	.556	.0139	.443	.011075
303.15	100	.171	.0042	.000105	.656	.0164	.343	.008575
303.15	100	.188	.0027	.0000675	.783	.019575	.216	.0054
303.15	100	.186	.0015	.0000375	.884	.0221	.115	.002875
303.15	100	.213	0	0	.999	.024975	0	0
328.15	100	0	.0078	.000195	0	0	.999	.024975
328.15	100	.024	.0075	.0001875	.082	.00205	.916	.0229
328.15	100	.048	.0073	.0001825	.178	.00445	.821	.020525
328.15	100	.069	.0068	.00017	.267	.006675	.731	.018275
328.15	100	.089	.0067	.0001675	.358	.00895	.64	.016
328.15	100	.11	.0063	.0001575	.454	.01135	.544	.0136
328.15	100	.135	.0053	.0001325	.56	.014	.439	.010975
328.15	100	.161	.0046	.000115	.655	.016375	.344	.0086
328.15	100	.175	.0032	.00008	.778	.01945	.22	.0055
328.15	100	.182	.0024	.00006	.841	.021025	.158	.00395
328.15	100	.273	0	0	.999	.024975	0	0
