Measured thermophysical data. Thermodynamics and limiting activity coefficients measurements for organic solutes and water in the ionic liquid 1-dodecyl-3-methylimidzolium bis(trifluoromethylsulfonyl) imide
Source: J. Chem. Thermodyn., 2016, 10.1016/j.jct.2016.08.008
Compound 1: 1-dodecyl-3-methyl-1H-imidazolium bis(trifluoromethylsulfonyl)amide, C18H31F6N3O4S2, purity 98%
Compound 2: pentane, C5H12, purity 99%
Compound 3: hexane, C6H14, purity 99%
Compound 4: 3-methylpentane, C6H14, purity 99%
Compound 5: 2,2-dimethylbutane, C6H14, purity 99%
Compound 6: heptane, C7H16, purity 99.5%
Compound 7: octane, C8H18, purity 99%
Compound 8: 2,2,4-trimethylpentane, C8H18, purity 99%
Compound 9: nonane, C9H20, purity 99%
Compound 10: decane, C10H22, purity 99%
Compound 11: cyclopentane, C5H10, purity 99%
Compound 12: cyclohexane, C6H12, purity 99%
Compound 13: methylcyclohexane, C7H14, purity 99%
Compound 14: cycloheptane, C7H14, purity 98%
Compound 15: cyclooctane, C8H16, purity 99%
Compound 16: 1-pentene, C5H10, purity 98.5%
Compound 17: 1-hexene, C6H12, purity 99%
Compound 18: cyclohexene, C6H10, purity 99%
Compound 19: 1-heptene, C7H14, purity 99%
Compound 20: 1-octene, C8H16, purity 98%
Compound 21: 1-decene, C10H20, purity 97%
Compound 22: 1-pentyne, C5H8, purity 99%
Compound 23: 1-hexyne, C6H10, purity 97%
Compound 24: 1-heptyne, C7H12, purity 98%
Compound 25: 1-octyne, C8H14, purity 97%
Compound 26: benzene, C6H6, purity 99.8%
Compound 27: toluene, C7H8, purity 99.8%
Compound 28: ethylbenzene, C8H10, purity 99.8%
Compound 29: o-xylene, C8H10, purity 99%
Compound 30: m-xylene, C8H10, purity 99%
Compound 31: p-xylene, C8H10, purity 99%
Compound 32: n-propylbenzene, C9H12, purity 98%
Compound 33: isopropylbenzene, C9H12, purity 99%
Compound 34: styrene, C8H8, purity 99.9%
Compound 35: .alpha.-methylstyrene, C9H10, purity 99%
Compound 36: thiophene, C4H4S, purity 99%
Compound 37: pyridine, C5H5N, purity 99.8%
Compound 38: methanol, CH4O, purity 99.9%
Compound 39: ethanol, C2H6O, purity 99.8%
Compound 40: propan-1-ol, C3H8O, purity 99.9%
Compound 41: propan-2-ol, C3H8O, purity 99.9%
Compound 42: butan-1-ol, C4H10O, purity 99.8%
Compound 43: butan-2-ol, C4H10O, purity 99.5%
Compound 44: 2-methyl-1-propanol, C4H10O, purity 99.8%
Compound 45: tert-butanol, C4H10O, purity 99.7%
Compound 46: pentan-1-ol, C5H12O, purity 99.8%
Compound 47: water, H2O
Compound 48: methyl acetate, C3H6O2, purity 99.8%
Compound 49: methyl propanoate, C4H8O2, purity 99%
Compound 50: methyl butanoate, C5H10O2, purity 99%
Compound 51: ethyl acetate, C4H8O2, purity 99.8%
Compound 52: tetrahydrofuran, C4H8O, purity 99.9%
Compound 53: 1,4-dioxane, C4H8O2, purity 99.8%
Compound 54: tert-butyl methyl ether, C5H12O, purity 99.8%
Compound 55: tert-butyl ethyl ether, C6H14O, purity 99%
Compound 56: tert-amyl methyl ether, C6H14O, purity 97%
Compound 57: diethyl ether, C4H10O, purity 99.9%
Compound 58: dipropyl ether, C6H14O, purity 99%
Compound 59: diisopropyl ether, C6H14O, purity 99%
Compound 60: di-n-butyl ether, C8H18O, purity 99.3%
Compound 61: acetone, C3H6O, purity 99.9%
Compound 62: 2-pentanone, C5H10O, purity 99%
Compound 63: 3-pentanone, C5H10O, purity 99%
Compound 64: butanal, C4H8O, purity 99%
Compound 65: acetonitrile, C2H3N, purity 99.9%
Compound 66: 1-nitropropane, C3H7NO2, purity 98.5%

System: 1-dodecyl-3-methyl-1H-imidazolium bis(trifluoromethylsulfonyl)amide; phases: Crystal, Liquid, Air at 1 atmosphere
Property: Normal melting temperature, K (Crystal); method: DSC/DTA
Normal melting temperature, K	uncertainty
292.4	.1

System: 1-dodecyl-3-methyl-1H-imidazolium bis(trifluoromethylsulfonyl)amide; phases: Crystal, Liquid, Air at 1 atmosphere
Property: Molar enthalpy of transition or fusion, kJ/mol (Crystal); method: DSC
Molar enthalpy of transition or fusion, kJ/mol	uncertainty
36	.5

System: 1-dodecyl-3-methyl-1H-imidazolium bis(trifluoromethylsulfonyl)amide; phases: Liquid
Fixed: Pressure, kPa = 101.325
Property: Mass density, kg/m3 (Liquid); method: Vibrating tube method
Temperature, K	Mass density, kg/m3	uncertainty
298.15	1242.9	
303.15	1238.8	
308.15	1234.6	
313.15	1230.4	
318.15	1226.2	
323.15	1222	
328.15	1217.8	
333.15	1213.6	
338.15	1209.5	
343.15	1205.3	
348.15	1201.2	
353.15	1197.1	
358.15	1193	
363.15	1188.9	
368.15	1184.9	

System: 1-dodecyl-3-methyl-1H-imidazolium bis(trifluoromethylsulfonyl)amide; phases: Liquid
Fixed: Pressure, kPa = 101.325
Property: Viscosity, Pa*s (Liquid); method: Falling or rolling sphere viscometry
Temperature, K	Viscosity, Pa*s	uncertainty
298.15	.125	
308.15	.0767	
318.15	.0527	
328.15	.037	
338.15	.0266	
348.15	.0195	
358.15	.0147	
368.15	.0114	

System: pentane + 1-dodecyl-3-methyl-1H-imidazolium bis(trifluoromethylsulfonyl)amide; phases: Liquid
Fixed: Mole fraction of pentane = 0
Fixed: Pressure, kPa = 101.325
Property: Activity coefficient of pentane (Liquid); method: Other
Temperature, K	Activity coefficient of pentane	uncertainty
318.15	2.55	
328.15	2.60	
338.15	2.66	
348.15	2.71	
358.15	2.76	
368.15	2.81	

System: hexane + 1-dodecyl-3-methyl-1H-imidazolium bis(trifluoromethylsulfonyl)amide; phases: Liquid
Fixed: Mole fraction of hexane = 0
Fixed: Pressure, kPa = 101.325
Property: Activity coefficient of hexane (Liquid); method: Other
Temperature, K	Activity coefficient of hexane	uncertainty
318.15	2.96	
328.15	3.02	
338.15	3.09	
348.15	3.14	
358.15	3.20	
368.15	3.26	

System: 3-methylpentane + 1-dodecyl-3-methyl-1H-imidazolium bis(trifluoromethylsulfonyl)amide; phases: Liquid
Fixed: Mole fraction of 3-methylpentane = 0
Fixed: Pressure, kPa = 101.325
Property: Activity coefficient of 3-methylpentane (Liquid); method: Other
Temperature, K	Activity coefficient of 3-methylpentane	uncertainty
318.15	2.77	
328.15	2.83	
338.15	2.89	
348.15	2.94	
358.15	2.99	
368.15	3.04	

System: 2,2-dimethylbutane + 1-dodecyl-3-methyl-1H-imidazolium bis(trifluoromethylsulfonyl)amide; phases: Liquid
Fixed: Mole fraction of 2,2-dimethylbutane = 0
Fixed: Pressure, kPa = 101.325
Property: Activity coefficient of 2,2-dimethylbutane (Liquid); method: Other
Temperature, K	Activity coefficient of 2,2-dimethylbutane	uncertainty
318.15	2.83	
328.15	2.89	
338.15	2.95	
348.15	3.00	
358.15	3.05	
368.15	3.10	

System: heptane + 1-dodecyl-3-methyl-1H-imidazolium bis(trifluoromethylsulfonyl)amide; phases: Liquid
Fixed: Mole fraction of heptane = 0
Fixed: Pressure, kPa = 101.325
Property: Activity coefficient of heptane (Liquid); method: Other
Temperature, K	Activity coefficient of heptane	uncertainty
318.15	3.55	
328.15	3.60	
338.15	3.65	
348.15	3.70	
358.15	3.74	
368.15	3.78	

System: octane + 1-dodecyl-3-methyl-1H-imidazolium bis(trifluoromethylsulfonyl)amide; phases: Liquid
Fixed: Mole fraction of octane = 0
Fixed: Pressure, kPa = 101.325
Property: Activity coefficient of octane (Liquid); method: Other
Temperature, K	Activity coefficient of octane	uncertainty
318.15	4.17	
328.15	4.22	
338.15	4.27	
348.15	4.32	
358.15	4.37	
368.15	4.42	

System: 2,2,4-trimethylpentane + 1-dodecyl-3-methyl-1H-imidazolium bis(trifluoromethylsulfonyl)amide; phases: Liquid
Fixed: Mole fraction of 2,2,4-trimethylpentane = 0
Fixed: Pressure, kPa = 101.325
Property: Activity coefficient of 2,2,4-trimethylpentane (Liquid); method: Other
Temperature, K	Activity coefficient of 2,2,4-trimethylpentane	uncertainty
318.15	3.59	
328.15	3.66	
338.15	3.72	
348.15	3.79	
358.15	3.85	
368.15	3.91	

System: nonane + 1-dodecyl-3-methyl-1H-imidazolium bis(trifluoromethylsulfonyl)amide; phases: Liquid
Fixed: Mole fraction of nonane = 0
Fixed: Pressure, kPa = 101.325
Property: Activity coefficient of nonane (Liquid); method: Other
Temperature, K	Activity coefficient of nonane	uncertainty
318.15	4.92	
328.15	4.97	
338.15	5.03	
348.15	5.08	
358.15	5.13	
368.15	5.17	

System: decane + 1-dodecyl-3-methyl-1H-imidazolium bis(trifluoromethylsulfonyl)amide; phases: Liquid
Fixed: Mole fraction of decane = 0
Fixed: Pressure, kPa = 101.325
Property: Activity coefficient of decane (Liquid); method: Other
Temperature, K	Activity coefficient of decane	uncertainty
318.15	5.82	
328.15	5.88	
338.15	5.95	
348.15	6.00	
358.15	6.06	
368.15	6.12	

System: cyclopentane + 1-dodecyl-3-methyl-1H-imidazolium bis(trifluoromethylsulfonyl)amide; phases: Liquid
Fixed: Mole fraction of cyclopentane = 0
Fixed: Pressure, kPa = 101.325
Property: Activity coefficient of cyclopentane (Liquid); method: Other
Temperature, K	Activity coefficient of cyclopentane	uncertainty
318.15	1.75	
328.15	1.77	
338.15	1.80	
348.15	1.82	
358.15	1.84	
368.15	1.86	

System: cyclohexane + 1-dodecyl-3-methyl-1H-imidazolium bis(trifluoromethylsulfonyl)amide; phases: Liquid
Fixed: Mole fraction of cyclohexane = 0
Fixed: Pressure, kPa = 101.325
Property: Activity coefficient of cyclohexane (Liquid); method: Other
Temperature, K	Activity coefficient of cyclohexane	uncertainty
318.15	2.14	
328.15	2.15	
338.15	2.17	
348.15	2.18	
358.15	2.19	
368.15	2.21	

System: methylcyclohexane + 1-dodecyl-3-methyl-1H-imidazolium bis(trifluoromethylsulfonyl)amide; phases: Liquid
Fixed: Mole fraction of methylcyclohexane = 0
Fixed: Pressure, kPa = 101.325
Property: Activity coefficient of methylcyclohexane (Liquid); method: Other
Temperature, K	Activity coefficient of methylcyclohexane	uncertainty
318.15	2.42	
328.15	2.46	
338.15	2.49	
348.15	2.52	
358.15	2.55	
368.15	2.58	

System: cycloheptane + 1-dodecyl-3-methyl-1H-imidazolium bis(trifluoromethylsulfonyl)amide; phases: Liquid
Fixed: Mole fraction of cycloheptane = 0
Fixed: Pressure, kPa = 101.325
Property: Activity coefficient of cycloheptane (Liquid); method: Other
Temperature, K	Activity coefficient of cycloheptane	uncertainty
318.15	2.43	
328.15	2.45	
338.15	2.47	
348.15	2.49	
358.15	2.50	
368.15	2.52	

System: cyclooctane + 1-dodecyl-3-methyl-1H-imidazolium bis(trifluoromethylsulfonyl)amide; phases: Liquid
Fixed: Mole fraction of cyclooctane = 0
Fixed: Pressure, kPa = 101.325
Property: Activity coefficient of cyclooctane (Liquid); method: Other
Temperature, K	Activity coefficient of cyclooctane	uncertainty
318.15	2.80	
328.15	2.82	
338.15	2.83	
348.15	2.84	
358.15	2.85	
368.15	2.86	

System: 1-pentene + 1-dodecyl-3-methyl-1H-imidazolium bis(trifluoromethylsulfonyl)amide; phases: Liquid
Fixed: Mole fraction of 1-pentene = 0
Fixed: Pressure, kPa = 101.325
Property: Activity coefficient of 1-pentene (Liquid); method: Other
Temperature, K	Activity coefficient of 1-pentene	uncertainty
318.15	1.82	
328.15	1.88	
338.15	1.93	
348.15	1.99	
358.15	2.04	
368.15	2.08	

System: 1-hexene + 1-dodecyl-3-methyl-1H-imidazolium bis(trifluoromethylsulfonyl)amide; phases: Liquid
Fixed: Mole fraction of 1-hexene = 0
Fixed: Pressure, kPa = 101.325
Property: Activity coefficient of 1-hexene (Liquid); method: Other
Temperature, K	Activity coefficient of 1-hexene	uncertainty
318.15	2.15	
328.15	2.20	
338.15	2.25	
348.15	2.29	
358.15	2.34	
368.15	2.38	

System: cyclohexene + 1-dodecyl-3-methyl-1H-imidazolium bis(trifluoromethylsulfonyl)amide; phases: Liquid
Fixed: Mole fraction of cyclohexene = 0
Fixed: Pressure, kPa = 101.325
Property: Activity coefficient of cyclohexene (Liquid); method: Other
Temperature, K	Activity coefficient of cyclohexene	uncertainty
318.15	1.56	
328.15	1.59	
338.15	1.62	
348.15	1.65	
358.15	1.68	
368.15	1.71	

System: 1-heptene + 1-dodecyl-3-methyl-1H-imidazolium bis(trifluoromethylsulfonyl)amide; phases: Liquid
Fixed: Mole fraction of 1-heptene = 0
Fixed: Pressure, kPa = 101.325
Property: Activity coefficient of 1-heptene (Liquid); method: Other
Temperature, K	Activity coefficient of 1-heptene	uncertainty
318.15	2.56	
328.15	2.62	
338.15	2.68	
348.15	2.74	
358.15	2.80	
368.15	2.85	

System: 1-octene + 1-dodecyl-3-methyl-1H-imidazolium bis(trifluoromethylsulfonyl)amide; phases: Liquid
Fixed: Mole fraction of 1-octene = 0
Fixed: Pressure, kPa = 101.325
Property: Activity coefficient of 1-octene (Liquid); method: Other
Temperature, K	Activity coefficient of 1-octene	uncertainty
318.15	3.03	
328.15	3.10	
338.15	3.17	
348.15	3.23	
358.15	3.29	
368.15	3.35	

System: 1-decene + 1-dodecyl-3-methyl-1H-imidazolium bis(trifluoromethylsulfonyl)amide; phases: Liquid
Fixed: Mole fraction of 1-decene = 0
Fixed: Pressure, kPa = 101.325
Property: Activity coefficient of 1-decene (Liquid); method: Other
Temperature, K	Activity coefficient of 1-decene	uncertainty
318.15	4.18	
328.15	4.27	
338.15	4.36	
348.15	4.44	
358.15	4.52	
368.15	4.60	

System: 1-pentyne + 1-dodecyl-3-methyl-1H-imidazolium bis(trifluoromethylsulfonyl)amide; phases: Liquid
Fixed: Mole fraction of 1-pentyne = 0
Fixed: Pressure, kPa = 101.325
Property: Activity coefficient of 1-pentyne (Liquid); method: Other
Temperature, K	Activity coefficient of 1-pentyne	uncertainty
318.15	1.07	
328.15	1.11	
338.15	1.16	
348.15	1.20	
358.15	1.24	
368.15	1.28	

System: 1-hexyne + 1-dodecyl-3-methyl-1H-imidazolium bis(trifluoromethylsulfonyl)amide; phases: Liquid
Fixed: Mole fraction of 1-hexyne = 0
Fixed: Pressure, kPa = 101.325
Property: Activity coefficient of 1-hexyne (Liquid); method: Other
Temperature, K	Activity coefficient of 1-hexyne	uncertainty
318.15	1.25	
328.15	1.30	
338.15	1.35	
348.15	1.40	
358.15	1.45	
368.15	1.49	

System: 1-heptyne + 1-dodecyl-3-methyl-1H-imidazolium bis(trifluoromethylsulfonyl)amide; phases: Liquid
Fixed: Mole fraction of 1-heptyne = 0
Fixed: Pressure, kPa = 101.325
Property: Activity coefficient of 1-heptyne (Liquid); method: Other
Temperature, K	Activity coefficient of 1-heptyne	uncertainty
318.15	1.47	
328.15	1.53	
338.15	1.59	
348.15	1.65	
358.15	1.70	
368.15	1.76	

System: 1-octyne + 1-dodecyl-3-methyl-1H-imidazolium bis(trifluoromethylsulfonyl)amide; phases: Liquid
Fixed: Mole fraction of 1-octyne = 0
Fixed: Pressure, kPa = 101.325
Property: Activity coefficient of 1-octyne (Liquid); method: Other
Temperature, K	Activity coefficient of 1-octyne	uncertainty
318.15	1.74	
328.15	1.80	
338.15	1.87	
348.15	1.93	
358.15	1.99	
368.15	2.06	

System: benzene + 1-dodecyl-3-methyl-1H-imidazolium bis(trifluoromethylsulfonyl)amide; phases: Liquid
Fixed: Mole fraction of benzene = 0
Fixed: Pressure, kPa = 101.325
Property: Activity coefficient of benzene (Liquid); method: Other
Temperature, K	Activity coefficient of benzene	uncertainty
318.15	0.568	
328.15	0.594	
338.15	0.619	
348.15	0.644	
358.15	0.669	
368.15	0.694	

System: toluene + 1-dodecyl-3-methyl-1H-imidazolium bis(trifluoromethylsulfonyl)amide; phases: Liquid
Fixed: Mole fraction of toluene = 0
Fixed: Pressure, kPa = 101.325
Property: Activity coefficient of toluene (Liquid); method: Other
Temperature, K	Activity coefficient of toluene	uncertainty
318.15	0.699	
328.15	0.732	
338.15	0.765	
348.15	0.800	
358.15	0.832	
368.15	0.864	

System: ethylbenzene + 1-dodecyl-3-methyl-1H-imidazolium bis(trifluoromethylsulfonyl)amide; phases: Liquid
Fixed: Mole fraction of ethylbenzene = 0
Fixed: Pressure, kPa = 101.325
Property: Activity coefficient of ethylbenzene (Liquid); method: Other
Temperature, K	Activity coefficient of ethylbenzene	uncertainty
318.15	0.911	
328.15	0.951	
338.15	0.992	
348.15	1.03	
358.15	1.07	
368.15	1.11	

System: o-xylene + 1-dodecyl-3-methyl-1H-imidazolium bis(trifluoromethylsulfonyl)amide; phases: Liquid
Fixed: Mole fraction of o-xylene = 0
Fixed: Pressure, kPa = 101.325
Property: Activity coefficient of o-xylene (Liquid); method: Other
Temperature, K	Activity coefficient of o-xylene	uncertainty
318.15	0.812	
328.15	0.851	
338.15	0.892	
348.15	0.93	
358.15	0.968	
368.15	1.01	

System: m-xylene + 1-dodecyl-3-methyl-1H-imidazolium bis(trifluoromethylsulfonyl)amide; phases: Liquid
Fixed: Mole fraction of m-xylene = 0
Fixed: Pressure, kPa = 101.325
Property: Activity coefficient of m-xylene (Liquid); method: Other
Temperature, K	Activity coefficient of m-xylene	uncertainty
318.15	0.874	
328.15	0.918	
338.15	0.960	
348.15	1.00	
358.15	1.04	
368.15	1.09	

System: p-xylene + 1-dodecyl-3-methyl-1H-imidazolium bis(trifluoromethylsulfonyl)amide; phases: Liquid
Fixed: Mole fraction of p-xylene = 0
Fixed: Pressure, kPa = 101.325
Property: Activity coefficient of p-xylene (Liquid); method: Other
Temperature, K	Activity coefficient of p-xylene	uncertainty
318.15	0.869	
328.15	0.914	
338.15	0.958	
348.15	1.00	
358.15	1.05	
368.15	1.09	

System: n-propylbenzene + 1-dodecyl-3-methyl-1H-imidazolium bis(trifluoromethylsulfonyl)amide; phases: Liquid
Fixed: Mole fraction of n-propylbenzene = 0
Fixed: Pressure, kPa = 101.325
Property: Activity coefficient of n-propylbenzene (Liquid); method: Other
Temperature, K	Activity coefficient of n-propylbenzene	uncertainty
318.15	1.10	
328.15	1.15	
338.15	1.21	
348.15	1.25	
358.15	1.30	
368.15	1.35	

System: isopropylbenzene + 1-dodecyl-3-methyl-1H-imidazolium bis(trifluoromethylsulfonyl)amide; phases: Liquid
Fixed: Mole fraction of isopropylbenzene = 0
Fixed: Pressure, kPa = 101.325
Property: Activity coefficient of isopropylbenzene (Liquid); method: Other
Temperature, K	Activity coefficient of isopropylbenzene	uncertainty
318.15	1.15	
328.15	1.20	
338.15	1.24	
348.15	1.28	
358.15	1.32	
368.15	1.36	

System: styrene + 1-dodecyl-3-methyl-1H-imidazolium bis(trifluoromethylsulfonyl)amide; phases: Liquid
Fixed: Mole fraction of styrene = 0
Fixed: Pressure, kPa = 101.325
Property: Activity coefficient of styrene (Liquid); method: Other
Temperature, K	Activity coefficient of styrene	uncertainty
318.15	0.632	
328.15	0.666	
338.15	0.702	
348.15	0.736	
358.15	0.771	
368.15	0.804	

System: .alpha.-methylstyrene + 1-dodecyl-3-methyl-1H-imidazolium bis(trifluoromethylsulfonyl)amide; phases: Liquid
Fixed: Mole fraction of .alpha.-methylstyrene = 0
Fixed: Pressure, kPa = 101.325
Property: Activity coefficient of .alpha.-methylstyrene (Liquid); method: Other
Temperature, K	Activity coefficient of .alpha.-methylstyrene	uncertainty
318.15	0.79	
328.15	0.842	
338.15	0.896	
348.15	0.949	
358.15	1.00	
368.15	1.05	

System: thiophene + 1-dodecyl-3-methyl-1H-imidazolium bis(trifluoromethylsulfonyl)amide; phases: Liquid
Fixed: Mole fraction of thiophene = 0
Fixed: Pressure, kPa = 101.325
Property: Activity coefficient of thiophene (Liquid); method: Other
Temperature, K	Activity coefficient of thiophene	uncertainty
318.15	0.559	
328.15	0.579	
338.15	0.600	
348.15	0.620	
358.15	0.639	
368.15	0.658	

System: pyridine + 1-dodecyl-3-methyl-1H-imidazolium bis(trifluoromethylsulfonyl)amide; phases: Liquid
Fixed: Mole fraction of pyridine = 0
Fixed: Pressure, kPa = 101.325
Property: Activity coefficient of pyridine (Liquid); method: Other
Temperature, K	Activity coefficient of pyridine	uncertainty
318.15	0.387	
328.15	0.404	
338.15	0.42	
348.15	0.435	
358.15	0.451	
368.15	0.466	

System: methanol + 1-dodecyl-3-methyl-1H-imidazolium bis(trifluoromethylsulfonyl)amide; phases: Liquid
Fixed: Mole fraction of methanol = 0
Fixed: Pressure, kPa = 101.325
Property: Activity coefficient of methanol (Liquid); method: Other
Temperature, K	Activity coefficient of methanol	uncertainty
318.15	1.29	
328.15	1.22	
338.15	1.15	
348.15	1.10	
358.15	1.05	
368.15	1.01	

System: ethanol + 1-dodecyl-3-methyl-1H-imidazolium bis(trifluoromethylsulfonyl)amide; phases: Liquid
Fixed: Mole fraction of ethanol = 0
Fixed: Pressure, kPa = 101.325
Property: Activity coefficient of ethanol (Liquid); method: Other
Temperature, K	Activity coefficient of ethanol	uncertainty
318.15	1.38	
328.15	1.30	
338.15	1.23	
348.15	1.17	
358.15	1.11	
368.15	1.06	

System: propan-1-ol + 1-dodecyl-3-methyl-1H-imidazolium bis(trifluoromethylsulfonyl)amide; phases: Liquid
Fixed: Mole fraction of propan-1-ol = 0
Fixed: Pressure, kPa = 101.325
Property: Activity coefficient of propan-1-ol (Liquid); method: Other
Temperature, K	Activity coefficient of propan-1-ol	uncertainty
318.15	1.45	
328.15	1.36	
338.15	1.29	
348.15	1.22	
358.15	1.16	
368.15	1.11	

System: propan-2-ol + 1-dodecyl-3-methyl-1H-imidazolium bis(trifluoromethylsulfonyl)amide; phases: Liquid
Fixed: Mole fraction of propan-2-ol = 0
Fixed: Pressure, kPa = 101.325
Property: Activity coefficient of propan-2-ol (Liquid); method: Other
Temperature, K	Activity coefficient of propan-2-ol	uncertainty
318.15	1.34	
328.15	1.26	
338.15	1.18	
348.15	1.12	
358.15	1.07	
368.15	1.02	

System: butan-1-ol + 1-dodecyl-3-methyl-1H-imidazolium bis(trifluoromethylsulfonyl)amide; phases: Liquid
Fixed: Mole fraction of butan-1-ol = 0
Fixed: Pressure, kPa = 101.325
Property: Activity coefficient of butan-1-ol (Liquid); method: Other
Temperature, K	Activity coefficient of butan-1-ol	uncertainty
318.15	1.55	
328.15	1.46	
338.15	1.38	
348.15	1.31	
358.15	1.24	
368.15	1.19	

System: butan-2-ol + 1-dodecyl-3-methyl-1H-imidazolium bis(trifluoromethylsulfonyl)amide; phases: Liquid
Fixed: Mole fraction of butan-2-ol = 0
Fixed: Pressure, kPa = 101.325
Property: Activity coefficient of butan-2-ol (Liquid); method: Other
Temperature, K	Activity coefficient of butan-2-ol	uncertainty
318.15	1.29	
328.15	1.23	
338.15	1.18	
348.15	1.13	
358.15	1.09	
368.15	1.05	

System: 2-methyl-1-propanol + 1-dodecyl-3-methyl-1H-imidazolium bis(trifluoromethylsulfonyl)amide; phases: Liquid
Fixed: Mole fraction of 2-methyl-1-propanol = 0
Fixed: Pressure, kPa = 101.325
Property: Activity coefficient of 2-methyl-1-propanol (Liquid); method: Other
Temperature, K	Activity coefficient of 2-methyl-1-propanol	uncertainty
318.15	1.52	
328.15	1.42	
338.15	1.34	
348.15	1.26	
358.15	1.19	
368.15	1.13	

System: tert-butanol + 1-dodecyl-3-methyl-1H-imidazolium bis(trifluoromethylsulfonyl)amide; phases: Liquid
Fixed: Mole fraction of tert-butanol = 0
Fixed: Pressure, kPa = 101.325
Property: Activity coefficient of tert-butanol (Liquid); method: Other
Temperature, K	Activity coefficient of tert-butanol	uncertainty
318.15	1.12	
328.15	1.08	
338.15	1.04	
348.15	0.998	
358.15	0.964	
368.15	0.933	

System: pentan-1-ol + 1-dodecyl-3-methyl-1H-imidazolium bis(trifluoromethylsulfonyl)amide; phases: Liquid
Fixed: Mole fraction of pentan-1-ol = 0
Fixed: Pressure, kPa = 101.325
Property: Activity coefficient of pentan-1-ol (Liquid); method: Other
Temperature, K	Activity coefficient of pentan-1-ol	uncertainty
318.15	1.52	
328.15	1.46	
338.15	1.40	
348.15	1.35	
358.15	1.30	
368.15	1.26	

System: water + 1-dodecyl-3-methyl-1H-imidazolium bis(trifluoromethylsulfonyl)amide; phases: Liquid
Fixed: Mole fraction of water = 0
Fixed: Pressure, kPa = 101.325
Property: Activity coefficient of water (Liquid); method: Other
Temperature, K	Activity coefficient of water	uncertainty
318.15	4.49	
328.15	4.02	
338.15	3.64	
348.15	3.31	
358.15	3.03	
368.15	2.78	

System: methyl acetate + 1-dodecyl-3-methyl-1H-imidazolium bis(trifluoromethylsulfonyl)amide; phases: Liquid
Fixed: Mole fraction of methyl acetate = 0
Fixed: Pressure, kPa = 101.325
Property: Activity coefficient of methyl acetate (Liquid); method: Other
Temperature, K	Activity coefficient of methyl acetate	uncertainty
318.15	0.503	
328.15	0.525	
338.15	0.546	
348.15	0.566	
358.15	0.586	
368.15	0.606	

System: methyl propanoate + 1-dodecyl-3-methyl-1H-imidazolium bis(trifluoromethylsulfonyl)amide; phases: Liquid
Fixed: Mole fraction of methyl propanoate = 0
Fixed: Pressure, kPa = 101.325
Property: Activity coefficient of methyl propanoate (Liquid); method: Other
Temperature, K	Activity coefficient of methyl propanoate	uncertainty
318.15	0.531	
328.15	0.557	
338.15	0.583	
348.15	0.608	
358.15	0.634	
368.15	0.659	

System: methyl butanoate + 1-dodecyl-3-methyl-1H-imidazolium bis(trifluoromethylsulfonyl)amide; phases: Liquid
Fixed: Mole fraction of methyl butanoate = 0
Fixed: Pressure, kPa = 101.325
Property: Activity coefficient of methyl butanoate (Liquid); method: Other
Temperature, K	Activity coefficient of methyl butanoate	uncertainty
318.15	0.613	
328.15	0.643	
338.15	0.674	
348.15	0.704	
358.15	0.733	
368.15	0.762	

System: ethyl acetate + 1-dodecyl-3-methyl-1H-imidazolium bis(trifluoromethylsulfonyl)amide; phases: Liquid
Fixed: Mole fraction of ethyl acetate = 0
Fixed: Pressure, kPa = 101.325
Property: Activity coefficient of ethyl acetate (Liquid); method: Other
Temperature, K	Activity coefficient of ethyl acetate	uncertainty
318.15	0.541	
328.15	0.567	
338.15	0.593	
348.15	0.619	
358.15	0.645	
368.15	0.670	

System: tetrahydrofuran + 1-dodecyl-3-methyl-1H-imidazolium bis(trifluoromethylsulfonyl)amide; phases: Liquid
Fixed: Mole fraction of tetrahydrofuran = 0
Fixed: Pressure, kPa = 101.325
Property: Activity coefficient of tetrahydrofuran (Liquid); method: Other
Temperature, K	Activity coefficient of tetrahydrofuran	uncertainty
318.15	0.394	
328.15	0.417	
338.15	0.44	
348.15	0.462	
358.15	0.484	
368.15	0.508	

System: 1,4-dioxane + 1-dodecyl-3-methyl-1H-imidazolium bis(trifluoromethylsulfonyl)amide; phases: Liquid
Fixed: Mole fraction of 1,4-dioxane = 0
Fixed: Pressure, kPa = 101.325
Property: Activity coefficient of 1,4-dioxane (Liquid); method: Other
Temperature, K	Activity coefficient of 1,4-dioxane	uncertainty
318.15	0.474	
328.15	0.499	
338.15	0.524	
348.15	0.548	
358.15	0.572	
368.15	0.597	

System: tert-butyl methyl ether + 1-dodecyl-3-methyl-1H-imidazolium bis(trifluoromethylsulfonyl)amide; phases: Liquid
Fixed: Mole fraction of tert-butyl methyl ether = 0
Fixed: Pressure, kPa = 101.325
Property: Activity coefficient of tert-butyl methyl ether (Liquid); method: Other
Temperature, K	Activity coefficient of tert-butyl methyl ether	uncertainty
318.15	0.930	
328.15	0.985	
338.15	1.04	
348.15	1.09	
358.15	1.14	
368.15	1.20	

System: tert-butyl ethyl ether + 1-dodecyl-3-methyl-1H-imidazolium bis(trifluoromethylsulfonyl)amide; phases: Liquid
Fixed: Mole fraction of tert-butyl ethyl ether = 0
Fixed: Pressure, kPa = 101.325
Property: Activity coefficient of tert-butyl ethyl ether (Liquid); method: Other
Temperature, K	Activity coefficient of tert-butyl ethyl ether	uncertainty
318.15	1.55	
328.15	1.62	
338.15	1.69	
348.15	1.75	
358.15	1.82	
368.15	1.88	

System: tert-amyl methyl ether + 1-dodecyl-3-methyl-1H-imidazolium bis(trifluoromethylsulfonyl)amide; phases: Liquid
Fixed: Mole fraction of tert-amyl methyl ether = 0
Fixed: Pressure, kPa = 101.325
Property: Activity coefficient of tert-amyl methyl ether (Liquid); method: Other
Temperature, K	Activity coefficient of tert-amyl methyl ether	uncertainty
318.15	1.11	
328.15	1.17	
338.15	1.23	
348.15	1.29	
358.15	1.35	
368.15	1.40	

System: diethyl ether + 1-dodecyl-3-methyl-1H-imidazolium bis(trifluoromethylsulfonyl)amide; phases: Liquid
Fixed: Mole fraction of diethyl ether = 0
Fixed: Pressure, kPa = 101.325
Property: Activity coefficient of diethyl ether (Liquid); method: Other
Temperature, K	Activity coefficient of diethyl ether	uncertainty
318.15	0.983	
328.15	1.03	
338.15	1.07	
348.15	1.12	
358.15	1.16	
368.15	1.20	

System: dipropyl ether + 1-dodecyl-3-methyl-1H-imidazolium bis(trifluoromethylsulfonyl)amide; phases: Liquid
Fixed: Mole fraction of dipropyl ether = 0
Fixed: Pressure, kPa = 101.325
Property: Activity coefficient of dipropyl ether (Liquid); method: Other
Temperature, K	Activity coefficient of dipropyl ether	uncertainty
318.15	1.67	
328.15	1.73	
338.15	1.79	
348.15	1.84	
358.15	1.89	
368.15	1.94	

System: diisopropyl ether + 1-dodecyl-3-methyl-1H-imidazolium bis(trifluoromethylsulfonyl)amide; phases: Liquid
Fixed: Mole fraction of diisopropyl ether = 0
Fixed: Pressure, kPa = 101.325
Property: Activity coefficient of diisopropyl ether (Liquid); method: Other
Temperature, K	Activity coefficient of diisopropyl ether	uncertainty
318.15	1.65	
328.15	1.72	
338.15	1.79	
348.15	1.86	
358.15	1.93	
368.15	1.99	

System: di-n-butyl ether + 1-dodecyl-3-methyl-1H-imidazolium bis(trifluoromethylsulfonyl)amide; phases: Liquid
Fixed: Mole fraction of di-n-butyl ether = 0
Fixed: Pressure, kPa = 101.325
Property: Activity coefficient of di-n-butyl ether (Liquid); method: Other
Temperature, K	Activity coefficient of di-n-butyl ether	uncertainty
318.15	2.46	
328.15	2.51	
338.15	2.57	
348.15	2.62	
358.15	2.67	
368.15	2.71	

System: acetone + 1-dodecyl-3-methyl-1H-imidazolium bis(trifluoromethylsulfonyl)amide; phases: Liquid
Fixed: Mole fraction of acetone = 0
Fixed: Pressure, kPa = 101.325
Property: Activity coefficient of acetone (Liquid); method: Other
Temperature, K	Activity coefficient of acetone	uncertainty
318.15	0.353	
328.15	0.369	
338.15	0.386	
348.15	0.401	
358.15	0.417	
368.15	0.432	

System: 2-pentanone + 1-dodecyl-3-methyl-1H-imidazolium bis(trifluoromethylsulfonyl)amide; phases: Liquid
Fixed: Mole fraction of 2-pentanone = 0
Fixed: Pressure, kPa = 101.325
Property: Activity coefficient of 2-pentanone (Liquid); method: Other
Temperature, K	Activity coefficient of 2-pentanone	uncertainty
318.15	0.421	
328.15	0.445	
338.15	0.468	
348.15	0.492	
358.15	0.516	
368.15	0.539	

System: 3-pentanone + 1-dodecyl-3-methyl-1H-imidazolium bis(trifluoromethylsulfonyl)amide; phases: Liquid
Fixed: Mole fraction of 3-pentanone = 0
Fixed: Pressure, kPa = 101.325
Property: Activity coefficient of 3-pentanone (Liquid); method: Other
Temperature, K	Activity coefficient of 3-pentanone	uncertainty
318.15	0.418	
328.15	0.444	
338.15	0.470	
348.15	0.496	
358.15	0.521	
368.15	0.546	

System: butanal + 1-dodecyl-3-methyl-1H-imidazolium bis(trifluoromethylsulfonyl)amide; phases: Liquid
Fixed: Mole fraction of butanal = 0
Fixed: Pressure, kPa = 101.325
Property: Activity coefficient of butanal (Liquid); method: Other
Temperature, K	Activity coefficient of butanal	uncertainty
318.15	0.464	
328.15	0.486	
338.15	0.510	
348.15	0.531	
358.15	0.554	
368.15	0.575	

System: acetonitrile + 1-dodecyl-3-methyl-1H-imidazolium bis(trifluoromethylsulfonyl)amide; phases: Liquid
Fixed: Mole fraction of acetonitrile = 0
Fixed: Pressure, kPa = 101.325
Property: Activity coefficient of acetonitrile (Liquid); method: Other
Temperature, K	Activity coefficient of acetonitrile	uncertainty
318.15	0.508	
328.15	0.515	
338.15	0.524	
348.15	0.531	
358.15	0.539	
368.15	0.545	

System: 1-nitropropane + 1-dodecyl-3-methyl-1H-imidazolium bis(trifluoromethylsulfonyl)amide; phases: Liquid
Fixed: Mole fraction of 1-nitropropane = 0
Fixed: Pressure, kPa = 101.325
Property: Activity coefficient of 1-nitropropane (Liquid); method: Other
Temperature, K	Activity coefficient of 1-nitropropane	uncertainty
318.15	0.567	
328.15	0.582	
338.15	0.596	
348.15	0.609	
358.15	0.621	
368.15	0.634	
