Measured thermophysical data. Studies on the importance of chain length of alkanols on the thermodynamic and transport properties of liquid mixtures at various temperatures
Source: J. Chem. Thermodyn., 2017, 10.1016/j.jct.2016.12.019
Compound 1: N,N-diethylaniline, C10H15N
Compound 2: 1-octanol, C8H18O
Compound 3: 1-nonanol, C9H20O
Compound 4: 1-decanol, C10H22O

System: N,N-diethylaniline; phases: Liquid
Property: Mass density, kg/m3 (Liquid); method: Vibrating tube method
Temperature, K	Pressure, kPa	Mass density, kg/m3	uncertainty
303.15	100	925.8	
308.15	100	921.8	
313.15	100	917.9	
318.15	100	913.8	

System: N,N-diethylaniline; phases: Liquid
Fixed: Frequency, MHz = 2
Property: Speed of sound, m/s (Liquid); method: Linear variable-path acoustic interferometer
Temperature, K	Pressure, kPa	Speed of sound, m/s	uncertainty
303.15	100	1432	
308.15	100	1416	
313.15	100	1398	
318.15	100	1378	

System: N,N-diethylaniline; phases: Liquid
Property: Viscosity, Pa*s (Liquid); method: Capillary tube (Ostwald; Ubbelohde) method
Temperature, K	Pressure, kPa	Viscosity, Pa*s	uncertainty
303.15	100	.001711	
308.15	100	.001537	
313.15	100	.0014	
318.15	100	.001276	

System: 1-nonanol; phases: Liquid
Property: Mass density, kg/m3 (Liquid); method: Vibrating tube method
Temperature, K	Pressure, kPa	Mass density, kg/m3	uncertainty
303.15	100	821.36	
308.15	100	817.54	
313.15	100	814.05	
318.15	100	808.97	

System: 1-nonanol; phases: Liquid
Fixed: Frequency, MHz = 2
Property: Speed of sound, m/s (Liquid); method: Linear variable-path acoustic interferometer
Temperature, K	Pressure, kPa	Speed of sound, m/s	uncertainty
303.15	100	1357	
308.15	100	1334	
313.15	100	1313	
318.15	100	1293.5	

System: 1-nonanol; phases: Liquid
Property: Viscosity, Pa*s (Liquid); method: Capillary tube (Ostwald; Ubbelohde) method
Temperature, K	Pressure, kPa	Viscosity, Pa*s	uncertainty
303.15	100	.007809	
308.15	100	.006499	
313.15	100	.005665	
318.15	100	.004676	

System: N,N-diethylaniline + 1-octanol; phases: Liquid
Fixed: Pressure, kPa = 100
Property: Mass density, kg/m3 (Liquid); method: Vibrating tube method
Mole fraction of N,N-diethylaniline	Temperature, K	Mass density, kg/m3	uncertainty
0	303.15	818.25	
.1157	303.15	828.58	
.2012	303.15	836.5	
.3115	303.15	847.11	
.4221	303.15	858.24	
.5111	303.15	867.57	
.6217	303.15	879.68	
.7135	303.15	890.17	
.8063	303.15	901.22	
.9045	303.15	913.42	
1	303.15	925.8	
0	308.15	814.72	
.1157	308.15	824.98	
.2012	308.15	832.86	
.3115	308.15	843.43	
.4221	308.15	854.51	
.5111	308.15	863.81	
.6217	308.15	875.86	
.7135	308.15	886.3	
.8063	308.15	897.3	
.9045	308.15	909.45	
1	308.15	921.8	
0	313.15	810.07	
.1157	313.15	820.38	
.2012	313.15	828.3	
.3115	313.15	838.94	
.4221	313.15	850.09	
.5111	313.15	859.45	
.6217	313.15	871.58	
.7135	313.15	882.1	
.8063	313.15	893.18	
.9045	313.15	905.42	
1	313.15	917.9	
0	318.15	805.52	
.1157	318.15	815.85	
.2012	318.15	823.79	
.3115	318.15	834.47	
.4221	318.15	845.67	
.5111	318.15	855.06	
.6217	318.15	867.24	
.7135	318.15	877.8	
.8063	318.15	888.93	
.9045	318.15	901.24	
1	318.15	913.8	

System: N,N-diethylaniline + 1-octanol; phases: Liquid
Fixed: Pressure, kPa = 100
Fixed: Frequency, MHz = 2
Property: Speed of sound, m/s (Liquid); method: Linear variable-path acoustic interferometer
Temperature, K	Mole fraction of N,N-diethylaniline	Speed of sound, m/s	uncertainty
303.15	0	1333.5	
303.15	.1157	1338.2	
303.15	.2012	1342.6	
303.15	.3115	1349.2	
303.15	.4221	1357.3	
303.15	.5111	1364.9	
303.15	.6217	1375.9	
303.15	.7135	1386.8	
303.15	.8063	1399.4	
303.15	.9045	1414.7	
303.15	1	1432	
308.15	0	1312.5	
308.15	.1157	1317.3	
308.15	.2012	1321.9	
308.15	.3115	1329.1	
308.15	.4221	1337.7	
308.15	.5111	1345.7	
308.15	.6217	1357.3	
308.15	.7135	1368.4	
308.15	.8063	1381.4	
308.15	.9045	1397.3	
308.15	1	1416	
313.15	0	1295.4	
313.15	.1157	1300	
313.15	.2012	1304.5	
313.15	.3115	1311.6	
313.15	.4221	1320.2	
313.15	.5111	1328.2	
313.15	.6217	1339.5	
313.15	.7135	1350.5	
313.15	.8063	1363.3	
313.15	.9045	1379.3	
313.15	1	1398	
318.15	0	1282.5	
318.15	.1157	1286.3	
318.15	.2012	1290.4	
318.15	.3115	1297	
318.15	.4221	1304.9	
318.15	.5111	1312.4	
318.15	.6217	1323	
318.15	.7135	1333.2	
318.15	.8063	1345.1	
318.15	.9045	1360.1	
318.15	1	1378	

System: N,N-diethylaniline + 1-octanol; phases: Liquid
Fixed: Pressure, kPa = 100
Property: Viscosity, Pa*s (Liquid); method: Capillary tube (Ostwald; Ubbelohde) method
Temperature, K	Mole fraction of N,N-diethylaniline	Viscosity, Pa*s	uncertainty
303.15	0	.006405	
303.15	.1157	.005469	
303.15	.2012	.004863	
303.15	.3115	.004178	
303.15	.4221	.00359	
303.15	.5111	.00318	
303.15	.6217	.002743	
303.15	.7135	.002433	
303.15	.8063	.002162	
303.15	.9045	.001915	
303.15	1	.001711	
308.15	0	.005422	
308.15	.1157	.004653	
308.15	.2012	.004155	
308.15	.3115	.00359	
308.15	.4221	.003132	
308.15	.5111	.002762	
308.15	.6217	.002397	
308.15	.7135	.002137	
308.15	.8063	.001913	
308.15	.9045	.001704	
308.15	1	.001537	
313.15	0	.004625	
313.15	.1157	.003991	
313.15	.2012	.00358	
313.15	.3115	.003112	
313.15	.4221	.002707	
313.15	.5111	.002422	
313.15	.6217	.002118	
313.15	.7135	.001899	
313.15	.8063	.001708	
313.15	.9045	.001536	
313.15	1	.0014	
318.15	0	.004051	
318.15	.1157	.003504	
318.15	.2012	.003151	
318.15	.3115	.002748	
318.15	.4221	.002398	
318.15	.5111	.002154	
318.15	.6217	.001889	
318.15	.7135	.001701	
318.15	.8063	.001535	
318.15	.9045	.001388	
318.15	1	.001276	

System: N,N-diethylaniline + 1-nonanol; phases: Liquid
Fixed: Pressure, kPa = 100
Property: Mass density, kg/m3 (Liquid); method: Vibrating tube method
Mole fraction of N,N-diethylaniline	Temperature, K	Mass density, kg/m3	uncertainty
0	303.15	821.36	
.1136	303.15	829.82	
.2326	303.15	840.12	
.3469	303.15	850.43	
.4541	303.15	860.76	
.5549	303.15	871.13	
.6498	303.15	881.45	
.7293	303.15	890.62	
.8244	303.15	902.24	
.9041	303.15	912.58	
1	303.15	925.8	
0	308.15	817.54	
.1136	308.15	826.24	
.2326	308.15	836.48	
.3469	308.15	846.76	
.4541	308.15	857.04	
.5549	308.15	867.33	
.6498	308.15	877.63	
.7293	308.15	886.75	
.8244	308.15	898.32	
.9041	308.15	908.61	
1	308.15	921.8	
0	313.15	814.05	
.1136	313.15	822.7	
.2326	313.15	832.9	
.3469	313.15	843.13	
.4541	313.15	853.37	
.5549	313.15	863.63	
.6498	313.15	873.88	
.7293	313.15	882.96	
.8244	313.15	894.48	
.9041	313.15	904.74	
1	313.15	917.9	
0	318.15	808.97	
.1136	318.15	817.68	
.2326	318.15	827.96	
.3469	318.15	838.28	
.4541	318.15	848.61	
.5549	318.15	858.95	
.6498	318.15	869.3	
.7293	318.15	878.48	
.8244	318.15	890.11	
.9041	318.15	900.48	
1	318.15	913.8	

System: N,N-diethylaniline + 1-nonanol; phases: Liquid
Fixed: Pressure, kPa = 100
Fixed: Frequency, MHz = 2
Property: Speed of sound, m/s (Liquid); method: Linear variable-path acoustic interferometer
Temperature, K	Mole fraction of N,N-diethylaniline	Speed of sound, m/s	uncertainty
303.15	0	1357	
303.15	.1136	1359	
303.15	.2326	1362.8	
303.15	.3469	1367.6	
303.15	.4541	1373.5	
303.15	.5549	1380.2	
303.15	.6498	1387.8	
303.15	.7293	1395.3	
303.15	.8244	1405.9	
303.15	.9041	1416.7	
303.15	1	1432	
308.15	0	1334	
308.15	.1136	1336.3	
308.15	.2326	1340.6	
308.15	.3469	1346.2	
308.15	.4541	1352.7	
308.15	.5549	1360.1	
308.15	.6498	1368.3	
308.15	.7293	1376.3	
308.15	.8244	1387.7	
308.15	.9041	1399.2	
308.15	1	1416	
313.15	0	1313	
313.15	.1136	1315.3	
313.15	.2326	1320	
313.15	.3469	1325.9	
313.15	.4541	1332.7	
313.15	.5549	1340.4	
313.15	.6498	1348.9	
313.15	.7293	1357.1	
313.15	.8244	1368.8	
313.15	.9041	1380.6	
313.15	1	1398	
318.15	0	1293.5	
318.15	.1136	1295.7	
318.15	.2326	1300.3	
318.15	.3469	1306.2	
318.15	.4541	1312.9	
318.15	.5549	1320.6	
318.15	.6498	1328.9	
318.15	.7293	1337.1	
318.15	.8244	1348.6	
318.15	.9041	1360.3	
318.15	1	1378	

System: N,N-diethylaniline + 1-nonanol; phases: Liquid
Fixed: Pressure, kPa = 100
Property: Viscosity, Pa*s (Liquid); method: Capillary tube (Ostwald; Ubbelohde) method
Temperature, K	Mole fraction of N,N-diethylaniline	Viscosity, Pa*s	uncertainty
303.15	0	.007809	
303.15	.1136	.006563	
303.15	.2326	.005409	
303.15	.3469	.004509	
303.15	.4541	.003804	
303.15	.5549	.003248	
303.15	.6498	.002805	
303.15	.7293	.002488	
303.15	.8244	.002166	
303.15	.9041	.001938	
303.15	1	.001711	
308.15	0	.006499	
308.15	.1136	.005491	
308.15	.2326	.004557	
308.15	.3469	.003828	
308.15	.4541	.003252	
308.15	.5549	.002794	
308.15	.6498	.002427	
308.15	.7293	.002164	
308.15	.8244	.001898	
308.15	.9041	.001714	
308.15	1	.001537	
313.15	0	.005665	
313.15	.1136	.004791	
313.15	.2326	.003988	
313.15	.3469	.003362	
313.15	.4541	.002867	
313.15	.5549	.002471	
313.15	.6498	.002154	
313.15	.7293	.001926	
313.15	.8244	.001697	
313.15	.9041	.001541	
313.15	1	.0014	
318.15	0	.004676	
318.15	.1136	.003979	
318.15	.2326	.003341	
318.15	.3469	.002843	
318.15	.4541	.002447	
318.15	.5549	.002128	
318.15	.6498	.001869	
318.15	.7293	.001683	
318.15	.8244	.001498	
318.15	.9041	.001377	
318.15	1	.001276	

System: N,N-diethylaniline + 1-decanol; phases: Liquid
Fixed: Pressure, kPa = 100
Property: Mass density, kg/m3 (Liquid); method: Vibrating tube method
Mole fraction of N,N-diethylaniline	Temperature, K	Mass density, kg/m3	uncertainty
0	303.15	822.89	
.1141	303.15	831.36	
.2218	303.15	839.38	
.3717	303.15	852.13	
.4886	303.15	863.05	
.5815	303.15	872.51	
.6645	303.15	881.58	
.7545	303.15	892.16	
.8324	303.15	902.01	
.9121	303.15	912.85	
1	303.15	925.8	
0	308.15	819.54	
.1141	308.15	827.63	
.2218	308.15	835.9	
.3717	308.15	848.55	
.4886	308.15	859.44	
.5815	308.15	868.83	
.6645	308.15	877.84	
.7545	308.15	888.35	
.8324	308.15	898.14	
.9121	308.15	908.91	
1	308.15	921.8	
0	313.15	815.95	
.1141	313.15	824	
.2218	313.15	832.24	
.3717	313.15	844.85	
.4886	313.15	855.71	
.5815	313.15	865.07	
.6645	313.15	874.05	
.7545	313.15	884.52	
.8324	313.15	894.28	
.9121	313.15	905.03	
1	313.15	917.9	
0	318.15	811.35	
.1141	318.15	819.43	
.2218	318.15	827.69	
.3717	318.15	840.35	
.4886	318.15	851.26	
.5815	318.15	860.67	
.6645	318.15	869.69	
.7545	318.15	880.21	
.8324	318.15	890.03	
.9121	318.15	900.83	
1	318.15	913.8	

System: N,N-diethylaniline + 1-decanol; phases: Liquid
Fixed: Pressure, kPa = 100
Fixed: Frequency, MHz = 2
Property: Speed of sound, m/s (Liquid); method: Linear variable-path acoustic interferometer
Temperature, K	Mole fraction of N,N-diethylaniline	Speed of sound, m/s	uncertainty
303.15	0	1363.5	
303.15	.1141	1364.5	
303.15	.2218	1366.8	
303.15	.3717	1372.3	
303.15	.4886	1378.1	
303.15	.5815	1383.9	
303.15	.6645	1390.1	
303.15	.7545	1398.3	
303.15	.8324	1406.8	
303.15	.9121	1417.5	
303.15	1	1432	
308.15	0	1344.2	
308.15	.1141	1345.2	
308.15	.2218	1347.8	
308.15	.3717	1353.7	
308.15	.4886	1359.9	
308.15	.5815	1366	
308.15	.6645	1372.5	
308.15	.7545	1380.9	
308.15	.8324	1389.7	
308.15	.9121	1400.6	
308.15	1	1416	
313.15	0	1328.5	
313.15	.1141	1329.2	
313.15	.2218	1331.8	
313.15	.3717	1337.5	
313.15	.4886	1343.5	
313.15	.5815	1349.5	
313.15	.6645	1355.7	
313.15	.7545	1363.8	
313.15	.8324	1372.3	
313.15	.9121	1382.9	
313.15	1	1398	
318.15	0	1320.5	
318.15	.1141	1320.2	
318.15	.2218	1321.6	
318.15	.3717	1326.2	
318.15	.4886	1331	
318.15	.5815	1336	
318.15	.6645	1341.2	
318.15	.7545	1348	
318.15	.8324	1355.4	
318.15	.9121	1364.7	
318.15	1	1378	

System: N,N-diethylaniline + 1-decanol; phases: Liquid
Fixed: Pressure, kPa = 100
Property: Viscosity, Pa*s (Liquid); method: Capillary tube (Ostwald; Ubbelohde) method
Temperature, K	Mole fraction of N,N-diethylaniline	Viscosity, Pa*s	uncertainty
303.15	0	.009751	
303.15	.1141	.007932	
303.15	.2218	.006521	
303.15	.3717	.00496	
303.15	.4886	.004007	
303.15	.5815	.003386	
303.15	.6645	.002918	
303.15	.7545	.002494	
303.15	.8324	.002185	
303.15	.9121	.001929	
303.15	1	.001711	
308.15	0	.008138	
308.15	.1141	.006651	
308.15	.2218	.005497	
308.15	.3717	.004217	
308.15	.4886	.00343	
308.15	.5815	.002914	
308.15	.6645	.002523	
308.15	.7545	.002167	
308.15	.8324	.001913	
308.15	.9121	.001705	
308.15	1	.001537	
313.15	0	.006846	
313.15	.1141	.005619	
313.15	.2218	.004671	
313.15	.3717	.003616	
313.15	.4886	.002963	
313.15	.5815	.002529	
313.15	.6645	.002199	
313.15	.7545	.001898	
313.15	.8324	.001687	
313.15	.9121	.00152	
313.15	1	.0014	
318.15	0	.005879	
318.15	.1141	.004835	
318.15	.2218	.004032	
318.15	.3717	.003137	
318.15	.4886	.002582	
318.15	.5815	.00221	
318.15	.6645	.001928	
318.15	.7545	.001672	
318.15	.8324	.001493	
318.15	.9121	.001359	
318.15	1	.001276	
