Measured thermophysical data. Determination of infinite dilution activity coefficients using HS-SPME/GC/FID for hydrocarbons in furfural at temperatures of (298.15, 308.15, and 318.15) K
Source: J. Chem. Thermodyn., 2012, 10.1016/j.jct.2012.01.016
Compound 1: pentane, C5H12, purity 99%
Compound 2: n-hexane, C6H14, purity 99%
Compound 3: heptane, C7H16, purity 99.5%
Compound 4: cyclopentane, C5H10, purity 99%
Compound 5: cyclohexane, C6H12, purity 99.5%
Compound 6: benzene, C6H6, purity 99.5%
Compound 7: toluene, C7H8, purity 99.5%
Compound 8: ethylbenzene, C8H10, purity 99%
Compound 9: 1,2-dimethylbenzene, C8H10, purity 98%
Compound 10: 2-furaldehyde, C5H4O2, purity 98%

System: 2-furaldehyde + pentane; phases: Liquid, Gas
Fixed: Mole fraction of pentane = 0
Property: Activity coefficient of pentane (Liquid); method: Headspace solid phase microextraction
Temperature, K	Activity coefficient of pentane	uncertainty
298.15	20.8	.9
308.15	17.9	.4
318.15	16.8	.9
298.15	20.4	.8
308.15	16.9	.6
318.15	15	1.1

System: 2-furaldehyde + n-hexane; phases: Liquid, Gas
Fixed: Mole fraction of n-hexane = 0
Property: Activity coefficient of n-hexane (Liquid); method: Headspace solid phase microextraction
Temperature, K	Activity coefficient of n-hexane	uncertainty
298.15	25.6	.3
298.15	25.3	.3
308.15	23.6	.8
308.15	22.8	.8
318.15	22.2	.9
318.15	21.2	1

System: 2-furaldehyde + heptane; phases: Liquid, Gas
Fixed: Mole fraction of heptane = 0
Property: Activity coefficient of heptane (Liquid); method: Headspace solid phase microextraction
Temperature, K	Activity coefficient of heptane	uncertainty
298.15	32	.7
298.15	31.6	.7
308.15	30.8	.2
308.15	29.6	.3
318.15	28.3	1.1
318.15	26.4	.9

System: 2-furaldehyde + cyclopentane; phases: Liquid, Gas
Fixed: Mole fraction of cyclopentane = 0
Property: Activity coefficient of cyclopentane (Liquid); method: Headspace solid phase microextraction
Temperature, K	Activity coefficient of cyclopentane	uncertainty
298.15	11.6	.2
298.15	11.4	.2
308.15	10.7	.2
308.15	10.1	.3
318.15	10.4	.2
318.15	9.3	.3

System: 2-furaldehyde + cyclohexane; phases: Liquid, Gas
Fixed: Mole fraction of cyclohexane = 0
Property: Activity coefficient of cyclohexane (Liquid); method: Headspace solid phase microextraction
Temperature, K	Activity coefficient of cyclohexane	uncertainty
298.15	15.7	.6
298.15	15.5	.5
308.15	13.5	.2
308.15	12.9	.3
318.15	12	.2
318.15	10.9	.2

System: benzene + 2-furaldehyde; phases: Liquid, Gas
Fixed: Mole fraction of benzene = 0
Property: Activity coefficient of benzene (Liquid); method: Headspace solid phase microextraction
Temperature, K	Activity coefficient of benzene	uncertainty
298.15	2.61	.05
298.15	2.45	.03
308.15	2.93	.21
308.15	2.4	.06
318.15	3.87	.15
318.15	2.89	.07

System: 2-furaldehyde + toluene; phases: Liquid, Gas
Fixed: Mole fraction of toluene = 0
Property: Activity coefficient of toluene (Liquid); method: Headspace solid phase microextraction
Temperature, K	Activity coefficient of toluene	uncertainty
298.15	3.72	.12
298.15	3.46	.12
308.15	3.79	.29
308.15	3.33	.18
318.15	5.3	.49
318.15	3.8	.23

System: 2-furaldehyde + ethylbenzene; phases: Liquid, Gas
Fixed: Mole fraction of ethylbenzene = 0
Property: Activity coefficient of ethylbenzene (Liquid); method: Headspace solid phase microextraction
Temperature, K	Activity coefficient of ethylbenzene	uncertainty
298.15	4.84	.18
298.15	4.52	.18
308.15	5.02	.18
308.15	4.35	.16
318.15	7.21	.09
318.15	5.25	.07

System: 1,2-dimethylbenzene + 2-furaldehyde; phases: Liquid, Gas
Fixed: Mole fraction of 1,2-dimethylbenzene = 0
Property: Activity coefficient of 1,2-dimethylbenzene (Liquid); method: Headspace solid phase microextraction
Temperature, K	Activity coefficient of 1,2-dimethylbenzene	uncertainty
298.15	4.12	.07
298.15	3.74	.05
308.15	4.44	.36
308.15	3.55	.15
318.15	6.77	.21
318.15	4.61	.04
