Measured thermophysical data. Gas liquid chromatography measurements of activity coefficients  at infinite dilution of various organic solutes and water in  tri-iso-butylmethylphosphonium tosylate ionic liquid
Source: J. Chem. Thermodyn., 2010, 10.1016/j.jct.2010.01.004
Compound 1: triisobutylmethylphosphonium p-toluenesulfonate, C20H37O3PS, purity 95%
Compound 2: pentane, C5H12, purity 99%
Compound 3: n-hexane, C6H14, purity 99%
Compound 4: heptane, C7H16, purity 99%
Compound 5: octane, C8H18, purity 99%
Compound 6: nonane, C9H20, purity 99%
Compound 7: decane, C10H22, purity 99%
Compound 8: cyclopentane, C5H10, purity 99%
Compound 9: cyclohexane, C6H12, purity 99%
Compound 10: cycloheptane, C7H14, purity 99%
Compound 11: cyclooctane, C8H16, purity 99%
Compound 12: 1-pentene, C5H10, purity 99%
Compound 13: 1-hexene, C6H12, purity 99%
Compound 14: 1-heptene, C7H14, purity 99%
Compound 15: 1-octene, C8H16, purity 99%
Compound 16: 1-pentyne, C5H8, purity 99%
Compound 17: 1-hexyne, C6H10, purity 99%
Compound 18: 1-heptyne, C7H12, purity 99%
Compound 19: 1-octyne, C8H14, purity 99%
Compound 20: benzene, C6H6, purity 99%
Compound 21: toluene, C7H8, purity 99%
Compound 22: ethylbenzene, C8H10, purity 99%
Compound 23: 1,2-dimethylbenzene, C8H10, purity 99%
Compound 24: 1,3-dimethylbenzene, C8H10, purity 99%
Compound 25: 1,4-dimethylbenzene, C8H10, purity 99%
Compound 26: methanol, CH4O, purity 99%
Compound 27: ethanol, C2H6O, purity 99%
Compound 28: propan-1-ol, C3H8O, purity 99%
Compound 29: butan-1-ol, C4H10O, purity 99%
Compound 30: pentan-1-ol, C5H12O, purity 99%
Compound 31: water, H2O, purity 99%
Compound 32: tetramethylene oxide, C4H8O, purity 99%
Compound 33: thiophene, C4H4S, purity 99%
Compound 34: methyl tert-butyl ether, C5H12O, purity 99%

System: triisobutylmethylphosphonium p-toluenesulfonate; phases: Liquid
Fixed: Pressure, kPa = 101.325
Property: Mass density, kg/m3 (Liquid); method: Vibrating tube method
Temperature, K	Mass density, kg/m3	uncertainty
308.15	1061	

System: pentane + triisobutylmethylphosphonium p-toluenesulfonate; phases: Liquid, Gas
Fixed: Mole fraction of pentane = 0
Property: Activity coefficient of pentane (Liquid); method: Chromatography
Temperature, K	Activity coefficient of pentane	uncertainty
298.15	61.4	1.842
308.15	41.5	1.245
318.15	28.5	.855
328.15	18.5	.555

System: n-hexane + triisobutylmethylphosphonium p-toluenesulfonate; phases: Liquid, Gas
Fixed: Mole fraction of n-hexane = 0
Property: Activity coefficient of n-hexane (Liquid); method: Chromatography
Temperature, K	Activity coefficient of n-hexane	uncertainty
298.15	48.8	1.464
308.15	32.2	.966
318.15	23.3	.699
328.15	16.4	.492

System: heptane + triisobutylmethylphosphonium p-toluenesulfonate; phases: Liquid, Gas
Fixed: Mole fraction of heptane = 0
Property: Activity coefficient of heptane (Liquid); method: Chromatography
Temperature, K	Activity coefficient of heptane	uncertainty
298.15	35.2	1.056
308.15	26.4	.792
318.15	20.8	.624
328.15	16.1	.483

System: octane + triisobutylmethylphosphonium p-toluenesulfonate; phases: Liquid, Gas
Fixed: Mole fraction of octane = 0
Property: Activity coefficient of octane (Liquid); method: Chromatography
Temperature, K	Activity coefficient of octane	uncertainty
298.15	30.7	.921
308.15	25.8	.774
318.15	20.6	.618
328.15	17.2	.516

System: nonane + triisobutylmethylphosphonium p-toluenesulfonate; phases: Liquid, Gas
Fixed: Mole fraction of nonane = 0
Property: Activity coefficient of nonane (Liquid); method: Chromatography
Temperature, K	Activity coefficient of nonane	uncertainty
298.15	26.8	.804
308.15	24.7	.741
318.15	21.6	.648
328.15	19.8	.594

System: decane + triisobutylmethylphosphonium p-toluenesulfonate; phases: Liquid, Gas
Fixed: Mole fraction of decane = 0
Property: Activity coefficient of decane (Liquid); method: Chromatography
Temperature, K	Activity coefficient of decane	uncertainty
298.15	33.3	.999
308.15	29.2	.876
318.15	26	.78
328.15	23.6	.708

System: cyclopentane + triisobutylmethylphosphonium p-toluenesulfonate; phases: Liquid, Gas
Fixed: Mole fraction of cyclopentane = 0
Property: Activity coefficient of cyclopentane (Liquid); method: Chromatography
Temperature, K	Activity coefficient of cyclopentane	uncertainty
298.15	20.6	.618
308.15	13.5	.405
318.15	9.69	.2907
328.15	6.79	.2037

System: cyclohexane + triisobutylmethylphosphonium p-toluenesulfonate; phases: Liquid, Gas
Fixed: Mole fraction of cyclohexane = 0
Property: Activity coefficient of cyclohexane (Liquid); method: Chromatography
Temperature, K	Activity coefficient of cyclohexane	uncertainty
298.15	22.5	.675
308.15	14.5	.435
318.15	10.5	.315
328.15	7.67	.2301

System: cycloheptane + triisobutylmethylphosphonium p-toluenesulfonate; phases: Liquid, Gas
Fixed: Mole fraction of cycloheptane = 0
Property: Activity coefficient of cycloheptane (Liquid); method: Chromatography
Temperature, K	Activity coefficient of cycloheptane	uncertainty
298.15	12.3	.369
308.15	9.79	.2937
318.15	7.64	.2292
328.15	6.55	.1965

System: cyclooctane + triisobutylmethylphosphonium p-toluenesulfonate; phases: Liquid, Gas
Fixed: Mole fraction of cyclooctane = 0
Property: Activity coefficient of cyclooctane (Liquid); method: Chromatography
Temperature, K	Activity coefficient of cyclooctane	uncertainty
298.15	10.5	.315
308.15	8.54	.2562
318.15	7.48	.2244
328.15	6.67	.2001

System: 1-pentene + triisobutylmethylphosphonium p-toluenesulfonate; phases: Liquid, Gas
Fixed: Mole fraction of 1-pentene = 0
Property: Activity coefficient of 1-pentene (Liquid); method: Chromatography
Temperature, K	Activity coefficient of 1-pentene	uncertainty
298.15	30.5	.915
308.15	20.7	.621
318.15	14.5	.435
328.15	9.91	.2973

System: 1-hexene + triisobutylmethylphosphonium p-toluenesulfonate; phases: Liquid, Gas
Fixed: Mole fraction of 1-hexene = 0
Property: Activity coefficient of 1-hexene (Liquid); method: Chromatography
Temperature, K	Activity coefficient of 1-hexene	uncertainty
298.15	23.5	.705
308.15	16.5	.495
318.15	12.4	.372
328.15	9.35	.2805

System: 1-heptene + triisobutylmethylphosphonium p-toluenesulfonate; phases: Liquid, Gas
Fixed: Mole fraction of 1-heptene = 0
Property: Activity coefficient of 1-heptene (Liquid); method: Chromatography
Temperature, K	Activity coefficient of 1-heptene	uncertainty
298.15	19.2	.576
308.15	14.6	.438
318.15	11.9	.357
328.15	9.62	.2886

System: 1-octene + triisobutylmethylphosphonium p-toluenesulfonate; phases: Liquid, Gas
Fixed: Mole fraction of 1-octene = 0
Property: Activity coefficient of 1-octene (Liquid); method: Chromatography
Temperature, K	Activity coefficient of 1-octene	uncertainty
298.15	16.6	.498
308.15	15	.45
318.15	12.2	.366
328.15	10.82	.3246

System: 1-pentyne + triisobutylmethylphosphonium p-toluenesulfonate; phases: Liquid, Gas
Fixed: Mole fraction of 1-pentyne = 0
Property: Activity coefficient of 1-pentyne (Liquid); method: Chromatography
Temperature, K	Activity coefficient of 1-pentyne	uncertainty
298.15	3.01	.0903
308.15	2.55	.0765
318.15	2.24	.0672
328.15	1.98	.0594

System: 1-hexyne + triisobutylmethylphosphonium p-toluenesulfonate; phases: Liquid, Gas
Fixed: Mole fraction of 1-hexyne = 0
Property: Activity coefficient of 1-hexyne (Liquid); method: Chromatography
Temperature, K	Activity coefficient of 1-hexyne	uncertainty
298.15	2.69	.0807
308.15	2.48	.0744
318.15	2.32	.0696
328.15	2.17	.0651

System: 1-heptyne + triisobutylmethylphosphonium p-toluenesulfonate; phases: Liquid, Gas
Fixed: Mole fraction of 1-heptyne = 0
Property: Activity coefficient of 1-heptyne (Liquid); method: Chromatography
Temperature, K	Activity coefficient of 1-heptyne	uncertainty
298.15	2.57	.0771
308.15	2.62	.0786
318.15	2.54	.0762
328.15	2.54	.0762

System: 1-octyne + triisobutylmethylphosphonium p-toluenesulfonate; phases: Liquid, Gas
Fixed: Mole fraction of 1-octyne = 0
Property: Activity coefficient of 1-octyne (Liquid); method: Chromatography
Temperature, K	Activity coefficient of 1-octyne	uncertainty
298.15	3.19	.0957
308.15	3.08	.0924
318.15	3.06	.0918
328.15	3.04	.0912

System: benzene + triisobutylmethylphosphonium p-toluenesulfonate; phases: Liquid, Gas
Fixed: Mole fraction of benzene = 0
Property: Activity coefficient of benzene (Liquid); method: Chromatography
Temperature, K	Activity coefficient of benzene	uncertainty
298.15	1.53	.0459
308.15	1.42	.0426
318.15	1.35	.0405
328.15	1.28	.0384
338.15	1.25	.0375
348.15	1.21	.0363
358.15	1.2	.036
368.15	1.18	.0354

System: toluene + triisobutylmethylphosphonium p-toluenesulfonate; phases: Liquid, Gas
Fixed: Mole fraction of toluene = 0
Property: Activity coefficient of toluene (Liquid); method: Chromatography
Temperature, K	Activity coefficient of toluene	uncertainty
298.15	1.94	.0582
308.15	1.81	.0543
318.15	1.78	.0534
328.15	1.69	.0507
338.15	1.66	.0498
348.15	1.65	.0495
358.15	1.64	.0492
368.15	1.61	.0483

System: ethylbenzene + triisobutylmethylphosphonium p-toluenesulfonate; phases: Liquid, Gas
Fixed: Mole fraction of ethylbenzene = 0
Property: Activity coefficient of ethylbenzene (Liquid); method: Chromatography
Temperature, K	Activity coefficient of ethylbenzene	uncertainty
298.15	2.51	.0753
308.15	2.37	.0711
318.15	2.33	.0699
328.15	2.25	.0675
338.15	2.2	.066
348.15	2.17	.0651
358.15	2.16	.0648
368.15	2.09	.0627

System: 1,2-dimethylbenzene + triisobutylmethylphosphonium p-toluenesulfonate; phases: Liquid, Gas
Fixed: Mole fraction of 1,2-dimethylbenzene = 0
Property: Activity coefficient of 1,2-dimethylbenzene (Liquid); method: Chromatography
Temperature, K	Activity coefficient of 1,2-dimethylbenzene	uncertainty
298.15	2.31	.0693
308.15	2.21	.0663
318.15	2.18	.0654
328.15	2.1	.063
338.15	2.06	.0618
348.15	2.04	.0612
358.15	2.03	.0609
368.15	2.01	.0603

System: 1,3-dimethylbenzene + triisobutylmethylphosphonium p-toluenesulfonate; phases: Liquid, Gas
Fixed: Mole fraction of 1,3-dimethylbenzene = 0
Property: Activity coefficient of 1,3-dimethylbenzene (Liquid); method: Chromatography
Temperature, K	Activity coefficient of 1,3-dimethylbenzene	uncertainty
298.15	2.68	.0804
308.15	2.48	.0744
318.15	2.44	.0732
328.15	2.33	.0699
338.15	2.36	.0708
348.15	2.28	.0684
358.15	2.27	.0681
368.15	2.23	.0669

System: 1,4-dimethylbenzene + triisobutylmethylphosphonium p-toluenesulfonate; phases: Liquid, Gas
Fixed: Mole fraction of 1,4-dimethylbenzene = 0
Property: Activity coefficient of 1,4-dimethylbenzene (Liquid); method: Chromatography
Temperature, K	Activity coefficient of 1,4-dimethylbenzene	uncertainty
298.15	2.54	.0762
308.15	2.44	.0732
318.15	2.4	.072
328.15	2.23	.0669
338.15	2.26	.0678
348.15	2.23	.0669
358.15	2.24	.0672
368.15	2.21	.0663

System: methanol + triisobutylmethylphosphonium p-toluenesulfonate; phases: Liquid, Gas
Fixed: Mole fraction of methanol = 0
Property: Activity coefficient of methanol (Liquid); method: Chromatography
Temperature, K	Activity coefficient of methanol	uncertainty
298.15	.168	.00504
308.15	.164	.00492
318.15	.166	.00498
328.15	.167	.00501
338.15	.171	.00513
348.15	.175	.00525
358.15	.178	.00534
368.15	.179	.00537

System: ethanol + triisobutylmethylphosphonium p-toluenesulfonate; phases: Liquid, Gas
Fixed: Mole fraction of ethanol = 0
Property: Activity coefficient of ethanol (Liquid); method: Chromatography
Temperature, K	Activity coefficient of ethanol	uncertainty
308.15	.263	.00789
318.15	.259	.00777
328.15	.261	.00783
338.15	.262	.00786
348.15	.266	.00798
358.15	.268	.00804
368.15	.266	.00798

System: propan-1-ol + triisobutylmethylphosphonium p-toluenesulfonate; phases: Liquid, Gas
Fixed: Mole fraction of propan-1-ol = 0
Property: Activity coefficient of propan-1-ol (Liquid); method: Chromatography
Temperature, K	Activity coefficient of propan-1-ol	uncertainty
308.15	.278	.00834
318.15	.282	.00846
328.15	.28	.0084
338.15	.284	.00852
348.15	.287	.00861
358.15	.299	.00897
368.15	.287	.00861

System: butan-1-ol + triisobutylmethylphosphonium p-toluenesulfonate; phases: Liquid, Gas
Fixed: Mole fraction of butan-1-ol = 0
Property: Activity coefficient of butan-1-ol (Liquid); method: Chromatography
Temperature, K	Activity coefficient of butan-1-ol	uncertainty
318.15	.322	.00966
328.15	.318	.00954
338.15	.319	.00957
348.15	.328	.00984
358.15	.33	.0099
368.15	.323	.00969

System: pentan-1-ol + triisobutylmethylphosphonium p-toluenesulfonate; phases: Liquid, Gas
Fixed: Mole fraction of pentan-1-ol = 0
Property: Activity coefficient of pentan-1-ol (Liquid); method: Chromatography
Temperature, K	Activity coefficient of pentan-1-ol	uncertainty
338.15	.34	.0102
348.15	.346	.01038
358.15	.354	.01062
368.15	.357	.01071

System: water + triisobutylmethylphosphonium p-toluenesulfonate; phases: Liquid, Gas
Fixed: Mole fraction of water = 0
Property: Activity coefficient of water (Liquid); method: Chromatography
Temperature, K	Activity coefficient of water	uncertainty
318.15	.585	.01755
328.15	.552	.01656
338.15	.534	.01602
348.15	.524	.01572
358.15	.492	.01476
368.15	.477	.01431

System: tetramethylene oxide + triisobutylmethylphosphonium p-toluenesulfonate; phases: Liquid, Gas
Fixed: Mole fraction of tetramethylene oxide = 0
Property: Activity coefficient of tetramethylene oxide (Liquid); method: Chromatography
Temperature, K	Activity coefficient of tetramethylene oxide	uncertainty
298.15	1.41	.0423
308.15	1.31	.0393
318.15	1.22	.0366
328.15	1.12	.0336
338.15	1.09	.0327
348.15	1.05	.0315
358.15	1.05	.0315

System: thiophene + triisobutylmethylphosphonium p-toluenesulfonate; phases: Liquid, Gas
Fixed: Mole fraction of thiophene = 0
Property: Activity coefficient of thiophene (Liquid); method: Chromatography
Temperature, K	Activity coefficient of thiophene	uncertainty
298.15	.901	.02703
308.15	.848	.02544
318.15	.843	.02529
328.15	.818	.02454
338.15	.812	.02436
348.15	.805	.02415
358.15	.804	.02412

System: methyl tert-butyl ether + triisobutylmethylphosphonium p-toluenesulfonate; phases: Liquid, Gas
Fixed: Mole fraction of methyl tert-butyl ether = 0
Property: Activity coefficient of methyl tert-butyl ether (Liquid); method: Chromatography
Temperature, K	Activity coefficient of methyl tert-butyl ether	uncertainty
298.15	17.1	.513
308.15	11	.33
318.15	8.26	.2478
328.15	5.677	.17031
338.15	4.999	.14997
348.15	4.574	.13722
358.15	4.162	.12486
