Measured thermophysical data. Interaction of cefalexin monohydrate with cetyldimethylethylammonium bromide
Source: J. Chem. Thermodyn., 2013, 10.1016/j.jct.2013.01.001
Compound 1: water, H2O
Compound 2: ethylhexadecyldimethylammonium bromide, C20H44BrN, purity 99%

System: water; phases: Liquid
Property: Electrical conductivity, S/m (Liquid); method: Alternating current cell with electrodes
Temperature, K	Pressure, kPa	Electrical conductivity, S/m	uncertainty
298.15	101	.000241	.000001205

System: ethylhexadecyldimethylammonium bromide + water; phases: Liquid
Fixed: Temperature, K = 298.15
Fixed: Pressure, kPa = 101
Property: Electrical conductivity, S/m (Liquid); method: Alternating current cell with electrodes
Amount concentration (molarity), mol/dm3 of ethylhexadecyldimethylammonium bromide	Electrical conductivity, S/m	uncertainty
0	.000241	.000001205
.00013	.001075	.000005375
.00026	.001879	.000009395
.00039	.00267	.00001335
.00052	.00337	.00001685
.00065	.00404	.0000202
.00078	.00465	.00002325
.0009	.00507	.00002535
.00102	.00534	.0000267
.00115	.00556	.0000278
.00127	.00576	.0000288
.00139	.00595	.00002975
.0015	.00614	.0000307
.00162	.00626	.0000313
.00174	.00642	.0000321
.00185	.00653	.00003265
.00208	.00686	.0000343
.0023	.00714	.0000357
.00252	.00741	.00003705
.00273	.00768	.0000384
.00294	.00792	.0000396
.00315	.00815	.00004075
.00335	.00837	.00004185
.00355	.00859	.00004295
.00374	.00879	.00004395
.00393	.00898	.0000449
.00421	.00926	.0000463
.00449	.00951	.00004755
.00475	.00977	.00004885
.00501	.01	.00005
.00526	.01022	.0000511
.00551	.01044	.0000522
.00575	.01064	.0000532
.00598	.01083	.00005415
.00621	.01102	.0000551
.00644	.01119	.00005595
.00665	.01137	.00005685
.00687	.01152	.0000576
.00707	.01168	.0000584
.00734	.01188	.0000594
.00761	.01206	.0000603
.00786	.01225	.00006125
.00811	.01244	.0000622
.00835	.01258	.0000629
.00858	.01273	.00006365
.00881	.01289	.00006445
