Measured thermophysical data. Group-contribution to limiting partial molar isentropic compressions of small amphiphile molecules in water. The temperature effect
Source: J. Chem. Thermodyn., 2014, 10.1016/j.jct.2013.10.013
Compound 1: 2-isopropylaminoethanol, C5H13NO, purity 99%
Compound 2: 2-butoxyethan-1-ol, C6H14O2, purity 99.8%
Compound 3: 2-(2-methylpropoxy)ethanol, C6H14O2, purity 97%
Compound 4: water, H2O, purity 99.9%

System: water; phases: Liquid
Property: Mass density, kg/m3 (Liquid); method: Vibrating tube method
Temperature, K	Pressure, kPa	Mass density, kg/m3	uncertainty
283.15	101	999.699	.1
288.15	101	999.099	.1
293.15	101	998.203	.1
298.15	101	997.043	.1
303.15	101	995.645	.1

System: 2-isopropylaminoethanol + water; phases: Liquid
Fixed: Pressure, kPa = 101
Property: Mass density, kg/m3 (Liquid); method: Vibrating tube method
Temperature, K	Mole fraction of 2-isopropylaminoethanol	Mass density, kg/m3	uncertainty
283.15	0	999.699	.1
283.15	.00785	998.279	.1
283.15	.00993	997.915	.1
283.15	.014701	997.627	.1
283.15	.020519	997.186	.1
283.15	.029246	997.048	.1
283.15	.040094	997.046	.1
283.15	.049712	996.952	.1
283.15	.058899	996.873	.1
283.15	.069261	996.18	.1
283.15	.081318	994.687	.1
288.15	0	999.099	.1
288.15	.00785	997.569	.1
288.15	.00993	997.164	.1
288.15	.014701	996.747	.1
288.15	.020519	996.156	.1
288.15	.029246	995.726	.1
288.15	.040094	995.322	.1
288.15	.049712	994.86	.1
288.15	.058899	994.475	.1
288.15	.069261	993.417	.1
288.15	.081318	991.662	.1
293.15	0	998.203	.1
293.15	.00785	996.602	.1
293.15	.00993	996.129	.1
293.15	.014701	995.555	.1
293.15	.020519	994.798	.1
293.15	.029246	994.178	.1
293.15	.040094	993.399	.1
293.15	.049712	992.61	.1
293.15	.058899	991.925	.1
293.15	.069261	990.602	.1
293.15	.081318	988.598	.1
298.15	0	997.043	.1
298.15	.00785	995.343	.1
298.15	.00993	994.859	.1
298.15	.014701	994.252	.1
298.15	.020519	993.36	.1
298.15	.029246	992.43	.1
298.15	.040094	991.335	.1
298.15	.049712	990.229	.1
298.15	.058899	989.248	.1
298.15	.069261	987.663	.1
298.15	.081318	985.438	.1
303.15	0	995.645	.1
303.15	.00785	993.837	.1
303.15	.00993	993.31	.1
303.15	.014701	992.597	.1
303.15	.020519	991.578	.1
303.15	.029246	990.428	.1
303.15	.040094	989.011	.1
303.15	.049712	987.652	.1
303.15	.058899	986.463	.1
303.15	.069261	984.639	.1
303.15	.081318	982.2	.1

System: 2-isopropylaminoethanol + water; phases: Liquid
Fixed: Pressure, kPa = 101
Property: Speed of sound, m/s (Liquid); method: Sing-around technique in a fixed-path interferometer
Temperature, K	Mole fraction of 2-isopropylaminoethanol	Speed of sound, m/s	uncertainty
283.15	0	0	.5
283.15	.00785	44.3	.5
283.15	.00993	55.75	.5
283.15	.014701	80.51	.5
283.15	.020519	109.69	.5
283.15	.029246	148.54	.5
283.15	.040094	188.46	.5
283.15	.049712	213.51	.5
283.15	.058899	228.37	.5
283.15	.069261	237.02	.5
283.15	.081318	239.83	.5
288.15	0	0	.5
288.15	.00785	40.37	.5
288.15	.00993	50.83	.5
288.15	.014701	73.45	.5
288.15	.020519	100	.5
288.15	.029246	134.84	.5
288.15	.040094	169.75	.5
288.15	.049712	191.25	.5
288.15	.058899	203.19	.5
288.15	.069261	209.83	.5
288.15	.081318	211.63	.5
293.15	0	0	.5
293.15	.00785	37.44	.5
293.15	.00993	46.77	.5
293.15	.014701	67.5	.5
293.15	.020519	91.47	.5
293.15	.029246	121.12	.5
293.15	.040094	152.96	.5
293.15	.049712	170.73	.5
293.15	.058899	180.81	.5
293.15	.069261	185.51	.5
293.15	.081318	186.14	.5
298.15	0	0	.5
298.15	.00785	34.27	.5
298.15	.00993	42.99	.5
298.15	.014701	62.16	.5
298.15	.020519	83.67	.5
298.15	.029246	111.48	.5
298.15	.040094	137.69	.5
298.15	.049712	152.17	.5
298.15	.058899	159.89	.5
298.15	.069261	163.14	.5
298.15	.081318	162.6	.5
303.15	0	0	.5
303.15	.00785	31.25	.5
303.15	.00993	39.17	.5
303.15	.014701	56.39	.5
303.15	.020519	75.85	.5
303.15	.029246	100.33	.5
303.15	.040094	122.72	.5
303.15	.049712	134.67	.5
303.15	.058899	140.37	.5
303.15	.069261	142.22	.5
303.15	.081318	140.61	.5

System: 2-butoxyethan-1-ol + water; phases: Liquid
Fixed: Pressure, kPa = 101
Property: Mass density, kg/m3 (Liquid); method: Vibrating tube method
Temperature, K	Mole fraction of 2-butoxyethan-1-ol	Mass density, kg/m3	uncertainty
283.15	0	999.699	.1
283.15	.000906	999.515	.1
283.15	.001283	999.44	.1
283.15	.001685	999.376	.1
283.15	.001942	999.379	.1
283.15	.003834	999.137	.1
283.15	.006957	998.855	.1
283.15	.009993	998.677	.1
283.15	.013237	998.516	.1
288.15	0	999.099	.1
288.15	.000906	998.873	.1
288.15	.001283	998.804	.1
288.15	.001685	998.733	.1
288.15	.001942	998.742	.1
288.15	.003834	998.449	.1
288.15	.006957	998.058	.1
288.15	.009993	997.764	.1
288.15	.013237	997.453	.1
293.15	0	998.203	.1
293.15	.000906	997.98	.1
293.15	.001283	997.897	.1
293.15	.001685	997.814	.1
293.15	.001942	997.774	.1
293.15	.003834	997.436	.1
293.15	.006957	996.956	.1
293.15	.009993	996.553	.1
293.15	.013237	996.129	.1
298.15	0	997.043	.1
298.15	.000906	996.815	.1
298.15	.001283	996.726	.1
298.15	.001685	996.633	.1
298.15	.001942	996.592	.1
298.15	.003834	996.204	.1
298.15	.006957	995.629	.1
298.15	.009993	995.12	.1
298.15	.013237	994.56	.1
303.15	0	995.645	.1
303.15	.000906	995.386	.1
303.15	.001283	995.295	.1
303.15	.001685	995.201	.1
303.15	.001942	995.143	.1
303.15	.003834	994.715	.1
303.15	.006957	994.053	.1
303.15	.009993	993.447	.1
303.15	.013237	992.75	.1

System: 2-butoxyethan-1-ol + water; phases: Liquid
Fixed: Pressure, kPa = 101
Property: Speed of sound, m/s (Liquid); method: Sing-around technique in a fixed-path interferometer
Temperature, K	Mole fraction of 2-butoxyethan-1-ol	Speed of sound, m/s	uncertainty
283.15	0	0	.5
283.15	.000906	6.05	.5
283.15	.001283	8.62	.5
283.15	.001685	11.29	.5
283.15	.001942	12.92	.5
283.15	.003834	25.22	.5
283.15	.006957	44.56	.5
283.15	.009993	62.07	.5
283.15	.013237	79.1	.5
288.15	0	0	.5
288.15	.000906	5.66	.5
288.15	.001283	7.99	.5
288.15	.001685	10.51	.5
288.15	.001942	12	.5
288.15	.003834	23.18	.5
288.15	.006957	40.71	.5
288.15	.009993	56.37	.5
288.15	.013237	71.21	.5
293.15	0	0	.5
293.15	.000906	5.17	.5
293.15	.001283	7.3	.5
293.15	.001685	9.61	.5
293.15	.001942	10.95	.5
293.15	.003834	21.13	.5
293.15	.006957	36.96	.5
293.15	.009993	50.89	.5
293.15	.013237	63.57	.5
298.15	0	0	.5
298.15	.000906	4.58	.5
298.15	.001283	6.54	.5
298.15	.001685	8.62	.5
298.15	.001942	9.94	.5
298.15	.003834	19.16	.5
298.15	.006957	33.38	.5
298.15	.009993	45.68	.5
298.15	.013237	56.12	.5
303.15	0	0	.5
303.15	.000906	4.29	.5
303.15	.001283	6.2	.5
303.15	.001685	7.93	.5
303.15	.001942	8.98	.5
303.15	.003834	17.28	.5
303.15	.006957	29.99	.5
303.15	.009993	40.71	.5
303.15	.013237	48.97	.5

System: 2-(2-methylpropoxy)ethanol + water; phases: Liquid
Fixed: Pressure, kPa = 101
Property: Mass density, kg/m3 (Liquid); method: Vibrating tube method
Temperature, K	Mole fraction of 2-(2-methylpropoxy)ethanol	Mass density, kg/m3	uncertainty
283.15	0	999.699	.1
283.15	.000617	999.515	.1
283.15	.001164	999.412	.1
283.15	.001812	999.296	.1
283.15	.00198	999.307	.1
283.15	.003969	999.013	.1
283.15	.006759	998.702	.1
283.15	.009969	998.438	.1
283.15	.013193	998.199	.1
288.15	0	999.099	.1
288.15	.000617	998.897	.1
288.15	.001164	998.784	.1
288.15	.001812	998.655	.1
288.15	.00198	998.645	.1
288.15	.003969	998.299	.1
288.15	.006759	997.897	.1
288.15	.009969	997.523	.1
288.15	.013193	997.151	.1
293.15	0	998.203	.1
293.15	.000617	998.017	.1
293.15	.001164	997.888	.1
293.15	.001812	997.743	.1
293.15	.00198	997.724	.1
293.15	.003969	997.322	.1
293.15	.006759	996.836	.1
293.15	.009969	996.347	.1
293.15	.013193	995.851	.1
298.15	0	997.043	.1
298.15	.000617	996.846	.1
298.15	.001164	996.707	.1
298.15	.001812	996.548	.1
298.15	.00198	996.506	.1
298.15	.003969	996.06	.1
298.15	.006759	995.497	.1
298.15	.009969	994.904	.1
298.15	.013193	994.282	.1
303.15	0	995.645	.1
303.15	.000617	995.459	.1
303.15	.001164	995.292	.1
303.15	.001812	995.136	.1
303.15	.00198	995.092	.1
303.15	.003969	994.592	.1
303.15	.006759	993.958	.1
303.15	.009969	993.254	.1
303.15	.013193	992.505	.1

System: 2-(2-methylpropoxy)ethanol + water; phases: Liquid
Fixed: Pressure, kPa = 101
Property: Speed of sound, m/s (Liquid); method: Sing-around technique in a fixed-path interferometer
Temperature, K	Mole fraction of 2-(2-methylpropoxy)ethanol	Speed of sound, m/s	uncertainty
283.15	0	0	.5
283.15	.000617	4.1	.5
283.15	.001164	7.75	.5
283.15	.001812	12.06	.5
283.15	.00198	13.05	.5
283.15	.003969	25.89	.5
283.15	.006759	42.87	.5
283.15	.009969	61.22	.5
283.15	.013193	78.21	.5
288.15	0	0	.5
288.15	.000617	3.83	.5
288.15	.001164	7.19	.5
288.15	.001812	11.1	.5
288.15	.00198	12.01	.5
288.15	.003969	23.66	.5
288.15	.006759	39.09	.5
288.15	.009969	55.44	.5
288.15	.013193	70.36	.5
293.15	0	0	.5
293.15	.000617	3.49	.5
293.15	.001164	6.54	.5
293.15	.001812	10.15	.5
293.15	.00198	10.92	.5
293.15	.003969	21.49	.5
293.15	.006759	35.43	.5
293.15	.009969	50.1	.5
293.15	.013193	62.86	.5
298.15	0	0	.5
298.15	.000617	3.18	.5
298.15	.001164	5.95	.5
298.15	.001812	9.24	.5
298.15	.00198	10.07	.5
298.15	.003969	19.61	.5
298.15	.006759	32.19	.5
298.15	.009969	45.08	.5
298.15	.013193	55.63	.5
303.15	0	0	.5
303.15	.000617	2.81	.5
303.15	.001164	5.31	.5
303.15	.001812	8.16	.5
303.15	.00198	9.1	.5
303.15	.003969	17.67	.5
303.15	.006759	28.99	.5
303.15	.009969	40.17	.5
303.15	.013193	48.39	.5
