Measured thermophysical data. Determination of the diffusion coefficient of CO2 in the ionic liquid EMIM NTf2 using online FTIR measurements
Source: J. Chem. Thermodyn., 2012, 10.1016/j.jct.2011.09.025
Compound 1: 1-ethyl-3-methylimidazolium bis[(trifluoromethyl)sulfonyl]imide, C8H11F6N3O4S2, purity 98%
Compound 2: carbon dioxide, CO2, purity 99.5%

System: carbon dioxide + 1-ethyl-3-methylimidazolium bis[(trifluoromethyl)sulfonyl]imide; phases: Liquid
Fixed: Pressure, kPa = 101
Fixed: Mole fraction of carbon dioxide = 0
Property: Binary diffusion coefficient, m2/s (Liquid); method: Time resolved FTIR
Temperature, K	Binary diffusion coefficient, m2/s	uncertainty
303	0.00000002238	.000000000586356
303	0.00000002159	.000000000565658
303	0.00000002252	.000000000590024
303	0.00000002195	.00000000057509
303	0.00000002167	.000000000567754
303	0.00000002309	.000000000604958
