Measured thermophysical data. Activity coefficients at infinite dilution and physicochemical properties for organic solutes and water in the ionic liquid 4-(2-methoxyethyl)-4-methylmorpholinium trifluorotris(perfluoroethyl)phosphate
Source: J. Chem. Thermodyn., 2012, 10.1016/j.jct.2012.05.017
Compound 1: 4-(2-methoxyethyl)-4-methylmorpholinium trifluorotris(perfluoroethyl)phosphate, C14H18F18NO2P, purity 99.5%
Compound 2: pentane, C5H12, purity 99%
Compound 3: n-hexane, C6H14, purity 99%
Compound 4: pentane, 3-methyl-, C6H14, purity 99%
Compound 5: 2,2-dimethylbutane, C6H14, purity 99%
Compound 6: heptane, C7H16, purity 99.5%
Compound 7: n-octane, C8H18, purity 99%
Compound 8: isooctane, C8H18, purity 99%
Compound 9: n-nonane, C9H20, purity 99%
Compound 10: n-decane, C10H22, purity 99%
Compound 11: cyclopentane, C5H10, purity 99%
Compound 12: cyclohexane, C6H12, purity 99%
Compound 13: methylcyclohexane, C7H14, purity 99%
Compound 14: cycloheptane, C7H14, purity 99%
Compound 15: cyclooctane, C8H16, purity 99%
Compound 16: 1-pentene, C5H10, purity 98.5%
Compound 17: 1-hexene, C6H12, purity 99%
Compound 18: cyclohex-1-ene, C6H10, purity 99%
Compound 19: 1-heptene, C7H14, purity 99%
Compound 20: 1-octene, C8H16, purity 98%
Compound 21: 1-decene, C10H20, purity 97%
Compound 22: 1-hexyne, C6H10, purity 97%
Compound 23: 1-heptyne, C7H12, purity 98%
Compound 24: 1-octyne, C8H14, purity 97%
Compound 25: benzene, C6H6, purity 99.8%
Compound 26: phenylmethane, C7H8, purity 99.8%
Compound 27: ethylbenzene, C8H10, purity 99.8%
Compound 28: benzene, 1,2-dimethyl-, C8H10, purity 99%
Compound 29: 1,3-xylene, C8H10, purity 99%
Compound 30: 1,4-dimethylbenzene, C8H10, purity 99%
Compound 31: styrene, C8H8, purity 99.9%
Compound 32: styrene, .alpha.-methyl-, C9H10, purity 99%
Compound 33: thiophene, C4H4S, purity 99%
Compound 34: pyridine, C5H5N, purity 99.8%
Compound 35: methanol, CH4O, purity 99.9%
Compound 36: ethyl alcohol, C2H6O, purity 99.8%
Compound 37: propan-1-ol, C3H8O, purity 99.9%
Compound 38: 2-propanol, C3H8O, purity 99.9%
Compound 39: 1-butanol, C4H10O, purity 99.8%
Compound 40: butan-2-ol, C4H10O, purity 99.5%
Compound 41: isobutyl alcohol, C4H10O, purity 99.5%
Compound 42: 2-propanol, 2-methyl-, C4H10O, purity 99.7%
Compound 43: water, H2O, purity 99.9%
Compound 44: acetic acid, methyl ester, C3H6O2, purity 99.8%
Compound 45: methyl propionate, C4H8O2, purity 99%
Compound 46: butyric acid, methyl ester, C5H10O2, purity 99%
Compound 47: ethyl ethanoate, C4H8O2, purity 99.8%
Compound 48: oxolane, C4H8O, purity 99.9%
Compound 49: 1,4-dioxane, C4H8O2, purity 99.8%
Compound 50: methyl tert-butyl ether, C5H12O, purity 99.8%
Compound 51: ethyl tert-butyl ether, C6H14O, purity 99%
Compound 52: tert-amyl methyl ether, C6H14O, purity 97%
Compound 53: diethyl ether, C4H10O, purity 99.9%
Compound 54: ether, dipropyl, C6H14O, purity 99%
Compound 55: isopropyl ether, C6H14O, purity 99%
Compound 56: butyl oxide, C8H18O, purity 99.3%
Compound 57: dimethyl ketone, C3H6O, purity 99.9%
Compound 58: methyl n-propyl ketone, C5H10O, purity 99%
Compound 59: diethyl ketone, C5H10O, purity 99%
Compound 60: 1-propanecarbaldehyde, C4H8O, purity 99%
Compound 61: cyanomethane, C2H3N, purity 99.9%
Compound 62: 1-nitropropane, C3H7NO2, purity 98.5%
Compound 63: 1-pentyne, C5H8, purity 99%

System: pentane + 4-(2-methoxyethyl)-4-methylmorpholinium trifluorotris(perfluoroethyl)phosphate; phases: Liquid
Fixed: Mole fraction of pentane = 0
Fixed: Pressure, kPa = 101
Property: Activity coefficient of pentane (Liquid); method: Chromatography
Temperature, K	Activity coefficient of pentane	uncertainty
318.15	14.1	.423
328.15	13.1	.393
338.15	12.2	.366
348.15	11.4	.342
358.15	10.8	.324
368.15	10.3	.309

System: n-hexane + 4-(2-methoxyethyl)-4-methylmorpholinium trifluorotris(perfluoroethyl)phosphate; phases: Liquid
Fixed: Mole fraction of n-hexane = 0
Fixed: Pressure, kPa = 101
Property: Activity coefficient of n-hexane (Liquid); method: Chromatography
Temperature, K	Activity coefficient of n-hexane	uncertainty
318.15	20.4	.612
328.15	18.9	.567
338.15	17.5	.525
348.15	16.4	.492
358.15	15.4	.462
368.15	14.5	.435

System: pentane, 3-methyl- + 4-(2-methoxyethyl)-4-methylmorpholinium trifluorotris(perfluoroethyl)phosphate; phases: Liquid
Fixed: Mole fraction of pentane, 3-methyl- = 0
Fixed: Pressure, kPa = 101
Property: Activity coefficient of pentane, 3-methyl- (Liquid); method: Chromatography
Temperature, K	Activity coefficient of pentane, 3-methyl-	uncertainty
318.15	18	.54
328.15	16.6	.498
338.15	15.4	.462
348.15	14.4	.432
358.15	13.5	.405
368.15	12.7	.381

System: 2,2-dimethylbutane + 4-(2-methoxyethyl)-4-methylmorpholinium trifluorotris(perfluoroethyl)phosphate; phases: Liquid
Fixed: Mole fraction of 2,2-dimethylbutane = 0
Fixed: Pressure, kPa = 101
Property: Activity coefficient of 2,2-dimethylbutane (Liquid); method: Chromatography
Temperature, K	Activity coefficient of 2,2-dimethylbutane	uncertainty
318.15	16.4	.492
328.15	15.2	.456
338.15	14.2	.426
348.15	13.3	.399
358.15	12.5	.375
368.15	11.8	.354

System: heptane + 4-(2-methoxyethyl)-4-methylmorpholinium trifluorotris(perfluoroethyl)phosphate; phases: Liquid
Fixed: Mole fraction of heptane = 0
Fixed: Pressure, kPa = 101
Property: Activity coefficient of heptane (Liquid); method: Chromatography
Temperature, K	Activity coefficient of heptane	uncertainty
318.15	30.2	.906
328.15	27.5	.825
338.15	25.3	.759
348.15	23.4	.702
358.15	21.6	.648
368.15	20.1	.603

System: n-octane + 4-(2-methoxyethyl)-4-methylmorpholinium trifluorotris(perfluoroethyl)phosphate; phases: Liquid
Fixed: Mole fraction of n-octane = 0
Fixed: Pressure, kPa = 101
Property: Activity coefficient of n-octane (Liquid); method: Chromatography
Temperature, K	Activity coefficient of n-octane	uncertainty
318.15	44	1.32
328.15	39.9	1.197
338.15	36.5	1.095
348.15	33.4	1.002
358.15	30.8	.924
368.15	28.6	.858

System: isooctane + 4-(2-methoxyethyl)-4-methylmorpholinium trifluorotris(perfluoroethyl)phosphate; phases: Liquid
Fixed: Mole fraction of isooctane = 0
Fixed: Pressure, kPa = 101
Property: Activity coefficient of isooctane (Liquid); method: Chromatography
Temperature, K	Activity coefficient of isooctane	uncertainty
318.15	28	.84
328.15	25.6	.768
338.15	23.6	.708
348.15	22	.66
358.15	20.5	.615
368.15	19.2	.576

System: n-nonane + 4-(2-methoxyethyl)-4-methylmorpholinium trifluorotris(perfluoroethyl)phosphate; phases: Liquid
Fixed: Mole fraction of n-nonane = 0
Fixed: Pressure, kPa = 101
Property: Activity coefficient of n-nonane (Liquid); method: Chromatography
Temperature, K	Activity coefficient of n-nonane	uncertainty
318.15	64.1	1.923
328.15	57.7	1.731
338.15	52.2	1.566
348.15	47	1.41
358.15	42.8	1.284
368.15	39.3	1.179

System: n-decane + 4-(2-methoxyethyl)-4-methylmorpholinium trifluorotris(perfluoroethyl)phosphate; phases: Liquid
Fixed: Mole fraction of n-decane = 0
Fixed: Pressure, kPa = 101
Property: Activity coefficient of n-decane (Liquid); method: Chromatography
Temperature, K	Activity coefficient of n-decane	uncertainty
318.15	93.5	2.805
328.15	83.6	2.508
338.15	74.9	2.247
348.15	67.6	2.028
358.15	60.9	1.827
368.15	55.2	1.656

System: cyclopentane + 4-(2-methoxyethyl)-4-methylmorpholinium trifluorotris(perfluoroethyl)phosphate; phases: Liquid
Fixed: Mole fraction of cyclopentane = 0
Fixed: Pressure, kPa = 101
Property: Activity coefficient of cyclopentane (Liquid); method: Chromatography
Temperature, K	Activity coefficient of cyclopentane	uncertainty
318.15	8.31	.2493
328.15	7.77	.2331
338.15	7.34	.2202
348.15	6.91	.2073
358.15	6.54	.1962
368.15	6.23	.1869

System: cyclohexane + 4-(2-methoxyethyl)-4-methylmorpholinium trifluorotris(perfluoroethyl)phosphate; phases: Liquid
Fixed: Mole fraction of cyclohexane = 0
Fixed: Pressure, kPa = 101
Property: Activity coefficient of cyclohexane (Liquid); method: Chromatography
Temperature, K	Activity coefficient of cyclohexane	uncertainty
318.15	12.7	.381
328.15	11.8	.354
338.15	11	.33
348.15	10.2	.306
358.15	9.54	.2862
368.15	8.97	.2691

System: methylcyclohexane + 4-(2-methoxyethyl)-4-methylmorpholinium trifluorotris(perfluoroethyl)phosphate; phases: Liquid
Fixed: Mole fraction of methylcyclohexane = 0
Fixed: Pressure, kPa = 101
Property: Activity coefficient of methylcyclohexane (Liquid); method: Chromatography
Temperature, K	Activity coefficient of methylcyclohexane	uncertainty
318.15	17.3	.519
328.15	15.9	.477
338.15	14.7	.441
348.15	13.8	.414
358.15	12.8	.384
368.15	12	.36

System: cycloheptane + 4-(2-methoxyethyl)-4-methylmorpholinium trifluorotris(perfluoroethyl)phosphate; phases: Liquid
Fixed: Mole fraction of cycloheptane = 0
Fixed: Pressure, kPa = 101
Property: Activity coefficient of cycloheptane (Liquid); method: Chromatography
Temperature, K	Activity coefficient of cycloheptane	uncertainty
318.15	18	.54
328.15	16.5	.495
338.15	15.2	.456
348.15	14	.42
358.15	13	.39
368.15	12.2	.366

System: cyclooctane + 4-(2-methoxyethyl)-4-methylmorpholinium trifluorotris(perfluoroethyl)phosphate; phases: Liquid
Fixed: Mole fraction of cyclooctane = 0
Fixed: Pressure, kPa = 101
Property: Activity coefficient of cyclooctane (Liquid); method: Chromatography
Temperature, K	Activity coefficient of cyclooctane	uncertainty
318.15	25	.75
328.15	22.7	.681
338.15	20.8	.624
348.15	19	.57
358.15	17.4	.522
368.15	16.2	.486

System: 1-pentene + 4-(2-methoxyethyl)-4-methylmorpholinium trifluorotris(perfluoroethyl)phosphate; phases: Liquid
Fixed: Mole fraction of 1-pentene = 0
Fixed: Pressure, kPa = 101
Property: Activity coefficient of 1-pentene (Liquid); method: Chromatography
Temperature, K	Activity coefficient of 1-pentene	uncertainty
318.15	6.4	.192
328.15	6.18	.1854
338.15	6	.18
348.15	5.83	.1749
358.15	5.66	.1698
368.15	5.51	.1653

System: 1-hexene + 4-(2-methoxyethyl)-4-methylmorpholinium trifluorotris(perfluoroethyl)phosphate; phases: Liquid
Fixed: Mole fraction of 1-hexene = 0
Fixed: Pressure, kPa = 101
Property: Activity coefficient of 1-hexene (Liquid); method: Chromatography
Temperature, K	Activity coefficient of 1-hexene	uncertainty
318.15	9.54	.2862
328.15	9.11	.2733
338.15	8.73	.2619
348.15	8.35	.2505
358.15	8.03	.2409
368.15	7.77	.2331

System: cyclohex-1-ene + 4-(2-methoxyethyl)-4-methylmorpholinium trifluorotris(perfluoroethyl)phosphate; phases: Liquid
Fixed: Mole fraction of cyclohex-1-ene = 0
Fixed: Pressure, kPa = 101
Property: Activity coefficient of cyclohex-1-ene (Liquid); method: Chromatography
Temperature, K	Activity coefficient of cyclohex-1-ene	uncertainty
318.15	6.67	.2001
328.15	6.37	.1911
338.15	6.15	.1845
348.15	5.91	.1773
358.15	5.69	.1707
368.15	5.51	.1653

System: 1-heptene + 4-(2-methoxyethyl)-4-methylmorpholinium trifluorotris(perfluoroethyl)phosphate; phases: Liquid
Fixed: Mole fraction of 1-heptene = 0
Fixed: Pressure, kPa = 101
Property: Activity coefficient of 1-heptene (Liquid); method: Chromatography
Temperature, K	Activity coefficient of 1-heptene	uncertainty
318.15	13.9	.417
328.15	13.3	.399
338.15	12.7	.381
348.15	12.2	.366
358.15	11.6	.348
368.15	11.2	.336

System: 1-octene + 4-(2-methoxyethyl)-4-methylmorpholinium trifluorotris(perfluoroethyl)phosphate; phases: Liquid
Fixed: Mole fraction of 1-octene = 0
Fixed: Pressure, kPa = 101
Property: Activity coefficient of 1-octene (Liquid); method: Chromatography
Temperature, K	Activity coefficient of 1-octene	uncertainty
318.15	20.9	.627
328.15	19.6	.588
338.15	18.5	.555
348.15	17.5	.525
358.15	16.6	.498
368.15	15.7	.471

System: 1-decene + 4-(2-methoxyethyl)-4-methylmorpholinium trifluorotris(perfluoroethyl)phosphate; phases: Liquid
Fixed: Mole fraction of 1-decene = 0
Fixed: Pressure, kPa = 101
Property: Activity coefficient of 1-decene (Liquid); method: Chromatography
Temperature, K	Activity coefficient of 1-decene	uncertainty
318.15	44.1	1.323
328.15	40.8	1.224
338.15	37.9	1.137
348.15	35.3	1.059
358.15	33.1	.993
368.15	30.9	.927

System: 1-hexyne + 4-(2-methoxyethyl)-4-methylmorpholinium trifluorotris(perfluoroethyl)phosphate; phases: Liquid
Fixed: Mole fraction of 1-hexyne = 0
Fixed: Pressure, kPa = 101
Property: Activity coefficient of 1-hexyne (Liquid); method: Chromatography
Temperature, K	Activity coefficient of 1-hexyne	uncertainty
318.15	3.72	.1116
328.15	3.71	.1113
338.15	3.7	.111
348.15	3.68	.1104
358.15	3.67	.1101
368.15	3.66	.1098

System: 1-heptyne + 4-(2-methoxyethyl)-4-methylmorpholinium trifluorotris(perfluoroethyl)phosphate; phases: Liquid
Fixed: Mole fraction of 1-heptyne = 0
Fixed: Pressure, kPa = 101
Property: Activity coefficient of 1-heptyne (Liquid); method: Chromatography
Temperature, K	Activity coefficient of 1-heptyne	uncertainty
318.15	5.42	.1626
328.15	5.36	.1608
338.15	5.29	.1587
348.15	5.23	.1569
358.15	5.17	.1551
368.15	5.11	.1533

System: 1-octyne + 4-(2-methoxyethyl)-4-methylmorpholinium trifluorotris(perfluoroethyl)phosphate; phases: Liquid
Fixed: Mole fraction of 1-octyne = 0
Fixed: Pressure, kPa = 101
Property: Activity coefficient of 1-octyne (Liquid); method: Chromatography
Temperature, K	Activity coefficient of 1-octyne	uncertainty
318.15	8.03	.2409
328.15	7.84	.2352
338.15	7.63	.2289
348.15	7.45	.2235
358.15	7.29	.2187
368.15	7.14	.2142

System: benzene + 4-(2-methoxyethyl)-4-methylmorpholinium trifluorotris(perfluoroethyl)phosphate; phases: Liquid
Fixed: Mole fraction of benzene = 0
Fixed: Pressure, kPa = 101
Property: Activity coefficient of benzene (Liquid); method: Chromatography
Temperature, K	Activity coefficient of benzene	uncertainty
318.15	.768	.02304
328.15	.81	.0243
338.15	.854	.02562
348.15	.898	.02694
358.15	.94	.0282
368.15	.983	.02949

System: phenylmethane + 4-(2-methoxyethyl)-4-methylmorpholinium trifluorotris(perfluoroethyl)phosphate; phases: Liquid
Fixed: Mole fraction of phenylmethane = 0
Fixed: Pressure, kPa = 101
Property: Activity coefficient of phenylmethane (Liquid); method: Chromatography
Temperature, K	Activity coefficient of phenylmethane	uncertainty
318.15	1.1	.033
328.15	1.16	.0348
338.15	1.22	.0366
348.15	1.28	.0384
358.15	1.34	.0402
368.15	1.39	.0417

System: ethylbenzene + 4-(2-methoxyethyl)-4-methylmorpholinium trifluorotris(perfluoroethyl)phosphate; phases: Liquid
Fixed: Mole fraction of ethylbenzene = 0
Fixed: Pressure, kPa = 101
Property: Activity coefficient of ethylbenzene (Liquid); method: Chromatography
Temperature, K	Activity coefficient of ethylbenzene	uncertainty
318.15	1.73	.0519
328.15	1.8	.054
338.15	1.87	.0561
348.15	1.94	.0582
358.15	2	.06
368.15	2.06	.0618

System: benzene, 1,2-dimethyl- + 4-(2-methoxyethyl)-4-methylmorpholinium trifluorotris(perfluoroethyl)phosphate; phases: Liquid
Fixed: Mole fraction of benzene, 1,2-dimethyl- = 0
Fixed: Pressure, kPa = 101
Property: Activity coefficient of benzene, 1,2-dimethyl- (Liquid); method: Chromatography
Temperature, K	Activity coefficient of benzene, 1,2-dimethyl-	uncertainty
318.15	1.48	.0444
328.15	1.55	.0465
338.15	1.62	.0486
348.15	1.68	.0504
358.15	1.74	.0522
368.15	1.8	.054

System: 1,3-xylene + 4-(2-methoxyethyl)-4-methylmorpholinium trifluorotris(perfluoroethyl)phosphate; phases: Liquid
Fixed: Pressure, kPa = 101
Fixed: Mole fraction of 1,3-xylene = 0
Property: Activity coefficient of 1,3-xylene (Liquid); method: Chromatography
Temperature, K	Activity coefficient of 1,3-xylene	uncertainty
318.15	1.6	.048
328.15	1.68	.0504
338.15	1.76	.0528
348.15	1.83	.0549
358.15	1.9	.057
368.15	1.97	.0591

System: 1,4-dimethylbenzene + 4-(2-methoxyethyl)-4-methylmorpholinium trifluorotris(perfluoroethyl)phosphate; phases: Liquid
Fixed: Pressure, kPa = 101
Fixed: Mole fraction of 1,4-dimethylbenzene = 0
Property: Activity coefficient of 1,4-dimethylbenzene (Liquid); method: Chromatography
Temperature, K	Activity coefficient of 1,4-dimethylbenzene	uncertainty
318.15	1.67	.0501
328.15	1.75	.0525
338.15	1.83	.0549
348.15	1.9	.057
358.15	1.97	.0591
368.15	2.04	.0612

System: styrene + 4-(2-methoxyethyl)-4-methylmorpholinium trifluorotris(perfluoroethyl)phosphate; phases: Liquid
Fixed: Pressure, kPa = 101
Fixed: Mole fraction of styrene = 0
Property: Activity coefficient of styrene (Liquid); method: Chromatography
Temperature, K	Activity coefficient of styrene	uncertainty
318.15	1.04	.0312
328.15	1.09	.0327
338.15	1.15	.0345
348.15	1.2	.036
358.15	1.25	.0375
368.15	1.31	.0393

System: styrene, .alpha.-methyl- + 4-(2-methoxyethyl)-4-methylmorpholinium trifluorotris(perfluoroethyl)phosphate; phases: Liquid
Fixed: Pressure, kPa = 101
Fixed: Mole fraction of styrene, .alpha.-methyl- = 0
Property: Activity coefficient of styrene, .alpha.-methyl- (Liquid); method: Chromatography
Temperature, K	Activity coefficient of styrene, .alpha.-methyl-	uncertainty
318.15	1.6	.048
328.15	1.7	.051
338.15	1.8	.054
348.15	1.9	.057
358.15	1.98	.0594
368.15	2.07	.0621

System: thiophene + 4-(2-methoxyethyl)-4-methylmorpholinium trifluorotris(perfluoroethyl)phosphate; phases: Liquid
Fixed: Pressure, kPa = 101
Fixed: Mole fraction of thiophene = 0
Property: Activity coefficient of thiophene (Liquid); method: Chromatography
Temperature, K	Activity coefficient of thiophene	uncertainty
318.15	.774	.02322
328.15	.811	.02433
338.15	.849	.02547
348.15	.888	.02664
358.15	.926	.02778
368.15	.965	.02895

System: pyridine + 4-(2-methoxyethyl)-4-methylmorpholinium trifluorotris(perfluoroethyl)phosphate; phases: Liquid
Fixed: Pressure, kPa = 101
Fixed: Mole fraction of pyridine = 0
Property: Activity coefficient of pyridine (Liquid); method: Chromatography
Temperature, K	Activity coefficient of pyridine	uncertainty
318.15	.387	.01161
328.15	.409	.01227
338.15	.435	.01305
348.15	.455	.01365
358.15	.478	.01434
368.15	.502	.01506

System: methanol + 4-(2-methoxyethyl)-4-methylmorpholinium trifluorotris(perfluoroethyl)phosphate; phases: Liquid
Fixed: Pressure, kPa = 101
Fixed: Mole fraction of methanol = 0
Property: Activity coefficient of methanol (Liquid); method: Chromatography
Temperature, K	Activity coefficient of methanol	uncertainty
318.15	1.7	.051
328.15	1.61	.0483
338.15	1.52	.0456
348.15	1.43	.0429
358.15	1.36	.0408
368.15	1.3	.039

System: ethyl alcohol + 4-(2-methoxyethyl)-4-methylmorpholinium trifluorotris(perfluoroethyl)phosphate; phases: Liquid
Fixed: Pressure, kPa = 101
Fixed: Mole fraction of ethyl alcohol = 0
Property: Activity coefficient of ethyl alcohol (Liquid); method: Chromatography
Temperature, K	Activity coefficient of ethyl alcohol	uncertainty
318.15	2.1	.063
328.15	1.94	.0582
338.15	1.82	.0546
348.15	1.69	.0507
358.15	1.58	.0474
368.15	1.5	.045

System: propan-1-ol + 4-(2-methoxyethyl)-4-methylmorpholinium trifluorotris(perfluoroethyl)phosphate; phases: Liquid
Fixed: Pressure, kPa = 101
Fixed: Mole fraction of propan-1-ol = 0
Property: Activity coefficient of propan-1-ol (Liquid); method: Chromatography
Temperature, K	Activity coefficient of propan-1-ol	uncertainty
318.15	2.79	.0837
328.15	2.55	.0765
338.15	2.35	.0705
348.15	2.18	.0654
358.15	2.04	.0612
368.15	1.92	.0576

System: 2-propanol + 4-(2-methoxyethyl)-4-methylmorpholinium trifluorotris(perfluoroethyl)phosphate; phases: Liquid
Fixed: Pressure, kPa = 101
Fixed: Mole fraction of 2-propanol = 0
Property: Activity coefficient of 2-propanol (Liquid); method: Chromatography
Temperature, K	Activity coefficient of 2-propanol	uncertainty
318.15	2.28	.0684
328.15	2.1	.063
338.15	1.94	.0582
348.15	1.81	.0543
358.15	1.69	.0507
368.15	1.59	.0477

System: 1-butanol + 4-(2-methoxyethyl)-4-methylmorpholinium trifluorotris(perfluoroethyl)phosphate; phases: Liquid
Fixed: Pressure, kPa = 101
Fixed: Mole fraction of 1-butanol = 0
Property: Activity coefficient of 1-butanol (Liquid); method: Chromatography
Temperature, K	Activity coefficient of 1-butanol	uncertainty
318.15	3.73	.1119
328.15	3.36	.1008
338.15	3.08	.0924
348.15	2.81	.0843
358.15	2.6	.078
368.15	2.41	.0723

System: butan-2-ol + 4-(2-methoxyethyl)-4-methylmorpholinium trifluorotris(perfluoroethyl)phosphate; phases: Liquid
Fixed: Pressure, kPa = 101
Fixed: Mole fraction of butan-2-ol = 0
Property: Activity coefficient of butan-2-ol (Liquid); method: Chromatography
Temperature, K	Activity coefficient of butan-2-ol	uncertainty
318.15	2.76	.0828
328.15	2.54	.0762
338.15	2.35	.0705
348.15	2.18	.0654
358.15	2.05	.0615
368.15	1.92	.0576

System: isobutyl alcohol + 4-(2-methoxyethyl)-4-methylmorpholinium trifluorotris(perfluoroethyl)phosphate; phases: Liquid
Fixed: Pressure, kPa = 101
Fixed: Mole fraction of isobutyl alcohol = 0
Property: Activity coefficient of isobutyl alcohol (Liquid); method: Chromatography
Temperature, K	Activity coefficient of isobutyl alcohol	uncertainty
318.15	3.58	.1074
328.15	3.21	.0963
338.15	2.9	.087
348.15	2.63	.0789
358.15	2.43	.0729
368.15	2.23	.0669

System: 2-propanol, 2-methyl- + 4-(2-methoxyethyl)-4-methylmorpholinium trifluorotris(perfluoroethyl)phosphate; phases: Liquid
Fixed: Pressure, kPa = 101
Fixed: Mole fraction of 2-propanol, 2-methyl- = 0
Property: Activity coefficient of 2-propanol, 2-methyl- (Liquid); method: Chromatography
Temperature, K	Activity coefficient of 2-propanol, 2-methyl-	uncertainty
318.15	2.11	.0633
328.15	1.97	.0591
338.15	1.84	.0552
348.15	1.74	.0522
358.15	1.66	.0498
368.15	1.57	.0471

System: water + 4-(2-methoxyethyl)-4-methylmorpholinium trifluorotris(perfluoroethyl)phosphate; phases: Liquid
Fixed: Pressure, kPa = 101
Fixed: Mole fraction of water = 0
Property: Activity coefficient of water (Liquid); method: Chromatography
Temperature, K	Activity coefficient of water	uncertainty
318.15	4.7	.141
328.15	4.29	.1287
338.15	3.88	.1164
348.15	3.57	.1071
358.15	3.27	.0981
368.15	3.01	.0903

System: acetic acid, methyl ester + 4-(2-methoxyethyl)-4-methylmorpholinium trifluorotris(perfluoroethyl)phosphate; phases: Liquid
Fixed: Pressure, kPa = 101
Fixed: Mole fraction of acetic acid, methyl ester = 0
Property: Activity coefficient of acetic acid, methyl ester (Liquid); method: Chromatography
Temperature, K	Activity coefficient of acetic acid, methyl ester	uncertainty
318.15	.279	.00837
328.15	.304	.00912
338.15	.33	.0099
348.15	.358	.01074
358.15	.387	.01161
368.15	.416	.01248

System: methyl propionate + 4-(2-methoxyethyl)-4-methylmorpholinium trifluorotris(perfluoroethyl)phosphate; phases: Liquid
Fixed: Pressure, kPa = 101
Fixed: Mole fraction of methyl propionate = 0
Property: Activity coefficient of methyl propionate (Liquid); method: Chromatography
Temperature, K	Activity coefficient of methyl propionate	uncertainty
318.15	.38	.0114
328.15	.413	.01239
338.15	.448	.01344
348.15	.483	.01449
358.15	.52	.0156
368.15	.558	.01674

System: butyric acid, methyl ester + 4-(2-methoxyethyl)-4-methylmorpholinium trifluorotris(perfluoroethyl)phosphate; phases: Liquid
Fixed: Pressure, kPa = 101
Fixed: Mole fraction of butyric acid, methyl ester = 0
Property: Activity coefficient of butyric acid, methyl ester (Liquid); method: Chromatography
Temperature, K	Activity coefficient of butyric acid, methyl ester	uncertainty
318.15	.554	.01662
328.15	.597	.01791
338.15	.642	.01926
348.15	.686	.02058
358.15	.73	.0219
368.15	.776	.02328

System: ethyl ethanoate + 4-(2-methoxyethyl)-4-methylmorpholinium trifluorotris(perfluoroethyl)phosphate; phases: Liquid
Fixed: Pressure, kPa = 101
Fixed: Mole fraction of ethyl ethanoate = 0
Property: Activity coefficient of ethyl ethanoate (Liquid); method: Chromatography
Temperature, K	Activity coefficient of ethyl ethanoate	uncertainty
318.15	.372	.01116
328.15	.406	.01218
338.15	.439	.01317
348.15	.473	.01419
358.15	.51	.0153
368.15	.544	.01632

System: oxolane + 4-(2-methoxyethyl)-4-methylmorpholinium trifluorotris(perfluoroethyl)phosphate; phases: Liquid
Fixed: Pressure, kPa = 101
Fixed: Mole fraction of oxolane = 0
Property: Activity coefficient of oxolane (Liquid); method: Chromatography
Temperature, K	Activity coefficient of oxolane	uncertainty
318.15	.414	.01242
328.15	.445	.01335
338.15	.476	.01428
348.15	.508	.01524
358.15	.54	.0162
368.15	.572	.01716

System: 1,4-dioxane + 4-(2-methoxyethyl)-4-methylmorpholinium trifluorotris(perfluoroethyl)phosphate; phases: Liquid
Fixed: Pressure, kPa = 101
Fixed: Mole fraction of 1,4-dioxane = 0
Property: Activity coefficient of 1,4-dioxane (Liquid); method: Chromatography
Temperature, K	Activity coefficient of 1,4-dioxane	uncertainty
318.15	.292	.00876
328.15	.323	.00969
338.15	.357	.01071
348.15	.39	.0117
358.15	.423	.01269
368.15	.456	.01368

System: methyl tert-butyl ether + 4-(2-methoxyethyl)-4-methylmorpholinium trifluorotris(perfluoroethyl)phosphate; phases: Liquid
Fixed: Pressure, kPa = 101
Fixed: Mole fraction of methyl tert-butyl ether = 0
Property: Activity coefficient of methyl tert-butyl ether (Liquid); method: Chromatography
Temperature, K	Activity coefficient of methyl tert-butyl ether	uncertainty
318.15	1.58	.0474
328.15	1.65	.0495
338.15	1.72	.0516
348.15	1.78	.0534
358.15	1.84	.0552
368.15	1.91	.0573

System: ethyl tert-butyl ether + 4-(2-methoxyethyl)-4-methylmorpholinium trifluorotris(perfluoroethyl)phosphate; phases: Liquid
Fixed: Pressure, kPa = 101
Fixed: Mole fraction of ethyl tert-butyl ether = 0
Property: Activity coefficient of ethyl tert-butyl ether (Liquid); method: Chromatography
Temperature, K	Activity coefficient of ethyl tert-butyl ether	uncertainty
318.15	4.39	.1317
328.15	4.39	.1317
338.15	4.4	.132
348.15	4.41	.1323
358.15	4.41	.1323
368.15	4.42	.1326

System: tert-amyl methyl ether + 4-(2-methoxyethyl)-4-methylmorpholinium trifluorotris(perfluoroethyl)phosphate; phases: Liquid
Fixed: Pressure, kPa = 101
Fixed: Mole fraction of tert-amyl methyl ether = 0
Property: Activity coefficient of tert-amyl methyl ether (Liquid); method: Chromatography
Temperature, K	Activity coefficient of tert-amyl methyl ether	uncertainty
318.15	2.48	.0744
328.15	2.55	.0765
338.15	2.61	.0783
348.15	2.67	.0801
358.15	2.72	.0816
368.15	2.78	.0834

System: diethyl ether + 4-(2-methoxyethyl)-4-methylmorpholinium trifluorotris(perfluoroethyl)phosphate; phases: Liquid
Fixed: Pressure, kPa = 101
Fixed: Mole fraction of diethyl ether = 0
Property: Activity coefficient of diethyl ether (Liquid); method: Chromatography
Temperature, K	Activity coefficient of diethyl ether	uncertainty
318.15	1.64	.0492
328.15	1.68	.0504
338.15	1.73	.0519
348.15	1.78	.0534
358.15	1.81	.0543
368.15	1.86	.0558

System: ether, dipropyl + 4-(2-methoxyethyl)-4-methylmorpholinium trifluorotris(perfluoroethyl)phosphate; phases: Liquid
Fixed: Pressure, kPa = 101
Fixed: Mole fraction of ether, dipropyl = 0
Property: Activity coefficient of ether, dipropyl (Liquid); method: Chromatography
Temperature, K	Activity coefficient of ether, dipropyl	uncertainty
318.15	4.9	.147
328.15	4.87	.1461
338.15	4.84	.1452
348.15	4.81	.1443
358.15	4.79	.1437
368.15	4.77	.1431

System: isopropyl ether + 4-(2-methoxyethyl)-4-methylmorpholinium trifluorotris(perfluoroethyl)phosphate; phases: Liquid
Fixed: Pressure, kPa = 101
Fixed: Mole fraction of isopropyl ether = 0
Property: Activity coefficient of isopropyl ether (Liquid); method: Chromatography
Temperature, K	Activity coefficient of isopropyl ether	uncertainty
318.15	4.41	.1323
328.15	4.44	.1332
338.15	4.46	.1338
348.15	4.48	.1344
358.15	4.5	.135
368.15	4.52	.1356

System: butyl oxide + 4-(2-methoxyethyl)-4-methylmorpholinium trifluorotris(perfluoroethyl)phosphate; phases: Liquid
Fixed: Pressure, kPa = 101
Fixed: Mole fraction of butyl oxide = 0
Property: Activity coefficient of butyl oxide (Liquid); method: Chromatography
Temperature, K	Activity coefficient of butyl oxide	uncertainty
318.15	11.7	.351
328.15	11.2	.336
338.15	10.8	.324
348.15	10.4	.312
358.15	10.1	.303
368.15	9.75	.2925

System: dimethyl ketone + 4-(2-methoxyethyl)-4-methylmorpholinium trifluorotris(perfluoroethyl)phosphate; phases: Liquid
Fixed: Pressure, kPa = 101
Fixed: Mole fraction of dimethyl ketone = 0
Property: Activity coefficient of dimethyl ketone (Liquid); method: Chromatography
Temperature, K	Activity coefficient of dimethyl ketone	uncertainty
318.15	.176	.00528
328.15	.193	.00579
338.15	.21	.0063
348.15	.227	.00681
358.15	.244	.00732
368.15	.262	.00786

System: methyl n-propyl ketone + 4-(2-methoxyethyl)-4-methylmorpholinium trifluorotris(perfluoroethyl)phosphate; phases: Liquid
Fixed: Pressure, kPa = 101
Fixed: Mole fraction of methyl n-propyl ketone = 0
Property: Activity coefficient of methyl n-propyl ketone (Liquid); method: Chromatography
Temperature, K	Activity coefficient of methyl n-propyl ketone	uncertainty
318.15	.324	.00972
328.15	.352	.01056
338.15	.38	.0114
348.15	.408	.01224
358.15	.435	.01305
368.15	.463	.01389

System: diethyl ketone + 4-(2-methoxyethyl)-4-methylmorpholinium trifluorotris(perfluoroethyl)phosphate; phases: Liquid
Fixed: Pressure, kPa = 101
Fixed: Mole fraction of diethyl ketone = 0
Property: Activity coefficient of diethyl ketone (Liquid); method: Chromatography
Temperature, K	Activity coefficient of diethyl ketone	uncertainty
318.15	.329	.00987
328.15	.361	.01083
338.15	.391	.01173
348.15	.42	.0126
358.15	.451	.01353
368.15	.481	.01443

System: 1-propanecarbaldehyde + 4-(2-methoxyethyl)-4-methylmorpholinium trifluorotris(perfluoroethyl)phosphate; phases: Liquid
Fixed: Pressure, kPa = 101
Fixed: Mole fraction of 1-propanecarbaldehyde = 0
Property: Activity coefficient of 1-propanecarbaldehyde (Liquid); method: Chromatography
Temperature, K	Activity coefficient of 1-propanecarbaldehyde	uncertainty
318.15	.401	.01203
328.15	.427	.01281
338.15	.459	.01377
348.15	.485	.01455
358.15	.516	.01548
368.15	.545	.01635

System: cyanomethane + 4-(2-methoxyethyl)-4-methylmorpholinium trifluorotris(perfluoroethyl)phosphate; phases: Liquid
Fixed: Pressure, kPa = 101
Fixed: Mole fraction of cyanomethane = 0
Property: Activity coefficient of cyanomethane (Liquid); method: Chromatography
Temperature, K	Activity coefficient of cyanomethane	uncertainty
318.15	.227	.00681
328.15	.241	.00723
338.15	.256	.00768
348.15	.27	.0081
358.15	.284	.00852
368.15	.299	.00897

System: 1-nitropropane + 4-(2-methoxyethyl)-4-methylmorpholinium trifluorotris(perfluoroethyl)phosphate; phases: Liquid
Fixed: Pressure, kPa = 101
Fixed: Mole fraction of 1-nitropropane = 0
Property: Activity coefficient of 1-nitropropane (Liquid); method: Chromatography
Temperature, K	Activity coefficient of 1-nitropropane	uncertainty
318.15	.468	.01404
328.15	.488	.01464
338.15	.505	.01515
348.15	.526	.01578
358.15	.545	.01635
368.15	.563	.01689

System: 1-pentyne + 4-(2-methoxyethyl)-4-methylmorpholinium trifluorotris(perfluoroethyl)phosphate; phases: Liquid
Fixed: Pressure, kPa = 101
Fixed: Mole fraction of 1-pentyne = 0
Property: Activity coefficient of 1-pentyne (Liquid); method: Chromatography
Temperature, K	Activity coefficient of 1-pentyne	uncertainty
318.15	2.52	.0756
328.15	2.53	.0759
338.15	2.55	.0765
348.15	2.56	.0768
358.15	2.58	.0774
368.15	2.59	.0777
