Measured thermophysical data. Solubility of sodium 4-nitrotoluene-2-sulfonate in (propanol + water) and (ethylene glycol + water) systems
Source: J. Chem. Thermodyn., 2012, 10.1016/j.jct.2011.08.010
Compound 1: sodium 4-nitrotoluene-2-sulfonate, C7H7NNaO5S, purity 98%
Compound 2: propyl alcohol, C3H8O, purity 99.8%
Compound 3: ethylene glycol, C2H6O2, purity 99%
Compound 4: water, H2O, purity 99.8%

System: propyl alcohol + sodium 4-nitrotoluene-2-sulfonate + water; phases: Liquid, Crystal
Fixed: Pressure, kPa = 101
Property: Solid-liquid equilibrium temperature, K (Liquid); method: Laser monitoring observation technique
Solvent: Mole fraction of propyl alcohol	Mole fraction of sodium 4-nitrotoluene-2-sulfonate	Solid-liquid equilibrium temperature, K	uncertainty
.26	.01043	292.15	.1
.26	.01172	295.5	.1
.26	.01299	298.95	.1
.26	.01445	302.5	.1
.26	.01699	309	.1
.26	.01976	315.1	.1
.26	.02303	321.3	.1
.26	.02623	326.9	.1
.26	.03037	333.1	.1
.26	.03213	335.7	.1
.26	.03451	338.53	.1
.26	.03786	341.53	.1
.4	.006584	293.84	.1
.4	.007454	298.22	.1
.4	.008137	301.47	.1
.4	.008875	304.82	.1
.4	.009195	306.22	.1
.4	.01005	309.47	.1
.4	.01106	313.17	.1
.4	.01212	316.77	.1
.4	.01323	320.17	.1
.4	.01431	323.87	.1
.4	.01506	326.17	.1
.4	.01615	329.17	.1
.4	.01758	332.72	.1
.4	.01914	336.34	.1
.4	.02095	340.24	.1
.6	.002869	295.13	.1
.6	.00316	297.93	.1
.6	.003385	301.24	.1
.6	.00377	304.83	.1
.6	.004179	308.33	.1
.6	.004539	311.23	.1
.6	.004998	315.21	.1
.6	.005456	318.21	.1
.6	.006055	322.01	.1
.6	.006733	325.62	.1
.6	.007524	329.69	.1
.6	.008396	334.02	.1
.6	.009216	337.51	.1
.6	.01012	340.8	.1
.8	.0006936	297.79	.1
.8	.0008067	303.49	.1
.8	.0009436	308.89	.1
.8	.001064	312.09	.1
.8	.001211	315.09	.1
.8	.00139	319.19	.1
.8	.001543	322.79	.1
.8	.00187	327.69	.1
.8	.00204	330.49	.1
.8	.002269	333.49	.1
.8	.002543	337.19	.1
.8	.00283	340.69	.1
1	.0003253	300.21	.1
1	.0003866	303.81	.1
1	.0004675	308.31	.1
1	.000522	311.91	.1
1	.0005973	315.21	.1
1	.0006707	319.01	.1
1	.0007562	322.01	.1
1	.0008396	325.58	.1
1	.0009428	329.04	.1
1	.001036	332.34	.1
1	.001141	335.46	.1

System: ethylene glycol + sodium 4-nitrotoluene-2-sulfonate + water; phases: Liquid, Crystal
Fixed: Pressure, kPa = 101
Property: Solid-liquid equilibrium temperature, K (Liquid); method: Laser monitoring observation technique
Solvent: Mole fraction of ethylene glycol	Mole fraction of sodium 4-nitrotoluene-2-sulfonate	Solid-liquid equilibrium temperature, K	uncertainty
.2	.008481	292.15	.1
.2	.00933	296.09	.1
.2	.01058	300.09	.1
.2	.01199	304.09	.1
.2	.01349	308.29	.1
.2	.01529	312.49	.1
.2	.01721	316.9	.1
.2	.01922	321.39	.1
.2	.02145	325.59	.1
.2	.02382	329.89	.1
.2	.02612	334.13	.1
.2	.02858	338.08	.1
.2	.03125	341.98	.1
.2	.03392	345.86	.1
.4	.01649	292.15	.1
.4	.01793	297.09	.1
.4	.01955	300.79	.1
.4	.02156	305.09	.1
.4	.02406	309.99	.1
.4	.02659	314.39	.1
.4	.02906	318.29	.1
.4	.03187	322.49	.1
.4	.03502	326.69	.1
.4	.03803	330.92	.1
.4	.04148	335.29	.1
.4	.04572	340.5	.1
.4	.04959	344.8	.1
.4	.05276	348.09	.1
.6	.01991	292.45	.1
.6	.0212	295.89	.1
.6	.02206	298.07	.1
.6	.02348	301.39	.1
.6	.02535	305.49	.1
.6	.0275	309.49	.1
.6	.02934	313.79	.1
.6	.03147	316.89	.1
.6	.03369	320.47	.1
.6	.03614	324.17	.1
.6	.03891	328.17	.1
.6	.04202	332.39	.1
.6	.04551	336.79	.1
.6	.0493	341.29	.1
.6	.05344	345.89	.1
.6	.05764	350.4	.1
.8	.03583	293.69	.1
.8	.03844	298.39	.1
.8	.04068	302.19	.1
.8	.04319	306.29	.1
.8	.04577	310.09	.1
.8	.04839	313.89	.1
.8	.05115	317.54	.1
.8	.05408	321.49	.1
.8	.05711	325.19	.1
.8	.0603	328.79	.1
.8	.06364	332.59	.1
.8	.06736	336.59	.1
.8	.07159	340.59	.1
.8	.07622	344.97	.1
.8	.08091	348.89	.1
1	.03824	290.1	.1
1	.04241	301.13	.1
1	.04675	308.29	.1
1	.04982	311.79	.1
1	.05312	315.19	.1
1	.05665	319.69	.1
1	.05899	322.69	.1
1	.06284	326.89	.1
1	.06552	328.99	.1
1	.07019	332.49	.1
1	.07602	336.39	.1
1	.08277	340.69	.1
