Measured thermophysical data. Enthalpy of solution of CO2 in aqueous solutions of methyldiethanolamine  at T = 372.9 K and pressures up to 5 MPa
Source: J. Chem. Thermodyn., 2009, 10.1016/j.jct.2009.01.013
Compound 1: N-methyldiethanolamine, C5H13NO2
Compound 2: carbon dioxide, CO2
Compound 3: water, H2O

System: N-methyldiethanolamine + carbon dioxide + water; phases: Liquid
Fixed: Temperature, K = 372.9
Property: Molar enthalpy of solution, kJ/mol (Liquid); method: Flow calorimetry
Solvent: Mass fraction of N-methyldiethanolamine	Pressure, kPa	Mole fraction of carbon dioxide	Molar enthalpy of solution, kJ/mol	uncertainty
.15	520	.0044	56.8	1.6
.15	520	.00671	56.4	.7
.15	520	.00722	55.9	.7
.15	520	.00914	57.2	.9
.15	520	.00942	56.3	2.3
.15	520	.01133	58	.6
.15	520	.01179	56	.5
.15	520	.01364	56.7	1
.15	520	.01407	55.7	1
.15	520	.01412	55.5	5.2
.15	520	.01581	51.6	.7
.15	520	.01583	52.3	.5
.15	520	.01807	42.9	.5
.15	520	.01867	43.2	.8
.15	520	.01902	41.5	.5
.15	520	.01939	41.3	.5
.15	520	.02099	37.2	.8
.15	520	.02258	33.1	3.7
.15	520	.02285	32.6	.8
.15	520	.02325	31.8	.5
.15	520	.02511	28.8	.6
.15	520	.02732	25.5	.5
.15	520	.02779	24.7	2.8
.15	520	.02953	22.8	.5
.15	520	.03275	19.8	1.5
.15	520	.03275	20.7	.6
.15	520	.03287	20.1	.3
.15	520	.03346	19.7	.3
.15	520	.03498	17.3	.7
.15	520	.03619	17	.4
.15	520	.03665	15.3	.5
.15	520	.03679	15.7	.4
.15	1000	.00812	56.1	1.6
.15	1000	.00817	55.3	.6
.15	1000	.00848	56.5	.6
.15	1000	.00848	55.6	1.5
.15	1000	.00868	55.9	1
.15	1000	.01057	55.8	2
.15	1000	.01283	55.8	.6
.15	1000	.01371	55.7	2.9
.15	1000	.01472	53.1	5.1
.15	1000	.01543	53.7	.5
.15	1000	.01656	54.8	1.8
.15	1000	.01759	52.2	1.1
.15	1000	.01872	50.5	.6
.15	1000	.01942	50.7	.6
.15	1000	.02007	48.9	.5
.15	1000	.02166	44.6	.5
.15	1000	.02265	43.2	1.1
.15	1000	.02464	39.3	1.5
.15	1000	.02587	36.6	.4
.15	1000	.02705	35.3	1.3
.15	1000	.02982	31	.4
.15	1000	.03358	26.9	.3
.15	1000	.01545	48.1	.6
.15	1000	.01548	48.1	.9
.15	1000	.01792	47.6	.5
.15	1000	.01802	48.1	1.5
.15	1000	.01957	48.1	.5
.15	1000	.02037	46.7	.3
.15	1000	.02056	46.1	1.1
.15	1000	.02216	46.3	.3
.15	1000	.02303	44.7	.3
.15	1000	.02303	45.7	.3
.15	1000	.02325	46.1	.8
.15	1000	.02444	43.9	.4
.15	1000	.0255	45.9	1
.15	1000	.0255	45.2	.3
.15	1000	.02622	47.5	.8
.15	1000	.0275	45.9	.3
.15	1000	.02769	45.5	1.4
.15	1000	.02769	44.2	.3
.15	1000	.02848	43.6	.9
.15	1000	.02862	43.7	.3
.15	1000	.02865	44	1.5
.15	1000	.0287	44.8	.6
.15	1000	.03075	42.9	.3
.15	1000	.03377	39	.3
.15	1000	.0386	33.6	.3
.15	1000	.04352	29.3	.6
.15	1000	.04959	25.7	.2
.15	1000	.05422	23.3	.2
.3	510	.00749	59.1	.5
.3	510	.00994	61.3	.4
.3	510	.01054	59.2	.3
.3	510	.01268	60.1	.4
.3	510	.01569	58.8	2.5
.3	510	.01857	57.6	3.6
.3	510	.01892	60	.9
.3	510	.02085	59.2	.5
.3	510	.0212	57.4	.8
.3	510	.0219	57	1.2
.3	510	.02382	58.1	.6
.3	510	.02423	57.8	.5
.3	510	.02642	52.2	.6
.3	510	.02683	51.9	.7
.3	510	.02895	46.8	.8
.3	510	.03153	41.1	.8
.3	510	.03534	34.6	.3
.3	510	.04141	29.1	.3
.3	510	.05126	21.2	.8
.3	510	.06327	15.4	.2
.3	510	.07304	12	.2
.3	510	.08134	9.4	.1
.3	1000	.00964	59.9	.8
.3	1000	.01232	57.9	2.7
.3	1000	.01433	61	1.4
.3	1000	.01687	61.6	1.4
.3	1000	.01705	55.7	1
.3	1000	.01916	61.1	.7
.3	1000	.01945	56.9	.9
.3	1000	.01945	60.2	2.4
.3	1000	.02068	56.3	2.8
.3	1000	.02173	60.3	.9
.3	1000	.02451	56	1
.3	1000	.02596	55.3	1.1
.3	1000	.027	59.6	.8
.3	1000	.02878	58.5	.9
.3	1000	.03101	55.3	1.6
.3	1000	.03204	54.6	3.2
.3	1000	.03301	52.7	1
.3	1000	.03579	50.7	1
.3	1000	.03709	48.7	.7
.3	1000	.03917	45	.6
.3	1000	.04181	42.6	.6
.3	1000	.04326	39.8	.6
.3	1000	.04387	39.6	.6
.3	1000	.04653	37.8	.7
.3	1000	.04846	35.3	.6
.3	1000	.05066	34.5	.6
.3	1000	.05963	28.1	.8
.3	1000	.07793	20.1	.4
.3	1000	.09559	15.7	.4
.3	3160	.01887	54.8	3.4
.3	3160	.0278	55.8	1.2
.3	3160	.03216	53.4	5.1
.3	3160	.03647	53.8	.7
.3	3160	.03861	53	.6
.3	3160	.04169	51.3	1
.3	3160	.04169	51.6	.4
.3	3160	.04448	52.2	1.8
.3	3160	.0447	51.1	.4
.3	3160	.04758	50.7	.5
.3	3160	.05055	51.3	.7
.3	3160	.05345	49.5	.4
.3	3160	.05806	45	1.3
.3	3160	.069	37.9	.4
.3	3160	.0731	36.1	.4
.3	3160	.084	30.5	.2
.3	3160	.09763	25.7	.2
.3	3160	.11081	22.2	.2
.3	5290	.01834	46.6	.2
.3	5290	.02347	50.8	.2
.3	5290	.03449	50.6	.2
.3	5290	.03641	47.2	3.3
.3	5290	.0408	46.8	1.4
.3	5290	.0467	47	1.3
.3	5290	.04747	47.2	.5
.3	5290	.04984	45.2	.7
.3	5290	.05622	47.6	.8
.3	5290	.05752	46.5	.8
.3	5290	.05979	48	.5
.3	5290	.06065	47.2	.2
.3	5290	.06316	44.3	.5
.3	5290	.06519	43.8	.7
.3	5290	.06932	39.2	.8
.3	5290	.07137	40.1	.5
.3	5290	.07974	35.8	.3
.3	5290	.08943	31.4	.2
.3	5290	.10113	27.5	.2
