Measured thermophysical data. Standard molar enthalpies of formation of the acetylpyridine isomers
Source: J. Chem. Thermodyn., 2007
Compound 1: 2-acetylpyridine, C7H7NO, purity 99%
Compound 2: 3-acetylpyridine, C7H7NO, purity 99%
Compound 3: 4-acetylpyridine, C7H7NO, purity 99%
Compound 4: carbon dioxide, CO2
Compound 5: nitrogen, N2
Compound 6: water, H2O
Compound 7: oxygen, O2

System: 2-acetylpyridine; phases: Gas
Property: Molar enthalpy, kJ/mol (Gas); method: vacuum-sublimation drop microcalorimetry
Temperature, K	Pressure, kPa	Molar enthalpy, kJ/mol	uncertainty
371	101.3	68.99	

System: 3-acetylpyridine; phases: Gas
Property: Molar enthalpy, kJ/mol (Gas); method: vacuum-sublimation drop microcalorimetry
Temperature, K	Pressure, kPa	Molar enthalpy, kJ/mol	uncertainty
371	101.3	74.59	

System: 4-acetylpyridine; phases: Gas
Property: Molar enthalpy, kJ/mol (Gas); method: vacuum-sublimation drop microcalorimetry
Temperature, K	Pressure, kPa	Molar enthalpy, kJ/mol	uncertainty
371	101.3	74.99	

Reaction: -1 2-acetylpyridine + 7 carbon dioxide + 0.5 nitrogen + 3.5 water + -8.25 oxygen
Property: Specific internal energy of reaction at constant volume, J/g
-30141.9

Reaction: -1 3-acetylpyridine + 7 carbon dioxide + 0.5 nitrogen + 3.5 water + -8.25 oxygen
Property: Specific internal energy of reaction at constant volume, J/g
-30145.9

Reaction: -1 4-acetylpyridine + 7 carbon dioxide + 0.5 nitrogen + 3.5 water + -8.25 oxygen
Property: Specific internal energy of reaction at constant volume, J/g
-30134
