Measured thermophysical data. Diffusion coefficients and VLE data of aqueous phosphoric acid
Source: J. Chem. Thermodyn., 2014, 10.1016/j.jct.2013.08.028
Compound 1: phosphoric acid, H3O4P, purity 98%
Compound 2: water, H2O
Compound 3: diphosphorus pentoxide, O5P2, purity 98%

System: phosphoric acid + water; phases: Liquid
Fixed: Pressure, kPa = 101
Property: Binary diffusion coefficient, m2/s (Liquid); method: Taylor dispersion method
Temperature, K	Mass fraction of phosphoric acid	Binary diffusion coefficient, m2/s	uncertainty
293.13	.02	0.00000000091	.0000000000637
302.91	.02	0.000000001023	.00000000007161
313.25	.02	0.000000001231	.00000000008617
322.82	.02	0.000000001539	.00000000010773
292.82	.165	0.000000000719	.00000000005033
293.12	.31	0.000000000679	.00000000004753
292.78	.418	0.000000000676	.00000000004732
298.42	.418	0.00000000079	.0000000000553
303.22	.418	0.000000000856	.00000000005992
313.27	.418	0.000000001034	.00000000007238
323.28	.418	0.000000001206	.00000000008442
331.31	.418	0.00000000138	.0000000000966
343.83	.418	0.000000001609	.00000000011263
293.53	.513	0.00000000065	.0000000000455
293.16	.65	0.000000000493	.00000000003451
298.18	.65	0.000000000564	.00000000003948
303.28	.65	0.000000000642	.00000000004494
313.38	.65	0.000000000797	.00000000005579
322.94	.65	0.000000000922	.00000000006454
332.68	.65	0.000000001073	.00000000007511
343.15	.65	0.000000001195	.00000000008365
293.17	.814	0.000000000238	.00000000001666

System: diphosphorus pentoxide + water; phases: Liquid, Gas
Property: Boiling temperature at pressure P, K (Liquid); method: Ebulliometric method (Recirculating still)
Pressure, kPa	Mole fraction of diphosphorus pentoxide	Boiling temperature at pressure P, K	uncertainty
10	.034	322.75	.25
20	.034	337.25	.25
30	.034	346.55	.25
40	.034	353.15	.25
50	.034	358.65	.25
60	.034	363.15	.25
70	.034	367.25	.25
80	.034	370.85	.25
90	.034	374.15	.25
100	.034	376.15	.25
5	.0672	312.52	.5
15	.0672	333.52	.5
20	.0672	339.51	.5
30	.0672	348.74	.5
40	.0672	355.17	.5
50	.0672	360.94	.5
60	.0672	365.73	.5
70	.0672	369.19	.5
80	.0672	373.44	.5
90	.0672	376.68	.5
100	.0672	378.67	.5
5	.1311	329.79	.5
15	.1311	352.24	.5
20	.1311	357.19	.5
30	.1311	368.04	.5
40	.1311	375.7	.5
50	.1311	381.69	.5
60	.1311	386.16	.5
70	.1311	391	.5
80	.1311	395.12	.5
90	.1311	397.08	.5
100	.1311	401.75	.5
5	.1689	355.4	.5
15	.1689	378.17	.5
20	.1689	384.34	.5
30	.1689	394.93	.5
40	.1689	402.84	.5
50	.1689	406.81	.5
60	.1689	411.95	.5
70	.1689	419.5	.5
80	.1689	424.76	.5
90	.1689	425.68	.5
100	.1689	431.41	.5

System: diphosphorus pentoxide + water; phases: Liquid, Gas
Property: Boiling temperature at pressure P, K (Liquid); method: Ebulliometric method (Recirculating still)
Pressure, kPa	Mole fraction of diphosphorus pentoxide	Boiling temperature at pressure P, K	uncertainty
5	.0006	307.05	.25
5	.0148	307.25	.25
5	.021	307.45	.25
5	.0298	308.25	.25
5	.0381	309.15	.25
5	.0733	312.38	.5
5	.0808	315.3	.5
5	.0911	317.68	.5
5	.1058	321.63	.5
5	.1153	324.35	.5
5	.1271	329.52	.5
5	.1426	335.21	.5
5	.144	340.2	.5
5	.1712	353.05	.5
5	.1892	359.86	.5
5	.1768	360.17	.5
5	.2007	367.4	.5
5	.2024	375.2	.5
5	.2225	377.95	.5
5	.2269	395.52	.5
5	.2346	399.64	.5
5	.2303	422.5	.5
5	.2588	443.29	.5
100	.0004	372.57	.25
100	.0002	372.55	.25
100	.0005	372.6	.25
100	.0002	372.6	.25
100	.0004	372.6	.25
100	.0015	372.69	.25
100	.0013	372.67	.25
100	.0017	372.68	.25
100	.0016	372.67	.25
100	.0018	372.67	.25
100	.0016	372.68	.25
100	.0019	372.67	.25
100	.0018	372.66	.25
100	.0042	372.74	.25
100	.0043	372.75	.25
100	.0049	372.76	.25
100	.0041	372.76	.25
100	.0052	372.82	.25
100	.0056	372.81	.25
100	.0055	372.83	.25
100	.006	372.8	.25
100	.0078	372.88	.25
100	.0077	372.9	.25
100	.0092	373.11	.25
100	.0094	373.13	.25
100	.0121	373.33	.25
100	.0125	373.3	.25
100	.015	373.63	.25
100	.0174	373.64	.25
100	.0172	373.65	.25
100	.0208	374.19	.25
100	.0222	374.23	.25
100	.0281	375.34	.25
100	.0315	375.35	.25
100	.0367	376.5	.25
100	.0403	376.43	.25
100	.0434	376.38	.25
100	.036	376.48	.25
100	.0492	377.53	.25
100	.0503	377.52	.25
100	.0593	379.2	.25
100	.0614	379.4	.25
100	.0583	379.36	.25
100	.0607	379.82	.25
100	.0597	379.93	.25
100	.0782	383.91	.5
100	.0788	384.2	.5
100	.105	391.15	.5
100	.103	390.45	.5
100	.1212	402.6	.5
100	.1344	409.14	.5
100	.1334	409.35	.5
100	.1497	415.26	.5
100	.1456	415.37	.5
100	.1519	414.97	.5
100	.1764	426.17	.5
100	.1752	426.27	.5
100	.1783	426.54	.5
100	.1942	448.07	.5
100	.2024	449.17	.5
100	.1878	448.88	.5

System: diphosphorus pentoxide + water; phases: Gas, Liquid
Property: Mole fraction of diphosphorus pentoxide (Gas); method: Density calibration data
Pressure, kPa	Temperature, K	Mole fraction of diphosphorus pentoxide	uncertainty
5	407.15	.00001	
5	428.15	.00002	
5	460.15	.00002	

System: diphosphorus pentoxide + water; phases: Gas, Liquid
Fixed: Pressure, kPa = 2
Property: Mole fraction of diphosphorus pentoxide (Gas); method: Density calibration data
Mole fraction of diphosphorus pentoxide	Mole fraction of diphosphorus pentoxide	uncertainty
.0321	.000002	.0000001
.0759	.0000005	.000000025
.1267	.0000013	.000000065
.1695	.0000051	.000000255
.2058	.0000027	.000000135
.2171	.0000026	.00000013
.2244	.0000056	.00000028
.2308	.0000054	.00000027
.24	.0000056	.00000028
.2512	.0000173	.000000865
.2628	.0000455	.000002275
.2747	.0000686	.00000343
.2866	.0000922	.00000461
