Measured thermophysical data. Experimental and theoretical study on infinite dilution activity  coefficients of various solutes in piperidinium ionic liquids
Source: J. Chem. Thermodyn., 2013, 10.1016/j.jct.2013.01.005
Compound 1: 1-pentyl-1-methylpyrrolidinium 1,1,1-trifluoro-N-[(trifluoromethyl)sulfonyl]methanesulfonamide, C12H22F6N2O4S2
Compound 2: 1-hexyl-1-methylpyrrolidinium bis(trifluoromethanesulfonyl)imide, C13H24F6N2O4S2, purity 99.9%
Compound 3: n-hexane, C6H14, purity 99%
Compound 4: 2,2-dimethylbutane, C6H14, purity 99%
Compound 5: n-heptane, C7H16, purity 99.5%
Compound 6: n-octane, C8H18, purity 99%
Compound 7: 2,2,4-trimethylpentane, C8H18, purity 99%
Compound 8: n-nonane, C9H20, purity 99%
Compound 9: n-decane, C10H22, purity 99%
Compound 10: cyclopentane, C5H10, purity 99%
Compound 11: cyclohexane, C6H12, purity 99%
Compound 12: methylcyclohexane, C7H14, purity 99%
Compound 13: cycloheptane, C7H14, purity 98%
Compound 14: cyclooctane, C8H16, purity 99%
Compound 15: 1-hexene, C6H12, purity 99%
Compound 16: 1-octene, C8H16, purity 98%
Compound 17: 1-decene, C10H20, purity 97%
Compound 18: 1-pentyne, C5H8, purity 99%
Compound 19: 1-hexyne, C6H10, purity 97%
Compound 20: 1-heptyne, C7H12, purity 98%
Compound 21: 1-octyne, C8H14, purity 97%
Compound 22: benzene, C6H6, purity 99.8%
Compound 23: toluene, C7H8, purity 99.8%
Compound 24: ethylbenzene, C8H10, purity 99.8%
Compound 25: o-xylene, C8H10, purity 99%
Compound 26: m-xylene, C8H10, purity 99%
Compound 27: p-xylene, C8H10, purity 99%
Compound 28: methyl alcohol, CH4O, purity 99.9%
Compound 29: ethanol, C2H6O, purity 99.8%
Compound 30: n-propyl alcohol, C3H8O, purity 99.9%
Compound 31: n-butanol, C4H10O, purity 99.8%
Compound 32: pentyl alcohol, C5H12O, purity 99.8%
Compound 33: water, H2O
Compound 34: thiophene, C4H4S, purity 99%
Compound 35: tetrahydrofuran, C4H8O, purity 99.9%
Compound 36: methyl tert-butyl ether, C5H12O, purity 99.8%
Compound 37: methyl tert-amyl ether, C6H14O, purity 97%
Compound 38: dipropyl ether, C6H14O, purity 99%
Compound 39: dibutyl ether, C8H18O, purity 99.3%
Compound 40: acetone, C3H6O, purity 99.9%
Compound 41: 2-pentanone, C5H10O, purity 99%
Compound 42: pentane, C5H12, purity 99%
Compound 43: cyclohexene, C6H10, purity 99%
Compound 44: 1-heptene, C7H14, purity 99%
Compound 45: 2-hexanone, C6H12O, purity 99%
Compound 46: 1-pentene, C5H10, purity 98.5%

System: 1-pentyl-1-methylpyrrolidinium 1,1,1-trifluoro-N-[(trifluoromethyl)sulfonyl]methanesulfonamide; phases: Liquid
Fixed: Pressure, kPa = 101.325
Property: Mass density, kg/m3 (Liquid); method: Vibrating tube method
Temperature, K	Mass density, kg/m3	uncertainty
293.15	1354.47	.05
298.15	1350.13	.05
303.15	1345.85	.05
308.15	1341.7	.05
313.15	1337.54	.05
318.15	1333.36	.05
323.15	1329.2	.05
328.15	1325.05	.05
333.15	1320.89	.05
338.15	1316.75	.05
343.15	1312.6	.05
348.15	1308.46	.05
353.15	1304.36	.05
358.15	1300.26	.05

System: 1-hexyl-1-methylpyrrolidinium bis(trifluoromethanesulfonyl)imide; phases: Liquid
Fixed: Pressure, kPa = 101.325
Property: Mass density, kg/m3 (Liquid); method: Vibrating tube method
Temperature, K	Mass density, kg/m3	uncertainty
293.15	1329.53	.05
298.15	1325.41	.05
303.15	1321.3	.05
308.15	1317.2	.05
313.15	1313.11	.05
318.15	1309.04	.05
323.15	1304.98	.05
328.15	1300.93	.05
333.15	1296.9	.05
338.15	1292.88	.05
343.15	1288.87	.05
348.15	1284.87	.05
353.15	1280.88	.05
358.15	1276.91	.05

System: n-hexane + 1-pentyl-1-methylpyrrolidinium 1,1,1-trifluoro-N-[(trifluoromethyl)sulfonyl]methanesulfonamide; phases: Liquid
Fixed: Pressure, kPa = 101
Fixed: Mole fraction of n-hexane = 0
Property: Activity coefficient of n-hexane (Liquid); method: Chromatography
Temperature, K	Activity coefficient of n-hexane	uncertainty
308.15	9.9	.297
318.15	9.5	.285
328.15	8.9	.267
338.15	8.45	.2535
348.15	8.19	.2457
358.15	7.92	.2376

System: 2,2-dimethylbutane + 1-pentyl-1-methylpyrrolidinium 1,1,1-trifluoro-N-[(trifluoromethyl)sulfonyl]methanesulfonamide; phases: Liquid
Fixed: Pressure, kPa = 101
Fixed: Mole fraction of 2,2-dimethylbutane = 0
Property: Activity coefficient of 2,2-dimethylbutane (Liquid); method: Chromatography
Temperature, K	Activity coefficient of 2,2-dimethylbutane	uncertainty
318.15	7.94	.2382
328.15	7.7	.231
338.15	7.34	.2202
348.15	7.04	.2112
358.15	6.86	.2058

System: n-heptane + 1-pentyl-1-methylpyrrolidinium 1,1,1-trifluoro-N-[(trifluoromethyl)sulfonyl]methanesulfonamide; phases: Liquid
Fixed: Pressure, kPa = 101
Fixed: Mole fraction of n-heptane = 0
Property: Activity coefficient of n-heptane (Liquid); method: Chromatography
Temperature, K	Activity coefficient of n-heptane	uncertainty
308.15	13.6	.408
318.15	12.4	.372
328.15	11.8	.354
338.15	11.3	.339
348.15	10.8	.324
358.15	10.4	.312

System: n-octane + 1-pentyl-1-methylpyrrolidinium 1,1,1-trifluoro-N-[(trifluoromethyl)sulfonyl]methanesulfonamide; phases: Liquid
Fixed: Pressure, kPa = 101
Fixed: Mole fraction of n-octane = 0
Property: Activity coefficient of n-octane (Liquid); method: Chromatography
Temperature, K	Activity coefficient of n-octane	uncertainty
308.15	18.2	.546
318.15	16.9	.507
328.15	15.9	.477
338.15	15.1	.453
348.15	14.4	.432
358.15	13.7	.411

System: 2,2,4-trimethylpentane + 1-pentyl-1-methylpyrrolidinium 1,1,1-trifluoro-N-[(trifluoromethyl)sulfonyl]methanesulfonamide; phases: Liquid
Fixed: Pressure, kPa = 101
Fixed: Mole fraction of 2,2,4-trimethylpentane = 0
Property: Activity coefficient of 2,2,4-trimethylpentane (Liquid); method: Chromatography
Temperature, K	Activity coefficient of 2,2,4-trimethylpentane	uncertainty
308.15	13.4	.402
318.15	12.5	.375
328.15	11.8	.354
338.15	11.4	.342
348.15	10.9	.327
358.15	10.6	.318

System: n-nonane + 1-pentyl-1-methylpyrrolidinium 1,1,1-trifluoro-N-[(trifluoromethyl)sulfonyl]methanesulfonamide; phases: Liquid
Fixed: Pressure, kPa = 101
Fixed: Mole fraction of n-nonane = 0
Property: Activity coefficient of n-nonane (Liquid); method: Chromatography
Temperature, K	Activity coefficient of n-nonane	uncertainty
308.15	24.2	.726
318.15	22.4	.672
328.15	21.1	.633
338.15	19.9	.597
348.15	19	.57
358.15	18	.54

System: n-decane + 1-pentyl-1-methylpyrrolidinium 1,1,1-trifluoro-N-[(trifluoromethyl)sulfonyl]methanesulfonamide; phases: Liquid
Fixed: Pressure, kPa = 101
Fixed: Mole fraction of n-decane = 0
Property: Activity coefficient of n-decane (Liquid); method: Chromatography
Temperature, K	Activity coefficient of n-decane	uncertainty
308.15	31.9	.957
318.15	29.5	.885
328.15	27.9	.837
338.15	26.2	.786
348.15	25.1	.753
358.15	23.8	.714

System: cyclopentane + 1-pentyl-1-methylpyrrolidinium 1,1,1-trifluoro-N-[(trifluoromethyl)sulfonyl]methanesulfonamide; phases: Liquid
Fixed: Pressure, kPa = 101
Fixed: Mole fraction of cyclopentane = 0
Property: Activity coefficient of cyclopentane (Liquid); method: Chromatography
Temperature, K	Activity coefficient of cyclopentane	uncertainty
308.15	4.72	.1416
318.15	4.5	.135
328.15	4.24	.1272
338.15	3.98	.1194
348.15	3.82	.1146
358.15	3.72	.1116

System: cyclohexane + 1-pentyl-1-methylpyrrolidinium 1,1,1-trifluoro-N-[(trifluoromethyl)sulfonyl]methanesulfonamide; phases: Liquid
Fixed: Pressure, kPa = 101
Fixed: Mole fraction of cyclohexane = 0
Property: Activity coefficient of cyclohexane (Liquid); method: Chromatography
Temperature, K	Activity coefficient of cyclohexane	uncertainty
308.15	6.4	.192
318.15	5.95	.1785
328.15	5.64	.1692
338.15	5.42	.1626
348.15	5.13	.1539
358.15	4.99	.1497

System: methylcyclohexane + 1-pentyl-1-methylpyrrolidinium 1,1,1-trifluoro-N-[(trifluoromethyl)sulfonyl]methanesulfonamide; phases: Liquid
Fixed: Pressure, kPa = 101
Fixed: Mole fraction of methylcyclohexane = 0
Property: Activity coefficient of methylcyclohexane (Liquid); method: Chromatography
Temperature, K	Activity coefficient of methylcyclohexane	uncertainty
308.15	7.8	.234
318.15	7.49	.2247
328.15	7.16	.2148
338.15	6.87	.2061
348.15	6.64	.1992
358.15	6.42	.1926

System: cycloheptane + 1-pentyl-1-methylpyrrolidinium 1,1,1-trifluoro-N-[(trifluoromethyl)sulfonyl]methanesulfonamide; phases: Liquid
Fixed: Pressure, kPa = 101
Fixed: Mole fraction of cycloheptane = 0
Property: Activity coefficient of cycloheptane (Liquid); method: Chromatography
Temperature, K	Activity coefficient of cycloheptane	uncertainty
308.15	7.97	.2391
318.15	7.49	.2247
328.15	7.13	.2139
338.15	6.82	.2046
348.15	6.54	.1962
358.15	6.26	.1878

System: cyclooctane + 1-pentyl-1-methylpyrrolidinium 1,1,1-trifluoro-N-[(trifluoromethyl)sulfonyl]methanesulfonamide; phases: Liquid
Fixed: Pressure, kPa = 101
Fixed: Mole fraction of cyclooctane = 0
Property: Activity coefficient of cyclooctane (Liquid); method: Chromatography
Temperature, K	Activity coefficient of cyclooctane	uncertainty
308.15	10.1	.303
318.15	9.58	.2874
328.15	9.06	.2718
338.15	8.6	.258
348.15	8.24	.2472
358.15	7.8	.234

System: 1-hexene + 1-pentyl-1-methylpyrrolidinium 1,1,1-trifluoro-N-[(trifluoromethyl)sulfonyl]methanesulfonamide; phases: Liquid
Fixed: Pressure, kPa = 101
Fixed: Mole fraction of 1-hexene = 0
Property: Activity coefficient of 1-hexene (Liquid); method: Chromatography
Temperature, K	Activity coefficient of 1-hexene	uncertainty
308.15	5.52	.1656
318.15	5.31	.1593
328.15	5.13	.1539
338.15	5	.15
348.15	4.92	.1476
358.15	4.8	.144

System: 1-octene + 1-pentyl-1-methylpyrrolidinium 1,1,1-trifluoro-N-[(trifluoromethyl)sulfonyl]methanesulfonamide; phases: Liquid
Fixed: Pressure, kPa = 101
Fixed: Mole fraction of 1-octene = 0
Property: Activity coefficient of 1-octene (Liquid); method: Chromatography
Temperature, K	Activity coefficient of 1-octene	uncertainty
308.15	9.9	.297
318.15	9.65	.2895
328.15	9.28	.2784
338.15	8.94	.2682
348.15	8.77	.2631
358.15	8.47	.2541

System: 1-decene + 1-pentyl-1-methylpyrrolidinium 1,1,1-trifluoro-N-[(trifluoromethyl)sulfonyl]methanesulfonamide; phases: Liquid
Fixed: Pressure, kPa = 101
Fixed: Mole fraction of 1-decene = 0
Property: Activity coefficient of 1-decene (Liquid); method: Chromatography
Temperature, K	Activity coefficient of 1-decene	uncertainty
308.15	17.1	.513
318.15	16.5	.495
328.15	15.9	.477
338.15	15.5	.465
348.15	15.3	.459
358.15	14.6	.438

System: 1-pentyne + 1-pentyl-1-methylpyrrolidinium 1,1,1-trifluoro-N-[(trifluoromethyl)sulfonyl]methanesulfonamide; phases: Liquid
Fixed: Pressure, kPa = 101
Fixed: Mole fraction of 1-pentyne = 0
Property: Activity coefficient of 1-pentyne (Liquid); method: Chromatography
Temperature, K	Activity coefficient of 1-pentyne	uncertainty
308.15	1.54	.0462
318.15	1.59	.0477
328.15	1.62	.0486
338.15	1.64	.0492
348.15	1.69	.0507
358.15	1.73	.0519

System: 1-hexyne + 1-pentyl-1-methylpyrrolidinium 1,1,1-trifluoro-N-[(trifluoromethyl)sulfonyl]methanesulfonamide; phases: Liquid
Fixed: Pressure, kPa = 101
Fixed: Mole fraction of 1-hexyne = 0
Property: Activity coefficient of 1-hexyne (Liquid); method: Chromatography
Temperature, K	Activity coefficient of 1-hexyne	uncertainty
308.15	2.09	.0627
318.15	2.12	.0636
328.15	2.14	.0642
338.15	2.18	.0654
348.15	2.22	.0666
358.15	2.25	.0675

System: 1-heptyne + 1-pentyl-1-methylpyrrolidinium 1,1,1-trifluoro-N-[(trifluoromethyl)sulfonyl]methanesulfonamide; phases: Liquid
Fixed: Pressure, kPa = 101
Fixed: Mole fraction of 1-heptyne = 0
Property: Activity coefficient of 1-heptyne (Liquid); method: Chromatography
Temperature, K	Activity coefficient of 1-heptyne	uncertainty
308.15	2.78	.0834
318.15	2.81	.0843
328.15	2.84	.0852
338.15	2.87	.0861
348.15	2.91	.0873
358.15	2.94	.0882

System: 1-octyne + 1-pentyl-1-methylpyrrolidinium 1,1,1-trifluoro-N-[(trifluoromethyl)sulfonyl]methanesulfonamide; phases: Liquid
Fixed: Pressure, kPa = 101
Fixed: Mole fraction of 1-octyne = 0
Property: Activity coefficient of 1-octyne (Liquid); method: Chromatography
Temperature, K	Activity coefficient of 1-octyne	uncertainty
308.15	3.71	.1113
318.15	3.74	.1122
328.15	3.76	.1128
338.15	3.79	.1137
348.15	3.81	.1143
358.15	3.84	.1152

System: benzene + 1-pentyl-1-methylpyrrolidinium 1,1,1-trifluoro-N-[(trifluoromethyl)sulfonyl]methanesulfonamide; phases: Liquid
Fixed: Pressure, kPa = 101
Fixed: Mole fraction of benzene = 0
Property: Activity coefficient of benzene (Liquid); method: Chromatography
Temperature, K	Activity coefficient of benzene	uncertainty
308.15	.696	.02088
318.15	.703	.02109
328.15	.712	.02136
338.15	.721	.02163
348.15	.744	.02232
358.15	.753	.02259

System: toluene + 1-pentyl-1-methylpyrrolidinium 1,1,1-trifluoro-N-[(trifluoromethyl)sulfonyl]methanesulfonamide; phases: Liquid
Fixed: Pressure, kPa = 101
Fixed: Mole fraction of toluene = 0
Property: Activity coefficient of toluene (Liquid); method: Chromatography
Temperature, K	Activity coefficient of toluene	uncertainty
308.15	.91	.0273
318.15	.919	.02757
328.15	.955	.02865
338.15	.975	.02925
348.15	1.01	.0303
358.15	1.05	.0315

System: ethylbenzene + 1-pentyl-1-methylpyrrolidinium 1,1,1-trifluoro-N-[(trifluoromethyl)sulfonyl]methanesulfonamide; phases: Liquid
Fixed: Pressure, kPa = 101
Fixed: Mole fraction of ethylbenzene = 0
Property: Activity coefficient of ethylbenzene (Liquid); method: Chromatography
Temperature, K	Activity coefficient of ethylbenzene	uncertainty
308.15	1.26	.0378
318.15	1.31	.0393
328.15	1.35	.0405
338.15	1.37	.0411
348.15	1.42	.0426
358.15	1.43	.0429

System: o-xylene + 1-pentyl-1-methylpyrrolidinium 1,1,1-trifluoro-N-[(trifluoromethyl)sulfonyl]methanesulfonamide; phases: Liquid
Fixed: Pressure, kPa = 101
Fixed: Mole fraction of o-xylene = 0
Property: Activity coefficient of o-xylene (Liquid); method: Chromatography
Temperature, K	Activity coefficient of o-xylene	uncertainty
308.15	1.06	.0318
318.15	1.14	.0342
328.15	1.16	.0348
338.15	1.19	.0357
348.15	1.24	.0372
358.15	1.27	.0381

System: m-xylene + 1-pentyl-1-methylpyrrolidinium 1,1,1-trifluoro-N-[(trifluoromethyl)sulfonyl]methanesulfonamide; phases: Liquid
Fixed: Pressure, kPa = 101
Fixed: Mole fraction of m-xylene = 0
Property: Activity coefficient of m-xylene (Liquid); method: Chromatography
Temperature, K	Activity coefficient of m-xylene	uncertainty
308.15	1.15	.0345
318.15	1.24	.0372
328.15	1.28	.0384
338.15	1.31	.0393
348.15	1.36	.0408
358.15	1.39	.0417

System: p-xylene + 1-pentyl-1-methylpyrrolidinium 1,1,1-trifluoro-N-[(trifluoromethyl)sulfonyl]methanesulfonamide; phases: Liquid
Fixed: Pressure, kPa = 101
Fixed: Mole fraction of p-xylene = 0
Property: Activity coefficient of p-xylene (Liquid); method: Chromatography
Temperature, K	Activity coefficient of p-xylene	uncertainty
308.15	1.16	.0348
318.15	1.24	.0372
328.15	1.28	.0384
338.15	1.32	.0396
348.15	1.37	.0411
358.15	1.4	.042

System: methyl alcohol + 1-pentyl-1-methylpyrrolidinium 1,1,1-trifluoro-N-[(trifluoromethyl)sulfonyl]methanesulfonamide; phases: Liquid
Fixed: Pressure, kPa = 101
Fixed: Mole fraction of methyl alcohol = 0
Property: Activity coefficient of methyl alcohol (Liquid); method: Chromatography
Temperature, K	Activity coefficient of methyl alcohol	uncertainty
308.15	1.45	.0435
318.15	1.32	.0396
328.15	1.21	.0363
338.15	1.12	.0336
348.15	1.07	.0321
358.15	1	.03

System: ethanol + 1-pentyl-1-methylpyrrolidinium 1,1,1-trifluoro-N-[(trifluoromethyl)sulfonyl]methanesulfonamide; phases: Liquid
Fixed: Pressure, kPa = 101
Fixed: Mole fraction of ethanol = 0
Property: Activity coefficient of ethanol (Liquid); method: Chromatography
Temperature, K	Activity coefficient of ethanol	uncertainty
308.15	1.79	.0537
318.15	1.58	.0474
328.15	1.46	.0438
338.15	1.35	.0405
348.15	1.27	.0381
358.15	1.18	.0354

System: n-propyl alcohol + 1-pentyl-1-methylpyrrolidinium 1,1,1-trifluoro-N-[(trifluoromethyl)sulfonyl]methanesulfonamide; phases: Liquid
Fixed: Pressure, kPa = 101
Fixed: Mole fraction of n-propyl alcohol = 0
Property: Activity coefficient of n-propyl alcohol (Liquid); method: Chromatography
Temperature, K	Activity coefficient of n-propyl alcohol	uncertainty
308.15	2.05	.0615
318.15	1.82	.0546
328.15	1.68	.0504
338.15	1.55	.0465
348.15	1.46	.0438
358.15	1.36	.0408

System: n-butanol + 1-pentyl-1-methylpyrrolidinium 1,1,1-trifluoro-N-[(trifluoromethyl)sulfonyl]methanesulfonamide; phases: Liquid
Fixed: Pressure, kPa = 101
Fixed: Mole fraction of n-butanol = 0
Property: Activity coefficient of n-butanol (Liquid); method: Chromatography
Temperature, K	Activity coefficient of n-butanol	uncertainty
308.15	2.3	.069
318.15	2.16	.0648
328.15	1.98	.0594
338.15	1.82	.0546
348.15	1.71	.0513
358.15	1.57	.0471

System: pentyl alcohol + 1-pentyl-1-methylpyrrolidinium 1,1,1-trifluoro-N-[(trifluoromethyl)sulfonyl]methanesulfonamide; phases: Liquid
Fixed: Pressure, kPa = 101
Fixed: Mole fraction of pentyl alcohol = 0
Property: Activity coefficient of pentyl alcohol (Liquid); method: Chromatography
Temperature, K	Activity coefficient of pentyl alcohol	uncertainty
308.15	2.5	.075
318.15	2.37	.0711
328.15	2.2	.066
338.15	2.03	.0609
348.15	1.94	.0582
358.15	1.79	.0537

System: water + 1-pentyl-1-methylpyrrolidinium 1,1,1-trifluoro-N-[(trifluoromethyl)sulfonyl]methanesulfonamide; phases: Liquid
Fixed: Pressure, kPa = 101
Fixed: Mole fraction of water = 0
Property: Activity coefficient of water (Liquid); method: Chromatography
Temperature, K	Activity coefficient of water	uncertainty
308.15	5.05	.1515
318.15	4.19	.1257
328.15	3.7	.111
338.15	3.18	.0954
348.15	2.78	.0834
358.15	2.44	.0732

System: thiophene + 1-pentyl-1-methylpyrrolidinium 1,1,1-trifluoro-N-[(trifluoromethyl)sulfonyl]methanesulfonamide; phases: Liquid
Fixed: Pressure, kPa = 101
Fixed: Mole fraction of thiophene = 0
Property: Activity coefficient of thiophene (Liquid); method: Chromatography
Temperature, K	Activity coefficient of thiophene	uncertainty
308.15	.646	.01938
318.15	.665	.01995
328.15	.673	.02019
338.15	.69	.0207
348.15	.708	.02124
358.15	.722	.02166

System: tetrahydrofuran + 1-pentyl-1-methylpyrrolidinium 1,1,1-trifluoro-N-[(trifluoromethyl)sulfonyl]methanesulfonamide; phases: Liquid
Fixed: Pressure, kPa = 101
Fixed: Mole fraction of tetrahydrofuran = 0
Property: Activity coefficient of tetrahydrofuran (Liquid); method: Chromatography
Temperature, K	Activity coefficient of tetrahydrofuran	uncertainty
308.15	.617	.01851
318.15	.627	.01881
328.15	.641	.01923
338.15	.653	.01959
348.15	.667	.02001
358.15	.682	.02046

System: methyl tert-butyl ether + 1-pentyl-1-methylpyrrolidinium 1,1,1-trifluoro-N-[(trifluoromethyl)sulfonyl]methanesulfonamide; phases: Liquid
Fixed: Pressure, kPa = 101
Fixed: Mole fraction of methyl tert-butyl ether = 0
Property: Activity coefficient of methyl tert-butyl ether (Liquid); method: Chromatography
Temperature, K	Activity coefficient of methyl tert-butyl ether	uncertainty
308.15	1.81	.0543
318.15	1.85	.0555
328.15	1.86	.0558
338.15	1.89	.0567
348.15	1.94	.0582
358.15	1.98	.0594

System: methyl tert-amyl ether + 1-pentyl-1-methylpyrrolidinium 1,1,1-trifluoro-N-[(trifluoromethyl)sulfonyl]methanesulfonamide; phases: Liquid
Fixed: Pressure, kPa = 101
Fixed: Mole fraction of methyl tert-amyl ether = 0
Property: Activity coefficient of methyl tert-amyl ether (Liquid); method: Chromatography
Temperature, K	Activity coefficient of methyl tert-amyl ether	uncertainty
308.15	2.44	.0732
318.15	2.47	.0741
328.15	2.5	.075
338.15	2.53	.0759
348.15	2.57	.0771
358.15	2.6	.078

System: dipropyl ether + 1-pentyl-1-methylpyrrolidinium 1,1,1-trifluoro-N-[(trifluoromethyl)sulfonyl]methanesulfonamide; phases: Liquid
Fixed: Pressure, kPa = 101
Fixed: Mole fraction of dipropyl ether = 0
Property: Activity coefficient of dipropyl ether (Liquid); method: Chromatography
Temperature, K	Activity coefficient of dipropyl ether	uncertainty
308.15	4.17	.1251
318.15	4.13	.1239
328.15	4.05	.1215
338.15	4.02	.1206
348.15	3.98	.1194
358.15	3.96	.1188

System: dibutyl ether + 1-pentyl-1-methylpyrrolidinium 1,1,1-trifluoro-N-[(trifluoromethyl)sulfonyl]methanesulfonamide; phases: Liquid
Fixed: Pressure, kPa = 101
Fixed: Mole fraction of dibutyl ether = 0
Property: Activity coefficient of dibutyl ether (Liquid); method: Chromatography
Temperature, K	Activity coefficient of dibutyl ether	uncertainty
308.15	8.04	.2412
318.15	7.79	.2337
328.15	7.5	.225
338.15	7.29	.2187
348.15	7.17	.2151
358.15	6.94	.2082

System: acetone + 1-pentyl-1-methylpyrrolidinium 1,1,1-trifluoro-N-[(trifluoromethyl)sulfonyl]methanesulfonamide; phases: Liquid
Fixed: Pressure, kPa = 101
Fixed: Mole fraction of acetone = 0
Property: Activity coefficient of acetone (Liquid); method: Chromatography
Temperature, K	Activity coefficient of acetone	uncertainty
308.15	.398	.01194
318.15	.426	.01278
328.15	.435	.01305
338.15	.441	.01323
348.15	.456	.01368
358.15	.466	.01398

System: 2-pentanone + 1-pentyl-1-methylpyrrolidinium 1,1,1-trifluoro-N-[(trifluoromethyl)sulfonyl]methanesulfonamide; phases: Liquid
Fixed: Pressure, kPa = 101
Fixed: Mole fraction of 2-pentanone = 0
Property: Activity coefficient of 2-pentanone (Liquid); method: Chromatography
Temperature, K	Activity coefficient of 2-pentanone	uncertainty
318.15	.611	.01833
328.15	.629	.01887
338.15	.643	.01929
348.15	.666	.01998
358.15	.682	.02046

System: pentane + 1-hexyl-1-methylpyrrolidinium bis(trifluoromethanesulfonyl)imide; phases: Liquid
Fixed: Pressure, kPa = 101
Fixed: Mole fraction of pentane = 0
Property: Activity coefficient of pentane (Liquid); method: Chromatography
Temperature, K	Activity coefficient of pentane	uncertainty
308.15	5.95	.1785
318.15	5.73	.1719
328.15	5.42	.1626
338.15	5.3	.159
348.15	5.2	.156
358.15	4.95	.1485

System: n-hexane + 1-hexyl-1-methylpyrrolidinium bis(trifluoromethanesulfonyl)imide; phases: Liquid
Fixed: Pressure, kPa = 101
Fixed: Mole fraction of n-hexane = 0
Property: Activity coefficient of n-hexane (Liquid); method: Chromatography
Temperature, K	Activity coefficient of n-hexane	uncertainty
308.15	7.67	.2301
318.15	7.4	.222
328.15	7.07	.2121
338.15	6.85	.2055
348.15	6.67	.2001
358.15	6.37	.1911

System: 2,2-dimethylbutane + 1-hexyl-1-methylpyrrolidinium bis(trifluoromethanesulfonyl)imide; phases: Liquid
Fixed: Pressure, kPa = 101
Fixed: Mole fraction of 2,2-dimethylbutane = 0
Property: Activity coefficient of 2,2-dimethylbutane (Liquid); method: Chromatography
Temperature, K	Activity coefficient of 2,2-dimethylbutane	uncertainty
308.15	6.67	.2001
318.15	6.44	.1932
328.15	6.12	.1836
338.15	6	.18
348.15	5.84	.1752
358.15	5.65	.1695

System: n-heptane + 1-hexyl-1-methylpyrrolidinium bis(trifluoromethanesulfonyl)imide; phases: Liquid
Fixed: Pressure, kPa = 101
Fixed: Mole fraction of n-heptane = 0
Property: Activity coefficient of n-heptane (Liquid); method: Chromatography
Temperature, K	Activity coefficient of n-heptane	uncertainty
308.15	10.2	.306
318.15	9.81	.2943
328.15	9.38	.2814
338.15	8.99	.2697
348.15	8.68	.2604
358.15	8.2	.246

System: n-octane + 1-hexyl-1-methylpyrrolidinium bis(trifluoromethanesulfonyl)imide; phases: Liquid
Fixed: Pressure, kPa = 101
Fixed: Mole fraction of n-octane = 0
Property: Activity coefficient of n-octane (Liquid); method: Chromatography
Temperature, K	Activity coefficient of n-octane	uncertainty
308.15	12.9	.387
318.15	12.7	.381
328.15	12.1	.363
338.15	11.8	.354
348.15	11.3	.339
358.15	10.9	.327

System: 2,2,4-trimethylpentane + 1-hexyl-1-methylpyrrolidinium bis(trifluoromethanesulfonyl)imide; phases: Liquid
Fixed: Pressure, kPa = 101
Fixed: Mole fraction of 2,2,4-trimethylpentane = 0
Property: Activity coefficient of 2,2,4-trimethylpentane (Liquid); method: Chromatography
Temperature, K	Activity coefficient of 2,2,4-trimethylpentane	uncertainty
308.15	9.75	.2925
318.15	9.59	.2877
328.15	9.2	.276
338.15	8.95	.2685
348.15	8.59	.2577
358.15	8.43	.2529

System: n-nonane + 1-hexyl-1-methylpyrrolidinium bis(trifluoromethanesulfonyl)imide; phases: Liquid
Fixed: Pressure, kPa = 101
Fixed: Mole fraction of n-nonane = 0
Property: Activity coefficient of n-nonane (Liquid); method: Chromatography
Temperature, K	Activity coefficient of n-nonane	uncertainty
308.15	16.9	.507
318.15	16.4	.492
328.15	15.7	.471
338.15	15.3	.459
348.15	14.6	.438
358.15	14.1	.423

System: n-decane + 1-hexyl-1-methylpyrrolidinium bis(trifluoromethanesulfonyl)imide; phases: Liquid
Fixed: Pressure, kPa = 101
Fixed: Mole fraction of n-decane = 0
Property: Activity coefficient of n-decane (Liquid); method: Chromatography
Temperature, K	Activity coefficient of n-decane	uncertainty
308.15	23.5	.705
318.15	22.2	.666
328.15	21.1	.633
338.15	20	.6
348.15	19.1	.573
358.15	18.3	.549

System: cyclopentane + 1-hexyl-1-methylpyrrolidinium bis(trifluoromethanesulfonyl)imide; phases: Liquid
Fixed: Pressure, kPa = 101
Fixed: Mole fraction of cyclopentane = 0
Property: Activity coefficient of cyclopentane (Liquid); method: Chromatography
Temperature, K	Activity coefficient of cyclopentane	uncertainty
308.15	3.72	.1116
318.15	3.59	.1077
328.15	3.43	.1029
338.15	3.34	.1002
348.15	3.24	.0972
358.15	3.12	.0936

System: cyclohexane + 1-hexyl-1-methylpyrrolidinium bis(trifluoromethanesulfonyl)imide; phases: Liquid
Fixed: Pressure, kPa = 101
Fixed: Mole fraction of cyclohexane = 0
Property: Activity coefficient of cyclohexane (Liquid); method: Chromatography
Temperature, K	Activity coefficient of cyclohexane	uncertainty
308.15	4.99	.1497
318.15	4.8	.144
328.15	4.6	.138
338.15	4.43	.1329
348.15	4.28	.1284
358.15	4.06	.1218

System: methylcyclohexane + 1-hexyl-1-methylpyrrolidinium bis(trifluoromethanesulfonyl)imide; phases: Liquid
Fixed: Pressure, kPa = 101
Fixed: Mole fraction of methylcyclohexane = 0
Property: Activity coefficient of methylcyclohexane (Liquid); method: Chromatography
Temperature, K	Activity coefficient of methylcyclohexane	uncertainty
308.15	6.24	.1872
318.15	6.05	.1815
328.15	5.83	.1749
338.15	5.59	.1677
348.15	5.4	.162
358.15	5.2	.156

System: cycloheptane + 1-hexyl-1-methylpyrrolidinium bis(trifluoromethanesulfonyl)imide; phases: Liquid
Fixed: Pressure, kPa = 101
Fixed: Mole fraction of cycloheptane = 0
Property: Activity coefficient of cycloheptane (Liquid); method: Chromatography
Temperature, K	Activity coefficient of cycloheptane	uncertainty
308.15	6.23	.1869
318.15	6.01	.1803
328.15	5.77	.1731
338.15	5.52	.1656
348.15	5.32	.1596
358.15	5.08	.1524

System: cyclooctane + 1-hexyl-1-methylpyrrolidinium bis(trifluoromethanesulfonyl)imide; phases: Liquid
Fixed: Pressure, kPa = 101
Fixed: Mole fraction of cyclooctane = 0
Property: Activity coefficient of cyclooctane (Liquid); method: Chromatography
Temperature, K	Activity coefficient of cyclooctane	uncertainty
308.15	7.57	.2271
318.15	7.36	.2208
328.15	7.15	.2145
338.15	6.87	.2061
348.15	6.75	.2025
358.15	6.53	.1959

System: 1-hexene + 1-hexyl-1-methylpyrrolidinium bis(trifluoromethanesulfonyl)imide; phases: Liquid
Fixed: Pressure, kPa = 101
Fixed: Mole fraction of 1-hexene = 0
Property: Activity coefficient of 1-hexene (Liquid); method: Chromatography
Temperature, K	Activity coefficient of 1-hexene	uncertainty
308.15	4.53	.1359
318.15	4.45	.1335
328.15	4.34	.1302
338.15	4.28	.1284
348.15	4.15	.1245
358.15	4.06	.1218

System: cyclohexene + 1-hexyl-1-methylpyrrolidinium bis(trifluoromethanesulfonyl)imide; phases: Liquid
Fixed: Pressure, kPa = 101
Fixed: Mole fraction of cyclohexene = 0
Property: Activity coefficient of cyclohexene (Liquid); method: Chromatography
Temperature, K	Activity coefficient of cyclohexene	uncertainty
308.15	3.07	.0921
318.15	3	.09
328.15	2.94	.0882
338.15	2.88	.0864
348.15	2.81	.0843
358.15	2.75	.0825

System: 1-heptene + 1-hexyl-1-methylpyrrolidinium bis(trifluoromethanesulfonyl)imide; phases: Liquid
Fixed: Pressure, kPa = 101
Fixed: Mole fraction of 1-heptene = 0
Property: Activity coefficient of 1-heptene (Liquid); method: Chromatography
Temperature, K	Activity coefficient of 1-heptene	uncertainty
308.15	5.89	.1767
318.15	5.81	.1743
328.15	5.69	.1707
338.15	5.59	.1677
348.15	5.45	.1635
358.15	5.35	.1605

System: 1-octene + 1-hexyl-1-methylpyrrolidinium bis(trifluoromethanesulfonyl)imide; phases: Liquid
Fixed: Pressure, kPa = 101
Fixed: Mole fraction of 1-octene = 0
Property: Activity coefficient of 1-octene (Liquid); method: Chromatography
Temperature, K	Activity coefficient of 1-octene	uncertainty
308.15	7.72	.2316
318.15	7.6	.228
328.15	7.49	.2247
338.15	7.37	.2211
348.15	7.27	.2181
358.15	7.2	.216

System: 1-decene + 1-hexyl-1-methylpyrrolidinium bis(trifluoromethanesulfonyl)imide; phases: Liquid
Fixed: Pressure, kPa = 101
Fixed: Mole fraction of 1-decene = 0
Property: Activity coefficient of 1-decene (Liquid); method: Chromatography
Temperature, K	Activity coefficient of 1-decene	uncertainty
308.15	12.3	.369
318.15	12.1	.363
328.15	12	.36
338.15	11.8	.354
348.15	11.7	.351
358.15	11.5	.345

System: 1-pentyne + 1-hexyl-1-methylpyrrolidinium bis(trifluoromethanesulfonyl)imide; phases: Liquid
Fixed: Pressure, kPa = 101
Fixed: Mole fraction of 1-pentyne = 0
Property: Activity coefficient of 1-pentyne (Liquid); method: Chromatography
Temperature, K	Activity coefficient of 1-pentyne	uncertainty
308.15	1.42	.0426
318.15	1.45	.0435
328.15	1.48	.0444
338.15	1.5	.045
348.15	1.53	.0459
358.15	1.54	.0462

System: 1-hexyne + 1-hexyl-1-methylpyrrolidinium bis(trifluoromethanesulfonyl)imide; phases: Liquid
Fixed: Pressure, kPa = 101
Fixed: Mole fraction of 1-hexyne = 0
Property: Activity coefficient of 1-hexyne (Liquid); method: Chromatography
Temperature, K	Activity coefficient of 1-hexyne	uncertainty
308.15	1.85	.0555
318.15	1.88	.0564
328.15	1.92	.0576
338.15	1.93	.0579
348.15	1.96	.0588
358.15	1.98	.0594

System: 1-heptyne + 1-hexyl-1-methylpyrrolidinium bis(trifluoromethanesulfonyl)imide; phases: Liquid
Fixed: Pressure, kPa = 101
Fixed: Mole fraction of 1-heptyne = 0
Property: Activity coefficient of 1-heptyne (Liquid); method: Chromatography
Temperature, K	Activity coefficient of 1-heptyne	uncertainty
308.15	2.39	.0717
318.15	2.43	.0729
328.15	2.46	.0738
338.15	2.49	.0747
348.15	2.52	.0756
358.15	2.55	.0765

System: 1-octyne + 1-hexyl-1-methylpyrrolidinium bis(trifluoromethanesulfonyl)imide; phases: Liquid
Fixed: Pressure, kPa = 101
Fixed: Mole fraction of 1-octyne = 0
Property: Activity coefficient of 1-octyne (Liquid); method: Chromatography
Temperature, K	Activity coefficient of 1-octyne	uncertainty
308.15	3.1	.093
318.15	3.14	.0942
328.15	3.19	.0957
338.15	3.21	.0963
348.15	3.24	.0972
358.15	3.26	.0978

System: benzene + 1-hexyl-1-methylpyrrolidinium bis(trifluoromethanesulfonyl)imide; phases: Liquid
Fixed: Pressure, kPa = 101
Fixed: Mole fraction of benzene = 0
Property: Activity coefficient of benzene (Liquid); method: Chromatography
Temperature, K	Activity coefficient of benzene	uncertainty
308.15	.669	.02007
318.15	.687	.02061
328.15	.695	.02085
338.15	.71	.0213
348.15	.722	.02166
358.15	.73	.0219

System: toluene + 1-hexyl-1-methylpyrrolidinium bis(trifluoromethanesulfonyl)imide; phases: Liquid
Fixed: Pressure, kPa = 101
Fixed: Mole fraction of toluene = 0
Property: Activity coefficient of toluene (Liquid); method: Chromatography
Temperature, K	Activity coefficient of toluene	uncertainty
308.15	.864	.02592
318.15	.894	.02682
328.15	.909	.02727
338.15	.934	.02802
348.15	.957	.02871
358.15	.969	.02907

System: ethylbenzene + 1-hexyl-1-methylpyrrolidinium bis(trifluoromethanesulfonyl)imide; phases: Liquid
Fixed: Pressure, kPa = 101
Fixed: Mole fraction of ethylbenzene = 0
Property: Activity coefficient of ethylbenzene (Liquid); method: Chromatography
Temperature, K	Activity coefficient of ethylbenzene	uncertainty
308.15	.864	.02592
318.15	.894	.02682
328.15	.909	.02727
338.15	.934	.02802
348.15	.957	.02871
358.15	.969	.02907

System: o-xylene + 1-hexyl-1-methylpyrrolidinium bis(trifluoromethanesulfonyl)imide; phases: Liquid
Fixed: Pressure, kPa = 101
Fixed: Mole fraction of o-xylene = 0
Property: Activity coefficient of o-xylene (Liquid); method: Chromatography
Temperature, K	Activity coefficient of o-xylene	uncertainty
308.15	1.04	.0312
318.15	1.08	.0324
328.15	1.1	.033
338.15	1.13	.0339
348.15	1.16	.0348
358.15	1.18	.0354

System: m-xylene + 1-hexyl-1-methylpyrrolidinium bis(trifluoromethanesulfonyl)imide; phases: Liquid
Fixed: Pressure, kPa = 101
Fixed: Mole fraction of m-xylene = 0
Property: Activity coefficient of m-xylene (Liquid); method: Chromatography
Temperature, K	Activity coefficient of m-xylene	uncertainty
308.15	1.14	.0342
318.15	1.16	.0348
328.15	1.19	.0357
338.15	1.23	.0369
348.15	1.27	.0381
358.15	1.29	.0387

System: p-xylene + 1-hexyl-1-methylpyrrolidinium bis(trifluoromethanesulfonyl)imide; phases: Liquid
Fixed: Pressure, kPa = 101
Fixed: Mole fraction of p-xylene = 0
Property: Activity coefficient of p-xylene (Liquid); method: Chromatography
Temperature, K	Activity coefficient of p-xylene	uncertainty
308.15	1.14	.0342
318.15	1.17	.0351
328.15	1.2	.036
338.15	1.24	.0372
348.15	1.28	.0384
358.15	1.3	.039

System: methyl alcohol + 1-hexyl-1-methylpyrrolidinium bis(trifluoromethanesulfonyl)imide; phases: Liquid
Fixed: Pressure, kPa = 101
Fixed: Mole fraction of methyl alcohol = 0
Property: Activity coefficient of methyl alcohol (Liquid); method: Chromatography
Temperature, K	Activity coefficient of methyl alcohol	uncertainty
308.15	1.51	.0453
318.15	1.37	.0411
328.15	1.26	.0378
338.15	1.16	.0348
348.15	1.08	.0324
358.15	.995	.02985

System: ethanol + 1-hexyl-1-methylpyrrolidinium bis(trifluoromethanesulfonyl)imide; phases: Liquid
Fixed: Pressure, kPa = 101
Fixed: Mole fraction of ethanol = 0
Property: Activity coefficient of ethanol (Liquid); method: Chromatography
Temperature, K	Activity coefficient of ethanol	uncertainty
308.15	1.81	.0543
318.15	1.63	.0489
328.15	1.49	.0447
338.15	1.37	.0411
348.15	1.27	.0381
358.15	1.18	.0354

System: n-propyl alcohol + 1-hexyl-1-methylpyrrolidinium bis(trifluoromethanesulfonyl)imide; phases: Liquid
Fixed: Pressure, kPa = 101
Fixed: Mole fraction of n-propyl alcohol = 0
Property: Activity coefficient of n-propyl alcohol (Liquid); method: Chromatography
Temperature, K	Activity coefficient of n-propyl alcohol	uncertainty
308.15	2.05	.0615
318.15	1.83	.0549
328.15	1.67	.0501
338.15	1.53	.0459
348.15	1.43	.0429
358.15	1.33	.0399

System: n-butanol + 1-hexyl-1-methylpyrrolidinium bis(trifluoromethanesulfonyl)imide; phases: Liquid
Fixed: Pressure, kPa = 101
Fixed: Mole fraction of n-butanol = 0
Property: Activity coefficient of n-butanol (Liquid); method: Chromatography
Temperature, K	Activity coefficient of n-butanol	uncertainty
308.15	2.4	.072
318.15	2.13	.0639
328.15	1.93	.0579
338.15	1.76	.0528
348.15	1.64	.0492
358.15	1.52	.0456

System: pentyl alcohol + 1-hexyl-1-methylpyrrolidinium bis(trifluoromethanesulfonyl)imide; phases: Liquid
Fixed: Pressure, kPa = 101
Fixed: Mole fraction of pentyl alcohol = 0
Property: Activity coefficient of pentyl alcohol (Liquid); method: Chromatography
Temperature, K	Activity coefficient of pentyl alcohol	uncertainty
308.15	2.44	.0732
318.15	2.23	.0669
328.15	2.05	.0615
338.15	1.92	.0576
348.15	1.8	.054
358.15	1.71	.0513

System: water + 1-hexyl-1-methylpyrrolidinium bis(trifluoromethanesulfonyl)imide; phases: Liquid
Fixed: Pressure, kPa = 101
Fixed: Mole fraction of water = 0
Property: Activity coefficient of water (Liquid); method: Chromatography
Temperature, K	Activity coefficient of water	uncertainty
308.15	5.31	.1593
318.15	4.46	.1338
328.15	3.81	.1143
338.15	3.26	.0978
348.15	2.8	.084
358.15	2.45	.0735

System: thiophene + 1-hexyl-1-methylpyrrolidinium bis(trifluoromethanesulfonyl)imide; phases: Liquid
Fixed: Pressure, kPa = 101
Fixed: Mole fraction of thiophene = 0
Property: Activity coefficient of thiophene (Liquid); method: Chromatography
Temperature, K	Activity coefficient of thiophene	uncertainty
308.15	.614	.01842
318.15	.627	.01881
328.15	.643	.01929
338.15	.655	.01965
348.15	.664	.01992
358.15	.675	.02025

System: tetrahydrofuran + 1-hexyl-1-methylpyrrolidinium bis(trifluoromethanesulfonyl)imide; phases: Liquid
Fixed: Pressure, kPa = 101
Fixed: Mole fraction of tetrahydrofuran = 0
Property: Activity coefficient of tetrahydrofuran (Liquid); method: Chromatography
Temperature, K	Activity coefficient of tetrahydrofuran	uncertainty
308.15	.563	.01689
318.15	.579	.01737
328.15	.594	.01782
338.15	.612	.01836
348.15	.627	.01881
358.15	.635	.01905

System: methyl tert-butyl ether + 1-hexyl-1-methylpyrrolidinium bis(trifluoromethanesulfonyl)imide; phases: Liquid
Fixed: Pressure, kPa = 101
Fixed: Mole fraction of methyl tert-butyl ether = 0
Property: Activity coefficient of methyl tert-butyl ether (Liquid); method: Chromatography
Temperature, K	Activity coefficient of methyl tert-butyl ether	uncertainty
308.15	1.59	.0477
318.15	1.63	.0489
328.15	1.66	.0498
338.15	1.7	.051
348.15	1.72	.0516
358.15	1.76	.0528

System: methyl tert-amyl ether + 1-hexyl-1-methylpyrrolidinium bis(trifluoromethanesulfonyl)imide; phases: Liquid
Fixed: Pressure, kPa = 101
Fixed: Mole fraction of methyl tert-amyl ether = 0
Property: Activity coefficient of methyl tert-amyl ether (Liquid); method: Chromatography
Temperature, K	Activity coefficient of methyl tert-amyl ether	uncertainty
308.15	2.11	.0633
318.15	2.14	.0642
328.15	2.18	.0654
338.15	2.2	.066
348.15	2.22	.0666
358.15	2.25	.0675

System: dipropyl ether + 1-hexyl-1-methylpyrrolidinium bis(trifluoromethanesulfonyl)imide; phases: Liquid
Fixed: Pressure, kPa = 101
Fixed: Mole fraction of dipropyl ether = 0
Property: Activity coefficient of dipropyl ether (Liquid); method: Chromatography
Temperature, K	Activity coefficient of dipropyl ether	uncertainty
308.15	3.5	.105
318.15	3.47	.1041
328.15	3.44	.1032
338.15	3.41	.1023
348.15	3.38	.1014
358.15	3.37	.1011

System: dibutyl ether + 1-hexyl-1-methylpyrrolidinium bis(trifluoromethanesulfonyl)imide; phases: Liquid
Fixed: Pressure, kPa = 101
Fixed: Mole fraction of dibutyl ether = 0
Property: Activity coefficient of dibutyl ether (Liquid); method: Chromatography
Temperature, K	Activity coefficient of dibutyl ether	uncertainty
308.15	6.38	.1914
318.15	6.25	.1875
328.15	6.08	.1824
338.15	5.96	.1788
348.15	5.81	.1743
358.15	5.74	.1722

System: acetone + 1-hexyl-1-methylpyrrolidinium bis(trifluoromethanesulfonyl)imide; phases: Liquid
Fixed: Pressure, kPa = 101
Fixed: Mole fraction of acetone = 0
Property: Activity coefficient of acetone (Liquid); method: Chromatography
Temperature, K	Activity coefficient of acetone	uncertainty
308.15	.421	.01263
318.15	.429	.01287
328.15	.436	.01308
338.15	.444	.01332
348.15	.455	.01365
358.15	.46	.0138

System: 2-pentanone + 1-hexyl-1-methylpyrrolidinium bis(trifluoromethanesulfonyl)imide; phases: Liquid
Fixed: Pressure, kPa = 101
Fixed: Mole fraction of 2-pentanone = 0
Property: Activity coefficient of 2-pentanone (Liquid); method: Chromatography
Temperature, K	Activity coefficient of 2-pentanone	uncertainty
308.15	.573	.01719
318.15	.581	.01743
328.15	.596	.01788
338.15	.613	.01839
348.15	.632	.01896
358.15	.646	.01938

System: cyclohexene + 1-pentyl-1-methylpyrrolidinium 1,1,1-trifluoro-N-[(trifluoromethyl)sulfonyl]methanesulfonamide; phases: Liquid
Fixed: Pressure, kPa = 101
Fixed: Mole fraction of cyclohexene = 0
Property: Activity coefficient of cyclohexene (Liquid); method: Chromatography
Temperature, K	Activity coefficient of cyclohexene	uncertainty
308.15	3.73	.1119
318.15	3.63	.1089
328.15	3.53	.1059
338.15	3.39	.1017
348.15	3.3	.099
358.15	3.21	.0963

System: 1-heptene + 1-pentyl-1-methylpyrrolidinium 1,1,1-trifluoro-N-[(trifluoromethyl)sulfonyl]methanesulfonamide; phases: Liquid
Fixed: Pressure, kPa = 101
Fixed: Mole fraction of 1-heptene = 0
Property: Activity coefficient of 1-heptene (Liquid); method: Chromatography
Temperature, K	Activity coefficient of 1-heptene	uncertainty
308.15	7.42	.2226
318.15	7.12	.2136
328.15	6.88	.2064
338.15	6.67	.2001
348.15	6.48	.1944
358.15	6.31	.1893

System: 2-hexanone + 1-pentyl-1-methylpyrrolidinium 1,1,1-trifluoro-N-[(trifluoromethyl)sulfonyl]methanesulfonamide; phases: Liquid
Fixed: Pressure, kPa = 101
Fixed: Mole fraction of 2-hexanone = 0
Property: Activity coefficient of 2-hexanone (Liquid); method: Chromatography
Temperature, K	Activity coefficient of 2-hexanone	uncertainty
318.15	.761	.02283
328.15	.779	.02337
338.15	.792	.02376
348.15	.822	.02466
358.15	.84	.0252

System: 2-hexanone + 1-hexyl-1-methylpyrrolidinium bis(trifluoromethanesulfonyl)imide; phases: Liquid
Fixed: Pressure, kPa = 101
Fixed: Mole fraction of 2-hexanone = 0
Property: Activity coefficient of 2-hexanone (Liquid); method: Chromatography
Temperature, K	Activity coefficient of 2-hexanone	uncertainty
308.15	.694	.02082
318.15	.706	.02118
328.15	.722	.02166
338.15	.74	.0222
348.15	.764	.02292
358.15	.784	.02352
