Measured thermophysical data. Blood porphyrins in binary mixtures of N,N-dimethylformamide with 1-octanol and chloroform: The energetics of solvation, (solute + cosolvent) interactions and model calculations
Source: J. Chem. Thermodyn., 2015, 10.1016/j.jct.2014.12.013
Compound 1: DMF, C3H7NO, purity 98%
Compound 2: 1-octanol, C8H18O, purity 98%
Compound 3: chloroform, CHCl3, purity 98%
Compound 4: ethyl acetate, C4H8O2, purity 98%
Compound 5: dimethyl 3,3'-[7,12-bis(1-methoxyethyl)-3,8,13,17-tetramethylporphyrin-2,18-diyl]dipropanoate, C38H46N4O6
Compound 6: 3,7,12,17-tetramethyl-2,18-porphinedipropionic acid, dimethyl ester, C32H34N4O4

System: chloroform + DMF + dimethyl 3,3'-[7,12-bis(1-methoxyethyl)-3,8,13,17-tetramethylporphyrin-2,18-diyl]dipropanoate; phases: Liquid
Fixed: Pressure, kPa = 101.33
Fixed: Mole fraction of dimethyl 3,3'-[7,12-bis(1-methoxyethyl)-3,8,13,17-tetramethylporphyrin-2,18-diyl]dipropanoate = 0
Property: Molar enthalpy of solution, kJ/mol (Liquid); method: Isoperibol calorimetry
Temperature, K	Solvent: Mole fraction of chloroform	Molar enthalpy of solution, kJ/mol	uncertainty
298.15	0	9.24	.0924
298.15	.0978	10.96	.1096
298.15	.2547	12.58	.1258
298.15	.5006	14.79	.1479
298.15	.5996	15.16	.1516
298.15	.7453	12.36	.1236
298.15	.852	7.24	.0724
298.15	.9096	1.24	.0124
298.15	.9426	-5.05	-.0505
298.15	1	-16.19	-.1619
308.15	0	11.24	.1124
308.15	.0584	12.17	.1217
308.15	.2506	14.45	.1445
308.15	.543	16.13	.1613
308.15	.5886	15.89	.1589
308.15	.7465	12.78	.1278
308.15	.8452	6.31	.0631
308.15	.908	-.67	-.0067
308.15	.9518	-7.26	-.0726
308.15	1	-14.39	-.1439

System: chloroform + DMF + 3,7,12,17-tetramethyl-2,18-porphinedipropionic acid, dimethyl ester; phases: Liquid
Fixed: Pressure, kPa = 101.33
Fixed: Mole fraction of 3,7,12,17-tetramethyl-2,18-porphinedipropionic acid, dimethyl ester = 0
Property: Molar enthalpy of solution, kJ/mol (Liquid); method: Isoperibol calorimetry
Temperature, K	Solvent: Mole fraction of chloroform	Molar enthalpy of solution, kJ/mol	uncertainty
298.15	.0553	25.27	.2527
298.15	.1056	25.85	.2585
298.15	.2458	29.33	.2933
298.15	.4909	32.04	.3204
298.15	.6428	30.19	.3019
298.15	.7476	26.39	.2639
298.15	.8481	21.79	.2179
298.15	.9477	17.61	.1761
298.15	1	14.76	.1476
308.15	.0592	26.66	.2666
308.15	.1096	28.1	.281
308.15	.3507	32.99	.3299
308.15	.5003	34.29	.3429
308.15	.5997	32.7	.327
308.15	.7236	28.5	.285
308.15	.8654	23.07	.2307
308.15	1	16.2	.162

System: chloroform + DMF + ethyl acetate; phases: Liquid
Fixed: Pressure, kPa = 101.33
Fixed: Mole fraction of ethyl acetate = 0
Property: Molar enthalpy of solution, kJ/mol (Liquid); method: Isoperibol calorimetry
Temperature, K	Solvent: Mole fraction of chloroform	Molar enthalpy of solution, kJ/mol	uncertainty
298.15	0	.83	.0083
298.15	.2482	.8	.008
298.15	.4994	.31	.0031
298.15	.7503	-3.13	-.0313
298.15	1	-9.08	-.0908
308.15	0	.84	.0084
308.15	.2482	.81	.0081
308.15	.4994	.32	.0032
308.15	.7503	-3.11	-.0311
308.15	1	-8.71	-.0871

System: DMF + 1-octanol + dimethyl 3,3'-[7,12-bis(1-methoxyethyl)-3,8,13,17-tetramethylporphyrin-2,18-diyl]dipropanoate; phases: Liquid
Fixed: Pressure, kPa = 101.33
Fixed: Mole fraction of dimethyl 3,3'-[7,12-bis(1-methoxyethyl)-3,8,13,17-tetramethylporphyrin-2,18-diyl]dipropanoate = 0
Property: Molar enthalpy of solution, kJ/mol (Liquid); method: Isoperibol calorimetry
Temperature, K	Solvent: Mole fraction of 1-octanol	Molar enthalpy of solution, kJ/mol	uncertainty
298.15	.0794	9.48	.0948
298.15	.1608	9.87	.0987
298.15	.2001	10.1	.101
298.15	.2788	10.49	.1049
298.15	.3793	11.44	.1144
298.15	.4961	12.6	.126
298.15	.6863	16.58	.1658
298.15	.8954	23.28	.2328
308.15	.0785	11.27	.1127
308.15	.2022	11.81	.1181
308.15	.3307	12.8	.128
308.15	.4186	14.41	.1441
308.15	.5012	16.22	.1622
308.15	.6995	21.18	.2118
308.15	.8749	27.01	.2701

System: DMF + 1-octanol + 3,7,12,17-tetramethyl-2,18-porphinedipropionic acid, dimethyl ester; phases: Liquid
Fixed: Pressure, kPa = 101.33
Fixed: Mole fraction of 3,7,12,17-tetramethyl-2,18-porphinedipropionic acid, dimethyl ester = 0
Property: Molar enthalpy of solution, kJ/mol (Liquid); method: Isoperibol calorimetry
Temperature, K	Solvent: Mole fraction of 1-octanol	Molar enthalpy of solution, kJ/mol	uncertainty
298.15	.1167	25.34	.2534
298.15	.2358	26.24	.2624
298.15	.3172	26.87	.2687
298.15	.42	27.75	.2775
298.15	.5309	29.05	.2905
308.15	.1076	26.64	.2664
308.15	.2388	27.95	.2795
308.15	.3142	28.66	.2866
308.15	.4241	29.84	.2984
308.15	.5351	31.02	.3102

System: DMF + 1-octanol + ethyl acetate; phases: Liquid
Fixed: Pressure, kPa = 101.33
Fixed: Mole fraction of ethyl acetate = 0
Property: Molar enthalpy of solution, kJ/mol (Liquid); method: Isoperibol calorimetry
Temperature, K	Solvent: Mole fraction of 1-octanol	Molar enthalpy of solution, kJ/mol	uncertainty
298.15	.2365	1.01	.0101
298.15	.3764	1.32	.0132
298.15	.5358	2.27	.0227
298.15	.6942	3.64	.0364
298.15	.7578	4.27	.0427
298.15	.8961	5.97	.0597
308.15	.1885	1.02	.0102
308.15	.2306	1.09	.0109
308.15	.5048	2.26	.0226
308.15	.5375	2.44	.0244
308.15	.746	4.1	.041
308.15	.8873	5.82	.0582
308.15	.958	6.86	.0686

System: DMF + dimethyl 3,3'-[7,12-bis(1-methoxyethyl)-3,8,13,17-tetramethylporphyrin-2,18-diyl]dipropanoate; phases: Liquid
Fixed: Pressure, kPa = 101.33
Fixed: Mole fraction of dimethyl 3,3'-[7,12-bis(1-methoxyethyl)-3,8,13,17-tetramethylporphyrin-2,18-diyl]dipropanoate = 0
Property: Molar enthalpy of solution, kJ/mol (Liquid); method: Isoperibol calorimetry
Temperature, K	Molar enthalpy of solution, kJ/mol	uncertainty
298.15	9.24	.0924
308.15	11.24	.1124

System: chloroform + dimethyl 3,3'-[7,12-bis(1-methoxyethyl)-3,8,13,17-tetramethylporphyrin-2,18-diyl]dipropanoate; phases: Liquid
Fixed: Pressure, kPa = 101.33
Fixed: Mole fraction of dimethyl 3,3'-[7,12-bis(1-methoxyethyl)-3,8,13,17-tetramethylporphyrin-2,18-diyl]dipropanoate = 0
Property: Molar enthalpy of solution, kJ/mol (Liquid); method: Isoperibol calorimetry
Temperature, K	Molar enthalpy of solution, kJ/mol	uncertainty
298.15	-16.19	-.1619
308.15	-14.39	-.1439

System: chloroform + 3,7,12,17-tetramethyl-2,18-porphinedipropionic acid, dimethyl ester; phases: Liquid
Fixed: Pressure, kPa = 101.33
Fixed: Mole fraction of 3,7,12,17-tetramethyl-2,18-porphinedipropionic acid, dimethyl ester = 0
Property: Molar enthalpy of solution, kJ/mol (Liquid); method: Isoperibol calorimetry
Temperature, K	Molar enthalpy of solution, kJ/mol	uncertainty
298.15	14.76	.1476
308.15	16.2	.162

System: chloroform + ethyl acetate; phases: Liquid
Fixed: Pressure, kPa = 101.33
Fixed: Mole fraction of ethyl acetate = 0
Property: Molar enthalpy of solution, kJ/mol (Liquid); method: Isoperibol calorimetry
Temperature, K	Molar enthalpy of solution, kJ/mol	uncertainty
298.15	-9.08	-.0908
308.15	-8.71	-.0871

System: DMF + ethyl acetate; phases: Liquid
Fixed: Pressure, kPa = 101.33
Fixed: Mole fraction of ethyl acetate = 0
Property: Molar enthalpy of solution, kJ/mol (Liquid); method: Isoperibol calorimetry
Temperature, K	Molar enthalpy of solution, kJ/mol	uncertainty
298.15	.83	.0083
308.15	.84	.0084
