Measured thermophysical data. Heat capacities of aqueous solutions containing diethanolamine and  N-methyldiethanolamine
Source: J. Chem. Thermodyn., 2009, 10.1016/j.jct.2009.06.015
Compound 1: diethanolamine, C4H11NO2, purity 99%
Compound 2: N-methyldiethanolamine, C5H13NO2, purity 99%
Compound 3: water, H2O, purity 99.9%

System: N-methyldiethanolamine + diethanolamine; phases: Liquid
Fixed: Pressure, kPa = 101
Property: Molar heat capacity at constant pressure, J/K/mol (Liquid); method: Large sample (1 g) DSC
Temperature, K	Mole fraction of diethanolamine	Molar heat capacity at constant pressure, J/K/mol	uncertainty
303.2	.1	267	1.5
308.2	.1	270	1.5
313.2	.1	274	1.5
318.2	.1	277	1.5
323.2	.1	281	1.5
328.2	.1	284	1.5
333.2	.1	288	1.5
338.2	.1	291	1.5
343.2	.1	295	1.5
348.2	.1	298	1.5
353.2	.1	302	1.5
303.2	.2	264	1.5
308.2	.2	268	1.5
313.2	.2	271	1.5
318.2	.2	274	1.5
323.2	.2	278	1.5
328.2	.2	281	1.5
333.2	.2	285	1.5
338.2	.2	288	1.5
343.2	.2	292	1.5
348.2	.2	295	1.5
353.2	.2	298.7	1.5
303.2	.3	261	1.5
308.2	.3	264	1.5
313.2	.3	268	1.5
318.2	.3	271	1.5
323.2	.3	275	1.5
328.2	.3	278	1.5
333.2	.3	281	1.5
338.2	.3	285	1.5
343.2	.3	288	1.5
348.2	.3	292	1.5
353.2	.3	295	1.5
303.2	.4	259	1.5
308.2	.4	262	1.5
313.2	.4	266	1.5
318.2	.4	269	1.5
323.2	.4	272	1.5
328.2	.4	276	1.5
333.2	.4	279	1.5
338.2	.4	283	1.5
343.2	.4	286	1.5
348.2	.4	289	1.5
353.2	.4	292.8	1.5
303.2	.5	257	1.5
308.2	.5	260	1.5
313.2	.5	264	1.5
318.2	.5	267	1.5
323.2	.5	270	1.5
328.2	.5	274	1.5
333.2	.5	277	1.5
338.2	.5	280	1.5
343.2	.5	284	1.5
348.2	.5	287	1.5
353.2	.5	290.1	1.5
303.2	.6	255	1.5
308.2	.6	259	1.5
313.2	.6	262	1.5
318.2	.6	265	1.5
323.2	.6	269	1.5
328.2	.6	272	1.5
333.2	.6	275	1.5
338.2	.6	279	1.5
343.2	.6	282	1.5
348.2	.6	285	1.5
353.2	.6	289	1.5
303.2	.7	254	1.5
308.2	.7	257	1.5
313.2	.7	261	1.5
318.2	.7	264	1.5
323.2	.7	267	1.5
328.2	.7	270	1.5
333.2	.7	274	1.5
338.2	.7	277	1.5
343.2	.7	280	1.5
348.2	.7	283	1.5
353.2	.7	287	1.5
303.2	.8	253	1.5
308.2	.8	256	1.5
313.2	.8	259	1.5
318.2	.8	262	1.5
323.2	.8	266	1.5
328.2	.8	269	1.5
333.2	.8	272	1.5
338.2	.8	275	1.5
343.2	.8	279	1.5
348.2	.8	282	1.5
353.2	.8	285	1.5
303.2	.9	252	1.5
308.2	.9	255	1.5
313.2	.9	258	1.5
318.2	.9	262	1.5
323.2	.9	265	1.5
328.2	.9	268	1.5
333.2	.9	271	1.5
338.2	.9	274	1.5
343.2	.9	278	1.5
348.2	.9	281	1.5
353.2	.9	284	1.5

System: N-methyldiethanolamine + diethanolamine; phases: Liquid
Fixed: Pressure, kPa = 101
Property: Excess molar heat capacity, J/K/mol (Liquid); method: Large sample (1 g) DSC
Temperature, K	Mole fraction of diethanolamine	Excess molar heat capacity, J/K/mol	uncertainty
303.2	.1	-3.1	1.5
308.2	.1	-2.9	1.5
313.2	.1	-2.7	1.5
318.2	.1	-2.4	1.5
323.2	.1	-2.2	1.5
328.2	.1	-1.9	1.5
333.2	.1	-1.7	1.5
338.2	.1	-1.4	1.5
343.2	.1	-1.2	1.5
348.2	.1	-.9	1.5
353.2	.1	-.7	1.5
303.2	.2	-4.1	1.5
308.2	.2	-3.9	1.5
313.2	.2	-3.6	1.5
318.2	.2	-3.4	1.5
323.2	.2	-3.1	1.5
328.2	.2	-2.8	1.5
333.2	.2	-2.6	1.5
338.2	.2	-2.3	1.5
343.2	.2	-2	1.5
348.2	.2	-1.8	1.5
353.2	.2	-1.5	1.5
303.2	.3	-5.4	1.5
308.2	.3	-5.2	1.5
313.2	.3	-5	1.5
318.2	.3	-4.8	1.5
323.2	.3	-4.6	1.5
328.2	.3	-4.3	1.5
333.2	.3	-4.1	1.5
338.2	.3	-3.9	1.5
343.2	.3	-3.6	1.5
348.2	.3	-3.4	1.5
353.2	.3	-3.2	1.5
303.2	.4	-6	1.5
308.2	.4	-5.7	1.5
313.2	.4	-5.4	1.5
318.2	.4	-5.2	1.5
323.2	.4	-4.9	1.5
328.2	.4	-4.6	1.5
333.2	.4	-4.4	1.5
338.2	.4	-4.1	1.5
343.2	.4	-3.8	1.5
348.2	.4	-3.6	1.5
353.2	.4	-3.3	1.5
303.2	.5	-6.3	1.5
308.2	.5	-6.1	1.5
313.2	.5	-5.9	1.5
318.2	.5	-5.6	1.5
323.2	.5	-5.4	1.5
328.2	.5	-5.1	1.5
333.2	.5	-4.9	1.5
338.2	.5	-4.6	1.5
343.2	.5	-4.4	1.5
348.2	.5	-4.1	1.5
353.2	.5	-3.9	1.5
303.2	.6	-6.1	1.5
308.2	.6	-5.9	1.5
313.2	.6	-5.6	1.5
318.2	.6	-5.3	1.5
323.2	.6	-5	1.5
328.2	.6	-4.7	1.5
333.2	.6	-4.4	1.5
338.2	.6	-4.2	1.5
343.2	.6	-3.9	1.5
348.2	.6	-3.6	1.5
353.2	.6	-3.3	1.5
303.2	.7	-5.8	1.5
308.2	.7	-5.5	1.5
313.2	.7	-5.3	1.5
318.2	.7	-5	1.5
323.2	.7	-4.8	1.5
328.2	.7	-4.5	1.5
333.2	.7	-4.3	1.5
338.2	.7	-4	1.5
343.2	.7	-3.8	1.5
348.2	.7	-3.5	1.5
353.2	.7	-3.3	1.5
303.2	.8	-5.4	1.5
308.2	.8	-5.1	1.5
313.2	.8	-4.9	1.5
318.2	.8	-4.6	1.5
323.2	.8	-4.4	1.5
328.2	.8	-4.1	1.5
333.2	.8	-3.9	1.5
338.2	.8	-3.6	1.5
343.2	.8	-3.4	1.5
348.2	.8	-3.1	1.5
353.2	.8	-2.9	1.5
303.2	.9	-4.4	1.5
308.2	.9	-4.2	1.5
313.2	.9	-3.9	1.5
318.2	.9	-3.7	1.5
323.2	.9	-3.4	1.5
328.2	.9	-3.1	1.5
333.2	.9	-2.9	1.5
338.2	.9	-2.6	1.5
343.2	.9	-2.3	1.5
348.2	.9	-2.1	1.5
353.2	.9	-1.8	1.5

System: N-methyldiethanolamine + diethanolamine + water; phases: Liquid
Fixed: Pressure, kPa = 101
Property: Molar heat capacity at constant pressure, J/K/mol (Liquid); method: Large sample (1 g) DSC
Temperature, K	Mole fraction of diethanolamine	Mole fraction of N-methyldiethanolamine	Molar heat capacity at constant pressure, J/K/mol	uncertainty
303.2	.04	.16	116	1.5
308.2	.04	.16	117	1.5
313.2	.04	.16	118	1.5
318.2	.04	.16	120	1.5
323.2	.04	.16	121	1.5
328.2	.04	.16	122	1.5
333.2	.04	.16	123	1.5
338.2	.04	.16	125	1.5
343.2	.04	.16	126	1.5
348.2	.04	.16	127	1.5
353.2	.04	.16	128	1.5
303.2	.08	.12	115	1.5
308.2	.08	.12	116	1.5
313.2	.08	.12	118	1.5
318.2	.08	.12	119	1.5
323.2	.08	.12	120	1.5
328.2	.08	.12	121	1.5
333.2	.08	.12	122	1.5
338.2	.08	.12	124	1.5
343.2	.08	.12	125	1.5
348.2	.08	.12	126	1.5
353.2	.08	.12	127	1.5
303.2	.12	.08	114	1.5
308.2	.12	.08	116	1.5
313.2	.12	.08	117	1.5
318.2	.12	.08	118	1.5
323.2	.12	.08	119	1.5
328.2	.12	.08	120	1.5
333.2	.12	.08	121	1.5
338.2	.12	.08	123	1.5
343.2	.12	.08	124	1.5
348.2	.12	.08	125	1.5
353.2	.12	.08	126	1.5
303.2	.16	.04	114	1.5
308.2	.16	.04	115	1.5
313.2	.16	.04	116	1.5
318.2	.16	.04	117	1.5
323.2	.16	.04	118	1.5
328.2	.16	.04	120	1.5
333.2	.16	.04	121	1.5
338.2	.16	.04	122	1.5
343.2	.16	.04	123	1.5
348.2	.16	.04	124	1.5
353.2	.16	.04	125	1.5
303.2	.08	.32	153	1.5
308.2	.08	.32	155	1.5
313.2	.08	.32	157	1.5
318.2	.08	.32	159	1.5
323.2	.08	.32	161	1.5
328.2	.08	.32	163	1.5
333.2	.08	.32	165	1.5
338.2	.08	.32	167	1.5
343.2	.08	.32	169	1.5
348.2	.08	.32	171	1.5
353.2	.08	.32	173	1.5
303.2	.16	.24	153	1.5
308.2	.16	.24	155	1.5
313.2	.16	.24	157	1.5
318.2	.16	.24	159	1.5
323.2	.16	.24	161	1.5
328.2	.16	.24	163	1.5
333.2	.16	.24	165	1.5
338.2	.16	.24	167	1.5
343.2	.16	.24	169	1.5
348.2	.16	.24	171	1.5
353.2	.16	.24	173	1.5
303.2	.24	.16	151	1.5
308.2	.24	.16	153	1.5
313.2	.24	.16	155	1.5
318.2	.24	.16	157	1.5
323.2	.24	.16	159	1.5
328.2	.24	.16	161	1.5
333.2	.24	.16	163	1.5
338.2	.24	.16	165	1.5
343.2	.24	.16	167	1.5
348.2	.24	.16	169	1.5
353.2	.24	.16	171	1.5
303.2	.32	.08	151	1.5
308.2	.32	.08	153	1.5
313.2	.32	.08	155	1.5
318.2	.32	.08	157	1.5
323.2	.32	.08	159	1.5
328.2	.32	.08	161	1.5
333.2	.32	.08	163	1.5
338.2	.32	.08	164	1.5
343.2	.32	.08	166	1.5
348.2	.32	.08	168	1.5
353.2	.32	.08	170	1.5
303.2	.12	.48	190	1.5
308.2	.12	.48	192	1.5
313.2	.12	.48	195	1.5
318.2	.12	.48	197	1.5
323.2	.12	.48	200	1.5
328.2	.12	.48	202	1.5
333.2	.12	.48	205	1.5
338.2	.12	.48	207	1.5
343.2	.12	.48	210	1.5
348.2	.12	.48	212	1.5
353.2	.12	.48	215	1.5
303.2	.24	.36	189	1.5
308.2	.24	.36	191	1.5
313.2	.24	.36	194	1.5
318.2	.24	.36	196	1.5
323.2	.24	.36	199	1.5
328.2	.24	.36	201	1.5
333.2	.24	.36	204	1.5
338.2	.24	.36	206	1.5
343.2	.24	.36	209	1.5
348.2	.24	.36	211	1.5
353.2	.24	.36	214	1.5
303.2	.36	.24	188	1.5
308.2	.36	.24	190	1.5
313.2	.36	.24	193	1.5
318.2	.36	.24	195	1.5
323.2	.36	.24	197	1.5
328.2	.36	.24	200	1.5
333.2	.36	.24	202	1.5
338.2	.36	.24	205	1.5
343.2	.36	.24	207	1.5
348.2	.36	.24	210	1.5
353.2	.36	.24	212	1.5
303.2	.48	.12	187	1.5
308.2	.48	.12	189	1.5
313.2	.48	.12	192	1.5
318.2	.48	.12	194	1.5
323.2	.48	.12	197	1.5
328.2	.48	.12	199	1.5
333.2	.48	.12	202	1.5
338.2	.48	.12	204	1.5
343.2	.48	.12	207	1.5
348.2	.48	.12	209	1.5
353.2	.48	.12	212	1.5
303.2	.16	.64	226	1.5
308.2	.16	.64	229	1.5
313.2	.16	.64	232	1.5
318.2	.16	.64	235	1.5
323.2	.16	.64	238	1.5
328.2	.16	.64	241	1.5
333.2	.16	.64	244	1.5
338.2	.16	.64	247	1.5
343.2	.16	.64	249	1.5
348.2	.16	.64	252	1.5
353.2	.16	.64	255	1.5
303.2	.32	.48	224	1.5
308.2	.32	.48	227	1.5
313.2	.32	.48	230	1.5
318.2	.32	.48	233	1.5
323.2	.32	.48	235	1.5
328.2	.32	.48	238	1.5
333.2	.32	.48	241	1.5
338.2	.32	.48	244	1.5
343.2	.32	.48	247	1.5
348.2	.32	.48	250	1.5
353.2	.32	.48	253	1.5
303.2	.48	.32	222	1.5
308.2	.48	.32	225	1.5
313.2	.48	.32	228	1.5
318.2	.48	.32	231	1.5
323.2	.48	.32	234	1.5
328.2	.48	.32	237	1.5
333.2	.48	.32	239	1.5
338.2	.48	.32	242	1.5
343.2	.48	.32	245	1.5
348.2	.48	.32	248	1.5
353.2	.48	.32	251	1.5
303.2	.64	.16	221	1.5
308.2	.64	.16	223	1.5
313.2	.64	.16	226	1.5
318.2	.64	.16	229	1.5
323.2	.64	.16	232	1.5
328.2	.64	.16	235	1.5
333.2	.64	.16	238	1.5
338.2	.64	.16	240	1.5
343.2	.64	.16	243	1.5
348.2	.64	.16	246	1.5
353.2	.64	.16	249	1.5
