Measured thermophysical data. Studies on sodium dodecylsulfate in aqueous and in aqueous amino acid solutions: Volumetric and viscometric approaches
Source: J. Chem. Thermodyn., 2014, 10.1016/j.jct.2013.11.022
Compound 1: 2-aminoacetic acid, C2H5NO2, purity 99%
Compound 2: water, H2O
Compound 3: sodium dodecyl sulfate, C12H25NaO4S, purity 99%

System: 2-aminoacetic acid + water; phases: Liquid
Fixed: Pressure, kPa = 101.33
Property: Mass density, kg/m3 (Liquid); method: Vibrating tube method
Temperature, K	Molality, mol/kg of 2-aminoacetic acid	Mass density, kg/m3	uncertainty
293.15	.05	999.804	.05
293.15	.0999	1001.401	.05
293.15	.1499	1002.988	.05
293.15	.2001	1004.568	.05
293.15	.2504	1006.138	.05
293.15	.2999	1007.668	.05
293.15	.3501	1009.207	.05
293.15	.3998	1010.72	.05
298.15	.05	998.625	.05
298.15	.0999	1000.206	.05
298.15	.1499	1001.777	.05
298.15	.2001	1003.341	.05
298.15	.2504	1004.896	.05
298.15	.2999	1006.411	.05
298.15	.3501	1007.935	.05
298.15	.3998	1009.435	.05
303.15	.05	997.207	.05
303.15	.0999	998.773	.05
303.15	.1499	1000.329	.05
303.15	.2001	1001.878	.05
303.15	.2504	1003.418	.05
303.15	.2999	1004.92	.05
303.15	.3501	1006.431	.05
303.15	.3998	1007.917	.05
308.15	.05	995.577	.05
308.15	.0999	997.132	.05
308.15	.1499	998.677	.05
308.15	.2001	1000.216	.05
308.15	.2504	1001.745	.05
308.15	.2999	1003.237	.05
308.15	.3501	1004.737	.05
308.15	.3998	1006.209	.05
313.15	.05	993.753	.05
313.15	.0999	995.297	.05
313.15	.1499	996.832	.05
313.15	.2001	998.361	.05
313.15	.2504	999.881	.05
313.15	.2999	1001.364	.05
313.15	.3501	1002.857	.05
313.15	.3998	1004.325	.05

System: 2-aminoacetic acid + water; phases: Liquid
Fixed: Pressure, kPa = 101.33
Property: Speed of sound, m/s (Liquid); method: Sing-around technique in a fixed-path interferometer
Temperature, K	Molality, mol/kg of 2-aminoacetic acid	Speed of sound, m/s	uncertainty
293.15	.05	1486.16	.5
293.15	.0999	1488.62	.5
293.15	.1499	1491.09	.5
293.15	.2001	1493.56	.5
293.15	.2504	1496.02	.5
293.15	.2999	1498.42	.5
293.15	.3501	1500.85	.5
293.15	.3998	1503.23	.5
298.15	.05	1500.32	.5
298.15	.0999	1502.73	.5
298.15	.1499	1505.14	.5
298.15	.2001	1507.55	.5
298.15	.2504	1509.95	.5
298.15	.2999	1512.31	.5
298.15	.3501	1514.68	.5
298.15	.3998	1517.01	.5
303.15	.05	1512.56	.5
303.15	.0999	1514.92	.5
303.15	.1499	1517.26	.5
303.15	.2001	1519.61	.5
303.15	.2504	1521.95	.5
303.15	.2999	1524.25	.5
303.15	.3501	1526.55	.5
303.15	.3998	1528.81	.5
308.15	.05	1523.08	.5
308.15	.0999	1525.37	.5
308.15	.1499	1527.65	.5
308.15	.2001	1529.95	.5
308.15	.2504	1532.21	.5
308.15	.2999	1534.44	.5
308.15	.3501	1536.7	.5
308.15	.3998	1538.88	.5
313.15	.05	1532.06	.5
313.15	.0999	1534.3	.5
313.15	.1499	1536.51	.5
313.15	.2001	1538.73	.5
313.15	.2504	1540.93	.5
313.15	.2999	1543.11	.5
313.15	.3501	1545.3	.5
313.15	.3998	1547.46	.5

System: 2-aminoacetic acid + water; phases: Liquid
Fixed: Pressure, kPa = 101.33
Property: Viscosity, Pa*s (Liquid); method: Capillary tube (Ostwald; Ubbelohde) method
Temperature, K	Molality, mol/kg of 2-aminoacetic acid	Viscosity, Pa*s	uncertainty
293.15	.05	.001012754	.00001012754
293.15	.0999	.00102177	.0000102177
293.15	.1499	.001029417	.00001029417
293.15	.2001	.001035612	.00001035612
293.15	.2504	.001038717	.00001038717
293.15	.2999	.001048264	.00001048264
293.15	.3501	.001055588	.00001055588
293.15	.3998	.001059552	.00001059552
298.15	.05	.000899067	.00000899067
298.15	.0999	.000908015	.00000908015
298.15	.1499	.000916779	.00000916779
298.15	.2001	.000923243	.00000923243
298.15	.2504	.000928134	.00000928134
298.15	.2999	.000932998	.00000932998
298.15	.3501	.000937862	.00000937862
298.15	.3998	.000946048	.00000946048
303.15	.05	.00080767	.0000080767
303.15	.0999	.000817727	.00000817727
303.15	.1499	.000825779	.00000825779
303.15	.2001	.000831878	.00000831878
303.15	.2504	.000839795	.00000839795
303.15	.2999	.000843429	.00000843429
303.15	.3501	.000851093	.00000851093
303.15	.3998	.000853299	.00000853299
308.15	.05	.000729581	.00000729581
308.15	.0999	.00073655	.0000073655
308.15	.1499	.000740355	.00000740355
308.15	.2001	.000747442	.00000747442
308.15	.2504	.00075183	.0000075183
308.15	.2999	.000757785	.00000757785
308.15	.3501	.000764078	.00000764078
308.15	.3998	.000767861	.00000767861
313.15	.05	.000660939	.00000660939
313.15	.0999	.000666228	.00000666228
313.15	.1499	.000668574	.00000668574
313.15	.2001	.000672087	.00000672087
313.15	.2504	.000675894	.00000675894
313.15	.2999	.000679839	.00000679839
313.15	.3501	.000685069	.00000685069
313.15	.3998	.000688105	.00000688105

System: sodium dodecyl sulfate + water; phases: Liquid
Fixed: Pressure, kPa = 101.33
Property: Mass density, kg/m3 (Liquid); method: Vibrating tube method
Temperature, K	Molality, mol/kg of sodium dodecyl sulfate	Mass density, kg/m3	uncertainty
293.15	.0001	998.198	.05
293.15	.0003	998.209	.05
293.15	.0005	998.221	.05
293.15	.002	998.31	.05
293.15	.004	998.425	.05
293.15	.006	998.538	.05
293.15	.008	998.647	.05
293.15	.01	998.75	.05
293.15	.012	998.851	.05
293.15	.014	998.949	.05
293.15	.016	999.048	.05
293.15	.018	999.145	.05
293.15	.02	999.237	.05
293.15	.022	999.338	.05
293.15	.024	999.426	.05
298.15	.0001	997.034	.05
298.15	.0003	997.045	.05
298.15	.0005	997.057	.05
298.15	.002	997.144	.05
298.15	.004	997.255	.05
298.15	.006	997.365	.05
298.15	.008	997.472	.05
298.15	.01	997.569	.05
298.15	.012	997.67	.05
298.15	.014	997.768	.05
298.15	.016	997.867	.05
298.15	.018	997.957	.05
298.15	.02	998.048	.05
298.15	.022	998.142	.05
298.15	.024	998.232	.05
303.15	.0001	995.633	.05
303.15	.0003	995.644	.05
303.15	.0005	995.655	.05
303.15	.002	995.74	.05
303.15	.004	995.848	.05
303.15	.006	995.955	.05
303.15	.008	996.058	.05
303.15	.01	996.155	.05
303.15	.012	996.252	.05
303.15	.014	996.348	.05
303.15	.016	996.441	.05
303.15	.018	996.536	.05
303.15	.02	996.624	.05
303.15	.022	996.718	.05
303.15	.024	996.807	.05
308.15	.0001	994.016	.05
308.15	.0003	994.026	.05
308.15	.0005	994.037	.05
308.15	.002	994.12	.05
308.15	.004	994.224	.05
308.15	.006	994.327	.05
308.15	.008	994.429	.05
308.15	.01	994.524	.05
308.15	.012	994.619	.05
308.15	.014	994.715	.05
308.15	.016	994.806	.05
308.15	.018	994.898	.05
308.15	.02	994.988	.05
308.15	.022	995.076	.05
308.15	.024	995.164	.05
313.15	.0001	992.2	.05
313.15	.0003	992.21	.05
313.15	.0005	992.22	.05
313.15	.002	992.299	.05
313.15	.004	992.402	.05
313.15	.006	992.5	.05
313.15	.008	992.601	.05
313.15	.01	992.696	.05
313.15	.012	992.789	.05
313.15	.014	992.884	.05
313.15	.016	992.975	.05
313.15	.018	993.061	.05
313.15	.02	993.153	.05
313.15	.022	993.239	.05
313.15	.024	993.323	.05

System: sodium dodecyl sulfate + water; phases: Liquid
Fixed: Pressure, kPa = 101.33
Property: Speed of sound, m/s (Liquid); method: Sing-around technique in a fixed-path interferometer
Temperature, K	Molality, mol/kg of sodium dodecyl sulfate	Speed of sound, m/s	uncertainty
293.15	.0001	1482.89	.5
293.15	.0003	1482.91	.5
293.15	.0005	1482.95	.5
293.15	.002	1483.16	.5
293.15	.004	1483.45	.5
293.15	.006	1483.72	.5
293.15	.008	1483.99	.5
293.15	.01	1484.24	.5
293.15	.012	1484.45	.5
293.15	.014	1484.61	.5
293.15	.016	1484.76	.5
293.15	.018	1484.9	.5
293.15	.02	1485.03	.5
293.15	.022	1485.18	.5
293.15	.024	1485.31	.5
298.15	.0001	1497.02	.5
298.15	.0003	1497.05	.5
298.15	.0005	1497.08	.5
298.15	.002	1497.29	.5
298.15	.004	1497.57	.5
298.15	.006	1497.85	.5
298.15	.008	1498.12	.5
298.15	.01	1498.36	.5
298.15	.012	1498.56	.5
298.15	.014	1498.73	.5
298.15	.016	1498.88	.5
298.15	.018	1499.01	.5
298.15	.02	1499.14	.5
298.15	.022	1499.28	.5
298.15	.024	1499.41	.5
303.15	.0001	1509.34	.5
303.15	.0003	1509.37	.5
303.15	.0005	1509.4	.5
303.15	.002	1509.61	.5
303.15	.004	1509.89	.5
303.15	.006	1510.17	.5
303.15	.008	1510.43	.5
303.15	.01	1510.66	.5
303.15	.012	1510.85	.5
303.15	.014	1511.02	.5
303.15	.016	1511.16	.5
303.15	.018	1511.3	.5
303.15	.02	1511.43	.5
303.15	.022	1511.57	.5
303.15	.024	1511.7	.5
308.15	.0001	1519.98	.5
308.15	.0003	1520.01	.5
308.15	.0005	1520.04	.5
308.15	.002	1520.24	.5
308.15	.004	1520.52	.5
308.15	.006	1520.79	.5
308.15	.008	1521.05	.5
308.15	.01	1521.28	.5
308.15	.012	1521.47	.5
308.15	.014	1521.63	.5
308.15	.016	1521.77	.5
308.15	.018	1521.91	.5
308.15	.02	1522.04	.5
308.15	.022	1522.18	.5
308.15	.024	1522.31	.5
313.15	.0001	1529.02	.5
313.15	.0003	1529.05	.5
313.15	.0005	1529.08	.5
313.15	.002	1529.28	.5
313.15	.004	1529.55	.5
313.15	.006	1529.82	.5
313.15	.008	1530.08	.5
313.15	.01	1530.3	.5
313.15	.012	1530.49	.5
313.15	.014	1530.65	.5
313.15	.016	1530.79	.5
313.15	.018	1530.92	.5
313.15	.02	1531.06	.5
313.15	.022	1531.19	.5
313.15	.024	1531.32	.5

System: sodium dodecyl sulfate + water; phases: Liquid
Fixed: Pressure, kPa = 101.33
Property: Viscosity, Pa*s (Liquid); method: Capillary tube (Ostwald; Ubbelohde) method
Temperature, K	Molality, mol/kg of sodium dodecyl sulfate	Viscosity, Pa*s	uncertainty
293.15	.0001	.001013914	.00001013914
293.15	.0003	.00101434	.0000101434
293.15	.0005	.001016031	.00001016031
293.15	.002	.001019894	.00001019894
293.15	.004	.001020387	.00001020387
293.15	.006	.001024493	.00001024493
293.15	.008	.00102587	.0000102587
293.15	.01	.001026983	.00001026983
293.15	.012	.001029241	.00001029241
293.15	.014	.001034363	.00001034363
293.15	.016	.001036165	.00001036165
293.15	.018	.001039626	.00001039626
293.15	.02	.001042431	.00001042431
293.15	.022	.001046886	.00001046886
293.15	.024	.001052416	.00001052416
298.15	.0001	.000894965	.00000894965
298.15	.0003	.000895246	.00000895246
298.15	.0005	.000895528	.00000895528
298.15	.002	.000896284	.00000896284
298.15	.004	.000896888	.00000896888
298.15	.006	.000897626	.00000897626
298.15	.008	.000898091	.00000898091
298.15	.01	.000898973	.00000898973
298.15	.012	.000900789	.00000900789
298.15	.014	.000907256	.00000907256
298.15	.016	.000909091	.00000909091
298.15	.018	.000911422	.00000911422
298.15	.02	.0009136	.000009136
298.15	.022	.000919078	.00000919078
298.15	.024	.000921139	.00000921139
303.15	.0001	.000800956	.00000800956
303.15	.0003	.000801506	.00000801506
303.15	.0005	.000801785	.00000801785
303.15	.002	.000802356	.00000802356
303.15	.004	.000802791	.00000802791
303.15	.006	.000803187	.00000803187
303.15	.008	.000803656	.00000803656
303.15	.01	.000803851	.00000803851
303.15	.012	.000805398	.00000805398
303.15	.014	.000808531	.00000808531
303.15	.016	.000811372	.00000811372
303.15	.018	.00081348	.0000081348
303.15	.02	.000816067	.00000816067
303.15	.022	.000819278	.00000819278
303.15	.024	.00082055	.0000082055
308.15	.0001	.000722826	.00000722826
308.15	.0003	.000723249	.00000723249
308.15	.0005	.000723559	.00000723559
308.15	.002	.000724073	.00000724073
308.15	.004	.00072447	.0000072447
308.15	.006	.000724961	.00000724961
308.15	.008	.000725319	.00000725319
308.15	.01	.000725918	.00000725918
308.15	.012	.000726403	.00000726403
308.15	.014	.000727911	.00000727911
308.15	.016	.000730039	.00000730039
308.15	.018	.000734476	.00000734476
308.15	.02	.000738761	.00000738761
308.15	.022	.000742193	.00000742193
308.15	.024	.000746535	.00000746535
313.15	.0001	.000656364	.00000656364
313.15	.0003	.000656635	.00000656635
313.15	.0005	.000656983	.00000656983
313.15	.002	.000657565	.00000657565
313.15	.004	.000658467	.00000658467
313.15	.006	.000659895	.00000659895
313.15	.008	.000661553	.00000661553
313.15	.01	.000662791	.00000662791
313.15	.012	.000664558	.00000664558
313.15	.014	.000666743	.00000666743
313.15	.016	.000668851	.00000668851
313.15	.018	.000671751	.00000671751
313.15	.02	.000674655	.00000674655
313.15	.022	.000677519	.00000677519
313.15	.024	.000679395	.00000679395

System: 2-aminoacetic acid + sodium dodecyl sulfate + water; phases: Liquid
Fixed: Pressure, kPa = 101.33
Fixed: Solvent: Molality, mol/kg of 2-aminoacetic acid = .1
Property: Mass density, kg/m3 (Liquid); method: Vibrating tube method
Temperature, K	Molality, mol/kg of sodium dodecyl sulfate	Mass density, kg/m3	uncertainty
293.15	.0001	1001.392	.05
293.15	.0003	1001.409	.05
293.15	.0005	1001.417	.05
293.15	.002	1001.496	.05
293.15	.004	1001.646	.05
293.15	.006	1001.757	.05
293.15	.008	1001.876	.05
293.15	.01	1001.968	.05
293.15	.012	1002.046	.05
293.15	.014	1002.15	.05
293.15	.016	1002.252	.05
293.15	.0179	1002.35	.05
293.15	.02	1002.451	.05
293.15	.022	1002.547	.05
293.15	.024	1002.642	.05
298.15	.0001	1000.197	.05
298.15	.0003	1000.212	.05
298.15	.0005	1000.221	.05
298.15	.002	1000.296	.05
298.15	.004	1000.441	.05
298.15	.006	1000.551	.05
298.15	.008	1000.665	.05
298.15	.01	1000.756	.05
298.15	.012	1000.835	.05
298.15	.014	1000.936	.05
298.15	.016	1001.036	.05
298.15	.0179	1001.13	.05
298.15	.02	1001.228	.05
298.15	.022	1001.321	.05
298.15	.024	1001.413	.05
303.15	.0001	998.767	.05
303.15	.0003	998.782	.05
303.15	.0005	998.789	.05
303.15	.002	998.862	.05
303.15	.004	999.003	.05
303.15	.006	999.11	.05
303.15	.008	999.221	.05
303.15	.01	999.311	.05
303.15	.012	999.389	.05
303.15	.014	999.488	.05
303.15	.016	999.586	.05
303.15	.0179	999.679	.05
303.15	.02	999.772	.05
303.15	.022	999.865	.05
303.15	.024	999.951	.05
308.15	.0001	997.125	.05
308.15	.0003	997.142	.05
308.15	.0005	997.149	.05
308.15	.002	997.218	.05
308.15	.004	997.357	.05
308.15	.006	997.458	.05
308.15	.008	997.567	.05
308.15	.01	997.658	.05
308.15	.012	997.737	.05
308.15	.014	997.834	.05
308.15	.016	997.93	.05
308.15	.0179	998.019	.05
308.15	.02	998.112	.05
308.15	.022	998.2	.05
308.15	.024	998.286	.05
313.15	.0001	995.289	.05
313.15	.0003	995.306	.05
313.15	.0005	995.316	.05
313.15	.002	995.381	.05
313.15	.004	995.516	.05
313.15	.006	995.615	.05
313.15	.008	995.722	.05
313.15	.01	995.811	.05
313.15	.012	995.887	.05
313.15	.014	995.983	.05
313.15	.016	996.075	.05
313.15	.0179	996.164	.05
313.15	.02	996.253	.05
313.15	.022	996.342	.05
313.15	.024	996.424	.05

System: 2-aminoacetic acid + sodium dodecyl sulfate + water; phases: Liquid
Fixed: Pressure, kPa = 101.33
Fixed: Solvent: Molality, mol/kg of 2-aminoacetic acid = .1
Property: Speed of sound, m/s (Liquid); method: Sing-around technique in a fixed-path interferometer
Temperature, K	Molality, mol/kg of sodium dodecyl sulfate	Speed of sound, m/s	uncertainty
293.15	.0001	1488.01	.5
293.15	.0003	1488.04	.5
293.15	.0005	1488.08	.5
293.15	.002	1488.31	.5
293.15	.004	1488.61	.5
293.15	.006	1488.93	.5
293.15	.008	1489.2	.5
293.15	.01	1489.44	.5
293.15	.012	1489.58	.5
293.15	.014	1489.73	.5
293.15	.016	1489.89	.5
293.15	.018	1490.03	.5
293.15	.02	1490.18	.5
293.15	.022	1490.32	.5
293.15	.024	1490.46	.5
298.15	.0001	1502.02	.5
298.15	.0003	1502.04	.5
298.15	.0005	1502.08	.5
298.15	.002	1502.32	.5
298.15	.004	1502.62	.5
298.15	.006	1502.94	.5
298.15	.008	1503.2	.5
298.15	.01	1503.43	.5
298.15	.012	1503.57	.5
298.15	.014	1503.72	.5
298.15	.016	1503.87	.5
298.15	.018	1504.01	.5
298.15	.02	1504.16	.5
298.15	.022	1504.29	.5
298.15	.024	1504.43	.5
303.15	.0001	1514.2	.5
303.15	.0003	1514.22	.5
303.15	.0005	1514.26	.5
303.15	.002	1514.5	.5
303.15	.004	1514.79	.5
303.15	.006	1515.11	.5
303.15	.008	1515.37	.5
303.15	.01	1515.58	.5
303.15	.012	1515.72	.5
303.15	.014	1515.87	.5
303.15	.016	1516.02	.5
303.15	.018	1516.16	.5
303.15	.02	1516.3	.5
303.15	.022	1516.44	.5
303.15	.024	1516.57	.5
308.15	.0001	1524.7	.5
308.15	.0003	1524.73	.5
308.15	.0005	1524.76	.5
308.15	.002	1525	.5
308.15	.004	1525.28	.5
308.15	.006	1525.59	.5
308.15	.008	1525.85	.5
308.15	.01	1526.04	.5
308.15	.012	1526.19	.5
308.15	.014	1526.34	.5
308.15	.016	1526.49	.5
308.15	.018	1526.63	.5
308.15	.02	1526.77	.5
308.15	.022	1526.9	.5
308.15	.024	1527.03	.5
313.15	.0001	1533.58	.5
313.15	.0003	1533.6	.5
313.15	.0005	1533.64	.5
313.15	.002	1533.87	.5
313.15	.004	1534.15	.5
313.15	.006	1534.45	.5
313.15	.008	1534.72	.5
313.15	.01	1534.9	.5
313.15	.012	1535.04	.5
313.15	.014	1535.19	.5
313.15	.016	1535.33	.5
313.15	.018	1535.47	.5
313.15	.02	1535.61	.5
313.15	.022	1535.75	.5
313.15	.024	1535.87	.5

System: 2-aminoacetic acid + sodium dodecyl sulfate + water; phases: Liquid
Fixed: Pressure, kPa = 101.33
Fixed: Solvent: Molality, mol/kg of 2-aminoacetic acid = .1
Property: Viscosity, Pa*s (Liquid); method: Capillary tube (Ostwald; Ubbelohde) method
Temperature, K	Molality, mol/kg of sodium dodecyl sulfate	Viscosity, Pa*s	uncertainty
293.15	.0001	.001043804	.00001043804
293.15	.0003	.001044061	.00001044061
293.15	.0005	.001044448	.00001044448
293.15	.002	.00104471	.0000104471
293.15	.004	.001045963	.00001045963
293.15	.006	.001048193	.00001048193
293.15	.008	.001051328	.00001051328
293.15	.01	.001053339	.00001053339
293.15	.012	.001054339	.00001054339
293.15	.014	.00105728	.0000105728
293.15	.016	.001058824	.00001058824
293.15	.018	.001060205	.00001060205
293.15	.02	.001061868	.00001061868
293.15	.022	.001064564	.00001064564
293.15	.024	.001067857	.00001067857
298.15	.0001	.000925748	.00000925748
298.15	.0003	.000926794	.00000926794
298.15	.0005	.000927794	.00000927794
298.15	.002	.000928261	.00000928261
298.15	.004	.000929944	.00000929944
298.15	.006	.000932388	.00000932388
298.15	.008	.00093452	.0000093452
298.15	.01	.000937186	.00000937186
298.15	.012	.000940476	.00000940476
298.15	.014	.000943789	.00000943789
298.15	.016	.00094718	.0000094718
298.15	.018	.000949096	.00000949096
298.15	.02	.000950937	.00000950937
298.15	.022	.00095341	.0000095341
298.15	.024	.00095616	.0000095616
303.15	.0001	.000835565	.00000835565
303.15	.0003	.000836097	.00000836097
303.15	.0005	.000839057	.00000839057
303.15	.002	.000841114	.00000841114
303.15	.004	.000842451	.00000842451
303.15	.006	.000844677	.00000844677
303.15	.008	.000845889	.00000845889
303.15	.01	.000848522	.00000848522
303.15	.012	.000851224	.00000851224
303.15	.014	.000855782	.00000855782
303.15	.016	.000858583	.00000858583
303.15	.018	.00086082	.0000086082
303.15	.02	.000862739	.00000862739
303.15	.022	.000864178	.00000864178
303.15	.024	.00086649	.0000086649
308.15	.0001	.000760446	.00000760446
308.15	.0003	.000760695	.00000760695
308.15	.0005	.000761171	.00000761171
308.15	.002	.000761322	.00000761322
308.15	.004	.000762489	.00000762489
308.15	.006	.000763843	.00000763843
308.15	.008	.000768876	.00000768876
308.15	.01	.000769693	.00000769693
308.15	.012	.000770383	.00000770383
308.15	.014	.000771853	.00000771853
308.15	.016	.000773283	.00000773283
308.15	.018	.00077512	.0000077512
308.15	.02	.000780617	.00000780617
308.15	.022	.000782258	.00000782258
308.15	.024	.000784292	.00000784292
313.15	.0001	.000681929	.00000681929
313.15	.0003	.000683254	.00000683254
313.15	.0005	.000683763	.00000683763
313.15	.002	.000685855	.00000685855
313.15	.004	.000687359	.00000687359
313.15	.006	.00068876	.0000068876
313.15	.008	.000690148	.00000690148
313.15	.01	.000690577	.00000690577
313.15	.012	.000691054	.00000691054
313.15	.014	.000695315	.00000695315
313.15	.016	.000695727	.00000695727
313.15	.018	.000697103	.00000697103
313.15	.02	.000698751	.00000698751
313.15	.022	.000699664	.00000699664
313.15	.024	.000700959	.00000700959
