Measured thermophysical data. Thermal expansion and structure of tetrapropylammonium bromide aqueous solutions derived from density measurements
Source: J. Chem. Thermodyn., 2011, 10.1016/j.jct.2010.09.009
Compound 1: water, H2O, purity 99.9%
Compound 2: tetrapropylammonium bromide, C12H28BrN, purity 98%

System: tetrapropylammonium bromide + water; phases: Liquid
Fixed: Pressure, kPa = 101
Property: Mass density, kg/m3 (Liquid); method: Vibrating tube method
Temperature, K	Mole fraction of tetrapropylammonium bromide	Mass density, kg/m3	uncertainty
278.15	0	999.97	.02
278.15	.0009007	1001.46	.02
278.15	.001798	1002.95	.02
278.15	.003591	1005.93	.02
278.15	.007135	1011.86	.02
278.15	.010704	1017.75	.02
278.15	.014219	1023.49	.02
278.15	.017697	1029.14	.02
278.15	.022059	1035.9	.02
278.15	.026291	1042.12	.02
278.15	.030563	1048.03	.02
278.15	.034836	1053.77	.02
278.15	.043106	1063.57	.02
278.15	.051322	1072.31	.02
278.15	.060894	1080.88	.02
278.15	.074864	1090.59	.02
278.15	.091422	1099.07	.02
278.15	.108451	1105.77	.02
283.15	0	999.7	.02
283.15	.0009007	1001.15	.02
283.15	.001798	1002.59	.02
283.15	.003591	1005.47	.02
283.15	.007135	1011.21	.02
283.15	.010704	1016.94	.02
283.15	.014219	1022.47	.02
283.15	.017697	1027.82	.02
283.15	.022059	1034.29	.02
283.15	.026291	1040.3	.02
283.15	.030563	1046.04	.02
283.15	.034836	1051.49	.02
283.15	.043106	1061	.02
283.15	.051322	1069.28	.02
283.15	.060894	1077.47	.02
283.15	.074864	1087.19	.02
283.15	.091422	1095.35	.02
283.15	.108451	1101.87	.02
283.15	.126105	1106.82	.02
288.15	0	999.1	.02
288.15	.0009007	1000.51	.02
288.15	.001798	1001.92	.02
288.15	.003591	1004.73	.02
288.15	.007135	1010.3	.02
288.15	.010704	1015.86	.02
288.15	.014219	1021.22	.02
288.15	.017697	1026.37	.02
288.15	.022059	1032.62	.02
288.15	.026291	1038.39	.02
288.15	.030563	1043.91	.02
288.15	.034836	1049.13	.02
288.15	.043106	1058.3	.02
288.15	.051322	1066.28	.02
288.15	.060894	1074.18	.02
288.15	.074864	1083.42	.02
288.15	.091422	1091.67	.02
288.15	.108451	1098.06	.02
288.15	.126105	1102.87	.02
293.15	0	998.21	.02
293.15	.0009007	999.59	.02
293.15	.001798	1000.97	.02
293.15	.003591	1003.71	.02
293.15	.007135	1009.13	.02
293.15	.010704	1014.54	.02
293.15	.014219	1019.76	.02
293.15	.017697	1024.72	.02
293.15	.022059	1030.75	.02
293.15	.026291	1036.31	.02
293.15	.030563	1041.64	.02
293.15	.034836	1046.66	.02
293.15	.043106	1055.48	.02
293.15	.051322	1063.18	.02
293.15	.060894	1070.85	.02
293.15	.074864	1079.85	.02
293.15	.091422	1087.93	.02
293.15	.108451	1094.27	.02
293.15	.126105	1098.86	.02
298.15	0	997.05	.02
298.15	.0009007	998.41	.02
298.15	.001798	999.76	.02
298.15	.003591	1002.44	.02
298.15	.007135	1007.74	.02
298.15	.010704	1012.99	.02
298.15	.014219	1018.07	.02
298.15	.017697	1022.89	.02
298.15	.022059	1028.71	.02
298.15	.026291	1034.11	.02
298.15	.030563	1039.25	.02
298.15	.034836	1044.1	.02
298.15	.043106	1052.62	.02
298.15	.051322	1060.04	.02
298.15	.060894	1067.47	.02
298.15	.074864	1076.3	.02
298.15	.091422	1084.23	.02
298.15	.108451	1090.46	.02
298.15	.126105	1094.96	.02
303.15	0	995.65	.02
303.15	.0009007	996.98	.02
303.15	.001798	998.31	.02
303.15	.003591	1000.94	.02
303.15	.007135	1006.12	.02
303.15	.010704	1011.24	.02
303.15	.014219	1016.18	.02
303.15	.017697	1020.85	.02
303.15	.022059	1026.51	.02
303.15	.026291	1031.75	.02
303.15	.030563	1036.7	.02
303.15	.034836	1041.43	.02
303.15	.043106	1049.65	.02
303.15	.051322	1056.85	.02
303.15	.060894	1064.12	.02
303.15	.074864	1072.68	.02
303.15	.091422	1080.53	.02
303.15	.108451	1086.64	.02
303.15	.126105	1091.13	.02
308.15	0	994.04	.02
308.15	.0009007	995.34	.02
308.15	.001798	996.64	.02
308.15	.003591	999.22	.02
308.15	.007135	1004.28	.02
308.15	.010704	1009.27	.02
308.15	.014219	1014.09	.02
308.15	.017697	1018.64	.02
308.15	.022059	1024.13	.02
308.15	.026291	1029.25	.02
308.15	.030563	1034.01	.02
308.15	.034836	1038.63	.02
308.15	.043106	1046.55	.02
308.15	.051322	1053.57	.02
308.15	.060894	1060.64	.02
308.15	.074864	1069.06	.02
308.15	.091422	1076.66	.02
308.15	.108451	1082.79	.02
308.15	.126105	1087.33	.02
