Measured thermophysical data. Activity coefficients at infinite dilution and physicochemical properties for organic solutes and water in the ionic liquid 4-(2-methoxyethyl)-4-methylmorpholinium bis(trifluoromethylsulfonyl)-amide
Source: J. Chem. Thermodyn., 2012, 10.1016/j.jct.2011.11.021
Compound 1: 4-(2-methoxyethyl)-4-methylmorpholinium bis(trifluoromethylsulfonyl)imide, C10H18F6N2O6, purity 99.5%
Compound 2: pentane, C5H12, purity 99%
Compound 3: n-hexane, C6H14, purity 99%
Compound 4: 3-methylpentane, C6H14, purity 99%
Compound 5: butane, 2,2-dimethyl-, C6H14, purity 99%
Compound 6: heptane, C7H16, purity 99.5%
Compound 7: n-octane, C8H18, purity 99%
Compound 8: isooctane, C8H18, purity 99%
Compound 9: nonane, C9H20, purity 99%
Compound 10: n-decane, C10H22, purity 99%
Compound 11: cyclopentane, C5H10, purity 99%
Compound 12: cyclohexane, C6H12, purity 99%
Compound 13: cyclohexane, methyl-, C7H14, purity 99%
Compound 14: cycloheptane, C7H14, purity 98%
Compound 15: cyclooctane, C8H16, purity 99%
Compound 16: 1-pentene, C5H10, purity 98.5%
Compound 17: 1-hexene, C6H12, purity 99%
Compound 18: cyclohexene, C6H10, purity 99%
Compound 19: 1-heptene, C7H14, purity 99%
Compound 20: 1-octene, C8H16, purity 98%
Compound 21: 1-decene, C10H20, purity 97%
Compound 22: 1-hexyne, C6H10, purity 97%
Compound 23: 1-heptyne, C7H12, purity 98%
Compound 24: 1-octyne, C8H14, purity 97%
Compound 25: benzene, C6H6, purity 99.8%
Compound 26: toluene, C7H8, purity 99.8%
Compound 27: ethylbenzene, C8H10, purity 99.8%
Compound 28: 1,2-dimethylbenzene, C8H10, purity 99%
Compound 29: 1,3-xylene, C8H10, purity 99%
Compound 30: 1,4-xylene, C8H10, purity 99%
Compound 31: styrene, C8H8, purity 99.9%
Compound 32: (1-methylethenyl)benzene, C9H10, purity 99%
Compound 33: thiophene, C4H4S, purity 99%
Compound 34: pyridine, C5H5N, purity 99.8%
Compound 35: methanol, CH4O, purity 99.9%
Compound 36: ethanol, C2H6O, purity 99.8%
Compound 37: propyl alcohol, C3H8O, purity 99.9%
Compound 38: 2-propanol, C3H8O, purity 99.9%
Compound 39: n-butyl alcohol, C4H10O, purity 99.8%
Compound 40: butan-2-ol, C4H10O, purity 99.5%
Compound 41: 2-methyl-1-propanol, C4H10O, purity 99.5%
Compound 42: 2-methyl-2-propanol, C4H10O, purity 99.7%
Compound 43: water, H2O, purity 99.9%
Compound 44: ethanoic acid, C2H4O2, purity 99.7%
Compound 45: methyl ethanoate, C3H6O2, purity 99.8%
Compound 46: propionic acid, methyl ester, C4H8O2, purity 99%
Compound 47: butyric acid, methyl ester, C5H10O2, purity 99%
Compound 48: ethyl ethanoate, C4H8O2, purity 99.8%
Compound 49: oxacyclopentane, C4H8O, purity 99.9%
Compound 50: 1,4-dioxane, C4H8O2, purity 99.8%
Compound 51: methyl tert-butyl ether, C5H12O, purity 99.8%
Compound 52: ethyl tert-butyl ether, C6H14O, purity 99%
Compound 53: tert-amyl methyl ether, C6H14O, purity 97%
Compound 54: ethyl ether, C4H10O, purity 99.9%
Compound 55: ether, dipropyl, C6H14O, purity 99%
Compound 56: isopropyl ether, C6H14O, purity 99%
Compound 57: dibutyl ether, C8H18O, purity 99.3%
Compound 58: acetone, C3H6O, purity 99.9%
Compound 59: methyl n-propyl ketone, C5H10O, purity 99%
Compound 60: 3-pentanone, C5H10O, purity 99%
Compound 61: butanal, C4H8O, purity 99%
Compound 62: ethanonitrile, C2H3N, purity 99.9%
Compound 63: 1-nitropropane, C3H7NO2, purity 98.5%

System: n-hexane + 4-(2-methoxyethyl)-4-methylmorpholinium bis(trifluoromethylsulfonyl)imide; phases: Liquid, Gas
Fixed: Mole fraction of n-hexane = 0
Property: Activity coefficient of n-hexane (Liquid); method: Chromatography
Temperature, K	Activity coefficient of n-hexane	uncertainty
318.15	36.1	1.083
328.15	32.6	.978
338.15	29.8	.894
348.15	27.2	.816
358.15	25	.75
368.15	23.1	.693

System: 3-methylpentane + 4-(2-methoxyethyl)-4-methylmorpholinium bis(trifluoromethylsulfonyl)imide; phases: Liquid, Gas
Fixed: Mole fraction of 3-methylpentane = 0
Property: Activity coefficient of 3-methylpentane (Liquid); method: Chromatography
Temperature, K	Activity coefficient of 3-methylpentane	uncertainty
318.15	32.3	.969
328.15	29	.87
338.15	26.3	.789
348.15	23.9	.717
358.15	21.9	.657
368.15	20.2	.606

System: butane, 2,2-dimethyl- + 4-(2-methoxyethyl)-4-methylmorpholinium bis(trifluoromethylsulfonyl)imide; phases: Liquid, Gas
Fixed: Mole fraction of butane, 2,2-dimethyl- = 0
Property: Activity coefficient of butane, 2,2-dimethyl- (Liquid); method: Chromatography
Temperature, K	Activity coefficient of butane, 2,2-dimethyl-	uncertainty
318.15	32.4	.972
328.15	28.4	.852
338.15	25.7	.771
348.15	23.2	.696
358.15	21.2	.636
368.15	19.5	.585

System: heptane + 4-(2-methoxyethyl)-4-methylmorpholinium bis(trifluoromethylsulfonyl)imide; phases: Liquid, Gas
Fixed: Mole fraction of heptane = 0
Property: Activity coefficient of heptane (Liquid); method: Chromatography
Temperature, K	Activity coefficient of heptane	uncertainty
318.15	54.4	1.632
328.15	48.7	1.461
338.15	43.8	1.314
348.15	39.7	1.191
358.15	36.2	1.086
368.15	33.1	.993

System: n-octane + 4-(2-methoxyethyl)-4-methylmorpholinium bis(trifluoromethylsulfonyl)imide; phases: Liquid, Gas
Fixed: Mole fraction of n-octane = 0
Property: Activity coefficient of n-octane (Liquid); method: Chromatography
Temperature, K	Activity coefficient of n-octane	uncertainty
318.15	82.1	2.463
328.15	71.6	2.148
338.15	64.6	1.938
348.15	58.4	1.752
358.15	51.7	1.551
368.15	47.3	1.419

System: isooctane + 4-(2-methoxyethyl)-4-methylmorpholinium bis(trifluoromethylsulfonyl)imide; phases: Liquid, Gas
Fixed: Mole fraction of isooctane = 0
Property: Activity coefficient of isooctane (Liquid); method: Chromatography
Temperature, K	Activity coefficient of isooctane	uncertainty
318.15	55.9	1.677
328.15	49.5	1.485
338.15	45	1.35
348.15	40.8	1.224
358.15	37.2	1.116
368.15	34.1	1.023

System: nonane + 4-(2-methoxyethyl)-4-methylmorpholinium bis(trifluoromethylsulfonyl)imide; phases: Liquid, Gas
Fixed: Mole fraction of nonane = 0
Property: Activity coefficient of nonane (Liquid); method: Chromatography
Temperature, K	Activity coefficient of nonane	uncertainty
318.15	125	3.75
328.15	108	3.24
338.15	95.8	2.874
348.15	85.6	2.568
358.15	76.3	2.289
368.15	68.7	2.061

System: n-decane + 4-(2-methoxyethyl)-4-methylmorpholinium bis(trifluoromethylsulfonyl)imide; phases: Liquid, Gas
Fixed: Mole fraction of n-decane = 0
Property: Activity coefficient of n-decane (Liquid); method: Chromatography
Temperature, K	Activity coefficient of n-decane	uncertainty
318.15	192	5.76
328.15	165	4.95
338.15	145	4.35
348.15	126	3.78
358.15	111	3.33
368.15	98.2	2.946

System: cyclopentane + 4-(2-methoxyethyl)-4-methylmorpholinium bis(trifluoromethylsulfonyl)imide; phases: Liquid, Gas
Fixed: Mole fraction of cyclopentane = 0
Property: Activity coefficient of cyclopentane (Liquid); method: Chromatography
Temperature, K	Activity coefficient of cyclopentane	uncertainty
318.15	12.2	.366
328.15	11.2	.336
338.15	10.4	.312
348.15	9.68	.2904
358.15	9.1	.273
368.15	8.54	.2562

System: cyclohexane + 4-(2-methoxyethyl)-4-methylmorpholinium bis(trifluoromethylsulfonyl)imide; phases: Liquid, Gas
Fixed: Mole fraction of cyclohexane = 0
Property: Activity coefficient of cyclohexane (Liquid); method: Chromatography
Temperature, K	Activity coefficient of cyclohexane	uncertainty
318.15	18.8	.564
328.15	17	.51
338.15	15.6	.468
348.15	14.4	.432
358.15	13.3	.399
368.15	12.3	.369

System: cyclohexane, methyl- + 4-(2-methoxyethyl)-4-methylmorpholinium bis(trifluoromethylsulfonyl)imide; phases: Liquid, Gas
Fixed: Mole fraction of cyclohexane, methyl- = 0
Property: Activity coefficient of cyclohexane, methyl- (Liquid); method: Chromatography
Temperature, K	Activity coefficient of cyclohexane, methyl-	uncertainty
318.15	27.6	.828
328.15	24.8	.744
338.15	22.8	.684
348.15	20.9	.627
358.15	19.2	.576
368.15	17.7	.531

System: cycloheptane + 4-(2-methoxyethyl)-4-methylmorpholinium bis(trifluoromethylsulfonyl)imide; phases: Liquid, Gas
Fixed: Mole fraction of cycloheptane = 0
Property: Activity coefficient of cycloheptane (Liquid); method: Chromatography
Temperature, K	Activity coefficient of cycloheptane	uncertainty
318.15	26.2	.786
328.15	23.6	.708
338.15	21.5	.645
348.15	19.7	.591
358.15	18.1	.543
368.15	16.6	.498

System: cyclooctane + 4-(2-methoxyethyl)-4-methylmorpholinium bis(trifluoromethylsulfonyl)imide; phases: Liquid, Gas
Fixed: Mole fraction of cyclooctane = 0
Property: Activity coefficient of cyclooctane (Liquid); method: Chromatography
Temperature, K	Activity coefficient of cyclooctane	uncertainty
318.15	36.6	1.098
328.15	32.6	.978
338.15	29.6	.888
348.15	26.7	.801
358.15	24.2	.726
368.15	22.1	.663

System: 1-pentene + 4-(2-methoxyethyl)-4-methylmorpholinium bis(trifluoromethylsulfonyl)imide; phases: Liquid, Gas
Fixed: Mole fraction of 1-pentene = 0
Property: Activity coefficient of 1-pentene (Liquid); method: Chromatography
Temperature, K	Activity coefficient of 1-pentene	uncertainty
318.15	11	.33
328.15	10.3	.309
338.15	9.79	.2937
348.15	9.25	.2775
358.15	8.83	.2649
368.15	8.35	.2505

System: 1-hexene + 4-(2-methoxyethyl)-4-methylmorpholinium bis(trifluoromethylsulfonyl)imide; phases: Liquid, Gas
Fixed: Mole fraction of 1-hexene = 0
Property: Activity coefficient of 1-hexene (Liquid); method: Chromatography
Temperature, K	Activity coefficient of 1-hexene	uncertainty
318.15	16.5	.495
328.15	15.3	.459
338.15	14.3	.429
348.15	13.6	.408
358.15	12.9	.387
368.15	12.1	.363

System: cyclohexene + 4-(2-methoxyethyl)-4-methylmorpholinium bis(trifluoromethylsulfonyl)imide; phases: Liquid, Gas
Fixed: Mole fraction of cyclohexene = 0
Property: Activity coefficient of cyclohexene (Liquid); method: Chromatography
Temperature, K	Activity coefficient of cyclohexene	uncertainty
318.15	9.14	.2742
328.15	8.62	.2586
338.15	8.21	.2463
348.15	7.84	.2352
358.15	7.45	.2235
368.15	7.08	.2124

System: 1-heptene + 4-(2-methoxyethyl)-4-methylmorpholinium bis(trifluoromethylsulfonyl)imide; phases: Liquid, Gas
Fixed: Mole fraction of 1-heptene = 0
Property: Activity coefficient of 1-heptene (Liquid); method: Chromatography
Temperature, K	Activity coefficient of 1-heptene	uncertainty
318.15	24.9	.747
328.15	23	.69
338.15	21.7	.651
348.15	20.3	.609
358.15	19	.57
368.15	18.1	.543

System: 1-octene + 4-(2-methoxyethyl)-4-methylmorpholinium bis(trifluoromethylsulfonyl)imide; phases: Liquid, Gas
Fixed: Mole fraction of 1-octene = 0
Property: Activity coefficient of 1-octene (Liquid); method: Chromatography
Temperature, K	Activity coefficient of 1-octene	uncertainty
318.15	38.6	1.158
328.15	34.9	1.047
338.15	32.5	.975
348.15	30.1	.903
358.15	27.5	.825
368.15	25.9	.777

System: 1-decene + 4-(2-methoxyethyl)-4-methylmorpholinium bis(trifluoromethylsulfonyl)imide; phases: Liquid, Gas
Fixed: Mole fraction of 1-decene = 0
Property: Activity coefficient of 1-decene (Liquid); method: Chromatography
Temperature, K	Activity coefficient of 1-decene	uncertainty
318.15	87.8	2.634
328.15	78.8	2.364
338.15	72.1	2.163
348.15	65.7	1.971
358.15	59.4	1.782
368.15	54.9	1.647

System: 1-hexyne + 4-(2-methoxyethyl)-4-methylmorpholinium bis(trifluoromethylsulfonyl)imide; phases: Liquid, Gas
Fixed: Mole fraction of 1-hexyne = 0
Property: Activity coefficient of 1-hexyne (Liquid); method: Chromatography
Temperature, K	Activity coefficient of 1-hexyne	uncertainty
318.15	4.88	.1464
328.15	4.8	.144
338.15	4.75	.1425
348.15	4.7	.141
358.15	4.65	.1395
368.15	4.61	.1383

System: 1-heptyne + 4-(2-methoxyethyl)-4-methylmorpholinium bis(trifluoromethylsulfonyl)imide; phases: Liquid, Gas
Fixed: Mole fraction of 1-heptyne = 0
Property: Activity coefficient of 1-heptyne (Liquid); method: Chromatography
Temperature, K	Activity coefficient of 1-heptyne	uncertainty
318.15	7.44	.2232
328.15	7.24	.2172
338.15	7.09	.2127
348.15	6.94	.2082
358.15	6.79	.2037
368.15	6.65	.1995

System: 1-octyne + 4-(2-methoxyethyl)-4-methylmorpholinium bis(trifluoromethylsulfonyl)imide; phases: Liquid, Gas
Fixed: Mole fraction of 1-octyne = 0
Property: Activity coefficient of 1-octyne (Liquid); method: Chromatography
Temperature, K	Activity coefficient of 1-octyne	uncertainty
318.15	11.4	.342
328.15	11	.33
338.15	10.6	.318
348.15	10.3	.309
358.15	9.93	.2979
368.15	9.67	.2901

System: benzene + 4-(2-methoxyethyl)-4-methylmorpholinium bis(trifluoromethylsulfonyl)imide; phases: Liquid, Gas
Fixed: Mole fraction of benzene = 0
Property: Activity coefficient of benzene (Liquid); method: Chromatography
Temperature, K	Activity coefficient of benzene	uncertainty
318.15	1.33	.0399
328.15	1.32	.0396
338.15	1.32	.0396
348.15	1.32	.0396
358.15	1.31	.0393
368.15	1.31	.0393

System: toluene + 4-(2-methoxyethyl)-4-methylmorpholinium bis(trifluoromethylsulfonyl)imide; phases: Liquid, Gas
Fixed: Mole fraction of toluene = 0
Property: Activity coefficient of toluene (Liquid); method: Chromatography
Temperature, K	Activity coefficient of toluene	uncertainty
318.15	2.01	.0603
328.15	2.01	.0603
338.15	2	.06
348.15	1.99	.0597
358.15	1.98	.0594
368.15	1.97	.0591

System: ethylbenzene + 4-(2-methoxyethyl)-4-methylmorpholinium bis(trifluoromethylsulfonyl)imide; phases: Liquid, Gas
Fixed: Mole fraction of ethylbenzene = 0
Property: Activity coefficient of ethylbenzene (Liquid); method: Chromatography
Temperature, K	Activity coefficient of ethylbenzene	uncertainty
318.15	3.27	.0981
328.15	3.21	.0963
338.15	3.16	.0948
348.15	3.1	.093
358.15	3.04	.0912
368.15	2.99	.0897

System: 1,2-dimethylbenzene + 4-(2-methoxyethyl)-4-methylmorpholinium bis(trifluoromethylsulfonyl)imide; phases: Liquid, Gas
Fixed: Mole fraction of 1,2-dimethylbenzene = 0
Property: Activity coefficient of 1,2-dimethylbenzene (Liquid); method: Chromatography
Temperature, K	Activity coefficient of 1,2-dimethylbenzene	uncertainty
318.15	2.75	.0825
328.15	2.71	.0813
338.15	2.68	.0804
348.15	2.65	.0795
358.15	2.61	.0783
368.15	2.58	.0774

System: 1,3-xylene + 4-(2-methoxyethyl)-4-methylmorpholinium bis(trifluoromethylsulfonyl)imide; phases: Liquid, Gas
Fixed: Mole fraction of 1,3-xylene = 0
Property: Activity coefficient of 1,3-xylene (Liquid); method: Chromatography
Temperature, K	Activity coefficient of 1,3-xylene	uncertainty
318.15	3.05	.0915
328.15	3.02	.0906
338.15	2.99	.0897
348.15	2.97	.0891
358.15	2.94	.0882
368.15	2.92	.0876

System: 1,4-xylene + 4-(2-methoxyethyl)-4-methylmorpholinium bis(trifluoromethylsulfonyl)imide; phases: Liquid, Gas
Fixed: Mole fraction of 1,4-xylene = 0
Property: Activity coefficient of 1,4-xylene (Liquid); method: Chromatography
Temperature, K	Activity coefficient of 1,4-xylene	uncertainty
318.15	3.09	.0927
328.15	3.06	.0918
338.15	3.03	.0909
348.15	3	.09
358.15	2.98	.0894
368.15	2.96	.0888

System: styrene + 4-(2-methoxyethyl)-4-methylmorpholinium bis(trifluoromethylsulfonyl)imide; phases: Liquid, Gas
Fixed: Mole fraction of styrene = 0
Property: Activity coefficient of styrene (Liquid); method: Chromatography
Temperature, K	Activity coefficient of styrene	uncertainty
318.15	1.77	.0531
328.15	1.77	.0531
338.15	1.76	.0528
348.15	1.76	.0528
358.15	1.76	.0528
368.15	1.76	.0528

System: (1-methylethenyl)benzene + 4-(2-methoxyethyl)-4-methylmorpholinium bis(trifluoromethylsulfonyl)imide; phases: Liquid, Gas
Fixed: Mole fraction of (1-methylethenyl)benzene = 0
Property: Activity coefficient of (1-methylethenyl)benzene (Liquid); method: Chromatography
Temperature, K	Activity coefficient of (1-methylethenyl)benzene	uncertainty
328.15	2.74	.0822
338.15	2.76	.0828
348.15	2.78	.0834
358.15	2.79	.0837
368.15	2.81	.0843

System: thiophene + 4-(2-methoxyethyl)-4-methylmorpholinium bis(trifluoromethylsulfonyl)imide; phases: Liquid, Gas
Fixed: Mole fraction of thiophene = 0
Property: Activity coefficient of thiophene (Liquid); method: Chromatography
Temperature, K	Activity coefficient of thiophene	uncertainty
318.15	1.09	.0327
328.15	1.08	.0324
338.15	1.08	.0324
348.15	1.08	.0324
358.15	1.08	.0324
368.15	1.08	.0324

System: pyridine + 4-(2-methoxyethyl)-4-methylmorpholinium bis(trifluoromethylsulfonyl)imide; phases: Liquid, Gas
Fixed: Mole fraction of pyridine = 0
Property: Activity coefficient of pyridine (Liquid); method: Chromatography
Temperature, K	Activity coefficient of pyridine	uncertainty
318.15	.64	.0192
328.15	.644	.01932
338.15	.648	.01944
348.15	.651	.01953
358.15	.654	.01962
368.15	.658	.01974

System: methanol + 4-(2-methoxyethyl)-4-methylmorpholinium bis(trifluoromethylsulfonyl)imide; phases: Liquid, Gas
Fixed: Mole fraction of methanol = 0
Property: Activity coefficient of methanol (Liquid); method: Chromatography
Temperature, K	Activity coefficient of methanol	uncertainty
318.15	1.28	.0384
328.15	1.18	.0354
338.15	1.1	.033
348.15	1.02	.0306
358.15	.95	.0285
368.15	.897	.02691

System: ethanol + 4-(2-methoxyethyl)-4-methylmorpholinium bis(trifluoromethylsulfonyl)imide; phases: Liquid, Gas
Fixed: Mole fraction of ethanol = 0
Property: Activity coefficient of ethanol (Liquid); method: Chromatography
Temperature, K	Activity coefficient of ethanol	uncertainty
318.15	1.77	.0531
328.15	1.61	.0483
338.15	1.49	.0447
348.15	1.36	.0408
358.15	1.26	.0378
368.15	1.17	.0351

System: propyl alcohol + 4-(2-methoxyethyl)-4-methylmorpholinium bis(trifluoromethylsulfonyl)imide; phases: Liquid, Gas
Fixed: Mole fraction of propyl alcohol = 0
Property: Activity coefficient of propyl alcohol (Liquid); method: Chromatography
Temperature, K	Activity coefficient of propyl alcohol	uncertainty
318.15	2.39	.0717
328.15	2.14	.0642
338.15	1.96	.0588
348.15	1.79	.0537
358.15	1.63	.0489
368.15	1.52	.0456

System: 2-propanol + 4-(2-methoxyethyl)-4-methylmorpholinium bis(trifluoromethylsulfonyl)imide; phases: Liquid, Gas
Fixed: Mole fraction of 2-propanol = 0
Property: Activity coefficient of 2-propanol (Liquid); method: Chromatography
Temperature, K	Activity coefficient of 2-propanol	uncertainty
318.15	2.17	.0651
328.15	1.95	.0585
338.15	1.79	.0537
348.15	1.63	.0489
358.15	1.5	.045
368.15	1.4	.042

System: n-butyl alcohol + 4-(2-methoxyethyl)-4-methylmorpholinium bis(trifluoromethylsulfonyl)imide; phases: Liquid, Gas
Fixed: Mole fraction of n-butyl alcohol = 0
Property: Activity coefficient of n-butyl alcohol (Liquid); method: Chromatography
Temperature, K	Activity coefficient of n-butyl alcohol	uncertainty
318.15	3.31	.0993
328.15	2.94	.0882
338.15	2.66	.0798
348.15	2.4	.072
358.15	2.18	.0654
368.15	2.02	.0606

System: butan-2-ol + 4-(2-methoxyethyl)-4-methylmorpholinium bis(trifluoromethylsulfonyl)imide; phases: Liquid, Gas
Fixed: Mole fraction of butan-2-ol = 0
Property: Activity coefficient of butan-2-ol (Liquid); method: Chromatography
Temperature, K	Activity coefficient of butan-2-ol	uncertainty
318.15	2.76	.0828
328.15	2.47	.0741
338.15	2.26	.0678
348.15	2.06	.0618
358.15	1.9	.057
368.15	1.78	.0534

System: 2-methyl-1-propanol + 4-(2-methoxyethyl)-4-methylmorpholinium bis(trifluoromethylsulfonyl)imide; phases: Liquid, Gas
Fixed: Mole fraction of 2-methyl-1-propanol = 0
Property: Activity coefficient of 2-methyl-1-propanol (Liquid); method: Chromatography
Temperature, K	Activity coefficient of 2-methyl-1-propanol	uncertainty
318.15	3.19	.0957
328.15	2.81	.0843
338.15	2.51	.0753
348.15	2.25	.0675
358.15	2.04	.0612
368.15	1.89	.0567

System: 2-methyl-2-propanol + 4-(2-methoxyethyl)-4-methylmorpholinium bis(trifluoromethylsulfonyl)imide; phases: Liquid, Gas
Fixed: Mole fraction of 2-methyl-2-propanol = 0
Property: Activity coefficient of 2-methyl-2-propanol (Liquid); method: Chromatography
Temperature, K	Activity coefficient of 2-methyl-2-propanol	uncertainty
318.15	2.22	.0666
328.15	2.03	.0609
338.15	1.88	.0564
348.15	1.75	.0525
358.15	1.62	.0486
368.15	1.52	.0456

System: water + 4-(2-methoxyethyl)-4-methylmorpholinium bis(trifluoromethylsulfonyl)imide; phases: Liquid, Gas
Fixed: Mole fraction of water = 0
Property: Activity coefficient of water (Liquid); method: Chromatography
Temperature, K	Activity coefficient of water	uncertainty
318.15	2.49	.0747
328.15	2.17	.0651
338.15	1.94	.0582
348.15	1.73	.0519
358.15	1.55	.0465
368.15	1.41	.0423

System: ethanoic acid + 4-(2-methoxyethyl)-4-methylmorpholinium bis(trifluoromethylsulfonyl)imide; phases: Liquid, Gas
Fixed: Mole fraction of ethanoic acid = 0
Property: Activity coefficient of ethanoic acid (Liquid); method: Chromatography
Temperature, K	Activity coefficient of ethanoic acid	uncertainty
328.15	.451	.01353
338.15	.456	.01368
348.15	.459	.01377
358.15	.465	.01395
368.15	.468	.01404

System: methyl ethanoate + 4-(2-methoxyethyl)-4-methylmorpholinium bis(trifluoromethylsulfonyl)imide; phases: Liquid, Gas
Fixed: Mole fraction of methyl ethanoate = 0
Property: Activity coefficient of methyl ethanoate (Liquid); method: Chromatography
Temperature, K	Activity coefficient of methyl ethanoate	uncertainty
318.15	.684	.02052
328.15	.7	.021
338.15	.714	.02142
348.15	.729	.02187
358.15	.74	.0222
368.15	.754	.02262

System: propionic acid, methyl ester + 4-(2-methoxyethyl)-4-methylmorpholinium bis(trifluoromethylsulfonyl)imide; phases: Liquid, Gas
Fixed: Mole fraction of propionic acid, methyl ester = 0
Property: Activity coefficient of propionic acid, methyl ester (Liquid); method: Chromatography
Temperature, K	Activity coefficient of propionic acid, methyl ester	uncertainty
318.15	.949	.02847
328.15	.966	.02898
338.15	.982	.02946
348.15	.998	.02994
358.15	1.01	.0303
368.15	1.03	.0309

System: butyric acid, methyl ester + 4-(2-methoxyethyl)-4-methylmorpholinium bis(trifluoromethylsulfonyl)imide; phases: Liquid, Gas
Fixed: Mole fraction of butyric acid, methyl ester = 0
Property: Activity coefficient of butyric acid, methyl ester (Liquid); method: Chromatography
Temperature, K	Activity coefficient of butyric acid, methyl ester	uncertainty
318.15	1.42	.0426
328.15	1.44	.0432
338.15	1.45	.0435
348.15	1.45	.0435
358.15	1.46	.0438
368.15	1.48	.0444

System: ethyl ethanoate + 4-(2-methoxyethyl)-4-methylmorpholinium bis(trifluoromethylsulfonyl)imide; phases: Liquid, Gas
Fixed: Mole fraction of ethyl ethanoate = 0
Property: Activity coefficient of ethyl ethanoate (Liquid); method: Chromatography
Temperature, K	Activity coefficient of ethyl ethanoate	uncertainty
318.15	.984	.02952
328.15	1	.03
338.15	1.02	.0306
348.15	1.03	.0309
358.15	1.04	.0312
368.15	1.06	.0318

System: oxacyclopentane + 4-(2-methoxyethyl)-4-methylmorpholinium bis(trifluoromethylsulfonyl)imide; phases: Liquid, Gas
Fixed: Mole fraction of oxacyclopentane = 0
Property: Activity coefficient of oxacyclopentane (Liquid); method: Chromatography
Temperature, K	Activity coefficient of oxacyclopentane	uncertainty
318.15	.858	.02574
328.15	.867	.02601
338.15	.873	.02619
348.15	.882	.02646
358.15	.888	.02664
368.15	.895	.02685

System: 1,4-dioxane + 4-(2-methoxyethyl)-4-methylmorpholinium bis(trifluoromethylsulfonyl)imide; phases: Liquid, Gas
Fixed: Mole fraction of 1,4-dioxane = 0
Property: Activity coefficient of 1,4-dioxane (Liquid); method: Chromatography
Temperature, K	Activity coefficient of 1,4-dioxane	uncertainty
318.15	.57	.0171
328.15	.596	.01788
338.15	.615	.01845
348.15	.638	.01914
358.15	.653	.01959
368.15	.674	.02022

System: methyl tert-butyl ether + 4-(2-methoxyethyl)-4-methylmorpholinium bis(trifluoromethylsulfonyl)imide; phases: Liquid, Gas
Fixed: Mole fraction of methyl tert-butyl ether = 0
Property: Activity coefficient of methyl tert-butyl ether (Liquid); method: Chromatography
Temperature, K	Activity coefficient of methyl tert-butyl ether	uncertainty
318.15	3.53	.1059
328.15	3.55	.1065
338.15	3.57	.1071
348.15	3.58	.1074
358.15	3.59	.1077
368.15	3.6	.108

System: ethyl tert-butyl ether + 4-(2-methoxyethyl)-4-methylmorpholinium bis(trifluoromethylsulfonyl)imide; phases: Liquid, Gas
Fixed: Mole fraction of ethyl tert-butyl ether = 0
Property: Activity coefficient of ethyl tert-butyl ether (Liquid); method: Chromatography
Temperature, K	Activity coefficient of ethyl tert-butyl ether	uncertainty
318.15	9.5	.285
328.15	9.21	.2763
338.15	8.97	.2691
348.15	8.75	.2625
358.15	8.49	.2547
368.15	8.3	.249

System: tert-amyl methyl ether + 4-(2-methoxyethyl)-4-methylmorpholinium bis(trifluoromethylsulfonyl)imide; phases: Liquid, Gas
Fixed: Mole fraction of tert-amyl methyl ether = 0
Property: Activity coefficient of tert-amyl methyl ether (Liquid); method: Chromatography
Temperature, K	Activity coefficient of tert-amyl methyl ether	uncertainty
318.15	5.55	.1665
328.15	5.5	.165
338.15	5.43	.1629
348.15	5.37	.1611
358.15	5.32	.1596
368.15	5.28	.1584

System: ethyl ether + 4-(2-methoxyethyl)-4-methylmorpholinium bis(trifluoromethylsulfonyl)imide; phases: Liquid, Gas
Fixed: Mole fraction of ethyl ether = 0
Property: Activity coefficient of ethyl ether (Liquid); method: Chromatography
Temperature, K	Activity coefficient of ethyl ether	uncertainty
318.15	3.49	.1047
328.15	3.46	.1038
338.15	3.44	.1032
348.15	3.41	.1023
358.15	3.39	.1017
368.15	3.37	.1011

System: ether, dipropyl + 4-(2-methoxyethyl)-4-methylmorpholinium bis(trifluoromethylsulfonyl)imide; phases: Liquid, Gas
Fixed: Mole fraction of ether, dipropyl = 0
Property: Activity coefficient of ether, dipropyl (Liquid); method: Chromatography
Temperature, K	Activity coefficient of ether, dipropyl	uncertainty
318.15	10.7	.321
328.15	10.3	.309
338.15	9.92	.2976
348.15	9.56	.2868
358.15	9.2	.276
368.15	8.97	.2691

System: isopropyl ether + 4-(2-methoxyethyl)-4-methylmorpholinium bis(trifluoromethylsulfonyl)imide; phases: Liquid, Gas
Fixed: Mole fraction of isopropyl ether = 0
Property: Activity coefficient of isopropyl ether (Liquid); method: Chromatography
Temperature, K	Activity coefficient of isopropyl ether	uncertainty
318.15	10.1	.303
328.15	9.8	.294
338.15	9.55	.2865
348.15	9.26	.2778
358.15	8.98	.2694
368.15	8.75	.2625

System: dibutyl ether + 4-(2-methoxyethyl)-4-methylmorpholinium bis(trifluoromethylsulfonyl)imide; phases: Liquid, Gas
Fixed: Mole fraction of dibutyl ether = 0
Property: Activity coefficient of dibutyl ether (Liquid); method: Chromatography
Temperature, K	Activity coefficient of dibutyl ether	uncertainty
318.15	26.8	.804
328.15	24.9	.747
338.15	23.3	.699
348.15	21.8	.654
358.15	20.4	.612
368.15	19.2	.576

System: acetone + 4-(2-methoxyethyl)-4-methylmorpholinium bis(trifluoromethylsulfonyl)imide; phases: Liquid, Gas
Fixed: Mole fraction of acetone = 0
Property: Activity coefficient of acetone (Liquid); method: Chromatography
Temperature, K	Activity coefficient of acetone	uncertainty
318.15	.43	.0129
328.15	.442	.01326
338.15	.451	.01353
348.15	.461	.01383
358.15	.47	.0141
368.15	.48	.0144

System: methyl n-propyl ketone + 4-(2-methoxyethyl)-4-methylmorpholinium bis(trifluoromethylsulfonyl)imide; phases: Liquid, Gas
Fixed: Mole fraction of methyl n-propyl ketone = 0
Property: Activity coefficient of methyl n-propyl ketone (Liquid); method: Chromatography
Temperature, K	Activity coefficient of methyl n-propyl ketone	uncertainty
318.15	.88	.0264
328.15	.89	.0267
338.15	.9	.027
348.15	.91	.0273
358.15	.918	.02754
368.15	.925	.02775

System: 3-pentanone + 4-(2-methoxyethyl)-4-methylmorpholinium bis(trifluoromethylsulfonyl)imide; phases: Liquid, Gas
Fixed: Mole fraction of 3-pentanone = 0
Property: Activity coefficient of 3-pentanone (Liquid); method: Chromatography
Temperature, K	Activity coefficient of 3-pentanone	uncertainty
318.15	.895	.02685
328.15	.912	.02736
338.15	.927	.02781
348.15	.941	.02823
358.15	.952	.02856
368.15	.967	.02901

System: butanal + 4-(2-methoxyethyl)-4-methylmorpholinium bis(trifluoromethylsulfonyl)imide; phases: Liquid, Gas
Fixed: Mole fraction of butanal = 0
Property: Activity coefficient of butanal (Liquid); method: Chromatography
Temperature, K	Activity coefficient of butanal	uncertainty
318.15	.871	.02613
328.15	.884	.02652
338.15	.891	.02673
348.15	.902	.02706
358.15	.909	.02727
368.15	.918	.02754

System: ethanonitrile + 4-(2-methoxyethyl)-4-methylmorpholinium bis(trifluoromethylsulfonyl)imide; phases: Liquid, Gas
Fixed: Mole fraction of ethanonitrile = 0
Property: Activity coefficient of ethanonitrile (Liquid); method: Chromatography
Temperature, K	Activity coefficient of ethanonitrile	uncertainty
318.15	.423	.01269
328.15	.426	.01278
338.15	.428	.01284
348.15	.431	.01293
358.15	.433	.01299
368.15	.436	.01308

System: 1-nitropropane + 4-(2-methoxyethyl)-4-methylmorpholinium bis(trifluoromethylsulfonyl)imide; phases: Liquid, Gas
Fixed: Mole fraction of 1-nitropropane = 0
Property: Activity coefficient of 1-nitropropane (Liquid); method: Chromatography
Temperature, K	Activity coefficient of 1-nitropropane	uncertainty
328.15	.791	.02373
338.15	.787	.02361
348.15	.783	.02349
358.15	.78	.0234
368.15	.778	.02334

System: pentane + 4-(2-methoxyethyl)-4-methylmorpholinium bis(trifluoromethylsulfonyl)imide; phases: Liquid, Gas
Fixed: Mole fraction of pentane = 0
Property: Activity coefficient of pentane (Liquid); method: Chromatography
Temperature, K	Activity coefficient of pentane	uncertainty
318.15	25	.75
328.15	22.5	.675
338.15	20.6	.618
348.15	19	.57
358.15	17.4	.522
368.15	16.3	.489
