Measured thermophysical data. Partial molar volumes of organic solutes in water. XXIII. Cyclic ketones  at T = (298 to 573) K and pressures up to 30 MPa
Source: J. Chem. Thermodyn., 2011, 10.1016/j.jct.2011.02.010
Compound 1: cyclopentanone, C5H8O, purity 99%
Compound 2: cyclohexanone, C6H10O, purity 99.8%
Compound 3: cycloheptanone, C7H12O, purity 99%
Compound 4: 1,4-cyclohexanedione, C6H8O2, purity 98%
Compound 5: water, H2O, purity 99.9%

System: cyclopentanone + water; phases: Liquid
Fixed: Mole fraction of cyclopentanone = 0
Property: Partial molar volume, m3/mol of cyclopentanone (Liquid); method: Derived analytically
Temperature, K	Pressure, kPa	Partial molar volume, m3/mol of cyclopentanone	uncertainty
398.17	1980	.00009698	.00000008
423.18	1980	.00010117	.00000008
448.15	1990	.00010599	.00000009
473.16	1970	.0001119	.00000011
498.15	2940	.00011892	.0000001
523.15	5110	.00012742	.00000017
548.27	7180	.00013898	.00000019
573.16	9970	.00015548	.00000025
298.17	15050	.00008482	.00000006
318.14	15040	.00008651	.00000008
338.18	15050	.00008848	.00000006
358.14	15040	.0000907	.00000007
373.17	15030	.00009254	.00000008
398.17	15050	.00009592	.00000008
423.18	15040	.00009974	.00000008
448.15	15050	.00010418	.00000009
473.16	15020	.00010932	.00000009
498.16	15040	.00011558	.00000015
523.16	15080	.0001232	.00000016
548.25	15170	.00013357	.00000021
573.17	15160	.00014885	.00000023
298.17	30020	.00008469	.00000006
318.14	30020	.00008615	.00000008
338.18	30060	.00008792	.00000007
358.14	30030	.00009	.00000007
373.16	30030	.00009167	.00000008
398.17	30020	.0000948	.00000008
423.18	30020	.00009827	.00000008
448.15	30030	.00010225	.00000009
473.17	30050	.00010686	.00000009
498.14	30000	.00011221	.00000011
523.17	30200	.00011847	.00000016
548.24	30350	.0001261	.00000018
573.16	30120	.00013635	.0000002

System: cyclohexanone + water; phases: Liquid
Fixed: Mole fraction of cyclohexanone = 0
Property: Partial molar volume, m3/mol of cyclohexanone (Liquid); method: Derived analytically
Temperature, K	Pressure, kPa	Partial molar volume, m3/mol of cyclohexanone	uncertainty
398.17	1970	.00011366	.00000009
423.18	1970	.00011845	.00000009
448.15	1980	.00012394	.0000001
473.17	1980	.00013052	.00000011
498.15	2940	.00013835	.00000012
523.14	5120	.00014774	.00000015
548.18	7160	.00016052	.00000024
573.18	10100	.00017848	.00000038
298.17	15040	.00009936	.00000005
318.14	15050	.00010147	.00000008
338.18	15060	.00010379	.00000009
358.14	15040	.0001064	.00000009
373.17	15040	.00010854	.00000009
398.17	15040	.00011243	.00000009
423.17	15040	.00011679	.00000009
448.15	15050	.00012179	.0000001
473.16	15050	.00012757	.00000011
498.15	15060	.00013454	.00000012
523.16	15030	.00014292	.0000002
548.18	15040	.00015455	.00000023
573.17	15190	.00017125	.00000026
298.17	30020	.00009914	.00000005
318.14	30030	.00010103	.00000009
338.18	30050	.00010317	.00000009
358.14	30040	.00010558	.00000009
373.17	30040	.00010749	.00000009
398.17	30030	.0001111	.00000009
423.18	30040	.00011508	.00000009
448.15	29980	.00011957	.0000001
473.17	29990	.00012474	.00000013
498.14	30040	.00013062	.00000012
523.16	30150	.00013748	.00000019
548.25	30400	.00014607	.00000021
573.17	30160	.00015726	.00000024

System: cycloheptanone + water; phases: Liquid
Fixed: Mole fraction of cycloheptanone = 0
Property: Partial molar volume, m3/mol of cycloheptanone (Liquid); method: Derived analytically
Temperature, K	Pressure, kPa	Partial molar volume, m3/mol of cycloheptanone	uncertainty
398.17	1970	.00012957	.00000012
423.18	1970	.00013493	.00000013
448.15	1980	.00014106	.00000014
473.17	1980	.00014858	.00000016
498.15	2940	.00015719	.00000018
523.14	5110	.00016776	.00000021
548.18	7150	.00018212	.00000034
573.18	10090	.00020194	.00000039
298.17	15040	.00011387	.00000007
318.14	15060	.00011606	.00000011
338.18	15060	.00011858	.00000011
358.14	15040	.00012149	.00000012
373.17	15040	.00012387	.00000012
398.17	15040	.00012821	.00000012
423.17	15040	.00013311	.00000013
448.15	15050	.00013878	.00000011
473.16	15050	.00014528	.00000017
498.15	15060	.0001528	.00000017
523.16	15030	.00016241	.00000029
548.18	15030	.00017544	.00000032
573.17	15190	.00019369	.00000039
298.17	30020	.00011372	.00000013
318.14	30030	.00011568	.00000014
338.18	30050	.00011796	.00000012
358.14	30030	.00012059	.00000014
373.17	30040	.00012269	.00000012
398.17	30030	.00012675	.00000012
423.18	30040	.00013117	.00000012
448.15	29980	.00013624	.00000014
473.17	29990	.00014215	.00000019
498.14	30040	.00014862	.00000016
523.16	30160	.00015636	.00000028
548.25	30410	.00016594	.00000032
573.17	30150	.00017798	.00000035

System: 1,4-cyclohexanedione + water; phases: Liquid
Fixed: Mole fraction of 1,4-cyclohexanedione = 0
Property: Partial molar volume, m3/mol of 1,4-cyclohexanedione (Liquid); method: Derived analytically
Temperature, K	Pressure, kPa	Partial molar volume, m3/mol of 1,4-cyclohexanedione	uncertainty
398.17	1980	.00010566	.00000019
423.18	1980	.00010903	.0000002
448.15	1990	.00011266	.00000022
473.16	1970	.00011667	.0000002
498.15	2940	.00012157	.00000021
523.15	5120	.00012708	.00000024
548.26	7170	.00013367	.00000038
573.16	9970	.00014115	.00000047
298.17	15050	.00009224	.00000014
318.14	15050	.00009519	.00000025
338.18	15050	.00009772	.00000022
358.14	15040	.00010013	.00000022
373.17	15030	.0001019	.00000019
398.17	15050	.00010483	.00000019
423.18	15040	.00010795	.00000019
448.15	15050	.00011117	.00000019
473.16	15020	.00011496	.0000002
498.16	15050	.0001195	.0000003
523.16	15070	.00012448	.00000034
548.25	15200	.00013068	.00000038
573.17	15170	.00013802	.00000041
298.17	30010	.0000922	.00000014
318.14	30020	.00009482	.00000027
338.18	30080	.00009724	.00000022
358.14	30020	.00009958	.00000023
373.17	30030	.0001012	.00000018
398.17	30020	.00010401	.00000019
423.18	30020	.00010697	.00000019
448.15	30030	.00010983	.00000018
473.16	30050	.00011335	.0000002
498.14	30000	.00011732	.00000021
523.17	30200	.00012169	.00000032
548.24	30340	.00012647	.00000037
573.16	30110	.00013195	.00000041
