Measured thermophysical data. Combined effects of salinity and temperature on the solubility of organic compounds
Source: J. Chem. Thermodyn., 2012, 10.1016/j.jct.2011.11.020
Compound 1: 2,3-dithiabutane, C2H6S2, purity 99.98%
Compound 2: sodium chloride, ClNa, purity 99.5%
Compound 3: water, H2O, purity 99.8%
Compound 4: propenoic acid, 2-methyl- methyl ester, C5H8O2, purity 99%
Compound 5: 1-butanol, C4H10O, purity 99.5%
Compound 6: butanone, C4H8O, purity 99%

System: 2,3-dithiabutane + sodium chloride + water; phases: Liquid mixture 1, Liquid mixture 2
Fixed: Pressure, kPa = 101
Property: Molality, mol/kg of 2,3-dithiabutane (Liquid mixture 1); method: Chromatography
Temperature, K	Solvent: Molality, mol/kg of sodium chloride	Molality, mol/kg of 2,3-dithiabutane	uncertainty
283.15	0	.02282	.00019
288.15	0	.02331	.0002
293.15	0	.02374	.0002
298.15	0	.02416	.0002
283.15	.1711	.02003	.00017
288.15	.1711	.02059	.00017
293.15	.1711	.02097	.00018
298.15	.1711	.02136	.00018
283.15	.3422	.01774	.00015
288.15	.3422	.01808	.00015
293.15	.3422	.01859	.00016
298.15	.3422	.01908	.00016
283.15	.5818	.01507	.00013
288.15	.5818	.0155	.00013
293.15	.5818	.01591	.00014
298.15	.5818	.01633	.00014

System: propenoic acid, 2-methyl- methyl ester + sodium chloride + water; phases: Liquid mixture 1, Liquid mixture 2
Fixed: Pressure, kPa = 101
Property: Molality, mol/kg of propenoic acid, 2-methyl- methyl ester (Liquid mixture 1); method: Cloud point titration
Temperature, K	Solvent: Molality, mol/kg of sodium chloride	Molality, mol/kg of propenoic acid, 2-methyl- methyl ester	uncertainty
283.15	0	.115	.002
288.15	0	.126	.002
293.15	0	.128	.002
298.15	0	.124	.002
283.15	.1711	.1	.001
288.15	.1711	.115	.002
293.15	.1711	.118	.0015
298.15	.1711	.118	.002
283.15	.3422	.092	.001
288.15	.3422	.103	.003
293.15	.3422	.107	.001
298.15	.3422	.111	.002
283.15	.5818	.081	.002
288.15	.5818	.093	.001
293.15	.5818	.098	.0015
298.15	.5818	.103	.002

System: 1-butanol + sodium chloride + water; phases: Liquid mixture 1, Liquid mixture 2
Fixed: Pressure, kPa = 101
Property: Molality, mol/kg of 1-butanol (Liquid mixture 1); method: Chromatography
Temperature, K	Solvent: Molality, mol/kg of sodium chloride	Molality, mol/kg of 1-butanol	uncertainty
283.15	0	1.1148	.0038
288.15	0	1.0975	.0032
293.15	0	1.0418	.0031
298.15	0	1.0089	.003
303.15	0	.9475	.0028
283.15	.1711	1.0971	.0032
288.15	.1711	1.0255	.0031
293.15	.1711	.9792	.003
298.15	.1711	.962	.0028
303.15	.1711	.9099	.0027
283.15	.3422	1.0255	.0031
288.15	.3422	.9861	.003
293.15	.3422	.9737	.003
298.15	.3422	.9093	.0027
303.15	.3422	.9004	.0027
283.15	.5818	.9802	.003
288.15	.5818	.9196	.003
293.15	.5818	.9106	.0028
298.15	.5818	.8852	.0027
303.15	.5818	.815	.0024

System: butanone + sodium chloride + water; phases: Liquid mixture 1, Liquid mixture 2
Fixed: Pressure, kPa = 101
Property: Molality, mol/kg of butanone (Liquid mixture 1); method: Chromatography
Temperature, K	Solvent: Molality, mol/kg of sodium chloride	Molality, mol/kg of butanone	uncertainty
283.15	0	4.811	.4811
288.15	0	4.354	.4354
293.15	0	3.785	.3785
298.15	0	3.12	.312
303.15	0	2.385	.2385
283.15	.1711	4.659	.4659
288.15	.1711	3.813	.3813
293.15	.1711	3.425	.3425
298.15	.1711	2.759	.2759
303.15	.1711	2.177	.2177
283.15	.3422	3.979	.3979
288.15	.3422	3.633	.3633
293.15	.3422	3.037	.3037
298.15	.3422	2.51	.251
303.15	.3422	2.08	.208
283.15	.5818	3.55	.355
288.15	.5818	3.12	.312
293.15	.5818	2.731	.2731
298.15	.5818	2.163	.2163
303.15	.5818	1.65	.165

System: 2,3-dithiabutane + water; phases: Liquid mixture 1, Liquid mixture 2
Fixed: Pressure, kPa = 101
Property: Molality, mol/kg of 2,3-dithiabutane (Liquid mixture 1); method: Chromatography
Temperature, K	Molality, mol/kg of 2,3-dithiabutane	uncertainty
283.15	.02282	.00019
288.15	.02331	.0002
293.15	.02374	.0002
298.15	.02416	.0002

System: 2,3-dithiabutane + water; phases: Liquid mixture 2, Liquid mixture 1
Fixed: Pressure, kPa = 101
Property: Molality, mol/kg of water (Liquid mixture 2); method: Karl-Fischer titration
Temperature, K	Molality, mol/kg of water	uncertainty
283.15	.078	.006
288.15	.083	.006
293.15	.123	.006
298.15	.133	.006

System: propenoic acid, 2-methyl- methyl ester + water; phases: Liquid mixture 1, Liquid mixture 2
Fixed: Pressure, kPa = 101
Property: Molality, mol/kg of propenoic acid, 2-methyl- methyl ester (Liquid mixture 1); method: Cloud point titration
Temperature, K	Molality, mol/kg of propenoic acid, 2-methyl- methyl ester	uncertainty
283.15	.115	.002
288.15	.126	.002
293.15	.128	.002
298.15	.124	.002

System: propenoic acid, 2-methyl- methyl ester + water; phases: Liquid mixture 2, Liquid mixture 1
Fixed: Pressure, kPa = 101
Property: Molality, mol/kg of water (Liquid mixture 2); method: Karl-Fischer titration
Temperature, K	Molality, mol/kg of water	uncertainty
293.15	.689	.006
298.15	.728	.006

System: 1-butanol + water; phases: Liquid mixture 1, Liquid mixture 2
Fixed: Pressure, kPa = 101
Property: Molality, mol/kg of 1-butanol (Liquid mixture 1); method: Chromatography
Temperature, K	Molality, mol/kg of 1-butanol	uncertainty
283.15	1.1148	.0038
288.15	1.0975	.0032
293.15	1.0418	.0031
298.15	1.0089	.003
303.15	.9475	.0028

System: 1-butanol + water; phases: Liquid mixture 2, Liquid mixture 1
Fixed: Pressure, kPa = 101
Property: Molality, mol/kg of water (Liquid mixture 2); method: Karl-Fischer titration
Temperature, K	Molality, mol/kg of water	uncertainty
293.15	11.555	.006
298.15	10.478	.006

System: butanone + water; phases: Liquid mixture 1, Liquid mixture 2
Fixed: Pressure, kPa = 101
Property: Molality, mol/kg of butanone (Liquid mixture 1); method: Chromatography
Temperature, K	Molality, mol/kg of butanone	uncertainty
283.15	4.811	.4811
288.15	4.354	.4354
293.15	3.785	.3785
298.15	3.12	.312
303.15	2.385	.2385

System: butanone + water; phases: Liquid mixture 2, Liquid mixture 1
Fixed: Pressure, kPa = 101
Property: Molality, mol/kg of water (Liquid mixture 2); method: Karl-Fischer titration
Temperature, K	Molality, mol/kg of water	uncertainty
293.15	7.06	.03
298.15	6.83	.03
