Measured thermophysical data. The high temperature heat capacity of NpO2
Source: J. Chem. Thermodyn., 2011, 10.1016/j.jct.2010.11.010
Compound 1: Neptunium Oxide, NpO2, purity 99.5%

System: Neptunium Oxide; phases: Crystal
Fixed: Pressure, kPa = 101.325
Property: Molar enthalpy, kJ/mol (Crystal); method: Drop calorimetry
Temperature, K	Molar enthalpy, kJ/mol	uncertainty
375.9	5.616	.2808
427.4	9.406	.4703
478.8	12.888	.6444
529.9	17.13	.8565
580.8	20.148	1.0074
631.4	24.705	1.23525
681.7	29.621	1.48105
732.7	32.406	1.6203
782.2	37.186	1.8593
833	40.195	2.00975
882.3	46.33	2.3165
933.2	48.336	2.4168
982.8	52.563	2.62815
1033.6	58.403	2.92015
1083.5	63.711	3.18555
1134.5	67.926	3.3963
1184.2	72.19	3.6095
1234.4	78.019	3.90095
1284.3	79.734	3.9867
1335.3	83.527	4.17635
1385.3	88.949	4.44745
1436.2	93.132	4.6566
1485.8	99.897	4.99485
1536.9	102.6	5.13
1586.8	107.695	5.38475
1637.7	114.299	5.71495
1688.1	118.824	5.9412
1739.3	124.997	6.24985
1769.7	128.852	6.4426

System: Neptunium Oxide; phases: Crystal
Fixed: Pressure, kPa = 101.325
Property: Molar heat capacity at constant pressure, J/K/mol (Crystal); method: Drop calorimetry
Temperature, K	Molar heat capacity at constant pressure, J/K/mol	uncertainty
298.15	66.2	.662
300	66.35	.6635
400	72.32	.7232
500	75.93	.7593
600	78.61	.7861
700	80.86	.8086
800	82.88	.8288
900	84.76	.8476
1000	86.55	.8655
1100	88.29	.8829
1200	90	.9
1300	91.67	.9167
1400	93.33	.9333
1500	95.98	.9598
1600	97.61	.9761
1700	98.23	.9823
1800	99.85	.9985

System: Neptunium Oxide; phases: Crystal
Fixed: Pressure, kPa = 101.325
Property: Molar enthalpy, kJ/mol (Crystal); method: Drop calorimetry
Temperature, K	Molar enthalpy, kJ/mol	uncertainty
298.15	0	0
300	.123	.00123
400	7.087	.07087
500	14.511	.14511
600	22.243	.22243
700	30.219	.30219
800	38.408	.38408
900	46.79	.4679
1000	55.356	.55356
1100	64.099	.64099
1200	73.014	.73014
1300	82.097	.82097
1400	91.348	.91348
1500	100.763	1.00763
1600	110.343	1.10343
1700	120.085	1.20085
1800	129.989	1.29989

System: Neptunium Oxide; phases: Crystal
Fixed: Pressure, kPa = 101.325
Property: Molar entropy, J/K/mol (Crystal); method: Drop calorimetry
Temperature, K	Molar entropy, J/K/mol	uncertainty
298.1	80.3	.803
300	80.71	.8071
400	100.71	1.0071
500	117.26	1.1726
600	131.35	1.3135
700	143.64	1.4364
800	154.57	1.5457
900	164.44	1.6444
1000	173.46	1.7346
1100	181.79	1.8179
1200	189.55	1.8955
1300	196.82	1.9682
1400	203.67	2.0367
1500	210.17	2.1017
1600	216.35	2.1635
1700	222.26	2.2226
1800	227.92	2.2792
