Measured thermophysical data. Study of molecular interactions in the mixtures of some primary alcohols with equimolar mixture of 1-propanol and alkylbenzoates at T = 303.15 K
Source: J. Chem. Thermodyn., 2014, 10.1016/j.jct.2013.09.005
Compound 1: 1-propanol, C3H8O, purity 99%
Compound 2: 1-butanol, C4H10O, purity 99%
Compound 3: 1-pentanol, C5H12O, purity 99%
Compound 4: methyl benzoate, C8H8O2, purity 99%
Compound 5: ethyl benzoate, C9H10O2, purity 99%

System: 1-propanol; phases: Liquid
Fixed: Pressure, kPa = 101.325
Property: Mass density, kg/m3 (Liquid); method: Pycnometric method
Temperature, K	Mass density, kg/m3	uncertainty
303.15	798	2

System: 1-propanol; phases: Liquid
Fixed: Pressure, kPa = 101.325
Property: Viscosity, Pa*s (Liquid); method: Capillary tube (Ostwald; Ubbelohde) method
Temperature, K	Viscosity, Pa*s	uncertainty
303.15	.00161	.0000805

System: 1-propanol; phases: Liquid
Fixed: Pressure, kPa = 101.325
Property: Speed of sound, m/s (Liquid); method: Linear variable-path acoustic interferometer
Temperature, K	Speed of sound, m/s	uncertainty
303.15	1189.2	.5

System: 1-butanol; phases: Liquid
Fixed: Pressure, kPa = 101.325
Property: Mass density, kg/m3 (Liquid); method: Pycnometric method
Temperature, K	Mass density, kg/m3	uncertainty
303.15	804	2

System: 1-butanol; phases: Liquid
Fixed: Pressure, kPa = 101.325
Property: Viscosity, Pa*s (Liquid); method: Capillary tube (Ostwald; Ubbelohde) method
Temperature, K	Viscosity, Pa*s	uncertainty
303.15	.002054	.0001027

System: 1-butanol; phases: Liquid
Fixed: Pressure, kPa = 101.325
Property: Speed of sound, m/s (Liquid); method: Linear variable-path acoustic interferometer
Temperature, K	Speed of sound, m/s	uncertainty
303.15	1228.4	.5

System: 1-pentanol; phases: Liquid
Fixed: Pressure, kPa = 101.325
Property: Mass density, kg/m3 (Liquid); method: Pycnometric method
Temperature, K	Mass density, kg/m3	uncertainty
303.15	810	2

System: 1-pentanol; phases: Liquid
Fixed: Pressure, kPa = 101.325
Property: Viscosity, Pa*s (Liquid); method: Capillary tube (Ostwald; Ubbelohde) method
Temperature, K	Viscosity, Pa*s	uncertainty
303.15	.003012	.0001506

System: 1-pentanol; phases: Liquid
Fixed: Pressure, kPa = 101.325
Property: Speed of sound, m/s (Liquid); method: Linear variable-path acoustic interferometer
Temperature, K	Speed of sound, m/s	uncertainty
303.15	1252.4	.5

System: methyl benzoate; phases: Liquid
Fixed: Pressure, kPa = 101.325
Property: Mass density, kg/m3 (Liquid); method: Pycnometric method
Temperature, K	Mass density, kg/m3	uncertainty
303.15	1077	2

System: methyl benzoate; phases: Liquid
Fixed: Pressure, kPa = 101.325
Property: Viscosity, Pa*s (Liquid); method: Capillary tube (Ostwald; Ubbelohde) method
Temperature, K	Viscosity, Pa*s	uncertainty
303.15	.00167	.0000835

System: methyl benzoate; phases: Liquid
Fixed: Pressure, kPa = 101.325
Property: Speed of sound, m/s (Liquid); method: Linear variable-path acoustic interferometer
Temperature, K	Speed of sound, m/s	uncertainty
303.15	1399.4	.5

System: ethyl benzoate; phases: Liquid
Fixed: Pressure, kPa = 101.325
Property: Mass density, kg/m3 (Liquid); method: Pycnometric method
Temperature, K	Mass density, kg/m3	uncertainty
303.15	1042	2

System: ethyl benzoate; phases: Liquid
Fixed: Pressure, kPa = 101.325
Property: Viscosity, Pa*s (Liquid); method: Capillary tube (Ostwald; Ubbelohde) method
Temperature, K	Viscosity, Pa*s	uncertainty
303.15	.001749	.00008745

System: ethyl benzoate; phases: Liquid
Fixed: Pressure, kPa = 101.325
Property: Speed of sound, m/s (Liquid); method: Linear variable-path acoustic interferometer
Temperature, K	Speed of sound, m/s	uncertainty
303.15	1345.4	.5

System: 1-propanol + 1-butanol + methyl benzoate; phases: Liquid
Fixed: Pressure, kPa = 101
Fixed: Temperature, K = 303.15
Property: Mass density, kg/m3 (Liquid); method: Pycnometric method
Mole fraction of methyl benzoate	Mole fraction of 1-propanol	Mass density, kg/m3	uncertainty
0	0	804	2
.0449	.0449	817.1	2
.0908	.0908	830.2	2
.1378	.1378	843.3	2
.1859	.1859	856.6	2
.2351	.2351	870	2
.2855	.2855	884.5	2
.3372	.3372	899.3	2
.3901	.3901	914.2	2
.4444	.4444	929.3	2
.5	.5	944.5	2

System: 1-propanol + 1-butanol + methyl benzoate; phases: Liquid
Fixed: Pressure, kPa = 101
Fixed: Temperature, K = 303.15
Fixed: Frequency, MHz = 2
Property: Speed of sound, m/s (Liquid); method: Linear variable-path acoustic interferometer
Mole fraction of methyl benzoate	Mole fraction of 1-propanol	Speed of sound, m/s	uncertainty
0	0	1228.4	.5
.0449	.0449	1234.9	.5
.0908	.0908	1241.2	.5
.1378	.1378	1248	.5
.1859	.1859	1254.5	.5
.2351	.2351	1261	.5
.2855	.2855	1268.3	.5
.3372	.3372	1275.5	.5
.3901	.3901	1283	.5
.4444	.4444	1289.4	.5
.5	.5	1296.6	.5

System: 1-propanol + 1-butanol + methyl benzoate; phases: Liquid
Fixed: Pressure, kPa = 101
Fixed: Temperature, K = 303.15
Property: Viscosity, Pa*s (Liquid); method: Capillary tube (Ostwald; Ubbelohde) method
Mole fraction of methyl benzoate	Mole fraction of 1-propanol	Viscosity, Pa*s	uncertainty
0	0	.002054	.0001027
.0449	.0449	.0020147	.000100735
.0908	.0908	.0019752	.00009876
.1378	.1378	.0019345	.000096725
.1859	.1859	.0018935	.000094675
.2351	.2351	.0018525	.000092625
.2855	.2855	.0018118	.00009059
.3372	.3372	.0017674	.00008837
.3901	.3901	.0017231	.000086155
.4444	.4444	.0016769	.000083845
.5	.5	.0016339	.000081695

System: 1-propanol + 1-pentanol + methyl benzoate; phases: Liquid
Fixed: Pressure, kPa = 101
Fixed: Temperature, K = 303.15
Property: Mass density, kg/m3 (Liquid); method: Pycnometric method
Mole fraction of methyl benzoate	Mole fraction of 1-propanol	Mass density, kg/m3	uncertainty
0	0	810	2
.0522	.0522	822.2	2
.1038	.1038	834.3	2
.1549	.1549	846.6	2
.2056	.2056	859.3	2
.2558	.2558	872.2	2
.3056	.3056	886.2	2
.3549	.3549	900.4	2
.4037	.4037	914.8	2
.4521	.4521	929.5	2
.5	.5	944.5	2

System: 1-propanol + 1-pentanol + methyl benzoate; phases: Liquid
Fixed: Pressure, kPa = 101
Fixed: Temperature, K = 303.15
Fixed: Frequency, MHz = 2
Property: Speed of sound, m/s (Liquid); method: Linear variable-path acoustic interferometer
Mole fraction of methyl benzoate	Mole fraction of 1-propanol	Speed of sound, m/s	uncertainty
0	0	1252.4	.5
.0522	.0522	1257.2	.5
.1038	.1038	1261.7	.5
.1549	.1549	1266.4	.5
.2056	.2056	1270.9	.5
.2558	.2558	1275.3	.5
.3056	.3056	1279.8	.5
.3549	.3549	1284.1	.5
.4037	.4037	1288.3	.5
.4521	.4521	1292.6	.5
.5	.5	1296.6	.5

System: 1-propanol + 1-pentanol + methyl benzoate; phases: Liquid
Fixed: Pressure, kPa = 101
Fixed: Temperature, K = 303.15
Property: Viscosity, Pa*s (Liquid); method: Capillary tube (Ostwald; Ubbelohde) method
Mole fraction of methyl benzoate	Mole fraction of 1-propanol	Viscosity, Pa*s	uncertainty
0	0	.003012	.0001506
.0522	.0522	.0028742	.00014371
.1038	.1038	.0027364	.00013682
.1549	.1549	.0025879	.000129395
.2056	.2056	.0024507	.000122535
.2558	.2558	.0023127	.000115635
.3056	.3056	.0021807	.000109035
.3549	.3549	.0020365	.000101825
.4037	.4037	.0019046	.00009523
.4521	.4521	.0017726	.00008863
.5	.5	.0016339	.000081695

System: 1-propanol + 1-butanol + ethyl benzoate; phases: Liquid
Fixed: Pressure, kPa = 101
Fixed: Temperature, K = 303.15
Property: Mass density, kg/m3 (Liquid); method: Pycnometric method
Mole fraction of ethyl benzoate	Mole fraction of 1-propanol	Mass density, kg/m3	uncertainty
0	0	804	2
.0411	.0411	814.8	2
.0838	.0838	825.4	2
.1283	.1283	836.1	2
.1747	.1747	846.9	2
.2231	.2231	857.8	2
.2736	.2736	869.1	2
.3264	.3264	880.9	2
.3816	.3816	893.2	2
.4394	.4394	905.9	2
.5	.5	918.5	2

System: 1-propanol + 1-butanol + ethyl benzoate; phases: Liquid
Fixed: Pressure, kPa = 101
Fixed: Temperature, K = 303.15
Fixed: Frequency, MHz = 2
Property: Speed of sound, m/s (Liquid); method: Linear variable-path acoustic interferometer
Mole fraction of ethyl benzoate	Mole fraction of 1-propanol	Speed of sound, m/s	uncertainty
0	0	1228.4	.5
.0411	.0411	1231.4	.5
.0838	.0838	1234.5	.5
.1283	.1283	1237.4	.5
.1747	.1747	1240.6	.5
.2231	.2231	1243.7	.5
.2736	.2736	1247.1	.5
.3264	.3264	1250.4	.5
.3816	.3816	1253.8	.5
.4394	.4394	1257.6	.5
.5	.5	1261.4	.5

System: 1-propanol + 1-butanol + ethyl benzoate; phases: Liquid
Fixed: Pressure, kPa = 101
Fixed: Temperature, K = 303.15
Property: Viscosity, Pa*s (Liquid); method: Capillary tube (Ostwald; Ubbelohde) method
Mole fraction of ethyl benzoate	Mole fraction of 1-propanol	Viscosity, Pa*s	uncertainty
0	0	.002054	.0001027
.0411	.0411	.0020206	.00010103
.0838	.0838	.001989	.00009945
.1283	.1283	.0019555	.000097775
.1747	.1747	.001922	.0000961
.2231	.2231	.0018839	.000094195
.2736	.2736	.0018489	.000092445
.3264	.3264	.0018076	.00009038
.3816	.3816	.0017646	.00008823
.4394	.4394	.0017218	.00008609
.5	.5	.0016788	.00008394

System: 1-propanol + 1-pentanol + ethyl benzoate; phases: Liquid
Fixed: Pressure, kPa = 101
Fixed: Temperature, K = 303.15
Property: Mass density, kg/m3 (Liquid); method: Pycnometric method
Mole fraction of ethyl benzoate	Mole fraction of 1-propanol	Mass density, kg/m3	uncertainty
0	0	810	2
.0478	.0478	819.5	2
.096	.096	829.4	2
.1448	.1448	839.2	2
.194	.194	849.4	2
.2437	.2437	859.9	2
.2939	.2939	871.2	2
.3447	.3447	882.6	2
.3959	.3959	894.3	2
.4477	.4477	906.2	2
.5	.5	918.5	2

System: 1-propanol + 1-pentanol + ethyl benzoate; phases: Liquid
Fixed: Pressure, kPa = 101
Fixed: Temperature, K = 303.15
Fixed: Frequency, MHz = 2
Property: Speed of sound, m/s (Liquid); method: Linear variable-path acoustic interferometer
Mole fraction of ethyl benzoate	Mole fraction of 1-propanol	Speed of sound, m/s	uncertainty
0	0	1252.4	.5
.0478	.0478	1253.4	.5
.096	.096	1254.2	.5
.1448	.1448	1255.1	.5
.194	.194	1256	.5
.2437	.2437	1256.9	.5
.2939	.2939	1257.8	.5
.3447	.3447	1258.7	.5
.3959	.3959	1259.6	.5
.4477	.4477	1260.6	.5
.5	.5	1261.4	.5

System: 1-propanol + 1-pentanol + ethyl benzoate; phases: Liquid
Fixed: Pressure, kPa = 101
Fixed: Temperature, K = 303.15
Property: Viscosity, Pa*s (Liquid); method: Capillary tube (Ostwald; Ubbelohde) method
Mole fraction of ethyl benzoate	Mole fraction of 1-propanol	Viscosity, Pa*s	uncertainty
0	0	.003012	.0001506
.0478	.0478	.0028772	.00014386
.096	.096	.0027566	.00013783
.1448	.1448	.0026185	.000130925
.194	.194	.0024857	.000124285
.2437	.2437	.002359	.00011795
.2939	.2939	.002227	.00011135
.3447	.3447	.0020829	.000104145
.3959	.3959	.00195	.0000975
.4477	.4477	.001812	.0000906
.5	.5	.0016788	.00008394

System: 1-propanol + methyl benzoate; phases: Liquid
Property: Mass density, kg/m3 (Liquid); method: Pycnometric method
Mole fraction of methyl benzoate	Pressure, kPa	Temperature, K	Mass density, kg/m3	uncertainty
.5	101	303.15	944.5	2

System: 1-propanol + methyl benzoate; phases: Liquid
Fixed: Frequency, MHz = 2
Property: Speed of sound, m/s (Liquid); method: Linear variable-path acoustic interferometer
Mole fraction of methyl benzoate	Pressure, kPa	Temperature, K	Speed of sound, m/s	uncertainty
.5	101	303.15	1296.6	.5

System: 1-propanol + methyl benzoate; phases: Liquid
Property: Viscosity, Pa*s (Liquid); method: Capillary tube (Ostwald; Ubbelohde) method
Mole fraction of methyl benzoate	Pressure, kPa	Temperature, K	Viscosity, Pa*s	uncertainty
.5	101	303.15	.0016339	.000081695

System: 1-propanol + ethyl benzoate; phases: Liquid
Property: Mass density, kg/m3 (Liquid); method: Pycnometric method
Mole fraction of ethyl benzoate	Pressure, kPa	Temperature, K	Mass density, kg/m3	uncertainty
.5	101	303.15	918.5	2

System: 1-propanol + ethyl benzoate; phases: Liquid
Fixed: Frequency, MHz = 2
Property: Speed of sound, m/s (Liquid); method: Linear variable-path acoustic interferometer
Mole fraction of ethyl benzoate	Pressure, kPa	Temperature, K	Speed of sound, m/s	uncertainty
.5	101	303.15	1261.4	.5

System: 1-propanol + ethyl benzoate; phases: Liquid
Property: Viscosity, Pa*s (Liquid); method: Capillary tube (Ostwald; Ubbelohde) method
Mole fraction of ethyl benzoate	Pressure, kPa	Temperature, K	Viscosity, Pa*s	uncertainty
.5	101	303.15	.0016788	.00008394
