Measured thermophysical data. Influence of water concentration in the viscosities and densities of cellulose dissolving ionic liquids. Correlation of viscosity data
Source: J. Chem. Thermodyn., 2015, 10.1016/j.jct.2015.07.015
Compound 1: 1-ethyl-3-methylimidazolium acetate, C8H14N2O2, purity 95%
Compound 2: 1-allyl-3-methylimidazolium chloride, C7H11ClN2, purity 98%
Compound 3: water, H2O, purity 99.8%

System: water + 1-ethyl-3-methylimidazolium acetate; phases: Liquid
Fixed: Pressure, kPa = 101
Property: Viscosity, Pa*s (Liquid); method: Concentric cylinders viscometry
Temperature, K	Mole fraction of water	Viscosity, Pa*s	uncertainty
298.15	.072	.124	.00124
303.15	.072	.092	.00092
313.15	.072	.0554	.000554
323.15	.072	.0354	.000354
333.15	.072	.0243	.000243
343.15	.072	.01763	.0001763
353.15	.072	.01321	.0001321
363.15	.072	.01028	.0001028
373.15	.072	.00819	.0000819
298.15	.102	.119	.00119
303.15	.102	.089	.00089
313.15	.102	.0536	.000536
323.15	.102	.0345	.000345
333.15	.102	.0238	.000238
343.15	.102	.01723	.0001723
353.15	.102	.01296	.0001296
363.15	.102	.01009	.0001009
373.15	.102	.00807	.0000807
298.15	.132	.112	.00112
303.15	.132	.084	.00084
313.15	.132	.0511	.000511
323.15	.132	.0331	.000331
333.15	.132	.0229	.000229
343.15	.132	.01673	.0001673
353.15	.132	.01258	.0001258
363.15	.132	.00982	.0000982
373.15	.132	.00786	.0000786
298.15	.188	.1	.001
303.15	.188	.076	.00076
313.15	.188	.0467	.000467
323.15	.188	.0306	.000306
333.15	.188	.0214	.000214
343.15	.188	.01569	.0001569
353.15	.188	.01189	.0001189
363.15	.188	.00932	.0000932
373.15	.188	.00748	.0000748
298.15	.266	.085	.00085
303.15	.266	.066	.00066
313.15	.266	.0418	.000418
323.15	.266	.0277	.000277
333.15	.266	.0195	.000195
343.15	.266	.01444	.0001444
353.15	.266	.011	.00011
363.15	.266	.00867	.0000867
373.15	.266	.00698	.0000698
298.15	.355	.075	.00075
303.15	.355	.058	.00058
313.15	.355	.0369	.000369
323.15	.355	.0248	.000248
333.15	.355	.0177	.000177
343.15	.355	.01319	.0001319
353.15	.355	.01011	.0001011
363.15	.355	.008	.00008
373.15	.355	.00647	.0000647

System: water + 1-ethyl-3-methylimidazolium acetate; phases: Liquid
Fixed: Pressure, kPa = 101
Property: Mass density, kg/m3 (Liquid); method: Vibrating tube method
Temperature, K	Mole fraction of water	Mass density, kg/m3	uncertainty
298.15	.072	1098.3	1
303.15	.072	1095.3	1
313.15	.072	1089.2	1
323.15	.072	1083.2	1
333.15	.072	1077.2	1
343.15	.072	1071.2	1
353.15	.072	1065.4	1
363.15	.072	1059.5	1
373.15	.072	1053.8	1
298.15	.102	1098.3	1
303.15	.102	1095.3	1
313.15	.102	1089.2	1
323.15	.102	1083.2	1
333.15	.102	1077.2	1
343.15	.102	1071.3	1
353.15	.102	1065.4	1
363.15	.102	1059.6	1
373.15	.102	1053.9	1
298.15	.132	1098.8	1
303.15	.132	1095.8	1
313.15	.132	1089.7	1
323.15	.132	1083.7	1
333.15	.132	1077.7	1
343.15	.132	1071.7	1
353.15	.132	1065.9	1
363.15	.132	1060	1
373.15	.132	1054.3	1
298.15	.188	1099.7	1
303.15	.188	1096.6	1
313.15	.188	1090.5	1
323.15	.188	1084.5	1
333.15	.188	1078.5	1
343.15	.188	1072.6	1
353.15	.188	1066.7	1
363.15	.188	1060.8	1
373.15	.188	1055.1	1
298.15	.266	1100.5	1
303.15	.266	1097.5	1
313.15	.266	1091.4	1
323.15	.266	1085.5	1
333.15	.266	1079.5	1
343.15	.266	1073.5	1
353.15	.266	1067.7	1
363.15	.266	1061.8	1
373.15	.266	1056	1
298.15	.355	1101.8	1
303.15	.355	1098.9	1
313.15	.355	1092.8	1
323.15	.355	1086.8	1
333.15	.355	1080.8	1
343.15	.355	1074.8	1
353.15	.355	1068.9	1
363.15	.355	1062.9	1
373.15	.355	1057.1	1

System: water + 1-allyl-3-methylimidazolium chloride; phases: Liquid
Fixed: Pressure, kPa = 101
Property: Viscosity, Pa*s (Liquid); method: Concentric cylinders viscometry
Temperature, K	Mole fraction of water	Viscosity, Pa*s	uncertainty
298.15	.045	1.884	.01884
303.15	.045	1.137	.01137
313.15	.045	.473	.00473
323.15	.045	.232	.00232
328.15	.045	.167	.00167
333.15	.045	.124	.00124
343.15	.045	.073	.00073
353.15	.045	.0462	.000462
363.15	.045	.0312	.000312
373.15	.045	.02221	.0002221
298.15	.091	1.416	.01416
303.15	.091	.891	.00891
313.15	.091	.392	.00392
323.15	.091	.196	.00196
328.15	.091	.144	.00144
333.15	.091	.108	.00108
343.15	.091	.0649	.000649
353.15	.091	.0418	.000418
363.15	.091	.0286	.000286
373.15	.091	.02053	.0002053
298.15	.126	1.09	.0109
303.15	.126	.691	.00691
313.15	.126	.312	.00312
323.15	.126	.164	.00164
328.15	.126	.123	.00123
333.15	.126	.092	.00092
343.15	.126	.0563	.000563
353.15	.126	.0369	.000369
363.15	.126	.0256	.000256
373.15	.126	.01858	.0001858
298.15	.152	.887	.00887
303.15	.152	.58	.0058
313.15	.152	.27	.0027
323.15	.152	.147	.00147
328.15	.152	.108	.00108
333.15	.152	.084	.00084
343.15	.152	.0517	.000517
353.15	.152	.0343	.000343
363.15	.152	.024	.00024
373.15	.152	.0176	.000176
298.15	.193	.697	.00697
303.15	.193	.459	.00459
313.15	.193	.221	.00221
323.15	.193	.121	.00121
328.15	.193	.091	.00091
333.15	.193	.071	.00071
343.15	.193	.045	.00045
353.15	.193	.0304	.000304
363.15	.193	.0216	.000216
373.15	.193	.01598	.0001598
298.15	.267	.427	.00427
303.15	.267	.293	.00293
313.15	.267	.151	.00151
323.15	.267	.086	.00086
328.15	.267	.0671	.000671
333.15	.267	.0531	.000531
343.15	.267	.035	.00035
353.15	.267	.0243	.000243
363.15	.267	.0177	.000177
373.15	.267	.01337	.0001337
298.15	.335	.2587	.002587
303.15	.335	.1842	.001842
313.15	.335	.101	.00101
323.15	.335	.061	.00061
328.15	.335	.0486	.000486
333.15	.335	.0393	.000393
343.15	.335	.0268	.000268
353.15	.335	.0192	.000192
363.15	.335	.01426	.0001426
373.15	.335	.01098	.0001098

System: water + 1-allyl-3-methylimidazolium chloride; phases: Liquid
Fixed: Pressure, kPa = 101
Property: Mass density, kg/m3 (Liquid); method: Vibrating tube method
Temperature, K	Mole fraction of water	Mass density, kg/m3	uncertainty
298.15	.045	1145.9	1
303.15	.045	1143	1
313.15	.045	1136.9	1
323.15	.045	1131	1
328.15	.045	1128.2	1
333.15	.045	1125.4	1
343.15	.045	1119.9	1
353.15	.045	1114.4	1
363.15	.045	1108.8	1
373.15	.045	1103.6	1
298.15	.091	1145.7	1
303.15	.091	1142.7	1
313.15	.091	1136.7	1
323.15	.091	1131	1
328.15	.091	1128.1	1
333.15	.091	1125.4	1
343.15	.091	1119.8	1
353.15	.091	1114.3	1
363.15	.091	1108.9	1
373.15	.091	1103.5	1
298.15	.126	1145.4	1
303.15	.126	1142.4	1
313.15	.126	1136.6	1
323.15	.126	1130.7	1
328.15	.126	1128.1	1
333.15	.126	1125.2	1
343.15	.126	1119.7	1
353.15	.126	1114.2	1
363.15	.126	1108.7	1
373.15	.126	1103.3	1
298.15	.152	1145.3	1
303.15	.152	1142.3	1
313.15	.152	1136.4	1
323.15	.152	1130.6	1
328.15	.152	1127.9	1
333.15	.152	1125	1
343.15	.152	1119.5	1
353.15	.152	1113.9	1
363.15	.152	1108.4	1
373.15	.152	1103	1
298.15	.193	1144.9	1
303.15	.193	1141.8	1
313.15	.193	1136	1
323.15	.193	1130.2	1
328.15	.193	1127.5	1
333.15	.193	1124.7	1
343.15	.193	1119.1	1
353.15	.193	1113.6	1
363.15	.193	1108	1
373.15	.193	1102.7	1
298.15	.267	1143.9	1
303.15	.267	1140.9	1
313.15	.267	1135.1	1
323.15	.267	1129.5	1
328.15	.267	1126.7	1
333.15	.267	1124	1
343.15	.267	1118.3	1
353.15	.267	1112.8	1
363.15	.267	1107.3	1
373.15	.267	1101.8	1
298.15	.335	1143	1
303.15	.335	1140.1	1
313.15	.335	1134.4	1
323.15	.335	1128.6	1
328.15	.335	1125.8	1
333.15	.335	1123	1
343.15	.335	1117.4	1
353.15	.335	1111.8	1
363.15	.335	1106.3	1
373.15	.335	1100.9	1
