Measured thermophysical data. Effect of tetrabutylammonium bromide on solution behavior of salicylaldehyde anil zinc (II) in methanol at T = (298.15, 308.15 and 318.15) K
Source: J. Chem. Thermodyn., 2013, 10.1016/j.jct.2013.07.010
Compound 1: methanol, CH4O, purity 99.8%
Compound 2: tetrabutylammonium bromide, C16H36BrN, purity 98%
Compound 3: diaquabis[2-[(phenylimino-.kappa.N)methyl]phenolato-.kappa.O]zinc, C26H24N2O4Zn

System: methanol; phases: Liquid
Property: Mass density, kg/m3 (Liquid); method: Vibrating tube method
Temperature, K	Pressure, kPa	Mass density, kg/m3	uncertainty
298.15	101	786.62	.5
308.15	101	777.18	.5
318.15	101	767.74	.5

System: methanol; phases: Liquid
Property: Viscosity, Pa*s (Liquid); method: Capillary tube (Ostwald; Ubbelohde) method
Temperature, K	Pressure, kPa	Viscosity, Pa*s	uncertainty
298.15	101	.0005451	.000005451
308.15	101	.000476	.00000476
318.15	101	.0004183	.000004183

System: methanol + tetrabutylammonium bromide; phases: Liquid
Fixed: Pressure, kPa = 101
Property: Mass density, kg/m3 (Liquid); method: Vibrating tube method
Amount concentration (molarity), mol/dm3 of tetrabutylammonium bromide	Temperature, K	Mass density, kg/m3	uncertainty
0	298.15	786.62	.5
0	308.15	777.18	.5
0	318.15	767.74	.5
.02	298.15	790.69	.5
.02	308.15	780.94	.5
.02	318.15	771.06	.5
.04	298.15	792.74	.5
.04	308.15	783.43	.5
.04	318.15	773.92	.5
.05	298.15	794.89	.5
.05	308.15	785.33	.5
.05	318.15	775.68	.5

System: methanol + tetrabutylammonium bromide; phases: Liquid
Fixed: Pressure, kPa = 101
Property: Viscosity, Pa*s (Liquid); method: Capillary tube (Ostwald; Ubbelohde) method
Amount concentration (molarity), mol/dm3 of tetrabutylammonium bromide	Temperature, K	Viscosity, Pa*s	uncertainty
0	298.15	.0005451	.000005451
0	308.15	.000476	.00000476
0	318.15	.0004183	.000004183
.02	298.15	.0005542	.000005542
.02	308.15	.0004951	.000004951
.02	318.15	.000439	.00000439
.04	298.15	.000581	.00000581
.04	308.15	.0005135	.000005135
.04	318.15	.0004469	.000004469
.05	298.15	.0005973	.000005973
.05	308.15	.0005274	.000005274
.05	318.15	.0004584	.000004584

System: methanol + tetrabutylammonium bromide + diaquabis[2-[(phenylimino-.kappa.N)methyl]phenolato-.kappa.O]zinc; phases: Liquid
Fixed: Pressure, kPa = 101
Property: Mass density, kg/m3 (Liquid); method: Vibrating tube method
Solvent: Amount concentration (molarity), mol/dm3 of tetrabutylammonium bromide	Temperature, K	Molality, mol/kg of diaquabis[2-[(phenylimino-.kappa.N)methyl]phenolato-.kappa.O]zinc	Mass density, kg/m3	uncertainty
0	298.15	.0025	787.31	.5
0	298.15	.0041	787.8	.5
0	298.15	.0051	788.13	.5
0	298.15	.0066	788.63	.5
0	298.15	.0081	789.14	.5
0	298.15	.0102	789.87	.5
0	308.15	.0025	777.87	.5
0	308.15	.0041	778.36	.5
0	308.15	.0051	778.69	.5
0	308.15	.0066	779.19	.5
0	308.15	.0081	779.7	.5
0	308.15	.0102	780.45	.5
0	318.15	.0025	768.43	.5
0	318.15	.0041	768.91	.5
0	318.15	.0051	769.23	.5
0	318.15	.0066	769.74	.5
0	318.15	.0081	770.25	.5
0	318.15	.0102	771	.5
.02	298.15	.0025	791.37	.5
.02	298.15	.004	791.83	.5
.02	298.15	.0051	792.18	.5
.02	298.15	.0066	792.67	.5
.02	298.15	.0081	793.17	.5
.02	298.15	.0101	793.86	.5
.02	308.15	.0025	781.62	.5
.02	308.15	.004	782.07	.5
.02	308.15	.0051	782.41	.5
.02	308.15	.0066	782.89	.5
.02	308.15	.0081	783.4	.5
.02	308.15	.0101	784.11	.5
.02	318.15	.0025	771.73	.5
.02	318.15	.004	772.18	.5
.02	318.15	.0051	772.52	.5
.02	318.15	.0066	773	.5
.02	318.15	.0081	773.49	.5
.02	318.15	.0101	774.19	.5
.04	298.15	.0025	793.42	.5
.04	298.15	.004	793.88	.5
.04	298.15	.005	794.2	.5
.04	298.15	.0066	794.72	.5
.04	298.15	.0081	795.23	.5
.04	298.15	.0101	795.92	.5
.04	308.15	.0025	784.11	.5
.04	308.15	.004	784.56	.5
.04	308.15	.005	784.88	.5
.04	308.15	.0066	785.39	.5
.04	308.15	.0081	785.91	.5
.04	308.15	.0101	786.61	.5
.04	318.15	.0025	774.59	.5
.04	318.15	.004	775.04	.5
.04	318.15	.005	775.36	.5
.04	318.15	.0066	775.87	.5
.04	318.15	.0081	776.37	.5
.04	318.15	.0101	777.06	.5
.05	298.15	.0025	795.57	.5
.05	298.15	.004	796.03	.5
.05	298.15	.005	796.35	.5
.05	298.15	.0065	796.84	.5
.05	298.15	.0081	797.38	.5
.05	298.15	.0101	798.08	.5
.05	308.15	.0025	786	.5
.05	308.15	.004	786.45	.5
.05	308.15	.005	786.77	.5
.05	308.15	.0065	787.26	.5
.05	308.15	.0081	787.78	.5
.05	308.15	.0101	788.47	.5
.05	318.15	.0025	776.35	.5
.05	318.15	.004	776.79	.5
.05	318.15	.005	777.1	.5
.05	318.15	.0065	777.57	.5
.05	318.15	.0081	778.13	.5
.05	318.15	.0101	778.81	.5

System: methanol + tetrabutylammonium bromide + diaquabis[2-[(phenylimino-.kappa.N)methyl]phenolato-.kappa.O]zinc; phases: Liquid
Fixed: Pressure, kPa = 101
Property: Viscosity, Pa*s (Liquid); method: Capillary tube (Ostwald; Ubbelohde) method
Solvent: Amount concentration (molarity), mol/dm3 of tetrabutylammonium bromide	Temperature, K	Molality, mol/kg of diaquabis[2-[(phenylimino-.kappa.N)methyl]phenolato-.kappa.O]zinc	Viscosity, Pa*s	uncertainty
0	298.15	.0025	.0005497	.000005497
0	298.15	.0041	.0005543	.000005543
0	298.15	.0051	.0005587	.000005587
0	298.15	.0066	.0005633	.000005633
0	298.15	.0081	.0005689	.000005689
0	298.15	.0102	.0005768	.000005768
0	308.15	.0025	.0004806	.000004806
0	308.15	.0041	.0004862	.000004862
0	308.15	.0051	.0004895	.000004895
0	308.15	.0066	.000494	.00000494
0	308.15	.0081	.0004996	.000004996
0	308.15	.0102	.0005063	.000005063
0	318.15	.0025	.000423	.00000423
0	318.15	.0041	.0004273	.000004273
0	318.15	.0051	.0004306	.000004306
0	318.15	.0066	.0004356	.000004356
0	318.15	.0081	.0004396	.000004396
0	318.15	.0102	.0004462	.000004462
.02	298.15	.0025	.0005589	.000005589
.02	298.15	.004	.0005634	.000005634
.02	298.15	.0051	.0005679	.000005679
.02	298.15	.0066	.0005735	.000005735
.02	298.15	.0081	.0005792	.000005792
.02	298.15	.0101	.0005881	.000005881
.02	308.15	.0025	.0004998	.000004998
.02	308.15	.004	.0005042	.000005042
.02	308.15	.0051	.0005088	.000005088
.02	308.15	.0066	.0005132	.000005132
.02	308.15	.0081	.0005187	.000005187
.02	308.15	.0101	.0005266	.000005266
.02	318.15	.0025	.0004435	.000004435
.02	318.15	.004	.000448	.00000448
.02	318.15	.0051	.0004523	.000004523
.02	318.15	.0066	.0004568	.000004568
.02	318.15	.0081	.0004613	.000004613
.02	318.15	.0101	.000469	.00000469
.04	298.15	.0025	.0005857	.000005857
.04	298.15	.004	.0005902	.000005902
.04	298.15	.005	.0005947	.000005947
.04	298.15	.0066	.0006004	.000006004
.04	298.15	.0081	.0006081	.000006081
.04	298.15	.0101	.0006171	.000006171
.04	308.15	.0025	.0005182	.000005182
.04	308.15	.004	.0005227	.000005227
.04	308.15	.005	.0005271	.000005271
.04	308.15	.0066	.0005327	.000005327
.04	308.15	.0081	.0005383	.000005383
.04	308.15	.0101	.0005482	.000005482
.04	318.15	.0025	.0004522	.000004522
.04	318.15	.004	.0004574	.000004574
.04	318.15	.005	.000461	.00000461
.04	318.15	.0066	.000466	.00000466
.04	318.15	.0081	.0004715	.000004715
.04	318.15	.0101	.0004787	.000004787
.05	298.15	.0025	.000601	.00000601
.05	298.15	.004	.0006066	.000006066
.05	298.15	.005	.0006111	.000006111
.05	298.15	.0065	.0006178	.000006178
.05	298.15	.0081	.0006246	.000006246
.05	298.15	.0101	.0006357	.000006357
.05	308.15	.0025	.000532	.00000532
.05	308.15	.004	.0005365	.000005365
.05	308.15	.005	.000542	.00000542
.05	308.15	.0065	.0005476	.000005476
.05	308.15	.0081	.0005553	.000005553
.05	308.15	.0101	.0005642	.000005642
.05	318.15	.0025	.000463	.00000463
.05	318.15	.004	.0004685	.000004685
.05	318.15	.005	.0004729	.000004729
.05	318.15	.0065	.0004784	.000004784
.05	318.15	.0081	.000485	.00000485
.05	318.15	.0101	.0004938	.000004938

System: methanol + diaquabis[2-[(phenylimino-.kappa.N)methyl]phenolato-.kappa.O]zinc; phases: Liquid
Property: Mass density, kg/m3 (Liquid); method: Vibrating tube method
Temperature, K	Molality, mol/kg of diaquabis[2-[(phenylimino-.kappa.N)methyl]phenolato-.kappa.O]zinc	Pressure, kPa	Mass density, kg/m3	uncertainty
298.15	.0025	101	787.31	.5
298.15	.0041	101	787.8	.5
298.15	.0051	101	788.13	.5
298.15	.0066	101	788.63	.5
298.15	.0081	101	789.14	.5
298.15	.0102	101	789.87	.5
308.15	.0025	101	777.87	.5
308.15	.0041	101	778.36	.5
308.15	.0051	101	778.69	.5
308.15	.0066	101	779.19	.5
308.15	.0081	101	779.7	.5
308.15	.0102	101	780.45	.5
318.15	.0025	101	768.43	.5
318.15	.0041	101	768.91	.5
318.15	.0051	101	769.23	.5
318.15	.0066	101	769.74	.5
318.15	.0081	101	770.25	.5
318.15	.0102	101	771	.5

System: methanol + diaquabis[2-[(phenylimino-.kappa.N)methyl]phenolato-.kappa.O]zinc; phases: Liquid
Property: Viscosity, Pa*s (Liquid); method: Capillary tube (Ostwald; Ubbelohde) method
Temperature, K	Molality, mol/kg of diaquabis[2-[(phenylimino-.kappa.N)methyl]phenolato-.kappa.O]zinc	Pressure, kPa	Viscosity, Pa*s	uncertainty
298.15	.0025	101	.0005497	.000005497
298.15	.0041	101	.0005543	.000005543
298.15	.0051	101	.0005587	.000005587
298.15	.0066	101	.0005633	.000005633
298.15	.0081	101	.0005689	.000005689
298.15	.0102	101	.0005768	.000005768
308.15	.0025	101	.0004806	.000004806
308.15	.0041	101	.0004862	.000004862
308.15	.0051	101	.0004895	.000004895
308.15	.0066	101	.000494	.00000494
308.15	.0081	101	.0004996	.000004996
308.15	.0102	101	.0005063	.000005063
318.15	.0025	101	.000423	.00000423
318.15	.0041	101	.0004273	.000004273
318.15	.0051	101	.0004306	.000004306
318.15	.0066	101	.0004356	.000004356
318.15	.0081	101	.0004396	.000004396
318.15	.0102	101	.0004462	.000004462
