Measured thermophysical data. Determination and modeling of the solubility of (limonin in methanol or acetone + water) binary solvent mixtures at T = 283.2 K to 318.2 K
Source: J. Chem. Thermodyn., 2016, 10.1016/j.jct.2016.03.037
Compound 1: limonin, C26H30O8
Compound 2: methanol, CH4O, purity 99.7%
Compound 3: acetone, C3H6O, purity 99.5%
Compound 4: water, H2O

System: methanol + limonin + water; phases: Liquid, Crystal
Fixed: Pressure, kPa = 101.1
Property: Mole fraction of limonin (Liquid); method: Chromatography
Solvent: Mole fraction of methanol	Temperature, K	Mole fraction of limonin	uncertainty
0	283.2	.000000117	
0	288.2	.000000237	
0	293.2	.000000477	
0	298.2	.000000597	
0	303.2	.00000083	
0	308.2	.000001045	
0	313.2	.00000117	
0	318.2	.00000149	
.1	283.2	.00000029	
.1	288.2	.000000442	
.1	293.2	.000000698	
.1	298.2	.000001005	
.1	303.2	.000001103	
.1	308.2	.000001461	
.1	313.2	.000001612	
.1	318.2	.00000199	
.3	283.2	.00000234	
.3	288.2	.00000303	
.3	293.2	.00000443	
.3	298.2	.00000562	
.3	303.2	.00000663	
.3	308.2	.00000789	
.3	313.2	.00000999	
.3	318.2	.00001237	
.5	283.2	.00001093	
.5	288.2	.00001407	
.5	293.2	.0000181	
.5	298.2	.0000217	
.5	303.2	.0000279	
.5	308.2	.0000348	
.5	313.2	.0000416	
.5	318.2	.0000544	
.7	283.2	.0000284	
.7	288.2	.0000356	
.7	293.2	.0000435	
.7	298.2	.0000501	
.7	303.2	.0000623	
.7	308.2	.0000769	
.7	313.2	.0000921	
.7	318.2	.0001149	
.9	283.2	.0000525	
.9	288.2	.0000604	
.9	293.2	.0000722	
.9	298.2	.0000817	
.9	303.2	.0000983	
.9	308.2	.0001173	
.9	313.2	.0001411	
.9	318.2	.000165	
1	283.2	.0000708	
1	288.2	.0000781	
1	293.2	.000092	
1	298.2	.0001011	
1	303.2	.0001195	
1	308.2	.0001374	
1	313.2	.000162	
1	318.2	.000192	

System: acetone + limonin + water; phases: Liquid, Crystal
Fixed: Pressure, kPa = 101.1
Property: Mole fraction of limonin (Liquid); method: Chromatography
Solvent: Mole fraction of acetone	Temperature, K	Mole fraction of limonin	uncertainty
.1	283.2	.00000293	
.1	288.2	.00000417	
.1	293.2	.00000564	
.1	298.2	.0000065	
.1	303.2	.00000888	
.1	308.2	.00001027	
.1	313.2	.00001271	
.1	318.2	.0000161	
.3	283.2	.000164	
.3	288.2	.000187	
.3	293.2	.000223	
.3	298.2	.000254	
.3	303.2	.000307	
.3	308.2	.000365	
.3	313.2	.000406	
.3	318.2	.000494	
.5	283.2	.000858	
.5	288.2	.001073	
.5	293.2	.001154	
.5	298.2	.001278	
.5	303.2	.001516	
.5	308.2	.001619	
.5	313.2	.00175	
.5	318.2	.00215	
.7	283.2	.00246	
.7	288.2	.0027	
.7	293.2	.00288	
.7	298.2	.0031	
.7	303.2	.00337	
.7	308.2	.00361	
.7	313.2	.00391	
.7	318.2	.00454	
.9	283.2	.00387	
.9	288.2	.00428	
.9	293.2	.00449	
.9	298.2	.00466	
.9	303.2	.00479	
.9	308.2	.00507	
.9	313.2	.00531	
.9	318.2	.00577	
1	283.2	.00409	
1	288.2	.00454	
1	293.2	.00465	
1	298.2	.00471	
1	303.2	.00474	
1	308.2	.00497	
1	313.2	.00516	
1	318.2	.0055	
0	283.2	.000000117	
0	288.2	.000000237	
0	293.2	.000000477	
0	298.2	.000000597	
0	303.2	.00000083	
0	308.2	.000001045	
0	313.2	.00000117	
0	318.2	.00000149	

System: limonin + water; phases: Liquid, Crystal
Property: Mole fraction of limonin (Liquid); method: Chromatography
Temperature, K	Pressure, kPa	Mole fraction of limonin	uncertainty
283.2	101.1	.000000117	
288.2	101.1	.000000237	
293.2	101.1	.000000477	
298.2	101.1	.000000597	
303.2	101.1	.00000083	
308.2	101.1	.000001045	
313.2	101.1	.00000117	
318.2	101.1	.00000149	

System: methanol + limonin; phases: Liquid, Crystal
Property: Mole fraction of limonin (Liquid); method: Chromatography
Temperature, K	Pressure, kPa	Mole fraction of limonin	uncertainty
283.2	101.1	.0000708	
288.2	101.1	.0000781	
293.2	101.1	.000092	
298.2	101.1	.0001011	
303.2	101.1	.0001195	
308.2	101.1	.0001374	
313.2	101.1	.000162	
318.2	101.1	.000192	

System: acetone + limonin; phases: Liquid, Crystal
Property: Mole fraction of limonin (Liquid); method: Chromatography
Temperature, K	Pressure, kPa	Mole fraction of limonin	uncertainty
283.2	101.1	.00409	
288.2	101.1	.00454	
293.2	101.1	.00465	
298.2	101.1	.00471	
303.2	101.1	.00474	
308.2	101.1	.00497	
313.2	101.1	.00516	
318.2	101.1	.0055	
