Measured thermophysical data. Liquid density of HFE-7200 and HFE-7500 from T = (283 to 363) K at pressures up to 100 MPa
Source: J. Chem. Thermodyn., 2014, 10.1016/j.jct.2013.09.035
Compound 1: 1-ethoxy-1,1,2,2,3,3,4,4,4-nonafluorobutane, C6H5F9O, purity 99.5%
Compound 2: nonafluoroisobutyl ethyl ether, C6H5F9O, purity 99.5%
Compound 3: 2-trifluoromethyl-3-ethoxydodecafluorohexane, C9H5F15O, purity 99.5%
Compound 4: 1,1,1,2-tetrafluoroethane, C2H2F4, purity 99.9%

System: 2-trifluoromethyl-3-ethoxydodecafluorohexane; phases: Liquid
Property: Mass density, kg/m3 (Liquid); method: Vibrating tube method
Temperature, K	Pressure, kPa	Mass density, kg/m3	uncertainty
283.51	100	1652.11	.02
283.51	1000	1653.72	.02
283.49	3000	1658.1	.019
283.5	5000	1662.38	.019
283.5	10000	1672.98	.019
283.51	15000	1682.71	.019
283.51	20000	1691.9	.018
283.51	25000	1701.13	.018
283.5	30000	1709.09	.018
283.5	40000	1724.44	.018
283.49	50000	1737.96	.017
283.48	60000	1751.01	.017
283.49	70000	1762.23	.021
283.5	80000	1773.1	.02
283.5	90000	1783.39	.019
283.52	100000	1793.19	.019
293.05	100	1631.62	.02
293.05	1000	1633.93	.02
293.05	3000	1638.93	.02
293.05	5000	1643.69	.02
293.05	10000	1654.94	.019
293.05	15000	1665.37	.019
293.05	20000	1675.05	.019
293.05	25000	1684.16	.018
293.05	30000	1692.79	.018
293.04	40000	1708.75	.018
293.04	50000	1723.04	.017
293.05	60000	1736.39	.017
293.04	70000	1748.33	.021
293.05	80000	1759.65	.02
293.04	90000	1770.03	.02
293.04	100000	1780.11	.019
302.88	100	1610.41	.021
302.88	1000	1612.92	.021
302.88	3000	1618.33	.021
302.89	5000	1623.52	.02
302.88	10000	1635.7	.02
302.89	15000	1646.85	.019
302.89	20000	1657.18	.019
302.89	25000	1666.89	.019
302.89	30000	1676.01	.018
302.89	40000	1692.64	.018
302.89	50000	1707.74	.018
302.88	60000	1721.46	.017
302.89	70000	1733.98	.021
302.89	80000	1745.75	.021
302.89	90000	1756.68	.02
302.89	100000	1767.03	.019
313.17	100	1589.56	.022
313.17	1000	1592.21	.022
313.16	3000	1598.14	.021
313.18	5000	1603.66	.021
313.17	10000	1616.81	.02
313.16	15000	1628.94	.02
313.16	20000	1639.8	.019
313.17	25000	1650.1	.019
313.16	30000	1659.7	.019
313.16	40000	1677.38	.018
313.17	50000	1693.17	.018
313.16	60000	1707.63	.017
313.17	70010	1720.7	.022
313.17	80000	1733	.021
313.15	90000	1744.34	.02
313.17	100000	1755.06	.02
323.06	100	1569.59	.023
323.05	1000	1572.54	.022
323.05	3000	1578.97	.022
323.04	5000	1585.04	.022
323.04	10000	1599.21	.021
323.04	15000	1612.03	.02
323.04	20000	1623.79	.02
323.04	25000	1634.67	.019
323.04	30000	1644.88	.019
323.04	40000	1663.35	.018
323.04	50000	1679.91	.018
323.04	60000	1694.93	.018
323.04	70000	1708.52	.022
323.04	80000	1721.13	.021
323.04	90000	1732.9	.021
323.04	100000	1743.96	.02
332.97	100	1546.01	.024
332.96	1000	1549.29	.024
332.95	3000	1556.26	.023
332.95	5000	1562.89	.022
332.95	10000	1578.13	.022
332.94	15000	1591.88	.021
332.94	20000	1604.4	.02
332.94	25000	1615.92	.02
332.94	30000	1626.63	.019
332.94	40000	1646.05	.019
332.94	50000	1663.31	.018
332.94	60000	1678.97	.018
332.94	70000	1693.19	.023
332.94	80000	1706.27	.022
332.94	90000	1718.48	.021
332.94	100000	1729.78	.02
342.55	100	1525.56	.025
342.56	1000	1529.11	.025
342.56	3000	1536.69	.024
342.56	5000	1543.86	.023
342.56	10000	1560.31	.022
342.57	15000	1574.95	.021
342.57	20000	1588.2	.021
342.57	25000	1600.4	.02
342.57	30000	1611.69	.02
342.57	40000	1632.02	.019
342.57	50000	1650.06	.018
342.57	60000	1666.29	.018
342.57	70000	1680.92	.023
342.57	80000	1694.39	.022
342.57	90000	1706.96	.021
342.57	100000	1718.69	.021
352.56	100	1503.72	.027
352.56	1000	1507.64	.026
352.57	3000	1515.99	.025
352.57	5000	1523.8	.024
352.57	10000	1541.62	.023
352.57	15000	1557.31	.022
352.57	20000	1571.45	.021
352.57	25000	1584.35	.021
352.57	30000	1596.28	.02
352.57	40000	1617.61	.019
352.57	50000	1636.45	.019
352.58	60000	1653.3	.018
352.57	70000	1668.54	.024
352.58	80000	1682.53	.023
352.58	90000	1695.44	.022
352.58	100000	1707.52	.021
362.6	100	1481.19	.028
362.6	1000	1485.52	.028
362.6	3000	1494.68	.027
362.59	5000	1503.25	.026
362.59	10000	1522.52	.024
362.59	15000	1539.4	.023
362.6	20000	1554.46	.022
362.6	25000	1568.1	.021
362.6	30000	1580.67	.02
362.6	40000	1603.06	.019
362.6	50000	1622.7	.019
362.6	60000	1640.27	.018
362.6	70000	1656.03	.024
362.6	80000	1670.49	.023
362.6	90000	1683.83	.022
362.6	100000	1696.22	.021

System: 1,1,1,2-tetrafluoroethane; phases: Liquid
Property: Mass density, kg/m3 (Liquid); method: Vibrating tube method
Temperature, K	Pressure, kPa	Mass density, kg/m3	uncertainty
283.26	1000	1265.88	.032
283.26	5000	1282.35	.045
283.26	10000	1300.86	.036
283.26	20000	1331.64	.032
283.26	40000	1379.61	.058
283.25	60000	1416.44	.085
283.26	80000	1446.35	.037
302.85	1000	1190.34	.026
302.85	5000	1214.03	.029
302.85	10000	1238.45	.036
302.84	20000	1276.99	.049
302.84	40000	1333.11	.067
302.85	60000	1374.79	.022
302.84	80000	1408.64	.034
322.62	5000	1140.59	.031
322.63	10000	1174.6	.035
322.63	20000	1224.02	.043
322.64	40000	1290.68	.052
322.64	60000	1338.04	.033
322.64	80000	1375.39	.041
342.56	5000	1047.23	.033
342.56	10000	1098.48	.048
342.56	20000	1163.35	.029
342.56	40000	1242.84	.033
342.57	60000	1296.48	.028
342.57	80000	1337.6	.028
362.57	5000	924.58	.031
362.58	10000	1014.86	.036
362.58	20000	1102.88	.033
362.58	40000	1197.86	.043
362.58	60000	1258.31	.034
362.58	80000	1303.78	.026

System: 1-ethoxy-1,1,2,2,3,3,4,4,4-nonafluorobutane + nonafluoroisobutyl ethyl ether; phases: Liquid
Fixed: Mass fraction of 1-ethoxy-1,1,2,2,3,3,4,4,4-nonafluorobutane = .5
Property: Mass density, kg/m3 (Liquid); method: Vibrating tube method
Temperature, K	Pressure, kPa	Mass density, kg/m3	uncertainty
283.48	100	1457.82	.023
283.48	1000	1460.24	.023
283.48	3000	1465.3	.023
283.48	5000	1470.22	.023
283.47	10000	1482.27	.022
283.49	15000	1493.18	.022
283.49	20000	1503.4	.021
283.48	25000	1513.47	.021
283.48	30000	1522.25	.021
283.49	40000	1538.97	.02
283.49	50000	1553.61	.02
283.5	60000	1567.59	.019
283.5	70000	1579.58	.024
283.49	80000	1591.2	.023
283.49	90000	1602.13	.022
283.49	100000	1612.51	.022
293.34	100	1433.67	.024
293.36	1000	1436.34	.024
293.34	3000	1442.2	.024
293.34	5000	1447.74	.023
293.34	10000	1460.66	.023
293.35	15000	1472.51	.022
293.35	20000	1483.44	.022
293.34	25000	1493.61	.021
293.36	30000	1503.18	.021
293.33	40000	1520.74	.02
293.33	50000	1536.34	.02
293.36	60000	1550.72	.02
293.35	70010	1563.65	.024
293.34	80000	1575.81	.023
293.36	90000	1586.86	.022
293.35	100000	1597.56	.022
303.23	100	1410.99	.025
303.23	1000	1413.95	.025
303.23	3000	1420.34	.025
303.23	5000	1426.43	.024
303.23	10000	1440.51	.023
303.23	15000	1453.28	.023
303.24	20000	1464.95	.022
303.24	25000	1475.81	.022
303.23	30000	1485.94	.021
303.23	40000	1504.31	.02
303.24	50000	1520.78	.02
303.24	60000	1535.65	.02
303.23	70000	1549.38	.025
303.24	80000	1561.98	.024
303.23	90000	1573.69	.023
303.23	100000	1584.73	.022
313.18	100	1386.8	.027
313.17	1000	1390.04	.026
313.18	3000	1397.04	.026
313.17	5000	1403.68	.025
313.17	10000	1418.95	.024
313.16	15000	1432.86	.023
313.16	20000	1445.3	.023
313.15	25000	1456.84	.022
313.16	30000	1467.53	.022
313.14	40000	1487.04	.021
313.15	50000	1504.3	.02
313.15	60000	1519.95	.02
313.19	70000	1535.1	.025
313.19	80000	1547.94	.024
313.18	90000	1559.98	.023
313.17	100000	1571.77	.023
323.05	100	1365.33	.028
323.05	1000	1368.99	.028
323.05	3000	1376.71	.027
323.05	5000	1384.07	.026
323.05	10000	1400.75	.025
323.04	15000	1415.6	.024
323.04	20000	1429.06	.023
323.04	25000	1441.36	.022
323.04	30000	1452.73	.022
323.04	40000	1473.17	.021
323.04	50000	1491.32	.02
323.04	60000	1507.67	.02
323.03	70000	1522.41	.026
323.03	79990	1535.93	.025
323.03	90000	1548.47	.024
323.03	100000	1560.39	.023
332.95	100	1340.66	.03
332.95	1000	1344.7	.03
332.95	3000	1353.32	.029
332.95	5000	1361.37	.028
332.95	10000	1379.59	.026
332.94	15000	1395.61	.025
332.94	20000	1409.99	.024
332.94	25000	1423.08	.023
332.94	30000	1435.1	.022
332.94	40000	1456.69	.021
332.94	50000	1475.63	.021
332.94	60000	1492.7	.02
332.94	70000	1508.09	.027
332.93	80000	1522.17	.025
332.93	90000	1535.21	.024
332.93	100000	1547.28	.023
342.83	100	1316.31	.033
342.84	1000	1320.87	.032
342.83	3000	1330.5	.031
342.84	5000	1339.38	.029
342.85	10000	1359.29	.027
342.85	15000	1376.59	.026
342.85	20000	1391.96	.025
342.86	25000	1405.93	.024
342.86	30000	1418.67	.023
342.86	40000	1441.37	.022
342.88	50000	1461.22	.021
342.87	60000	1479.04	.021
342.87	69990	1494.97	.027
342.87	80000	1509.52	.026
342.88	90000	1522.96	.025
342.88	100000	1535.5	.024
352.78	1000	1296.47	.035
352.77	3000	1307.3	.033
352.78	5000	1317.18	.032
352.78	10000	1339.03	.029
352.78	15000	1357.74	.027
352.78	20000	1374.27	.025
352.78	25000	1389.09	.024
352.78	30000	1402.65	.023
352.78	40000	1426.56	.022
352.78	50000	1447.34	.021
352.78	60000	1465.76	.021
352.79	70000	1482.51	.028
352.79	80000	1497.6	.026
352.79	90000	1511.48	.025
352.79	100000	1524.4	.024
362.72	1000	1270.63	.039
362.72	3000	1282.75	.036
362.73	5000	1293.79	.034
362.73	10000	1317.75	.03
362.73	15000	1338.07	.028
362.73	20000	1355.77	.026
362.73	25000	1371.52	.025
362.73	30000	1385.83	.024
362.73	40000	1410.97	.023
362.73	50000	1432.73	.022
362.73	60000	1451.97	.021
362.73	70000	1469.11	.029
362.73	80000	1484.73	.027
362.73	90000	1499.1	.026
362.73	100000	1512.38	.025
