Measured thermophysical data. Combined experimental and computational study of the energetics of methylindoles
Source: J. Chem. Thermodyn., 2009, 10.1016/j.jct.2009.05.018
Compound 1: 1-methylindole, C9H9N
Compound 2: 2-methylindole, C9H9N
Compound 3: 3-methylindole, C9H9N
Compound 4: carbon dioxide, CO2
Compound 5: nitrogen, N2
Compound 6: water, H2O
Compound 7: oxygen, O2

System: 1-methylindole; phases: Liquid, Gas
Property: Molar enthalpy of vaporization or sublimation, kJ/mol (Liquid); method: Calvet microcalorimetry
Temperature, K	Molar enthalpy of vaporization or sublimation, kJ/mol	uncertainty
298.15	62.2	1.6

System: 1-methylindole; phases: Liquid, Gas
Property: Molar enthalpy, kJ/mol (Liquid); method: Drop calorimetry
Temperature, K	Molar enthalpy, kJ/mol	uncertainty
334.3	67.09	.33

System: 2-methylindole; phases: Crystal, Gas
Property: Molar enthalpy of vaporization or sublimation, kJ/mol (Crystal); method: Calvet microcalorimetry
Temperature, K	Molar enthalpy of vaporization or sublimation, kJ/mol	uncertainty
298.15	88.7	2.4

System: 2-methylindole; phases: Crystal, Gas
Property: Molar enthalpy, kJ/mol (Crystal); method: Drop calorimetry
Temperature, K	Molar enthalpy, kJ/mol	uncertainty
360.1	97.66	.95

System: 3-methylindole; phases: Crystal, Gas
Property: Molar enthalpy of vaporization or sublimation, kJ/mol (Crystal); method: Calvet microcalorimetry
Temperature, K	Molar enthalpy of vaporization or sublimation, kJ/mol	uncertainty
298.15	90.4	1.9

System: 3-methylindole; phases: Crystal, Gas
Property: Molar enthalpy, kJ/mol (Crystal); method: Drop calorimetry
Temperature, K	Molar enthalpy, kJ/mol	uncertainty
349.9	97.81	.31

Reaction: -1 1-methylindole + 9 carbon dioxide + 0.5 nitrogen + 4.5 water + -11.25 oxygen
Property: Specific internal energy of reaction at constant volume, J/g
-37484.9

Reaction: -1 2-methylindole + 9 carbon dioxide + 0.5 nitrogen + 4.5 water + -11.25 oxygen
Property: Specific internal energy of reaction at constant volume, J/g
-37059.3

Reaction: -1 3-methylindole + 9 carbon dioxide + 0.5 nitrogen + 4.5 water + -11.25 oxygen
Property: Specific internal energy of reaction at constant volume, J/g
-37132.8
