Measured thermophysical data. Solubilities of carbon dioxide in 2-methoxyethyl acetate, 1-methoxy-2-propyl acetate and 3-methoxybutyl acetate
Source: J. Chem. Thermodyn., 2014, 10.1016/j.jct.2014.01.019
Compound 1: carbon dioxide, CO2, purity 99.999%
Compound 2: 2-methoxyethyl acetate, C5H10O3, purity 98%
Compound 3: 1-methoxy-2-propyl acetate, C6H12O3, purity 99%
Compound 4: 3-methoxybutyl acetate, C7H14O3, purity 99%
Compound 5: N-methyl-2-pyrrolidone, C5H9NO, purity 98%

System: 2-methoxyethyl acetate; phases: Liquid, Gas
Property: Vapor or sublimation pressure, kPa (Liquid); method: Ebulliometric method (Recirculating still)
Temperature, K	Vapor or sublimation pressure, kPa	uncertainty
312.51	1.15	.05
333.6	3.92	.05
351.27	9.47	.05
361.67	14.93	.05
378.75	29.46	.05
388.11	41.46	.05
405.3	75.33	.05
415.41	101.33	.05

System: 1-methoxy-2-propyl acetate; phases: Liquid, Gas
Property: Vapor or sublimation pressure, kPa (Liquid); method: Ebulliometric method (Recirculating still)
Temperature, K	Vapor or sublimation pressure, kPa	uncertainty
318.27	1.62	.05
335.61	4.15	.05
352.27	9.25	.05
361.27	13.71	.05
375.8	24.44	.05
389.25	40.01	.05
407.15	72.49	.05
418.65	101.33	.05

System: 3-methoxybutyl acetate; phases: Liquid, Gas
Property: Vapor or sublimation pressure, kPa (Liquid); method: Ebulliometric method (Recirculating still)
Temperature, K	Vapor or sublimation pressure, kPa	uncertainty
328.91	1.22	.05
350.2	3.52	.05
363.37	6.43	.05
374.4	10	.05
393.7	20.93	.05
416.58	46.26	.05
426.02	61.99	.05
442.04	101.33	.05

System: carbon dioxide + N-methyl-2-pyrrolidone; phases: Liquid, Gas
Fixed: Temperature, K = 298.15
Property: Mole fraction of carbon dioxide (Liquid); method: Volumetric
Partial pressure, kPa of carbon dioxide	Mole fraction of carbon dioxide	uncertainty
643.1	.0975	.000975
861	.1285	.001285
1146.3	.169	.00169
1409.7	.2064	.002064

System: 2-methoxyethyl acetate + carbon dioxide; phases: Liquid, Gas
Property: Mole fraction of carbon dioxide (Liquid); method: Volumetric
Temperature, K	Partial pressure, kPa of carbon dioxide	Mole fraction of carbon dioxide	uncertainty
293.15	71.2	.0165	.000165
293.15	143.6	.0334	.000334
293.15	220.1	.0472	.000472
293.15	401.8	.094	.00094
293.15	628.4	.1503	.001503
293.15	839.1	.1986	.001986
293.15	1032	.2402	.002402
293.15	1231.1	.2821	.002821
303.15	75.3	.0147	.000147
303.15	165.4	.0324	.000324
303.15	292.3	.0541	.000541
303.15	470.5	.093	.00093
303.15	624.2	.1245	.001245
303.15	816.8	.1621	.001621
303.15	1010.9	.199	.00199
303.15	1228.4	.2376	.002376
313.15	69.4	.0116	.000116
313.15	149.8	.025	.00025
313.15	215.1	.0348	.000348
313.15	431.9	.0714	.000714
313.15	652.5	.1113	.001113
313.15	825.2	.1399	.001399
313.15	999.7	.1677	.001677
313.15	1225	.2017	.002017
323.15	76.1	.0112	.000112
323.15	136.5	.0201	.000201
323.15	226.1	.0317	.000317
323.15	430.2	.0634	.000634
323.15	615.3	.0917	.000917
323.15	820	.1232	.001232
323.15	1014.5	.1495	.001495
323.15	1219.6	.1776	.001776
333.15	73.3	.0095	.000095
333.15	154.6	.0201	.000201
333.15	238.9	.0296	.000296
333.15	433.8	.0563	.000563
333.15	630.7	.084	.00084
333.15	823.6	.1084	.001084
333.15	1031.8	.1336	.001336
333.15	1229	.1587	.001587

System: 1-methoxy-2-propyl acetate + carbon dioxide; phases: Liquid, Gas
Property: Mole fraction of carbon dioxide (Liquid); method: Volumetric
Temperature, K	Partial pressure, kPa of carbon dioxide	Mole fraction of carbon dioxide	uncertainty
293.15	76.5	.0188	.000188
293.15	136.8	.0337	.000337
293.15	206.4	.0453	.000453
293.15	387.8	.0957	.000957
293.15	599.9	.1518	.001518
293.15	816	.204	.00204
293.15	1003	.2465	.002465
293.15	1210.3	.2954	.002954
303.15	68.7	.0146	.000146
303.15	145.6	.031	.00031
303.15	208.5	.0401	.000401
303.15	414.1	.0883	.000883
303.15	608.8	.1326	.001326
303.15	804.8	.1739	.001739
303.15	988.3	.2108	.002108
303.15	1200.1	.2527	.002527
313.15	79.5	.0146	.000146
313.15	134.6	.0247	.000247
313.15	231.8	.0397	.000397
313.15	411.3	.0762	.000762
313.15	592	.1105	.001105
313.15	792.7	.1484	.001484
313.15	1023.8	.1884	.001884
313.15	1204.8	.2181	.002181
323.15	71.2	.0116	.000116
323.15	123.4	.0202	.000202
323.15	197.9	.0293	.000293
323.15	393.6	.0651	.000651
323.15	606	.1023	.001023
323.15	799.4	.1324	.001324
323.15	973.1	.1596	.001596
323.15	1194.1	.1921	.001921
333.15	64.5	.0093	.000093
333.15	134.6	.0195	.000195
333.15	201.2	.0273	.000273
333.15	409.4	.0596	.000596
333.15	584.8	.086	.00086
333.15	789.7	.1162	.001162
333.15	1005.3	.1466	.001466
333.15	1196.5	.1709	.001709

System: carbon dioxide + 3-methoxybutyl acetate; phases: Liquid, Gas
Property: Mole fraction of carbon dioxide (Liquid); method: Volumetric
Temperature, K	Partial pressure, kPa of carbon dioxide	Mole fraction of carbon dioxide	uncertainty
293.15	80.5	.0204	.000204
293.15	163.4	.0415	.000415
293.15	244.1	.0558	.000558
293.15	424.3	.1096	.001096
293.15	633.8	.1632	.001632
293.15	823.6	.213	.00213
293.15	1003.8	.2554	.002554
293.15	1204	.3028	.003028
303.15	79.8	.0173	.000173
303.15	142.3	.0308	.000308
303.15	199.6	.0391	.000391
303.15	427.7	.0931	.000931
303.15	612.2	.137	.00137
303.15	837.5	.1854	.001854
303.15	1054.6	.2281	.002281
303.15	1227.6	.2615	.002615
313.15	72.1	.0136	.000136
313.15	145.6	.0274	.000274
313.15	214	.037	.00037
313.15	437.7	.0822	.000822
313.15	639.7	.1233	.001233
313.15	878	.1682	.001682
313.15	1056	.198	.00198
313.15	1220.6	.2285	.002285
323.15	68.9	.0114	.000114
323.15	132.6	.022	.00022
323.15	222.4	.0327	.000327
323.15	471.2	.0804	.000804
323.15	623.6	.1057	.001057
323.15	813.9	.1362	.001362
323.15	1007.5	.1675	.001675
323.15	1204	.1987	.001987
333.15	84.6	.0125	.000125
333.15	146.5	.0216	.000216
333.15	249.4	.0346	.000346
333.15	419.3	.0626	.000626
333.15	616.8	.0922	.000922
333.15	826.8	.1248	.001248
333.15	1031.8	.1518	.001518
333.15	1217.2	.1774	.001774
