Measured thermophysical data. Solubility of 3-methyl-4-nitrobenzoic acid in binary solvent mixtures of {(1,4-dioxane, N-methyl-2-pyrrolidone, N,N-dimethylformamide) + methanol} from T = (283.15 to 318.15) K: Experimental determination and thermodynamic modelling
Source: J. Chem. Thermodyn., 2017, 10.1016/j.jct.2016.10.019
Compound 1: 3-methyl-4-nitrobenzoic acid, C8H7NO4, purity 98.1%
Compound 2: methanol, CH4O, purity 99.5%
Compound 3: 1,4-dioxane, C4H8O2, purity 99.5%
Compound 4: N-methyl-2-pyrrolidone, C5H9NO, purity 99.6%
Compound 5: N,N-dimethylformamide, C3H7NO, purity 99.4%

System: methanol + 1,4-dioxane + 3-methyl-4-nitrobenzoic acid; phases: Liquid, Crystal
Fixed: Pressure, kPa = 101
Property: Mole fraction of 3-methyl-4-nitrobenzoic acid (Liquid); method: Chromatography
Temperature, K	Solvent: Mass fraction of 1,4-dioxane	Mole fraction of 3-methyl-4-nitrobenzoic acid	uncertainty
283.15	.1013	.00739	
285.65	.1013	.007952	
288.15	.1013	.008501	
290.65	.1013	.009061	
293.15	.1013	.009749	
295.65	.1013	.01036	
298.15	.1013	.01108	
300.65	.1013	.01185	
303.15	.1013	.01279	
305.65	.1013	.01371	
308.15	.1013	.01469	
310.65	.1013	.01574	
313.15	.1013	.0169	
315.65	.1013	.01803	
318.15	.1013	.01935	
283.15	.1989	.00968	
285.65	.1989	.01043	
288.15	.1989	.01108	
290.65	.1989	.01186	
293.15	.1989	.01261	
295.65	.1989	.0134	
298.15	.1989	.0144	
300.65	.1989	.01531	
303.15	.1989	.01634	
305.65	.1989	.01744	
308.15	.1989	.01839	
310.65	.1989	.01958	
313.15	.1989	.02088	
315.65	.1989	.0222	
318.15	.1989	.02375	
283.15	.3011	.01177	
285.65	.3011	.01272	
288.15	.3011	.01378	
290.65	.3011	.01487	
293.15	.3011	.01588	
295.65	.3011	.01704	
298.15	.3011	.01806	
300.65	.3011	.01928	
303.15	.3011	.0205	
305.65	.3011	.02179	
308.15	.3011	.02324	
310.65	.3011	.02458	
313.15	.3011	.02606	
315.65	.3011	.02752	
318.15	.3011	.02907	
283.15	.3968	.01729	
285.65	.3968	.01844	
288.15	.3968	.01948	
290.65	.3968	.02081	
293.15	.3968	.02202	
295.65	.3968	.02346	
298.15	.3968	.02522	
300.65	.3968	.02646	
303.15	.3968	.0281	
305.65	.3968	.02975	
308.15	.3968	.0314	
310.65	.3968	.03297	
313.15	.3968	.03497	
315.65	.3968	.03667	
318.15	.3968	.03906	
283.15	.5003	.02078	
285.65	.5003	.02201	
288.15	.5003	.02323	
290.65	.5003	.02466	
293.15	.5003	.02583	
295.65	.5003	.02729	
298.15	.5003	.02872	
300.65	.5003	.03041	
303.15	.5003	.03216	
305.65	.5003	.0339	
308.15	.5003	.03558	
310.65	.5003	.03758	
313.15	.5003	.03945	
315.65	.5003	.04144	
318.15	.5003	.04357	
283.15	.5966	.02353	
285.65	.5966	.0248	
288.15	.5966	.02612	
290.65	.5966	.02748	
293.15	.5966	.02883	
295.65	.5966	.03047	
298.15	.5966	.03189	
300.65	.5966	.03356	
303.15	.5966	.03523	
305.65	.5966	.03702	
308.15	.5966	.03904	
310.65	.5966	.04092	
313.15	.5966	.04305	
315.65	.5966	.0452	
318.15	.5966	.04779	
283.15	.7014	.02704	
285.65	.7014	.02831	
288.15	.7014	.0297	
290.65	.7014	.03116	
293.15	.7014	.03301	
295.65	.7014	.03466	
298.15	.7014	.03656	
300.65	.7014	.03818	
303.15	.7014	.04015	
305.65	.7014	.0421	
308.15	.7014	.04423	
310.65	.7014	.04648	
313.15	.7014	.04886	
315.65	.7014	.05157	
318.15	.7014	.05438	
283.15	.7983	.03149	
285.65	.7983	.03312	
288.15	.7983	.03473	
290.65	.7983	.03621	
293.15	.7983	.03807	
295.65	.7983	.04015	
298.15	.7983	.04237	
300.65	.7983	.04451	
303.15	.7983	.04707	
305.65	.7983	.04968	
308.15	.7983	.05206	
310.65	.7983	.05455	
313.15	.7983	.05717	
315.65	.7983	.0599	
318.15	.7983	.06337	
283.15	.8958	.03498	
285.65	.8958	.03652	
288.15	.8958	.03847	
290.65	.8958	.04024	
293.15	.8958	.04234	
295.65	.8958	.04485	
298.15	.8958	.04729	
300.65	.8958	.04965	
303.15	.8958	.05205	
305.65	.8958	.05463	
308.15	.8958	.05739	
310.65	.8958	.06014	
313.15	.8958	.06266	
315.65	.8958	.06572	
318.15	.8958	.06877	

System: methanol + N-methyl-2-pyrrolidone + 3-methyl-4-nitrobenzoic acid; phases: Liquid, Crystal
Fixed: Pressure, kPa = 101
Property: Mole fraction of 3-methyl-4-nitrobenzoic acid (Liquid); method: Chromatography
Temperature, K	Solvent: Mass fraction of N-methyl-2-pyrrolidone	Mole fraction of 3-methyl-4-nitrobenzoic acid	uncertainty
283.15	.1005	.009578	
285.65	.1005	.01014	
288.15	.1005	.01081	
290.65	.1005	.01154	
293.15	.1005	.01221	
295.65	.1005	.01309	
298.15	.1005	.0139	
300.65	.1005	.01468	
303.15	.1005	.01559	
305.65	.1005	.01645	
308.15	.1005	.01736	
310.65	.1005	.01851	
313.15	.1005	.01968	
315.65	.1005	.02086	
318.15	.1005	.02219	
283.15	.2014	.0156	
285.65	.2014	.01659	
288.15	.2014	.01776	
290.65	.2014	.01892	
293.15	.2014	.01988	
295.65	.2014	.02113	
298.15	.2014	.02223	
300.65	.2014	.02354	
303.15	.2014	.02494	
305.65	.2014	.02662	
308.15	.2014	.02818	
310.65	.2014	.02984	
313.15	.2014	.03155	
315.65	.2014	.03344	
318.15	.2014	.03583	
283.15	.2938	.02294	
285.65	.2938	.02406	
288.15	.2938	.0251	
290.65	.2938	.02632	
293.15	.2938	.02769	
295.65	.2938	.02892	
298.15	.2938	.03059	
300.65	.2938	.03203	
303.15	.2938	.03378	
305.65	.2938	.03542	
308.15	.2938	.03748	
310.65	.2938	.03938	
313.15	.2938	.04157	
315.65	.2938	.04369	
318.15	.2938	.04604	
283.15	.4011	.03094	
285.65	.4011	.03239	
288.15	.4011	.03391	
290.65	.4011	.03566	
293.15	.4011	.03727	
295.65	.4011	.03929	
298.15	.4011	.04146	
300.65	.4011	.04339	
303.15	.4011	.04565	
305.65	.4011	.04796	
308.15	.4011	.05045	
310.65	.4011	.05318	
313.15	.4011	.05631	
315.65	.4011	.05913	
318.15	.4011	.06253	
283.15	.4994	.04128	
285.65	.4994	.04274	
288.15	.4994	.04445	
290.65	.4994	.04632	
293.15	.4994	.04827	
295.65	.4994	.05056	
298.15	.4994	.05284	
300.65	.4994	.05549	
303.15	.4994	.05823	
305.65	.4994	.06092	
308.15	.4994	.06381	
310.65	.4994	.06685	
313.15	.4994	.06975	
315.65	.4994	.07286	
318.15	.4994	.07619	
283.15	.5986	.04499	
285.65	.5986	.0468	
288.15	.5986	.04904	
290.65	.5986	.05163	
293.15	.5986	.05452	
295.65	.5986	.05697	
298.15	.5986	.05997	
300.65	.5986	.06262	
303.15	.5986	.06559	
305.65	.5986	.06858	
308.15	.5986	.07169	
310.65	.5986	.07486	
313.15	.5986	.07857	
315.65	.5986	.08249	
318.15	.5986	.08618	
283.15	.6973	.05428	
285.65	.6973	.05683	
288.15	.6973	.05955	
290.65	.6973	.06234	
293.15	.6973	.06567	
295.65	.6973	.06898	
298.15	.6973	.07254	
300.65	.6973	.07634	
303.15	.6973	.08062	
305.65	.6973	.08462	
308.15	.6973	.08837	
310.65	.6973	.09301	
313.15	.6973	.09752	
315.65	.6973	.1027	
318.15	.6973	.1083	
283.15	.801	.06229	
285.65	.801	.06459	
288.15	.801	.06727	
290.65	.801	.07022	
293.15	.801	.07336	
295.65	.801	.07631	
298.15	.801	.0796	
300.65	.801	.08337	
303.15	.801	.08706	
305.65	.801	.09097	
308.15	.801	.09515	
310.65	.801	.09968	
313.15	.801	.1044	
315.65	.801	.1092	
318.15	.801	.1142	
283.15	.9017	.07234	
285.65	.9017	.07539	
288.15	.9017	.07848	
290.65	.9017	.08162	
293.15	.9017	.08479	
295.65	.9017	.08897	
298.15	.9017	.09255	
300.65	.9017	.09653	
303.15	.9017	.1009	
305.65	.9017	.1053	
308.15	.9017	.11	
310.65	.9017	.1141	
313.15	.9017	.1187	
315.65	.9017	.1237	
318.15	.9017	.1292	

System: methanol + N,N-dimethylformamide + 3-methyl-4-nitrobenzoic acid; phases: Liquid, Crystal
Fixed: Pressure, kPa = 101
Property: Mole fraction of 3-methyl-4-nitrobenzoic acid (Liquid); method: Chromatography
Temperature, K	Solvent: Mass fraction of N,N-dimethylformamide	Mole fraction of 3-methyl-4-nitrobenzoic acid	uncertainty
283.15	.09758	.01025	
285.65	.09758	.01079	
288.15	.09758	.01141	
290.65	.09758	.01213	
293.15	.09758	.01291	
295.65	.09758	.01357	
298.15	.09758	.01434	
300.65	.09758	.01514	
303.15	.09758	.01601	
305.65	.09758	.01695	
308.15	.09758	.01794	
310.65	.09758	.01883	
313.15	.09758	.01975	
315.65	.09758	.02092	
318.15	.09758	.02212	
283.15	.1996	.01457	
285.65	.1996	.01571	
288.15	.1996	.01701	
290.65	.1996	.01844	
293.15	.1996	.01985	
295.65	.1996	.02125	
298.15	.1996	.02258	
300.65	.1996	.02404	
303.15	.1996	.0257	
305.65	.1996	.02722	
308.15	.1996	.02914	
310.65	.1996	.03113	
313.15	.1996	.03336	
315.65	.1996	.03565	
318.15	.1996	.03792	
283.15	.3021	.0194	
285.65	.3021	.02077	
288.15	.3021	.0222	
290.65	.3021	.02379	
293.15	.3021	.02547	
295.65	.3021	.02735	
298.15	.3021	.02932	
300.65	.3021	.03173	
303.15	.3021	.03425	
305.65	.3021	.03709	
308.15	.3021	.03974	
310.65	.3021	.04262	
313.15	.3021	.04554	
315.65	.3021	.04839	
318.15	.3021	.0517	
283.15	.3998	.02142	
285.65	.3998	.02362	
288.15	.3998	.02615	
290.65	.3998	.02831	
293.15	.3998	.03078	
295.65	.3998	.03338	
298.15	.3998	.03632	
300.65	.3998	.0394	
303.15	.3998	.04255	
305.65	.3998	.04613	
308.15	.3998	.05032	
310.65	.3998	.05537	
313.15	.3998	.0599	
315.65	.3998	.06434	
318.15	.3998	.06932	
283.15	.4981	.03068	
285.65	.4981	.03283	
288.15	.4981	.03521	
290.65	.4981	.03812	
293.15	.4981	.04022	
295.65	.4981	.04301	
298.15	.4981	.04678	
300.65	.4981	.05009	
303.15	.4981	.05355	
305.65	.4981	.05762	
308.15	.4981	.06251	
310.65	.4981	.06711	
313.15	.4981	.0724	
315.65	.4981	.07881	
318.15	.4981	.08435	
283.15	.5973	.03711	
285.65	.5973	.03963	
288.15	.5973	.04181	
290.65	.5973	.04483	
293.15	.5973	.04715	
295.65	.5973	.05051	
298.15	.5973	.05366	
300.65	.5973	.05713	
303.15	.5973	.06091	
305.65	.5973	.06504	
308.15	.5973	.06976	
310.65	.5973	.07364	
313.15	.5973	.07801	
315.65	.5973	.0834	
318.15	.5973	.08861	
283.15	.6996	.04619	
285.65	.6996	.04852	
288.15	.6996	.05127	
290.65	.6996	.05446	
293.15	.6996	.05776	
295.65	.6996	.06133	
298.15	.6996	.06481	
300.65	.6996	.06833	
303.15	.6996	.07245	
305.65	.6996	.07667	
308.15	.6996	.08144	
310.65	.6996	.08607	
313.15	.6996	.09138	
315.65	.6996	.09673	
318.15	.6996	.1027	
283.15	.8009	.05152	
285.65	.8009	.05445	
288.15	.8009	.05774	
290.65	.8009	.06119	
293.15	.8009	.06517	
295.65	.8009	.06908	
298.15	.8009	.07343	
300.65	.8009	.07821	
303.15	.8009	.08331	
305.65	.8009	.08821	
308.15	.8009	.09353	
310.65	.8009	.09915	
313.15	.8009	.1054	
315.65	.8009	.1117	
318.15	.8009	.1188	
283.15	.8927	.05753	
285.65	.8927	.06114	
288.15	.8927	.06555	
290.65	.8927	.0696	
293.15	.8927	.07501	
295.65	.8927	.08039	
298.15	.8927	.08548	
300.65	.8927	.09137	
303.15	.8927	.09735	
305.65	.8927	.1047	
308.15	.8927	.111	
310.65	.8927	.1191	
313.15	.8927	.1279	
315.65	.8927	.136	
318.15	.8927	.1451	
