Measured thermophysical data. Thermodynamics and activity coefficients at infinite dilution for organic solutes in the ionic liquid 1-hexyl-2,3-dimethylimidazolium bis(trifluoromethylsulfonyl)imide
Source: J. Chem. Thermodyn., 2016, 10.1016/j.jct.2016.07.021
Compound 1: 1-hexyl-2,3-dimethylimidazolium bis(trifluoromethylsulfonyl)imide, C13H21F6N3O4S2, purity 99%
Compound 2: pentane, C5H12, purity 99%
Compound 3: hexane, C6H14, purity 99%
Compound 4: heptane, C7H16, purity 99%
Compound 5: octane, C8H18, purity 99%
Compound 6: nonane, C9H20, purity 99%
Compound 7: decane, C10H22, purity 99%
Compound 8: cyclohexane, C6H12, purity 98%
Compound 9: methylcyclohexane, C7H14, purity 98%
Compound 10: cyclohexene, C6H10, purity 99%
Compound 11: benzene, C6H6, purity 99%
Compound 12: toluene, C7H8, purity 99%
Compound 13: ethylbenzene, C8H10, purity 99%
Compound 14: o-xylene, C8H10, purity 98%
Compound 15: m-xylene, C8H10, purity 98%
Compound 16: p-xylene, C8H10, purity 99%
Compound 17: acetonitrile, C2H3N, purity 99%
Compound 18: acetone, C3H6O, purity 98%
Compound 19: tetrahydrofuran, C4H8O, purity 99%
Compound 20: ethyl acetate, C4H8O2, purity 99%
Compound 21: dichloromethane, CH2Cl2, purity 99%
Compound 22: trichloromethane, CHCl3, purity 99%
Compound 23: tetrachloromethane, CCl4, purity 99%

System: pentane + 1-hexyl-2,3-dimethylimidazolium bis(trifluoromethylsulfonyl)imide; phases: Liquid
Fixed: Mole fraction of pentane = 0
Fixed: Pressure, kPa = 101.325
Property: Activity coefficient of pentane (Liquid); method: Other
Temperature, K	Activity coefficient of pentane	uncertainty
313.15	5.64	
323.15	5.55	
333.15	5.45	
343.15	5.33	
353.15	5.21	

System: hexane + 1-hexyl-2,3-dimethylimidazolium bis(trifluoromethylsulfonyl)imide; phases: Liquid
Fixed: Mole fraction of hexane = 0
Fixed: Pressure, kPa = 101.325
Property: Activity coefficient of hexane (Liquid); method: Other
Temperature, K	Activity coefficient of hexane	uncertainty
313.15	7.60	
323.15	7.41	
333.15	7.16	
343.15	6.96	
353.15	6.78	

System: heptane + 1-hexyl-2,3-dimethylimidazolium bis(trifluoromethylsulfonyl)imide; phases: Liquid
Fixed: Mole fraction of heptane = 0
Fixed: Pressure, kPa = 101.325
Property: Activity coefficient of heptane (Liquid); method: Other
Temperature, K	Activity coefficient of heptane	uncertainty
313.15	10.22	
323.15	9.79	
333.15	9.47	
343.15	9.20	
353.15	8.83	

System: octane + 1-hexyl-2,3-dimethylimidazolium bis(trifluoromethylsulfonyl)imide; phases: Liquid
Fixed: Mole fraction of octane = 0
Fixed: Pressure, kPa = 101.325
Property: Activity coefficient of octane (Liquid); method: Other
Temperature, K	Activity coefficient of octane	uncertainty
313.15	12.85	
323.15	11.65	
333.15	10.62	
343.15	9.82	
353.15	9.16	

System: nonane + 1-hexyl-2,3-dimethylimidazolium bis(trifluoromethylsulfonyl)imide; phases: Liquid
Fixed: Mole fraction of nonane = 0
Fixed: Pressure, kPa = 101.325
Property: Activity coefficient of nonane (Liquid); method: Other
Temperature, K	Activity coefficient of nonane	uncertainty
313.15	21.47	
323.15	19.82	
333.15	18.14	
343.15	16.58	
353.15	15.11	

System: decane + 1-hexyl-2,3-dimethylimidazolium bis(trifluoromethylsulfonyl)imide; phases: Liquid
Fixed: Mole fraction of decane = 0
Fixed: Pressure, kPa = 101.325
Property: Activity coefficient of decane (Liquid); method: Other
Temperature, K	Activity coefficient of decane	uncertainty
313.15	26.78	
323.15	25.04	
333.15	23.27	
343.15	21.57	
353.15	20.10	

System: cyclohexane + 1-hexyl-2,3-dimethylimidazolium bis(trifluoromethylsulfonyl)imide; phases: Liquid
Fixed: Mole fraction of cyclohexane = 0
Fixed: Pressure, kPa = 101.325
Property: Activity coefficient of cyclohexane (Liquid); method: Other
Temperature, K	Activity coefficient of cyclohexane	uncertainty
313.15	5.33	
323.15	5.14	
333.15	4.99	
343.15	4.88	
353.15	4.74	

System: methylcyclohexane + 1-hexyl-2,3-dimethylimidazolium bis(trifluoromethylsulfonyl)imide; phases: Liquid
Fixed: Mole fraction of methylcyclohexane = 0
Fixed: Pressure, kPa = 101.325
Property: Activity coefficient of methylcyclohexane (Liquid); method: Other
Temperature, K	Activity coefficient of methylcyclohexane	uncertainty
313.15	6.48	
323.15	6.26	
333.15	6.06	
343.15	5.81	
353.15	5.62	

System: cyclohexene + 1-hexyl-2,3-dimethylimidazolium bis(trifluoromethylsulfonyl)imide; phases: Liquid
Fixed: Mole fraction of cyclohexene = 0
Fixed: Pressure, kPa = 101.325
Property: Activity coefficient of cyclohexene (Liquid); method: Other
Temperature, K	Activity coefficient of cyclohexene	uncertainty
313.15	3.36	
323.15	3.29	
333.15	3.19	
343.15	3.06	
353.15	2.93	

System: benzene + 1-hexyl-2,3-dimethylimidazolium bis(trifluoromethylsulfonyl)imide; phases: Liquid
Fixed: Mole fraction of benzene = 0
Fixed: Pressure, kPa = 101.325
Property: Activity coefficient of benzene (Liquid); method: Other
Temperature, K	Activity coefficient of benzene	uncertainty
313.15	0.72	
323.15	0.72	
333.15	0.74	
343.15	0.75	
353.15	0.76	

System: toluene + 1-hexyl-2,3-dimethylimidazolium bis(trifluoromethylsulfonyl)imide; phases: Liquid
Fixed: Mole fraction of toluene = 0
Fixed: Pressure, kPa = 101.325
Property: Activity coefficient of toluene (Liquid); method: Other
Temperature, K	Activity coefficient of toluene	uncertainty
313.15	0.96	
323.15	0.99	
333.15	1.01	
343.15	1.03	
353.15	1.05	

System: ethylbenzene + 1-hexyl-2,3-dimethylimidazolium bis(trifluoromethylsulfonyl)imide; phases: Liquid
Fixed: Mole fraction of ethylbenzene = 0
Fixed: Pressure, kPa = 101.325
Property: Activity coefficient of ethylbenzene (Liquid); method: Other
Temperature, K	Activity coefficient of ethylbenzene	uncertainty
313.15	1.34	
323.15	1.36	
333.15	1.38	
343.15	1.40	
353.15	1.42	

System: o-xylene + 1-hexyl-2,3-dimethylimidazolium bis(trifluoromethylsulfonyl)imide; phases: Liquid
Fixed: Mole fraction of o-xylene = 0
Fixed: Pressure, kPa = 101.325
Property: Activity coefficient of o-xylene (Liquid); method: Other
Temperature, K	Activity coefficient of o-xylene	uncertainty
313.15	1.17	
323.15	1.19	
333.15	1.21	
343.15	1.22	
353.15	1.24	

System: m-xylene + 1-hexyl-2,3-dimethylimidazolium bis(trifluoromethylsulfonyl)imide; phases: Liquid
Fixed: Mole fraction of m-xylene = 0
Fixed: Pressure, kPa = 101.325
Property: Activity coefficient of m-xylene (Liquid); method: Other
Temperature, K	Activity coefficient of m-xylene	uncertainty
313.15	1.34	
323.15	1.38	
333.15	1.41	
343.15	1.44	
353.15	1.47	

System: p-xylene + 1-hexyl-2,3-dimethylimidazolium bis(trifluoromethylsulfonyl)imide; phases: Liquid
Fixed: Mole fraction of p-xylene = 0
Fixed: Pressure, kPa = 101.325
Property: Activity coefficient of p-xylene (Liquid); method: Other
Temperature, K	Activity coefficient of p-xylene	uncertainty
313.15	1.39	
323.15	1.42	
333.15	1.46	
343.15	1.50	
353.15	1.55	

System: acetonitrile + 1-hexyl-2,3-dimethylimidazolium bis(trifluoromethylsulfonyl)imide; phases: Liquid
Fixed: Mole fraction of acetonitrile = 0
Fixed: Pressure, kPa = 101.325
Property: Activity coefficient of acetonitrile (Liquid); method: Other
Temperature, K	Activity coefficient of acetonitrile	uncertainty
313.15	0.45	
323.15	0.46	
333.15	0.47	
343.15	0.48	
353.15	0.48	

System: acetone + 1-hexyl-2,3-dimethylimidazolium bis(trifluoromethylsulfonyl)imide; phases: Liquid
Fixed: Mole fraction of acetone = 0
Fixed: Pressure, kPa = 101.325
Property: Activity coefficient of acetone (Liquid); method: Other
Temperature, K	Activity coefficient of acetone	uncertainty
313.15	0.40	
323.15	0.42	
333.15	0.43	
343.15	0.45	
353.15	0.46	

System: tetrahydrofuran + 1-hexyl-2,3-dimethylimidazolium bis(trifluoromethylsulfonyl)imide; phases: Liquid
Fixed: Mole fraction of tetrahydrofuran = 0
Fixed: Pressure, kPa = 101.325
Property: Activity coefficient of tetrahydrofuran (Liquid); method: Other
Temperature, K	Activity coefficient of tetrahydrofuran	uncertainty
313.15	0.50	
323.15	0.51	
333.15	0.53	
343.15	0.55	
353.15	0.58	

System: ethyl acetate + 1-hexyl-2,3-dimethylimidazolium bis(trifluoromethylsulfonyl)imide; phases: Liquid
Fixed: Mole fraction of ethyl acetate = 0
Fixed: Pressure, kPa = 101.325
Property: Activity coefficient of ethyl acetate (Liquid); method: Other
Temperature, K	Activity coefficient of ethyl acetate	uncertainty
313.15	0.83	
323.15	0.86	
333.15	0.88	
343.15	0.91	
353.15	0.93	

System: dichloromethane + 1-hexyl-2,3-dimethylimidazolium bis(trifluoromethylsulfonyl)imide; phases: Liquid
Fixed: Mole fraction of dichloromethane = 0
Fixed: Pressure, kPa = 101.325
Property: Activity coefficient of dichloromethane (Liquid); method: Other
Temperature, K	Activity coefficient of dichloromethane	uncertainty
313.15	0.74	
323.15	0.73	
333.15	0.72	
343.15	0.71	
353.15	0.70	

System: trichloromethane + 1-hexyl-2,3-dimethylimidazolium bis(trifluoromethylsulfonyl)imide; phases: Liquid
Fixed: Mole fraction of trichloromethane = 0
Fixed: Pressure, kPa = 101.325
Property: Activity coefficient of trichloromethane (Liquid); method: Other
Temperature, K	Activity coefficient of trichloromethane	uncertainty
313.15	0.77	
323.15	0.78	
333.15	0.79	
343.15	0.81	
353.15	0.82	

System: tetrachloromethane + 1-hexyl-2,3-dimethylimidazolium bis(trifluoromethylsulfonyl)imide; phases: Liquid
Fixed: Mole fraction of tetrachloromethane = 0
Fixed: Pressure, kPa = 101.325
Property: Activity coefficient of tetrachloromethane (Liquid); method: Other
Temperature, K	Activity coefficient of tetrachloromethane	uncertainty
313.15	2.31	
323.15	2.26	
333.15	2.19	
343.15	2.15	
353.15	2.09	
