Measured thermophysical data. Phase behavior of ternary mixtures {aliphatic hydrocarbon + aromatic hydrocarbon + ionic liquid}: Experimental LLE data and their modeling by COSMO-RS
Source: J. Chem. Thermodyn., 2014, 10.1016/j.jct.2013.11.020
Compound 1: 1-butyl-3-methylimidazolium methylsulfate, C9H18N2O4S, purity 99%
Compound 2: 1-butyl-3-methylimidazolium bis[(trifluoromethyl)sulfonyl]imide, C10H15F6N3O4S2, purity 99%
Compound 3: 1-methyl-3-propylimidazolium bis[(trifluoromethyl)sulfonyl]imide, C9H13F6N3O4S2, purity 99%
Compound 4: hexane, C6H14, purity 99.5%
Compound 5: cyclohexene, C6H10, purity 99%
Compound 6: toluene, C7H8, purity 99.9%
Compound 7: ethylbenzene, C8H10, purity 99.9%

System: 1-butyl-3-methylimidazolium methylsulfate; phases: Liquid
Fixed: Pressure, kPa = 101.325
Property: Mass density, kg/m3 (Liquid); method: Vibrating tube method
Temperature, K	Mass density, kg/m3	uncertainty
298.15	1212.59	.05

System: 1-butyl-3-methylimidazolium methylsulfate; phases: Liquid
Fixed: Pressure, kPa = 101.325
Property: Refractive index (Na D-line) (Liquid); method: Standard Abbe refractometry
Temperature, K	Refractive index (Na D-line)	uncertainty
298.15	1.47792	.00004

System: 1-butyl-3-methylimidazolium bis[(trifluoromethyl)sulfonyl]imide; phases: Liquid
Fixed: Pressure, kPa = 101.325
Property: Mass density, kg/m3 (Liquid); method: Vibrating tube method
Temperature, K	Mass density, kg/m3	uncertainty
298.15	1436.35	.05

System: 1-butyl-3-methylimidazolium bis[(trifluoromethyl)sulfonyl]imide; phases: Liquid
Fixed: Pressure, kPa = 101.325
Property: Refractive index (Na D-line) (Liquid); method: Standard Abbe refractometry
Temperature, K	Refractive index (Na D-line)	uncertainty
298.15	1.42706	.00004

System: 1-methyl-3-propylimidazolium bis[(trifluoromethyl)sulfonyl]imide; phases: Liquid
Fixed: Pressure, kPa = 101.325
Property: Mass density, kg/m3 (Liquid); method: Vibrating tube method
Temperature, K	Mass density, kg/m3	uncertainty
298.15	1474.44	.05

System: 1-methyl-3-propylimidazolium bis[(trifluoromethyl)sulfonyl]imide; phases: Liquid
Fixed: Pressure, kPa = 101.325
Property: Refractive index (Na D-line) (Liquid); method: Standard Abbe refractometry
Temperature, K	Refractive index (Na D-line)	uncertainty
298.15	1.42526	.00004

System: hexane; phases: Liquid
Fixed: Pressure, kPa = 101.325
Property: Mass density, kg/m3 (Liquid); method: Vibrating tube method
Temperature, K	Mass density, kg/m3	uncertainty
298.15	655.19	.05

System: hexane; phases: Liquid
Fixed: Pressure, kPa = 101.325
Property: Refractive index (Na D-line) (Liquid); method: Standard Abbe refractometry
Temperature, K	Refractive index (Na D-line)	uncertainty
298.15	1.37234	.00004

System: cyclohexene; phases: Liquid
Fixed: Pressure, kPa = 101.325
Property: Mass density, kg/m3 (Liquid); method: Vibrating tube method
Temperature, K	Mass density, kg/m3	uncertainty
298.15	805.69	.05

System: cyclohexene; phases: Liquid
Fixed: Pressure, kPa = 101.325
Property: Refractive index (Na D-line) (Liquid); method: Standard Abbe refractometry
Temperature, K	Refractive index (Na D-line)	uncertainty
298.15	1.44378	.00004

System: toluene; phases: Liquid
Fixed: Pressure, kPa = 101.325
Property: Mass density, kg/m3 (Liquid); method: Vibrating tube method
Temperature, K	Mass density, kg/m3	uncertainty
298.15	862.17	.05

System: toluene; phases: Liquid
Fixed: Pressure, kPa = 101.325
Property: Refractive index (Na D-line) (Liquid); method: Standard Abbe refractometry
Temperature, K	Refractive index (Na D-line)	uncertainty
298.15	1.49399	.00004

System: ethylbenzene; phases: Liquid
Fixed: Pressure, kPa = 101.325
Property: Mass density, kg/m3 (Liquid); method: Vibrating tube method
Temperature, K	Mass density, kg/m3	uncertainty
298.15	862.51	.05

System: ethylbenzene; phases: Liquid
Fixed: Pressure, kPa = 101.325
Property: Refractive index (Na D-line) (Liquid); method: Standard Abbe refractometry
Temperature, K	Refractive index (Na D-line)	uncertainty
298.15	1.49304	.00004

System: toluene + hexane + 1-butyl-3-methylimidazolium methylsulfate; phases: Liquid mixture 1, Liquid mixture 2
Fixed: Temperature, K = 298.15
Fixed: Pressure, kPa = 101
Property: Mole fraction of hexane (Liquid mixture 1); method: Density calibration data
Property: Mole fraction of toluene (Liquid mixture 2); method: Density calibration data
Property: Mole fraction of hexane (Liquid mixture 2); method: Density calibration data
Mole fraction of toluene	Mole fraction of hexane	uncertainty	Mole fraction of toluene	uncertainty	Mole fraction of hexane	uncertainty
0	1		0		.023	
.511	.489		.175		.012	
.628	.372		.204		.012	
.755	.245		.242		.01	
1	0		.328		0	
.124	.876		.048		.016	
.19	.81		.072		.015	
.248	.752		.093		.015	
.307	.693		.114		.014	
.373	.627		.134		.013	
.438	.562		.154		.013	

System: ethylbenzene + hexane + 1-butyl-3-methylimidazolium methylsulfate; phases: Liquid mixture 1, Liquid mixture 2
Fixed: Temperature, K = 298.15
Fixed: Pressure, kPa = 101
Property: Mole fraction of hexane (Liquid mixture 1); method: Density calibration data
Property: Mole fraction of ethylbenzene (Liquid mixture 2); method: Density calibration data
Property: Mole fraction of hexane (Liquid mixture 2); method: Density calibration data
Mole fraction of ethylbenzene	Mole fraction of hexane	uncertainty	Mole fraction of ethylbenzene	uncertainty	Mole fraction of hexane	uncertainty
0	1		0		.023	
.391	.609		.076		.013	
.522	.478		.099		.012	
.652	.348		.122		.01	
.79	.21		.142		.008	
.918	.082		.164		.005	
1	0		.189		0	
.076	.924		.016		.018	
.142	.858		.03		.017	
.201	.799		.041		.016	
.265	.735		.052		.015	
.262	.738		.051		.015	

System: ethylbenzene + cyclohexene + 1-butyl-3-methylimidazolium methylsulfate; phases: Liquid mixture 1, Liquid mixture 2
Fixed: Temperature, K = 298.15
Fixed: Pressure, kPa = 101
Property: Mole fraction of cyclohexene (Liquid mixture 1); method: Density calibration data
Property: Mole fraction of ethylbenzene (Liquid mixture 2); method: Density calibration data
Property: Mole fraction of cyclohexene (Liquid mixture 2); method: Density calibration data
Mole fraction of ethylbenzene	Mole fraction of cyclohexene	uncertainty	Mole fraction of ethylbenzene	uncertainty	Mole fraction of cyclohexene	uncertainty
0	1		0		.071	
.54	.46		.113		.037	
.673	.327		.137		.028	
.82	.18		.156		.018	
1	0		.189		0	
.099	.901		.038		.056	
.147	.853		.047		.054	
.2	.8		.062		.049	
.258	.742		.067		.048	
.308	.692		.079		.043	
.421	.579		.104		.036	

System: ethylbenzene + hexane + 1-butyl-3-methylimidazolium bis[(trifluoromethyl)sulfonyl]imide; phases: Liquid mixture 1, Liquid mixture 2
Fixed: Temperature, K = 298.15
Fixed: Pressure, kPa = 101
Property: Mole fraction of hexane (Liquid mixture 1); method: Density calibration data
Property: Mole fraction of ethylbenzene (Liquid mixture 2); method: Density calibration data
Property: Mole fraction of hexane (Liquid mixture 2); method: Density calibration data
Mole fraction of ethylbenzene	Mole fraction of hexane	uncertainty	Mole fraction of ethylbenzene	uncertainty	Mole fraction of hexane	uncertainty
0	1		0		.095	
.476	.524		.328		.076	
.572	.428		.382		.068	
.7	.3		.455		.055	
.806	.194		.514		.04	
.904	.096		.571		.021	
1	0		.633		0	
.053	.947		.043		.094	
.167	.833		.131		.089	
.22	.78		.168		.087	
.277	.723		.209		.085	
.336	.664		.244		.083	

System: ethylbenzene + hexane + 1-methyl-3-propylimidazolium bis[(trifluoromethyl)sulfonyl]imide; phases: Liquid mixture 1, Liquid mixture 2
Fixed: Temperature, K = 298.15
Fixed: Pressure, kPa = 101
Property: Mole fraction of hexane (Liquid mixture 1); method: Density calibration data
Property: Mole fraction of ethylbenzene (Liquid mixture 2); method: Density calibration data
Property: Mole fraction of hexane (Liquid mixture 2); method: Density calibration data
Mole fraction of ethylbenzene	Mole fraction of hexane	uncertainty	Mole fraction of ethylbenzene	uncertainty	Mole fraction of hexane	uncertainty
0	1		0		.079	
.35	.65		.208		.066	
.425	.575		.249		.063	
.489	.511		.284		.06	
.66	.34		.367		.049	
.72	.28		.401		.043	
.829	.171		.467		.03	
.922	.078		.519		.016	
1	0		.573		0	
.121	.879		.078		.075	
.173	.827		.11		.073	
.232	.768		.146		.071	
.292	.708		.185		.069	

System: hexane + 1-butyl-3-methylimidazolium methylsulfate; phases: Liquid mixture 2, Liquid mixture 1
Property: Mole fraction of hexane (Liquid mixture 2); method: Density calibration data
Temperature, K	Pressure, kPa	Mole fraction of hexane	uncertainty
298.15	101	.023	

System: toluene + 1-butyl-3-methylimidazolium methylsulfate; phases: Liquid mixture 2, Liquid mixture 1
Property: Mole fraction of toluene (Liquid mixture 2); method: Density calibration data
Temperature, K	Pressure, kPa	Mole fraction of toluene	uncertainty
298.15	101	.328	

System: ethylbenzene + 1-butyl-3-methylimidazolium methylsulfate; phases: Liquid mixture 2, Liquid mixture 1
Property: Mole fraction of ethylbenzene (Liquid mixture 2); method: Density calibration data
Pressure, kPa	Temperature, K	Mole fraction of ethylbenzene	uncertainty
101	298.15	.189	

System: cyclohexene + 1-butyl-3-methylimidazolium methylsulfate; phases: Liquid mixture 2, Liquid mixture 1
Property: Mole fraction of cyclohexene (Liquid mixture 2); method: Density calibration data
Pressure, kPa	Temperature, K	Mole fraction of cyclohexene	uncertainty
101	298.15	.071	

System: hexane + 1-butyl-3-methylimidazolium bis[(trifluoromethyl)sulfonyl]imide; phases: Liquid mixture 2, Liquid mixture 1
Property: Mole fraction of hexane (Liquid mixture 2); method: Density calibration data
Pressure, kPa	Temperature, K	Mole fraction of hexane	uncertainty
101	298.15	.095	

System: ethylbenzene + 1-butyl-3-methylimidazolium bis[(trifluoromethyl)sulfonyl]imide; phases: Liquid mixture 2, Liquid mixture 1
Property: Mole fraction of ethylbenzene (Liquid mixture 2); method: Density calibration data
Pressure, kPa	Temperature, K	Mole fraction of ethylbenzene	uncertainty
101	298.15	.633	

System: hexane + 1-methyl-3-propylimidazolium bis[(trifluoromethyl)sulfonyl]imide; phases: Liquid mixture 2, Liquid mixture 1
Property: Mole fraction of hexane (Liquid mixture 2); method: Density calibration data
Pressure, kPa	Temperature, K	Mole fraction of hexane	uncertainty
101	298.15	.079	

System: ethylbenzene + 1-methyl-3-propylimidazolium bis[(trifluoromethyl)sulfonyl]imide; phases: Liquid mixture 2, Liquid mixture 1
Property: Mole fraction of ethylbenzene (Liquid mixture 2); method: Density calibration data
Pressure, kPa	Temperature, K	Mole fraction of ethylbenzene	uncertainty
101	298.15	.573	
