Measured thermophysical data. Thermodynamic study of aqueous 2-(isopropylamino)ethanol. A sterically hindered new amine absorbent for CO2 capture
Source: J. Chem. Thermodyn., 2015, 10.1016/j.jct.2014.10.004
Compound 1: 2-isopropylaminoethanol, C5H13NO, purity 99%
Compound 2: water, H2O, purity 99.8%

System: 2-isopropylaminoethanol; phases: Liquid
Fixed: Frequency, MHz = 3
Property: Speed of sound, m/s (Liquid); method: Sing-around technique in a fixed-path interferometer
Temperature, K	Pressure, kPa	Speed of sound, m/s	uncertainty
283.15	100	1428.6	.5
288.15	100	1410.1	.5
293.15	100	1392.3	.5
298.15	100	1374.9	.5
303.15	100	1357.3	.5

System: 2-isopropylaminoethanol; phases: Liquid
Property: Mass density, kg/m3 (Liquid); method: Vibrating tube method
Temperature, K	Pressure, kPa	Mass density, kg/m3	uncertainty
283.15	100	905.266	.1
288.15	100	901.248	.1
293.15	100	897.188	.1
298.15	100	893.227	.1
303.15	100	889.248	.1

System: water; phases: Liquid
Fixed: Frequency, MHz = 3
Property: Speed of sound, m/s (Liquid); method: Sing-around technique in a fixed-path interferometer
Temperature, K	Pressure, kPa	Speed of sound, m/s	uncertainty
283.15	100	1447.78	.5
288.15	100	1466.53	.5
293.15	100	1482.64	.5
298.15	100	1496.77	.5
303.15	100	1509.25	.5

System: water; phases: Liquid
Property: Mass density, kg/m3 (Liquid); method: Vibrating tube method
Temperature, K	Pressure, kPa	Mass density, kg/m3	uncertainty
283.15	100	999.699	.05
288.15	100	999.099	.05
293.15	100	998.203	.05
298.15	100	997.043	.05
303.15	100	995.645	.05

System: 2-isopropylaminoethanol + water; phases: Liquid
Fixed: Pressure, kPa = 100
Property: Mass density, kg/m3 (Liquid); method: Vibrating tube method
Temperature, K	Mole fraction of 2-isopropylaminoethanol	Mass density, kg/m3	uncertainty
283.15	0	999.699	.05
283.15	.00083	999.429	.05
283.15	.00357	998.87	.05
283.15	.00624	998.428	.05
283.15	.08847	993.982	.05
283.15	.11218	990.014	.05
283.15	.14545	984.165	.05
283.15	.17156	979.625	.05
283.15	.20042	974.777	.05
283.15	.23958	968.636	.05
283.15	.27783	963.204	.05
283.15	.33067	956.267	.05
283.15	.3865	949.783	.05
283.15	.44883	943.14	.05
283.15	.52062	936.292	.05
283.15	.60204	929.39	.05
283.15	.66572	924.537	.05
283.15	.72948	920.135	.05
283.15	.78683	916.463	.05
283.15	.85145	912.95	.1
283.15	.9007	910.193	.1
283.15	.90919	909.886	.1
283.15	.92087	909.223	.1
283.15	.92961	908.721	.1
283.15	.94171	907.675	.1
283.15	.96247	907.263	.1
283.15	.96732	906.772	.1
283.15	.97711	906.301	.1
283.15	.98613	905.948	.1
283.15	1	905.266	.1
288.15	0	999.099	.05
288.15	.00083	998.829	.05
288.15	.00357	998.232	.05
288.15	.00624	997.752	.05
288.15	.08847	990.829	.05
288.15	.11218	986.581	.05
288.15	.14545	980.58	.05
288.15	.17156	975.946	.05
288.15	.20042	971.058	.05
288.15	.23958	964.902	.05
288.15	.27783	959.372	.05
288.15	.33067	952.425	.05
288.15	.3865	945.942	.05
288.15	.44883	939.246	.05
288.15	.52062	932.358	.05
288.15	.60204	925.447	.05
288.15	.66572	920.598	.05
288.15	.72948	916.167	.05
288.15	.78683	912.495	.05
288.15	.85145	908.816	.1
288.15	.9007	906.139	.1
288.15	.90919	905.828	.1
288.15	.92087	905.259	.1
288.15	.92961	904.709	.1
288.15	.94171	903.791	.1
288.15	.96247	903.243	.1
288.15	.96732	902.839	.1
288.15	.97711	902.35	.1
288.15	.98613	901.959	.1
288.15	1	901.248	.1
293.15	0	998.203	.05
293.15	.00083	997.941	.05
293.15	.00357	997.314	.05
293.15	.00624	996.796	.05
293.15	.08847	987.632	.05
293.15	.11218	983.141	.05
293.15	.14545	976.901	.05
293.15	.17156	972.233	.05
293.15	.20042	967.268	.05
293.15	.23958	961.082	.05
293.15	.27783	955.53	.05
293.15	.33067	948.528	.05
293.15	.3865	942.003	.05
293.15	.44883	935.247	.05
293.15	.52062	928.428	.05
293.15	.60204	921.508	.05
293.15	.66572	916.657	.05
293.15	.72948	912.233	.05
293.15	.78683	908.568	.05
293.15	.85145	904.762	.1
293.15	.9007	902.115	.1
293.15	.90919	901.671	.1
293.15	.92087	901.065	.1
293.15	.92961	900.638	.1
293.15	.94171	899.707	.1
293.15	.96247	899.054	.1
293.15	.96732	898.765	.1
293.15	.97711	898.321	.1
293.15	.98613	897.867	.1
293.15	1	897.188	.1
298.15	0	997.043	.05
298.15	.00083	996.746	.05
298.15	.00357	996.12	.05
298.15	.00624	995.568	.05
298.15	.08847	984.366	.05
298.15	.11218	979.632	.05
298.15	.14545	973.215	.05
298.15	.17156	968.471	.05
298.15	.20042	963.484	.05
298.15	.23958	957.225	.05
298.15	.27783	951.627	.05
298.15	.33067	944.638	.05
298.15	.3865	938.044	.05
298.15	.44883	931.347	.05
298.15	.52062	924.47	.05
298.15	.60204	917.545	.05
298.15	.66572	912.68	.05
298.15	.72948	908.258	.05
298.15	.78683	904.898	.05
298.15	.85145	900.848	.1
298.15	.9007	898.128	.1
298.15	.90919	897.723	.1
298.15	.92087	897.216	.1
298.15	.92961	896.756	.1
298.15	.94171	895.711	.1
298.15	.96247	895.252	.1
298.15	.96732	894.772	.1
298.15	.97711	894.314	.1
298.15	.98613	893.865	.1
298.15	1	893.227	.1
303.15	0	995.645	.05
303.15	.00083	995.37	.05
303.15	.00357	994.682	.05
303.15	.00624	994.087	.05
303.15	.08847	981.04	.05
303.15	.11218	976.084	.05
303.15	.14545	969.516	.05
303.15	.17156	964.684	.05
303.15	.20042	959.641	.05
303.15	.23958	953.331	.05
303.15	.27783	947.711	.05
303.15	.33067	940.671	.05
303.15	.3865	934.087	.05
303.15	.44883	927.379	.05
303.15	.52062	920.478	.05
303.15	.60204	913.555	.05
303.15	.66572	908.678	.05
303.15	.72948	904.244	.05
303.15	.78683	900.549	.05
303.15	.85145	896.809	.1
303.15	.9007	894.135	.1
303.15	.90919	893.685	.1
303.15	.92087	892.635	.1
303.15	.92961	892.625	.1
303.15	.94171	891.746	.1
303.15	.96247	891.287	.1
303.15	.96732	890.794	.1
303.15	.97711	890.323	.1
303.15	.98613	889.993	.1
303.15	1	889.248	.1

System: 2-isopropylaminoethanol + water; phases: Liquid
Fixed: Pressure, kPa = 100
Fixed: Frequency, MHz = 3
Property: Speed of sound, m/s (Liquid); method: Sing-around technique in a fixed-path interferometer
Temperature, K	Mole fraction of 2-isopropylaminoethanol	Speed of sound, m/s	uncertainty
283.15	.00083	5.01	.5
283.15	.00357	20.58	.5
283.15	.00624	34.92	.5
283.15	.08847	239	.5
283.15	.11218	232.46	.5
283.15	.14545	219.16	.5
283.15	.17156	208.09	.5
283.15	.20042	195.41	.5
283.15	.23958	178.6	.5
283.15	.27783	163.39	.5
283.15	.33067	142.67	.5
283.15	.3865	122.84	.5
283.15	.44883	101.88	.5
283.15	.52062	79.85	.5
283.15	.60204	57.28	.5
283.15	.66572	41.4	.5
283.15	.72948	27.21	.5
283.15	.78683	15.6	.5
283.15	.85145	5.02	.5
283.15	.9007	-3.35	.5
283.15	.90919	-4.56	.5
283.15	.92087	-6.33	.5
283.15	.92961	-8.43	.5
283.15	.94171	-11.51	.5
283.15	.96247	-12.64	.5
283.15	.96732	-14.14	.5
283.15	.97711	-15.37	.5
283.15	.98613	-16.81	.5
283.15	1	-18.96	.5
288.15	.00083	4.32	.5
288.15	.00357	18.62	.5
288.15	.00624	31.8	.5
288.15	.08847	210.42	.5
288.15	.11218	203.14	.5
288.15	.14545	188.9	.5
288.15	.17156	176.59	.5
288.15	.20042	163.18	.5
288.15	.23958	145.64	.5
288.15	.27783	129.44	.5
288.15	.33067	108.02	.5
288.15	.3865	87.5	.5
288.15	.44883	66.17	.5
288.15	.52062	43.61	.5
288.15	.60204	20.9	.5
288.15	.66572	4.89	.5
288.15	.72948	-9.41	.5
288.15	.78683	-21.08	.5
288.15	.85145	-32.83	.5
288.15	.9007	-41.1	.5
288.15	.90919	-41.83	.5
288.15	.92087	-43.9	.5
288.15	.92961	-45.59	.5
288.15	.94171	-48.6	.5
288.15	.96247	-49.73	.5
288.15	.96732	-51.23	.5
288.15	.97711	-52.69	.5
288.15	.98613	-53.89	.5
288.15	1	-56.11	.5
293.15	.00083	4.13	.5
293.15	.00357	17.24	.5
293.15	.00624	29.34	.5
293.15	.08847	184.55	.5
293.15	.11218	176.32	.5
293.15	.14545	160.45	.5
293.15	.17156	147.8	.5
293.15	.20042	133.46	.5
293.15	.23958	115.09	.5
293.15	.27783	97.98	.5
293.15	.33067	76.04	.5
293.15	.3865	55.09	.5
293.15	.44883	33.05	.5
293.15	.52062	10.42	.5
293.15	.60204	-12.51	.5
293.15	.66572	-28.61	.5
293.15	.72948	-43.07	.5
293.15	.78683	-54.69	.5
293.15	.85145	-66.98	.5
293.15	.9007	-75.22	.5
293.15	.90919	-76.61	.5
293.15	.92087	-78.51	.5
293.15	.92961	-79.73	.5
293.15	.94171	-82.6	.5
293.15	.96247	-84.14	.5
293.15	.96732	-85.56	.5
293.15	.97711	-86.76	.5
293.15	.98613	-88.21	.5
293.15	1	-90.32	.5
298.15	.00083	3.85	.5
298.15	.00357	16.03	.5
298.15	.00624	26.98	.5
298.15	.08847	160.63	.5
298.15	.11218	151.19	.5
298.15	.14545	134.32	.5
298.15	.17156	120.75	.5
298.15	.20042	105.82	.5
298.15	.23958	86.36	.5
298.15	.27783	68.65	.5
298.15	.33067	46.07	.5
298.15	.3865	24.5	.5
298.15	.44883	2.32	.5
298.15	.52062	-20.64	.5
298.15	.60204	-43.98	.5
298.15	.66572	-60.11	.5
298.15	.72948	-74.64	.5
298.15	.78683	-86.43	.5
298.15	.85145	-98.47	.5
298.15	.9007	-106.97	.5
298.15	.90919	-108.15	.5
298.15	.92087	-109.84	.5
298.15	.92961	-110.82	.5
298.15	.94171	-114.58	.5
298.15	.96247	-115.94	.5
298.15	.96732	-117.35	.5
298.15	.97711	-118.6	.5
298.15	.98613	-120.23	.5
298.15	1	-122.09	.5
303.15	.00083	3.3	.5
303.15	.00357	14.39	.5
303.15	.00624	24.64	.5
303.15	.08847	138.19	.5
303.15	.11218	127.61	.5
303.15	.14545	109.46	.5
303.15	.17156	95.01	.5
303.15	.20042	79.29	.5
303.15	.23958	59.2	.5
303.15	.27783	40.93	.5
303.15	.33067	17.69	.5
303.15	.3865	-4.35	.5
303.15	.44883	-26.71	.5
303.15	.52062	-50.09	.5
303.15	.60204	-73.56	.5
303.15	.66572	-89.78	.5
303.15	.72948	-104.46	.5
303.15	.78683	-116.33	.5
303.15	.85145	-128.66	.5
303.15	.9007	-136.8	.5
303.15	.90919	-138.27	.5
303.15	.92087	-140.1	.5
303.15	.92961	-141.75	.5
303.15	.94171	-144.49	.5
303.15	.96247	-145.85	.5
303.15	.96732	-147.34	.5
303.15	.97711	-148.82	.5
303.15	.98613	-149.91	.5
303.15	1	-152.18	.5
