Measured thermophysical data. [1-Ethyl-3-Methyl-Imidazolium][EthylSulfate]-based aqueous two phase systems: New experimental data and new modelling
Source: J. Chem. Thermodyn., 2013, 10.1016/j.jct.2013.05.026
Compound 1: 1-ethyl-3-methylimidazolium ethyl sulfate, C8H16N2O4S, purity 95%
Compound 2: sodium carbonate, CNa2O3, purity 99.9%
Compound 3: sodium sulfate, Na2O4S, purity 99%
Compound 4: conclyte P, HK2O4P, purity 99.99%
Compound 5: water, H2O, purity 99%

System: sodium carbonate + water + 1-ethyl-3-methylimidazolium ethyl sulfate; phases: Liquid mixture 2, Liquid mixture 1
Property: Mass fraction of sodium carbonate (Liquid mixture 2); method: atomic absorption spectroscopy
Property: Mass fraction of 1-ethyl-3-methylimidazolium ethyl sulfate (Liquid mixture 1); method: atomic absorption spectroscopy
Property: Mass fraction of sodium carbonate (Liquid mixture 1); method: atomic absorption spectroscopy
Temperature, K	Pressure, kPa	Mass fraction of 1-ethyl-3-methylimidazolium ethyl sulfate	Mass fraction of sodium carbonate	uncertainty	Mass fraction of 1-ethyl-3-methylimidazolium ethyl sulfate	uncertainty	Mass fraction of sodium carbonate	uncertainty
288.15	101.325	.0666	.186	.00558	.2543	.007629	.0529	.001587
313.15	101.325	.0668	.1953	.005859	.2915	.008745	.0412	.001236
313.15	101.325	.0673	.2058	.006174	.2917	.008751	.0418	.001254
288.15	101.325	.0559	.2035	.006105	.2552	.007656	.0441	.001323
313.15	101.325	.0752	.1882	.005646	.2928	.008784	.0451	.001353
313.15	101.325	.0542	.191	.00573	.2937	.008811	.0423	.001269
313.15	101.325	.0636	.1957	.005871	.2782	.008346	.0451	.001353
288.15	101.325	.0613	.2042	.006126	.2762	.008286	.0509	.001527
288.15	101.325	.0537	.2195	.006585	.2758	.008274	.0418	.001254
288.15	101.325	.0531	.2277	.006831	.2783	.008349	.0399	.001197
288.15	101.325	.0573	.2099	.006297	.2778	.008334	.0457	.001371
298.15	101.325	.0684	.2039	.006117	.3028	.009084	.049	.00147
288.15	101.325	.0489	.2136	.006408	.2909	.008727	.0395	.001185
288.15	101.325	.0452	.1962	.005886	.2719	.008157	.0387	.001161
288.15	101.325	.0508	.1999	.005997	.2816	.008448	.0426	.001278
298.15	101.325	.0782	.1908	.005724	.2778	.008334	.0535	.001605
298.15	101.325	.0931	.1741	.005223	.2598	.007794	.0648	.001944
298.15	101.325	.0914	.1815	.005445	.2711	.008133	.0594	.001782
298.15	101.325	.0836	.1907	.005721	.2811	.008433	.0619	.001857
298.15	101.325	.0723	.2059	.006177	.282	.00846	.0497	.001491
298.15	101.325	.0692	.2062	.006186	.2921	.008763	.0494	.001482
298.15	101.325	.0806	.2021	.006063	.2808	.008424	.0552	.001656
298.15	101.325	.0692	.2072	.006216	.2978	.008934	.0486	.001458
288.15	101.325	.062	.1917	.005751	.2313	.006939	.0475	.001425
298.15	101.325	.0732	.1993	.005979	.2905	.008715	.0486	.001458
313.15	101.325	.0587	.1731	.005193	.2771	.008313	.0458	.001374
313.15	101.325	.0655	.173	.00519	.2346	.007038	.0498	.001494
313.15	101.325	.0805	.1629	.004887	.2762	.008286	.0533	.001599
313.15	101.325	.0738	.1816	.005448	.2445	.007335	.044	.00132

System: water + conclyte P + 1-ethyl-3-methylimidazolium ethyl sulfate; phases: Liquid mixture 1, Liquid mixture 2
Property: Mass fraction of conclyte P (Liquid mixture 1); method: atomic absorption spectroscopy
Property: Mass fraction of conclyte P (Liquid mixture 2); method: atomic absorption spectroscopy
Property: Mass fraction of 1-ethyl-3-methylimidazolium ethyl sulfate (Liquid mixture 2); method: atomic absorption spectroscopy
Temperature, K	Pressure, kPa	Mass fraction of 1-ethyl-3-methylimidazolium ethyl sulfate	Mass fraction of conclyte P	uncertainty	Mass fraction of conclyte P	uncertainty	Mass fraction of 1-ethyl-3-methylimidazolium ethyl sulfate	uncertainty
288.15	101.325	.3233	.0884	.002652	.4129	.012387	.1267	.003801
298.15	101.325	.3018	.0952	.002856	.5244	.015732	.0498	.001494
298.15	101.325	.3277	.0862	.002586	.5356	.016068	.0427	.001281
288.15	101.325	.2615	.1142	.003426	.4371	.013113	.0736	.002208
298.15	101.325	.2955	.1066	.003198	.4752	.014256	.0621	.001863
313.15	101.325	.3394	.0737	.002211	.5273	.015819	.0414	.001242
313.15	101.325	.3668	.0586	.001758	.568	.01704	.0294	.000882
313.15	101.325	.3265	.0843	.002529	.4731	.014193	.0351	.001053
313.15	101.325	.3368	.0794	.002382	.5129	.015387	.0371	.001113
313.15	101.325	.3553	.0712	.002136	.5462	.016386	.0301	.000903
313.15	101.325	.3503	.0662	.001986	.5296	.015888	.0294	.000882
288.15	101.325	.3282	.0678	.002034	.5462	.016386	.0384	.001152
313.15	101.325	.2731	.1017	.003051	.4758	.014274	.039	.00117
313.15	101.325	.3237	.0859	.002577	.4816	.014448	.0391	.001173
313.15	101.325	.3541	.0687	.002061	.5537	.016611	.0355	.001065
288.15	101.325	.3028	.0984	.002952	.4398	.013194	.0555	.001665
313.15	101.325	.315	.0789	.002367	.4728	.014184	.0479	.001437
288.15	101.325	.2986	.1052	.003156	.4691	.014073	.0558	.001674
288.15	101.325	.3416	.0708	.002124	.5101	.015303	.0372	.001116
288.15	101.325	.3171	.0992	.002976	.4696	.014088	.0505	.001515
288.15	101.325	.3189	.0859	.002577	.4763	.014289	.0426	.001278
288.15	101.325	.297	.0999	.002997	.4537	.013611	.0624	.001872
298.15	101.325	.353	.082	.00246	.5641	.016923	.0394	.001182
288.15	101.325	.3121	.0918	.002754	.4684	.014052	.055	.00165
298.15	101.325	.3113	.0964	.002892	.5116	.015348	.0484	.001452
298.15	101.325	.2899	.1054	.003162	.4851	.014553	.0555	.001665
298.15	101.325	.3146	.0906	.002718	.5363	.016089	.0444	.001332
298.15	101.325	.2811	.1225	.003675	.4391	.013173	.0701	.002103
298.15	101.325	.2961	.1039	.003117	.4896	.014688	.0546	.001638
298.15	101.325	.3401	.0747	.002241	.5813	.017439	.0353	.001059

System: water + sodium sulfate + 1-ethyl-3-methylimidazolium ethyl sulfate; phases: Liquid mixture 1, Liquid mixture 2
Property: Mass fraction of sodium sulfate (Liquid mixture 1); method: atomic absorption spectroscopy
Property: Mass fraction of sodium sulfate (Liquid mixture 2); method: atomic absorption spectroscopy
Property: Mass fraction of 1-ethyl-3-methylimidazolium ethyl sulfate (Liquid mixture 2); method: atomic absorption spectroscopy
Temperature, K	Pressure, kPa	Mass fraction of 1-ethyl-3-methylimidazolium ethyl sulfate	Mass fraction of sodium sulfate	uncertainty	Mass fraction of sodium sulfate	uncertainty	Mass fraction of 1-ethyl-3-methylimidazolium ethyl sulfate	uncertainty
288.15	101.325	.3234	.0431	.001293	.256	.00768	.0559	.001677
298.15	101.325	.2787	.0626	.001878	.2062	.006186	.0831	.002493
298.15	101.325	.2864	.0657	.001971	.2213	.006639	.0833	.002499
298.15	101.325	.3137	.0508	.001524	.2358	.007074	.0724	.002172
298.15	101.325	.3031	.0579	.001737	.2348	.007044	.0763	.002289
298.15	101.325	.3183	.0499	.001497	.2494	.007482	.0713	.002139
298.15	101.325	.2881	.0537	.001611	.223	.00669	.0748	.002244
298.15	101.325	.2962	.0547	.001641	.229	.00687	.0749	.002247
298.15	101.325	.2916	.059	.00177	.2177	.006531	.0777	.002331
298.15	101.325	.3153	.0526	.001578	.2376	.007128	.0681	.002043
288.15	101.325	.3049	.0509	.001527	.2462	.007386	.0605	.001815
288.15	101.325	.3187	.046	.00138	.2476	.007428	.0638	.001914
288.15	101.325	.293	.0437	.001311	.2443	.007329	.0604	.001812
288.15	101.325	.2783	.0516	.001548	.2386	.007158	.0679	.002037
288.15	101.325	.2746	.0585	.001755	.2171	.006513	.082	.00246
288.15	101.325	.2991	.049	.00147	.2503	.007509	.0633	.001899
288.15	101.325	.277	.0514	.001542	.2354	.007062	.0686	.002058
298.15	101.325	.2881	.0574	.001722	.2227	.006681	.0795	.002385
