Measured thermophysical data. Determination of the activity of a molecular solute in saturated solution
Source: J. Chem. Thermodyn., 2008, 10.1016/j.jct.2008.06.016
Compound 1: o-hydroxybenzoic acid, C7H6O3
Compound 2: m-hydroxybenzoic acid, C7H6O3
Compound 3: p-hydroxybenzoic acid, C7H6O3
Compound 4: salicylamide, C7H7NO2

System: o-hydroxybenzoic acid; phases: Crystal
Fixed: Pressure, kPa = 101.325
Property: Molar heat capacity at constant pressure, J/K/mol (Crystal); method: Small sample (50 mg) DSC
Temperature, K	Molar heat capacity at constant pressure, J/K/mol	uncertainty
280.4	128.4585924	29.998614976
285.5	129.95519736	29.998614976
290.5	131.61809176	29.998614976
295.4	133.53042032	29.998614976
300.4	135.44274888	29.998614976
305.4	137.43822216	29.998614976
310.4	139.43369544	29.998614976
315.4	141.42916872	29.998614976
320.4	143.50778672	29.998614976
325.4	145.50326	29.998614976
330.4	147.581878	29.998614976
335.4	149.82678544	29.998614976
340.4	151.82225872	29.998614976
345.4	154.06716616	29.998614976
350.4	156.22892888	29.998614976
355.4	158.22440216	29.998614976
360.4	160.30302016	29.998614976
365.4	162.29849344	29.998614976
370.4	164.210822	29.998614976
375.4	165.8737164	29.998614976
380.4	167.9523344	29.998614976
385.4	170.11409712	29.998614976
390.4	172.1095704	29.998614976
395.5	173.7724648	29.998614976
400.5	175.60164864	29.998614976
405.5	177.5139772	29.998614976

System: m-hydroxybenzoic acid; phases: Crystal
Fixed: Pressure, kPa = 101.325
Property: Molar heat capacity at constant pressure, J/K/mol (Crystal); method: Small sample (50 mg) DSC
Temperature, K	Molar heat capacity at constant pressure, J/K/mol	uncertainty
280.4	134.61130168	29.998614976
285.5	136.7730644	29.998614976
290.5	138.93482712	29.998614976
295.4	141.17973456	29.998614976
300.4	143.50778672	29.998614976
305.4	145.75269416	29.998614976
310.4	147.91445688	29.998614976
315.4	150.15936432	29.998614976
320.4	152.65370592	29.998614976
325.5	154.98175808	29.998614976
330.5	157.39295496	29.998614976
335.5	159.72100712	29.998614976
340.5	162.21534872	29.998614976
345.5	164.46025616	29.998614976
350.4	166.87145304	29.998614976
355.4	169.11636048	29.998614976
360.4	171.2781232	29.998614976
365.4	173.68932008	29.998614976
370.4	175.93422752	29.998614976
375.4	177.9297008	29.998614976
380.4	180.75662128	29.998614976
385.4	183.7498312	29.998614976
390.5	186.32731752	29.998614976
395.5	188.65536968	29.998614976
400.5	190.56769824	29.998614976
405.5	192.64631624	29.998614976
410.5	194.5586448	29.998614976
415.5	196.55411808	29.998614976
420.5	198.3001572	29.998614976
425.5	200.29563048	29.998614976
430.5	202.4573932	29.998614976
435.5	205.03487952	29.998614976
440.5	207.52922112	29.998614976
445.5	209.940418	29.998614976
450.5	212.10218072	29.998614976
455.5	214.84595648	29.998614976
460.4	218.83690304	29.998614976

System: p-hydroxybenzoic acid; phases: Crystal
Fixed: Pressure, kPa = 101.325
Property: Molar heat capacity at constant pressure, J/K/mol (Crystal); method: Small sample (50 mg) DSC
Temperature, K	Molar heat capacity at constant pressure, J/K/mol	uncertainty
280.8	138.93482712	29.998614976
285.8	141.26287928	29.998614976
290.8	143.50778672	29.998614976
295.8	145.66954944	29.998614976
300.7	147.9976016	29.998614976
305.8	149.660496	29.998614976
310.8	151.82225872	29.998614976
315.8	154.56603448	29.998614976
320.8	156.39521832	29.998614976
325.8	158.72327048	29.998614976
330.8	161.38390152	29.998614976
335.8	163.7950984	29.998614976
340.8	166.28944	29.998614976
345.8	168.61749216	29.998614976
350.8	171.11183376	29.998614976
355.8	173.3567412	29.998614976
360.8	175.51850392	29.998614976
365.7	177.76341136	29.998614976
370.7	180.0083188	29.998614976
375.7	182.00379208	29.998614976
380.8	184.41498896	29.998614976
385.8	186.6598964	29.998614976
390.8	188.90480384	29.998614976
395.8	190.98342184	29.998614976
400.8	193.06203984	29.998614976
405.8	195.05751312	29.998614976
410.8	196.96984168	29.998614976
415.8	198.7158808	29.998614976
420.8	200.3787752	29.998614976
425.8	202.20795904	29.998614976
430.8	204.45286648	29.998614976
435.8	207.11349752	29.998614976
440.8	209.5246944	29.998614976
445.8	211.6033124	29.998614976
450.8	213.76507512	29.998614976
455.8	215.92683784	29.998614976
460.7	218.17174528	29.998614976

System: salicylamide; phases: Crystal
Fixed: Pressure, kPa = 101.325
Property: Molar heat capacity at constant pressure, J/K/mol (Crystal); method: Small sample (50 mg) DSC
Temperature, K	Molar heat capacity at constant pressure, J/K/mol	uncertainty
280.4	124.13506696	29.998614976
285.4	126.29682968	29.998614976
290.4	128.70802656	29.998614976
295.4	130.86978928	29.998614976
300.4	133.11469672	29.998614976
305.4	135.60903832	29.998614976
310.4	138.0202352	29.998614976
315.4	140.5145768	29.998614976
320.4	142.92577368	29.998614976
325.4	145.50326	29.998614976
330.4	148.08074632	29.998614976
335.4	150.4919432	29.998614976
340.4	153.06942952	29.998614976
345.4	155.64691584	29.998614976
350.4	158.22440216	29.998614976
355.4	160.63559904	29.998614976
360.4	163.29623008	29.998614976
365.4	165.62428224	29.998614976
370.4	168.11862384	29.998614976
375.4	170.28038656	29.998614976
380.4	172.9410176	29.998614976
385.4	175.35221448	29.998614976
390.4	177.9297008	29.998614976
395.4	180.59033184	29.998614976
