Measured thermophysical data. Heat capacity of 1-pentylamine and 1-hexylamine: Experimental determination  and modeling through a two-state association model (TSAM)
Source: J. Chem. Thermodyn., 2013, 10.1016/j.jct.2012.09.016
Compound 1: 1-pentanamine, C5H13N, purity 98.5%
Compound 2: hexylamine, C6H15N, purity 99%

System: 1-pentanamine; phases: Liquid
Property: Mass density, kg/m3 (Liquid); method: Vibrating tube method
Temperature, K	Pressure, kPa	Mass density, kg/m3	uncertainty
293.15	100	754	
293.15	10000	760.8	
293.15	20000	767.2	
293.15	30000	773.3	
293.15	40000	779	
293.15	50000	784.3	
293.15	60000	789.3	
293.15	70000	794	
293.15	80000	798.5	
293.15	90000	802.9	
293.15	100000	806.9	
293.15	110000	810.9	
293.15	120000	814.6	
293.15	130000	818.2	
293.15	140000	821.8	
353.15	100	698.5	
353.15	10000	709.4	
353.15	20000	718.5	
353.15	30000	726.8	
353.15	40000	734.3	
353.15	50000	741.2	
353.15	60000	747.6	
353.15	70000	753.6	
353.15	80000	759.3	
353.15	90000	764.7	
353.15	100000	769.8	
353.15	110000	774.5	
353.15	120000	779	
353.15	130000	783.5	
353.15	140000	787.7	
363.15	100	688.6	
363.15	10000	700.1	
363.15	20000	710	
363.15	30000	718.7	
363.15	40000	726.6	
363.15	50000	733.9	
363.15	60000	740.6	
363.15	70000	746.9	
363.15	80000	752.8	
363.15	90000	758.5	
363.15	100000	763.7	
363.15	110000	768.7	
363.15	120000	773.4	
363.15	130000	777.9	
363.15	140000	782.1	
373.15	100	679	
373.15	10000	691.5	
373.15	20000	702	
373.15	30000	711.3	
373.15	40000	719.6	
373.15	50000	727.1	
373.15	60000	734.1	
373.15	70000	740.5	
373.15	80000	746.7	
373.15	90000	752.3	
373.15	100000	757.6	
373.15	110000	762.7	
373.15	120000	767.6	
373.15	130000	772.2	
373.15	140000	776.6	
383.15	10000	682.6	
383.15	20000	693.8	
383.15	30000	703.7	
383.15	40000	712.3	
383.15	50000	720.3	
383.15	60000	727.5	
383.15	70000	734.3	
383.15	80000	740.6	
383.15	90000	746.5	
383.15	100000	752	
383.15	110000	757.2	
383.15	120000	762.2	
383.15	130000	766.8	
383.15	140000	771.4	
393.15	10000	673.1	
393.15	20000	685.2	
393.15	30000	695.5	
393.15	40000	704.7	
393.15	50000	713.2	
393.15	60000	720.8	
393.15	70000	727.9	
393.15	80000	734.4	
393.15	90000	740.3	
393.15	100000	746	
393.15	110000	751.4	
393.15	120000	756.5	
393.15	130000	761.4	
393.15	140000	766	
403.15	10000	664.1	
403.15	20000	677	
403.15	30000	687.8	
403.15	40000	697.3	
403.15	50000	705.9	
403.15	60000	713.9	
403.15	70000	721	
403.15	80000	727.8	
403.15	90000	734	
403.15	100000	739.9	
403.15	110000	745.4	
403.15	120000	750.7	
403.15	130000	755.7	
403.15	140000	760.5	

System: 1-pentanamine; phases: Liquid
Property: Molar heat capacity at constant pressure, J/K/mol (Liquid); method: Small sample (50 mg) DSC
Temperature, K	Pressure, kPa	Molar heat capacity at constant pressure, J/K/mol	uncertainty
313.15	100	221.7	1.1085
313.15	20000	219.7	1.0985
313.15	40000	218.3	1.0915
313.15	60000	217.9	1.0895
323.15	100	222.7	1.1135
323.15	20000	220.1	1.1005
323.15	40000	218.7	1.0935
323.15	60000	218.3	1.0915
333.15	100	223.9	1.1195
333.15	20000	220.8	1.104
333.15	40000	219.4	1.097
333.15	60000	218.9	1.0945
343.15	100	225.3	1.1265
343.15	20000	221.8	1.109
343.15	40000	220.5	1.1025
343.15	60000	219.8	1.099
353.15	100	226.9	1.1345
353.15	20000	223.3	1.1165
353.15	40000	221.8	1.109
353.15	60000	221.1	1.1055
363.15	20000	225.1	1.1255
363.15	40000	223.5	1.1175
363.15	60000	222.6	1.113
373.15	20000	227.4	1.137
373.15	40000	225.5	1.1275
373.15	60000	224.5	1.1225
383.15	20000	230	1.15
383.15	40000	227.8	1.139
383.15	60000	226.6	1.133
393.15	20000	232.9	1.1645
393.15	40000	230.4	1.152
393.15	60000	229	1.145
403.15	20000	236.3	1.1815
403.15	40000	233.3	1.1665
403.15	60000	231.8	1.159

System: hexylamine; phases: Liquid
Property: Mass density, kg/m3 (Liquid); method: Vibrating tube method
Temperature, K	Pressure, kPa	Mass density, kg/m3	uncertainty
293.15	100	765	
293.15	10000	771.2	
293.15	20000	777.4	
293.15	30000	783.2	
293.15	40000	788.6	
293.15	50000	793.7	
293.15	60000	798.6	
293.15	70000	803.1	
293.15	80000	807.5	
293.15	90000	811.8	
293.15	100000	815.8	
293.15	110000	819.6	
293.15	120000	823.3	
293.15	130000	826.9	
293.15	140000	830.3	
353.15	100	712.4	
353.15	10000	722.4	
353.15	20000	731.1	
353.15	30000	739.1	
353.15	40000	746.2	
353.15	50000	752.8	
353.15	60000	758.9	
353.15	70000	764.7	
353.15	80000	770.1	
353.15	90000	775.2	
353.15	100000	780.1	
353.15	110000	784.7	
353.15	120000	789.2	
353.15	130000	793.4	
353.15	140000	797.5	
363.15	100	703.9	
363.15	10000	714.4	
363.15	20000	723.6	
363.15	30000	731.9	
363.15	40000	739.3	
363.15	50000	746.2	
363.15	60000	752.6	
363.15	70000	758.5	
363.15	80000	764.1	
363.15	90000	769.4	
363.15	100000	774.4	
363.15	110000	779.1	
363.15	120000	783.6	
363.15	130000	787.9	
363.15	140000	792.1	
373.15	100	694.8	
373.15	10000	706	
373.15	20000	716	
373.15	30000	724.5	
373.15	40000	732.4	
373.15	50000	739.5	
373.15	60000	746.1	
373.15	70000	752.2	
373.15	80000	758.1	
373.15	90000	763.5	
373.15	100000	768.7	
373.15	110000	773.5	
373.15	120000	778.2	
373.15	130000	782.6	
373.15	140000	786.9	
383.15	100	686.1	
383.15	10000	698.2	
383.15	20000	708.6	
383.15	30000	717.6	
383.15	40000	725.8	
383.15	50000	733.3	
383.15	60000	740.2	
383.15	70000	746.5	
383.15	80000	752.5	
383.15	90000	758.1	
383.15	100000	763.4	
383.15	110000	768.3	
383.15	120000	773.2	
383.15	130000	777.7	
383.15	140000	782	
393.15	100	676.2	
393.15	10000	689.2	
393.15	20000	700.3	
393.15	30000	709.8	
393.15	40000	718.4	
393.15	50000	726.6	
393.15	60000	733.7	
393.15	70000	740.3	
393.15	80000	746.5	
393.15	90000	752.2	
393.15	100000	757.7	
393.15	110000	762.9	
393.15	120000	767.8	
393.15	130000	772.5	
393.15	140000	776.9	
403.15	100	666.9	
403.15	10000	680.9	
403.15	20000	692.5	
403.15	30000	702.8	
403.15	40000	711.7	
403.15	50000	719.9	
403.15	60000	727.2	
403.15	70000	734.1	
403.15	80000	740.4	
403.15	90000	746.5	
403.15	100000	752.1	
403.15	110000	757.4	
403.15	120000	762.5	
403.15	130000	767.2	
403.15	140000	771.8	

System: hexylamine; phases: Liquid
Property: Molar heat capacity at constant pressure, J/K/mol (Liquid); method: Small sample (50 mg) DSC
Temperature, K	Pressure, kPa	Molar heat capacity at constant pressure, J/K/mol	uncertainty
313.15	100	253.5	1.2675
313.15	20000	251	1.255
313.15	40000	250.1	1.2505
313.15	60000	248.9	1.2445
323.15	100	253.7	1.2685
323.15	20000	251.5	1.2575
323.15	40000	250.5	1.2525
323.15	60000	249.3	1.2465
333.15	100	254.4	1.272
333.15	20000	252.4	1.262
333.15	40000	251.2	1.256
333.15	60000	250.1	1.2505
343.15	100	255.7	1.2785
343.15	20000	253.6	1.268
343.15	40000	252.3	1.2615
343.15	60000	251.3	1.2565
353.15	100	257.5	1.2875
353.15	20000	255.2	1.276
353.15	40000	253.8	1.269
353.15	60000	252.8	1.264
363.15	100	259.8	1.299
363.15	20000	257.2	1.286
363.15	40000	255.6	1.278
363.15	60000	254.7	1.2735
373.15	100	262.6	1.313
373.15	20000	259.6	1.298
373.15	40000	257.8	1.289
373.15	60000	256.9	1.2845
383.15	20000	262.3	1.3115
383.15	40000	260.3	1.3015
383.15	60000	259.5	1.2975
393.15	20000	265.3	1.3265
393.15	40000	263.1	1.3155
393.15	60000	262.4	1.312
403.15	20000	268.8	1.344
403.15	40000	266.4	1.332
403.15	60000	265.7	1.3285
