Measured thermophysical data. Liquid-liquid extraction of toluene from alkane with pyridinium based ionic liquid ([BPy][NO3] and [HPy][NO3]) at 298.15 K and atmospheric pressure
Source: J. Chem. Thermodyn., 2016, 10.1016/j.jct.2016.07.030
Compound 1: toluene, C7H8, purity 99%
Compound 2: heptane, C7H16, purity 99%
Compound 3: octane, C8H18, purity 99%
Compound 4: decane, C10H22, purity 99%
Compound 5: 1-butylpyridinium nitrate, C9H14N2O3, purity 98%
Compound 6: 1-hexylpyridin-1-ium nitrate [HPy][NO3], C11H18N2O3, purity 98%

System: toluene + heptane + 1-butylpyridinium nitrate; phases: Liquid mixture 1, Liquid mixture 2
Property: Mole fraction of heptane (Liquid mixture 1); method: Chromatography
Property: Mole fraction of toluene (Liquid mixture 2); method: Chromatography
Property: Mole fraction of heptane (Liquid mixture 2); method: Chromatography
Temperature, K	Pressure, kPa	Mole fraction of toluene	Mole fraction of heptane	uncertainty	Mole fraction of toluene	uncertainty	Mole fraction of heptane	uncertainty
298.15	89	.039	.961	.001	.029	.001	.01	.001
298.15	89	.777	.223	.001	.204	.001	.005	.001
298.15	89	.887	.113	.001	.245	.001	.004	.001
298.15	89	.083	.917	.001	.043	.001	.01	.001
298.15	89	.173	.827	.001	.069	.001	.007	.001
298.15	89	.27	.73	.001	.088	.001	.006	.001
298.15	89	.368	.632	.001	.105	.001	.006	.001
298.15	89	.468	.532	.001	.128	.001	.005	.001
298.15	89	.569	.431	.001	.149	.001	.005	.001
298.15	89	.67	.33	.001	.174	.001	.005	.001

System: toluene + octane + 1-butylpyridinium nitrate; phases: Liquid mixture 2, Liquid mixture 1
Property: Mole fraction of octane (Liquid mixture 2); method: Chromatography
Property: Mole fraction of octane (Liquid mixture 1); method: Chromatography
Property: Mole fraction of toluene (Liquid mixture 1); method: Chromatography
Temperature, K	Pressure, kPa	Mole fraction of toluene	Mole fraction of octane	uncertainty	Mole fraction of octane	uncertainty	Mole fraction of toluene	uncertainty
298.15	89	.031	.01	.001	.962	.001	.038	.001
298.15	89	.304	.004	.001	.12	.001	.88	.001
298.15	89	.048	.01	.001	.919	.001	.081	.001
298.15	89	.078	.008	.001	.828	.001	.172	.001
298.15	89	.108	.007	.001	.737	.001	.263	.001
298.15	89	.134	.007	.001	.642	.001	.358	.001
298.15	89	.16	.006	.001	.545	.001	.455	.001
298.15	89	.19	.006	.001	.443	.001	.557	.001
298.15	89	.222	.005	.001	.339	.001	.661	.001
298.15	89	.256	.005	.001	.233	.001	.767	.001

System: toluene + decane + 1-butylpyridinium nitrate; phases: Liquid mixture 2, Liquid mixture 1
Property: Mole fraction of decane (Liquid mixture 2); method: Chromatography
Property: Mole fraction of decane (Liquid mixture 1); method: Chromatography
Property: Mole fraction of toluene (Liquid mixture 1); method: Chromatography
Temperature, K	Pressure, kPa	Mole fraction of toluene	Mole fraction of decane	uncertainty	Mole fraction of decane	uncertainty	Mole fraction of toluene	uncertainty
298.15	89	.041	.012	.001	.967	.001	.033	.001
298.15	89	.362	.003	.001	.131	.001	.869	.001
298.15	89	.066	.012	.001	.927	.001	.073	.001
298.15	89	.107	.01	.001	.843	.001	.157	.001
298.15	89	.141	.008	.001	.752	.001	.248	.001
298.15	89	.168	.007	.001	.657	.001	.343	.001
298.15	89	.193	.006	.001	.556	.001	.444	.001
298.15	89	.232	.006	.001	.46	.001	.54	.001
298.15	89	.27	.005	.001	.355	.001	.645	.001
298.15	89	.313	.004	.001	.248	.001	.752	.001

System: toluene + heptane + 1-hexylpyridin-1-ium nitrate [HPy][NO3]; phases: Liquid mixture 2, Liquid mixture 1
Property: Mole fraction of heptane (Liquid mixture 2); method: Chromatography
Property: Mole fraction of heptane (Liquid mixture 1); method: Chromatography
Property: Mole fraction of toluene (Liquid mixture 1); method: Chromatography
Temperature, K	Pressure, kPa	Mole fraction of toluene	Mole fraction of heptane	uncertainty	Mole fraction of heptane	uncertainty	Mole fraction of toluene	uncertainty
298.15	89	.032	.029	.001	.962	.001	.038	.001
298.15	89	.335	.015	.001	.116	.001	.884	.001
298.15	89	.052	.027	.001	.92	.001	.08	.001
298.15	89	.089	.023	.001	.833	.001	.167	.001
298.15	89	.118	.022	.001	.742	.001	.258	.001
298.15	89	.147	.02	.001	.646	.001	.354	.001
298.15	89	.175	.019	.001	.546	.001	.454	.001
298.15	89	.209	.018	.001	.446	.001	.554	.001
298.15	89	.245	.018	.001	.343	.001	.657	.001
298.15	89	.287	.017	.001	.231	.001	.769	.001

System: toluene + octane + 1-hexylpyridin-1-ium nitrate [HPy][NO3]; phases: Liquid mixture 2, Liquid mixture 1
Property: Mole fraction of octane (Liquid mixture 2); method: Chromatography
Property: Mole fraction of octane (Liquid mixture 1); method: Chromatography
Property: Mole fraction of toluene (Liquid mixture 1); method: Chromatography
Temperature, K	Pressure, kPa	Mole fraction of toluene	Mole fraction of octane	uncertainty	Mole fraction of octane	uncertainty	Mole fraction of toluene	uncertainty
298.15	89	.034	.028	.001	.964	.001	.036	.001
298.15	89	.374	.014	.001	.124	.001	.876	.001
298.15	89	.06	.026	.001	.923	.001	.077	.001
298.15	89	.097	.023	.001	.837	.001	.163	.001
298.15	89	.135	.02	.001	.747	.001	.253	.001
298.15	89	.163	.018	.001	.655	.001	.345	.001
298.15	89	.193	.017	.001	.553	.001	.447	.001
298.15	89	.224	.017	.001	.455	.001	.545	.001
298.15	89	.271	.016	.001	.352	.001	.648	.001
298.15	89	.315	.016	.001	.242	.001	.758	.001

System: toluene + decane + 1-hexylpyridin-1-ium nitrate [HPy][NO3]; phases: Liquid mixture 2, Liquid mixture 1
Property: Mole fraction of decane (Liquid mixture 2); method: Chromatography
Property: Mole fraction of decane (Liquid mixture 1); method: Chromatography
Property: Mole fraction of toluene (Liquid mixture 1); method: Chromatography
Temperature, K	Pressure, kPa	Mole fraction of toluene	Mole fraction of decane	uncertainty	Mole fraction of decane	uncertainty	Mole fraction of toluene	uncertainty
298.15	89	.044	.026	.001	.969	.001	.031	.001
298.15	89	.496	.012	.001	.163	.001	.837	.001
298.15	89	.077	.024	.001	.932	.001	.068	.001
298.15	89	.133	.022	.001	.856	.001	.144	.001
298.15	89	.177	.019	.001	.771	.001	.229	.001
298.15	89	.216	.018	.001	.679	.001	.321	.001
298.15	89	.261	.017	.001	.587	.001	.413	.001
298.15	89	.309	.017	.001	.491	.001	.509	.001
298.15	89	.358	.016	.001	.388	.001	.612	.001
298.15	89	.419	.014	.001	.282	.001	.718	.001
