Measured thermophysical data. Vapour pressures and osmotic coefficients of binary mixtures containing alcohol and pyrrolidinium-based ionic liquids
Source: J. Chem. Thermodyn., 2013, 10.1016/j.jct.2013.05.027
Compound 1: 1-propanol, C3H8O, purity 99.9%
Compound 2: 2-propanol, C3H8O, purity 99.8%
Compound 3: 1-butanol, C4H10O, purity 99.9%
Compound 4: 2-butanol, C4H10O, purity 99.5%
Compound 5: 1-pentanol, C5H12O, purity 99%
Compound 6: 1-butyl-1-methylpyrrolidinium bis(trifluoromethylsulfonyl)imide, C11H20F6N2O4S2, purity 99%
Compound 7: 1-butyl-1-methylpyrrolidinium trifluoromethanesulfonate, C10H20F3NO3S, purity 99%

System: 1-propanol + 1-butyl-1-methylpyrrolidinium trifluoromethanesulfonate; phases: Liquid
Fixed: Pressure, kPa = 101
Fixed: Temperature, K = 323.15
Property: Osmotic coefficient (Liquid); method: Kanuer K-7000 vapour pressure osmometer
Molality, mol/kg of 1-butyl-1-methylpyrrolidinium trifluoromethanesulfonate	Osmotic coefficient	uncertainty
.0489	.837	.006
.0868	.775	.006
.1119	.747	.006
.2159	.658	.006
.2993	.589	.006
.3966	.55	.006
.5049	.518	.006
.8053	.46	.006
1.2169	.404	.006
1.6122	.377	.006
2.0264	.36	.006
2.4238	.338	.006
2.8141	.316	.006
3.301	.303	.006

System: 1-butanol + 1-butyl-1-methylpyrrolidinium trifluoromethanesulfonate; phases: Liquid
Fixed: Pressure, kPa = 101
Fixed: Temperature, K = 323.15
Property: Osmotic coefficient (Liquid); method: Kanuer K-7000 vapour pressure osmometer
Molality, mol/kg of 1-butyl-1-methylpyrrolidinium trifluoromethanesulfonate	Osmotic coefficient	uncertainty
.0441	.85	.006
.0746	.671	.006
.0995	.648	.006
.203	.546	.006
.3071	.486	.006
.4005	.44	.006
.5026	.39	.006
.8018	.343	.006
1.2123	.3	.006
1.5961	.266	.006
2.0185	.257	.006
2.4016	.26	.006
2.8066	.242	.006
3.2072	.234	.006

System: 1-pentanol + 1-butyl-1-methylpyrrolidinium trifluoromethanesulfonate; phases: Liquid
Fixed: Pressure, kPa = 101
Fixed: Temperature, K = 323.15
Property: Osmotic coefficient (Liquid); method: Kanuer K-7000 vapour pressure osmometer
Molality, mol/kg of 1-butyl-1-methylpyrrolidinium trifluoromethanesulfonate	Osmotic coefficient	uncertainty
.031	.587	.006
.0504	.536	.006
.1072	.49	.006
.205	.399	.006
.3021	.354	.006
.4089	.32	.006
.529	.289	.006
.8028	.262	.006
1.2048	.232	.006
1.6174	.224	.006
2.0134	.219	.006
2.4318	.206	.006
2.802	.196	.006
3.2867	.188	.006

System: 1-propanol + 1-butyl-1-methylpyrrolidinium bis(trifluoromethylsulfonyl)imide; phases: Liquid
Fixed: Pressure, kPa = 101
Fixed: Temperature, K = 323.15
Property: Osmotic coefficient (Liquid); method: Kanuer K-7000 vapour pressure osmometer
Molality, mol/kg of 1-butyl-1-methylpyrrolidinium bis(trifluoromethylsulfonyl)imide	Osmotic coefficient	uncertainty
.0307	.912	.006
.0556	.81	.006
.0866	.75	.006
.1	.707	.006
.2091	.54	.006
.3035	.478	.006
.4172	.395	.006
.5265	.358	.006
.8302	.29	.006
1.1368	.254	.006
1.4287	.217	.006
1.7513	.194	.006
2.2578	.17	.006
2.6826	.157	.006
3.2078	.138	.006

System: 2-propanol + 1-butyl-1-methylpyrrolidinium trifluoromethanesulfonate; phases: Liquid
Fixed: Pressure, kPa = 101
Fixed: Temperature, K = 323.15
Property: Osmotic coefficient (Liquid); method: Kanuer K-7000 vapour pressure osmometer
Molality, mol/kg of 1-butyl-1-methylpyrrolidinium trifluoromethanesulfonate	Osmotic coefficient	uncertainty
.0509	.965	.006
.0856	.843	.006
.1163	.77	.006
.1865	.68	.006
.2813	.616	.006
.4157	.533	.006
.719	.468	.006
1.007	.424	.006
1.3048	.408	.006
1.707	.372	.006
2.1205	.347	.006
2.5144	.337	.006
2.9326	.334	.006

System: 2-butanol + 1-butyl-1-methylpyrrolidinium trifluoromethanesulfonate; phases: Liquid
Fixed: Pressure, kPa = 101
Fixed: Temperature, K = 323.15
Property: Osmotic coefficient (Liquid); method: Kanuer K-7000 vapour pressure osmometer
Molality, mol/kg of 1-butyl-1-methylpyrrolidinium trifluoromethanesulfonate	Osmotic coefficient	uncertainty
.0264	.962	.006
.0543	.766	.006
.082	.712	.006
.0993	.702	.006
.2043	.567	.006
.3018	.5	.006
.397	.432	.006
.5045	.397	.006
.8137	.355	.006
1.1239	.317	.006
1.4182	.29	.006
1.7148	.276	.006
2.2104	.265	.006
2.7069	.256	.006
3.1677	.256	.006

System: 2-propanol + 1-butyl-1-methylpyrrolidinium bis(trifluoromethylsulfonyl)imide; phases: Liquid
Fixed: Pressure, kPa = 101
Fixed: Temperature, K = 323.15
Property: Osmotic coefficient (Liquid); method: Kanuer K-7000 vapour pressure osmometer
Molality, mol/kg of 1-butyl-1-methylpyrrolidinium bis(trifluoromethylsulfonyl)imide	Osmotic coefficient	uncertainty
.048	.898	.006
.0823	.808	.006
.0984	.752	.006
.2036	.616	.006
.3059	.491	.006
.3987	.445	.006
.5195	.386	.006
.7203	.327	.006
1.033	.276	.006
1.3447	.251	.006
1.7565	.218	.006
2.1408	.201	.006
2.5031	.194	.006
2.9212	.181	.006
3.2931	.171	.006
