Measured thermophysical data. New (p, rho, T) data for carbon dioxide - Nitrogen mixtures from (250 to 400) K at pressures up to 20 MPa
Source: J. Chem. Thermodyn., 2011, 10.1016/j.jct.2011.07.006
Compound 1: carbon dioxide, CO2, purity 99.995%
Compound 2: nitrogen, diatomic, N2, purity 99.9995%

System: carbon dioxide + nitrogen, diatomic; phases: Gas
Property: Mass density, kg/m3 (Gas); method: Buoyancy - hydrostatic balance with magnetic suspension - one sinker
Mole fraction of carbon dioxide	Temperature, K	Pressure, kPa	Mass density, kg/m3	uncertainty
.10009	250.044	19866.22	302.682	.0344
.10009	250.044	18040.77	278.626	.0316
.10009	250.044	16024.22	250.228	.0284
.10009	250.044	14015.32	220.196	.025
.10009	250.045	12011.04	188.824	.0214
.10009	250.046	10007.15	156.529	.0178
.10009	250.047	8000.02	123.81	.0141
.10009	250.048	5998.83	91.41	.0104
.10009	250.047	3997.32	59.733	.0068
.10009	250.046	1985.11	29	.0033
.10009	275.019	19840.87	262.442	.0298
.10009	275.019	18056.55	241.448	.0274
.10009	275.018	16021.86	216.33	.0246
.10009	275.016	14013.43	190.433	.0216
.10009	275.017	12008.66	163.678	.0186
.10009	275.016	10004.5	136.29	.0155
.10009	275.012	7997.87	108.505	.0123
.10009	275.009	6001.99	80.825	.0092
.10009	275.019	3997.1	53.276	.0061
.10009	299.963	19165.13	226.098	.0257
.10009	299.966	17869.24	212.244	.0241
.10009	299.967	16013.78	191.829	.0218
.10009	299.966	14009.77	169.025	.0192
.10009	299.966	12005.91	145.55	.0165
.10009	299.967	10002.04	121.553	.0138
.10009	299.967	7999.7	97.214	.011
.10009	299.967	5996.38	72.692	.0083
.10009	299.968	3996.46	48.22	.0055
.10009	299.967	1997.9	23.945	.0027
.10009	324.979	19621.1	208.36	.0237
.10009	324.98	18000.85	192.79	.0219
.10009	324.979	16001.3	172.971	.0196
.10009	324.979	13982.51	152.335	.0173
.10009	324.979	11999.19	131.525	.0149
.10009	324.978	9998.9	110.087	.0125
.10009	324.978	8019.23	88.521	.0101
.10009	324.978	5991.83	66.201	.0075
.10009	324.978	3996.16	44.111	.005
.10009	324.98	1995.99	21.979	.0025
.10009	349.967	19377.88	188.339	.0214
.10009	349.967	17993.5	176.127	.02
.10009	349.966	15999.87	158.084	.018
.10009	349.966	13994.98	139.425	.0158
.10009	349.966	11997.55	120.373	.0137
.10009	349.966	9997.55	100.892	.0115
.10009	349.966	7995.75	81.051	.0092
.10009	349.965	5996.7	60.978	.0069
.10009	349.964	3996.56	40.709	.0046
.10009	349.964	1996.06	20.34	.0023
.10009	374.975	18718.78	168.45	.0191
.10009	374.975	17960.04	162.237	.0184
.10009	374.974	15965.99	145.587	.0165
.10009	374.974	13972.04	128.504	.0146
.10009	374.974	11981.2	111.044	.0126
.10009	374.973	9982.48	93.148	.0106
.10009	374.973	7989.95	74.983	.0085
.10009	374.973	5994.54	56.518	.0064
.10009	374.97	3962.23	37.494	.0043
.10009	374.969	1974.64	18.733	.0021
.10009	400.038	18908.06	158.136	.018
.10009	400.037	17814.57	149.796	.017
.10009	400.035	15984.14	135.572	.0154
.10009	400.036	13992.17	119.725	.0136
.10009	400.035	11986.74	103.403	.0118
.10009	400.034	9992.91	86.844	.0099
.10009	400.035	7980.95	69.818	.0079
.10009	400.036	5992.05	52.72	.006
.10009	400.034	3994.87	35.321	.004
.10009	400.037	1995.89	17.722	.002
.15045	250.059	19996.66	326.225	.037
.15045	250.063	18019.35	298.361	.0339
.15045	250.064	16016.36	267.875	.0304
.15045	250.066	14013.75	235.308	.0267
.15045	250.066	12005.77	201.013	.0228
.15045	250.066	10003.16	165.836	.0188
.15045	250.064	7996.21	130.387	.0148
.15045	250.064	5984.07	95.441	.0108
.15045	250.061	3982.71	61.879	.007
.15045	250.061	1944.06	29.337	.0033
.15045	275.028	19983.18	280.214	.0318
.15045	275.027	17993.74	255.193	.029
.15045	275.027	15981.43	228.492	.0259
.15045	275.026	14001.15	201.02	.0228
.15045	275.026	12000	172.315	.0196
.15045	275.026	9995.54	142.952	.0162
.15045	275.025	7994.3	113.405	.0129
.15045	275.022	5998.02	84.088	.0096
.15045	275.019	4000.63	55.255	.0063
.15045	275.019	1988.46	26.992	.0031
.15045	299.963	19977.35	247.119	.0281
.15045	299.965	17994.26	224.784	.0255
.15045	299.968	15969.36	201.068	.0228
.15045	299.967	13991.3	177.09	.0201
.15045	299.968	12007.79	152.379	.0173
.15045	299.966	10003.22	126.921	.0144
.15045	299.966	8007.79	101.3	.0115
.15045	299.966	5999.19	75.467	.0086
.15045	299.967	3982.34	49.692	.0057
.15045	299.969	1992.12	24.615	.0028
.15045	324.98	19978.25	221.898	.0252
.15045	324.98	18015.98	202.007	.0229
.15045	324.981	16006.31	180.933	.0205
.15045	324.981	14013.85	159.405	.0181
.15045	324.981	11991.15	137.002	.0156
.15045	324.981	9996.94	114.495	.013
.15045	324.981	7997.59	91.632	.0104
.15045	324.982	5996.6	68.599	.0078
.15045	324.982	3995.87	45.557	.0052
.15045	324.982	1996.13	22.645	.0026
.15045	349.967	19982.96	202.168	.023
.15045	349.967	18007.79	183.902	.0209
.15045	349.967	16007.83	164.842	.0187
.15045	349.967	14003.55	145.221	.0165
.15045	349.967	11997.97	125.127	.0142
.15045	349.967	9999.46	104.724	.0119
.15045	349.967	7995.35	83.959	.0095
.15045	349.967	5996.88	63.049	.0072
.15045	349.967	3995.34	41.993	.0048
.15045	349.967	1995.94	20.947	.0024
.15045	374.956	19972.35	185.971	.0211
.15045	374.956	17992.29	169.101	.0192
.15045	374.956	15998.52	151.646	.0172
.15045	374.956	13989.57	133.615	.0152
.15045	374.955	11945.35	114.852	.013
.15045	374.954	9986.26	96.527	.011
.15045	374.954	7997.26	77.627	.0088
.15045	374.954	5995.57	58.378	.0066
.15045	374.953	3953.65	38.571	.0044
.15045	374.955	1963.62	19.172	.0022
.15045	400.023	17818.21	155.538	.0177
.15045	400.022	15977.2	140.583	.016
.15045	400.022	13988.02	124.054	.0141
.15045	400.02	11986.38	107.065	.0122
.15045	400.02	9990.83	89.804	.0102
.15045	400.021	7991.23	72.219	.0082
.15045	400.019	5995.35	54.424	.0062
.15045	400.02	3995.67	36.397	.0041
.15045	400.019	1995.35	18.223	.0021
