Measured thermophysical data. (Liquid + liquid) equilibrium at T = 298.15 K for ternary mixtures of alkane + aromatic compounds + imidazolium-based ionic liquids
Source: J. Chem. Thermodyn., 2014, 10.1016/j.jct.2014.01.022
Compound 1: octane, C8H18, purity 99%
Compound 2: nonane, C9H20, purity 99.9%
Compound 3: benzene, C6H6, purity 99%
Compound 4: toluene, C7H8, purity 99.9%
Compound 5: ethylbenzene, C8H10, purity 99%
Compound 6: 1-methyl-3-propylimidazolium bis(trifluoromethylsulfonyl)imide, C9H13F6N3O4S2, purity 99.5%
Compound 7: 1-butyl-3-methylimidazolium bis(trifluoromethylsulfonyl)imide, C10H15F6N3O4S2, purity 99.9%

System: octane; phases: Liquid
Fixed: Pressure, kPa = 101.325
Property: Mass density, kg/m3 (Liquid); method: Vibrating tube method
Temperature, K	Mass density, kg/m3	uncertainty
298.15	698.6	.05

System: octane; phases: Liquid
Fixed: Pressure, kPa = 101.325
Property: Refractive index (Na D-line) (Liquid); method: Standard Abbe refractometry
Temperature, K	Refractive index (Na D-line)	uncertainty
298.15	1.39519	.00004

System: nonane; phases: Liquid
Fixed: Pressure, kPa = 101.325
Property: Mass density, kg/m3 (Liquid); method: Vibrating tube method
Temperature, K	Mass density, kg/m3	uncertainty
298.15	713.9	.05

System: nonane; phases: Liquid
Fixed: Pressure, kPa = 101.325
Property: Refractive index (Na D-line) (Liquid); method: Standard Abbe refractometry
Temperature, K	Refractive index (Na D-line)	uncertainty
298.15	1.40326	.00004

System: benzene; phases: Liquid
Fixed: Pressure, kPa = 101.325
Property: Mass density, kg/m3 (Liquid); method: Vibrating tube method
Temperature, K	Mass density, kg/m3	uncertainty
298.15	873.57	.05

System: benzene; phases: Liquid
Fixed: Pressure, kPa = 101.325
Property: Refractive index (Na D-line) (Liquid); method: Standard Abbe refractometry
Temperature, K	Refractive index (Na D-line)	uncertainty
298.15	1.49774	.00004

System: toluene; phases: Liquid
Fixed: Pressure, kPa = 101.325
Property: Mass density, kg/m3 (Liquid); method: Vibrating tube method
Temperature, K	Mass density, kg/m3	uncertainty
298.15	862.17	.05

System: toluene; phases: Liquid
Fixed: Pressure, kPa = 101.325
Property: Refractive index (Na D-line) (Liquid); method: Standard Abbe refractometry
Temperature, K	Refractive index (Na D-line)	uncertainty
298.15	1.49399	.00004

System: ethylbenzene; phases: Liquid
Fixed: Pressure, kPa = 101.325
Property: Mass density, kg/m3 (Liquid); method: Vibrating tube method
Temperature, K	Mass density, kg/m3	uncertainty
298.15	862.51	.05

System: ethylbenzene; phases: Liquid
Fixed: Pressure, kPa = 101.325
Property: Refractive index (Na D-line) (Liquid); method: Standard Abbe refractometry
Temperature, K	Refractive index (Na D-line)	uncertainty
298.15	1.49304	.00004

System: 1-methyl-3-propylimidazolium bis(trifluoromethylsulfonyl)imide; phases: Liquid
Fixed: Pressure, kPa = 101.325
Property: Mass density, kg/m3 (Liquid); method: Vibrating tube method
Temperature, K	Mass density, kg/m3	uncertainty
298.15	1474.44	.05

System: 1-methyl-3-propylimidazolium bis(trifluoromethylsulfonyl)imide; phases: Liquid
Fixed: Pressure, kPa = 101.325
Property: Refractive index (Na D-line) (Liquid); method: Standard Abbe refractometry
Temperature, K	Refractive index (Na D-line)	uncertainty
298.15	1.42526	.00004

System: 1-butyl-3-methylimidazolium bis(trifluoromethylsulfonyl)imide; phases: Liquid
Fixed: Pressure, kPa = 101.325
Property: Mass density, kg/m3 (Liquid); method: Vibrating tube method
Temperature, K	Mass density, kg/m3	uncertainty
298.15	1436.35	.05

System: 1-butyl-3-methylimidazolium bis(trifluoromethylsulfonyl)imide; phases: Liquid
Fixed: Pressure, kPa = 101.325
Property: Refractive index (Na D-line) (Liquid); method: Standard Abbe refractometry
Temperature, K	Refractive index (Na D-line)	uncertainty
298.15	1.42706	.00004

System: benzene + nonane + 1-butyl-3-methylimidazolium bis(trifluoromethylsulfonyl)imide; phases: Liquid mixture 2, Liquid mixture 1
Fixed: Temperature, K = 298.15
Fixed: Pressure, kPa = 101
Property: Mole fraction of nonane (Liquid mixture 2); method: Density calibration data
Property: Mole fraction of benzene (Liquid mixture 1); method: Density calibration data
Property: Mole fraction of nonane (Liquid mixture 1); method: Density calibration data
Mole fraction of benzene	Mole fraction of nonane	uncertainty	Mole fraction of benzene	uncertainty	Mole fraction of nonane	uncertainty
.068	.025	.006	.042	.006	.958	.006
.349	.03	.006	.259	.006	.741	.006
.437	.031	.006	.367	.006	.633	.006
.516	.031	.006	.473	.006	.527	.006
.594	.028	.006	.59	.006	.41	.006
.667	.026	.006	.728	.006	.272	.006
.702	.023	.006	.796	.006	.204	.006
.141	.024	.006	.096	.006	.904	.006
.199	.024	.006	.139	.006	.861	.006
.254	.025	.006	.18	.006	.82	.006
.301	.026	.006	.225	.006	.775	.006

System: benzene + octane + 1-methyl-3-propylimidazolium bis(trifluoromethylsulfonyl)imide; phases: Liquid mixture 2, Liquid mixture 1
Fixed: Pressure, kPa = 101
Fixed: Temperature, K = 298.15
Property: Mole fraction of octane (Liquid mixture 2); method: Density calibration data
Property: Mole fraction of benzene (Liquid mixture 1); method: Density calibration data
Property: Mole fraction of octane (Liquid mixture 1); method: Density calibration data
Mole fraction of benzene	Mole fraction of octane	uncertainty	Mole fraction of benzene	uncertainty	Mole fraction of octane	uncertainty
.061	.028	.006	.041	.006	.959	.006
.544	.032	.006	.548	.006	.452	.006
.617	.026	.006	.678	.006	.322	.006
.669	.021	.006	.818	.006	.182	.006
.125	.027	.006	.089	.006	.911	.006
.182	.028	.006	.136	.006	.864	.006
.288	.031	.006	.235	.006	.765	.006
.335	.033	.006	.282	.006	.718	.006
.377	.034	.006	.328	.006	.672	.006
.459	.035	.006	.431	.006	.569	.006

System: benzene + nonane + 1-methyl-3-propylimidazolium bis(trifluoromethylsulfonyl)imide; phases: Liquid mixture 2, Liquid mixture 1
Fixed: Pressure, kPa = 101
Fixed: Temperature, K = 298.15
Property: Mole fraction of nonane (Liquid mixture 2); method: Density calibration data
Property: Mole fraction of benzene (Liquid mixture 1); method: Density calibration data
Property: Mole fraction of nonane (Liquid mixture 1); method: Density calibration data
Mole fraction of benzene	Mole fraction of nonane	uncertainty	Mole fraction of benzene	uncertainty	Mole fraction of nonane	uncertainty
.058	.042	.006	.039	.006	.961	.006
.504	.022	.006	.487	.006	.513	.006
.587	.015	.006	.614	.006	.386	.006
.663	.01	.006	.758	.006	.242	.006
.117	.042	.006	.081	.006	.919	.006
.167	.042	.006	.124	.006	.876	.006
.232	.043	.006	.183	.006	.817	.006
.283	.04	.006	.235	.006	.765	.006
.379	.034	.006	.325	.006	.675	.006
.435	.029	.006	.393	.006	.607	.006

System: toluene + nonane + 1-methyl-3-propylimidazolium bis(trifluoromethylsulfonyl)imide; phases: Liquid mixture 2, Liquid mixture 1
Fixed: Temperature, K = 298.15
Fixed: Pressure, kPa = 101
Property: Mole fraction of nonane (Liquid mixture 2); method: Density calibration data
Property: Mole fraction of toluene (Liquid mixture 1); method: Density calibration data
Property: Mole fraction of nonane (Liquid mixture 1); method: Density calibration data
Mole fraction of toluene	Mole fraction of nonane	uncertainty	Mole fraction of toluene	uncertainty	Mole fraction of nonane	uncertainty
.048	.029	.006	.05	.006	.95	.006
.284	.032	.006	.336	.006	.664	.006
.366	.032	.006	.429	.006	.571	.006
.421	.03	.006	.545	.006	.455	.006
.497	.024	.006	.671	.006	.329	.006
.574	.017	.006	.803	.006	.197	.006
.613	.013	.006	.867	.006	.133	.006
.105	.028	.006	.113	.006	.887	.006
.146	.028	.006	.161	.006	.839	.006
.198	.03	.006	.213	.006	.787	.006
.232	.031	.006	.267	.006	.733	.006

System: ethylbenzene + nonane + 1-methyl-3-propylimidazolium bis(trifluoromethylsulfonyl)imide; phases: Liquid mixture 2, Liquid mixture 1
Fixed: Temperature, K = 298.15
Fixed: Pressure, kPa = 101
Property: Mole fraction of nonane (Liquid mixture 2); method: Density calibration data
Property: Mole fraction of ethylbenzene (Liquid mixture 1); method: Density calibration data
Property: Mole fraction of nonane (Liquid mixture 1); method: Density calibration data
Mole fraction of ethylbenzene	Mole fraction of nonane	uncertainty	Mole fraction of ethylbenzene	uncertainty	Mole fraction of nonane	uncertainty
.072	.027	.006	.121	.006	.879	.006
.393	.018	.006	.711	.006	.289	.006
.469	.014	.006	.849	.006	.151	.006
.517	.008	.006	.919	.006	.081	.006
.106	.027	.006	.178	.006	.822	.006
.138	.027	.006	.232	.006	.768	.006
.171	.026	.006	.289	.006	.711	.006
.202	.025	.006	.343	.006	.657	.006
.264	.023	.006	.465	.006	.535	.006
.328	.021	.006	.588	.006	.412	.006
