Measured thermophysical data. D2O H2O solvent isotope effects on the volumetric properties of  aqueous 1,3-dimethyl-2-imidazolidinone between (278.15 and 318.15) K
Source: J. Chem. Thermodyn., 2009, 10.1016/j.jct.2009.06.019
Compound 1: 1,3-dimethyl-2-imidazolidinone, C5H10N2O
Compound 2: water, H2O
Compound 3: water-d2, D2O

System: 1,3-dimethyl-2-imidazolidinone; phases: Liquid
Fixed: Pressure, kPa = 101.325
Property: Mass density, kg/m3 (Liquid); method: Vibrating tube method
Temperature, K	Mass density, kg/m3	uncertainty
278.15	1069.3	.015
288.15	1060.43	.015
298.15	1051.6	.015
308.15	1042.79	.015
313.15	1038.38	.015
318.15	1034	.015

System: 1,3-dimethyl-2-imidazolidinone; phases: Liquid
Fixed: Pressure, kPa = 101.325
Property: Isobaric coefficient of expansion, 1/K (Liquid); method: Calculated from Density measurements
Temperature, K	Isobaric coefficient of expansion, 1/K	uncertainty
278.15	.00083	.000001
288.15	.000835	.000001
298.15	.000839	.000001
308.15	.000844	.000001
313.15	.000846	.000001
318.15	.000848	.000001

System: 1,3-dimethyl-2-imidazolidinone + water; phases: Liquid
Fixed: Pressure, kPa = 101.3
Property: Mass density, kg/m3 (Liquid); method: Vibrating tube method
Temperature, K	Mole fraction of 1,3-dimethyl-2-imidazolidinone	Mass density, kg/m3	uncertainty
278.15	.000904	1000.51	.015
278.15	.001349377	1000.75	.015
278.15	.001765025	1000.99	.015
278.15	.002486218	1001.42	.015
278.15	.003565616	1002.08	.015
278.15	.004326129	1002.53	.015
278.15	.005478355	1003.25	.015
278.15	.006267975	1003.72	.015
278.15	.006996303	1004.16	.015
278.15	.00803867	1004.82	.015
278.15	.008853788	1005.33	.015
288.15	.000904	999.59	.015
288.15	.001349377	999.82	.015
288.15	.001765025	1000.04	.015
288.15	.002486218	1000.44	.015
288.15	.003565616	1001.05	.015
288.15	.004326129	1001.45	.015
288.15	.005478355	1002.09	.015
288.15	.006267975	1002.53	.015
288.15	.006996303	1002.93	.015
288.15	.00803867	1003.54	.015
288.15	.008853788	1004.01	.015
298.15	.000904	997.49	.015
298.15	.001349377	997.72	.015
298.15	.001765025	997.92	.015
298.15	.002486218	998.29	.015
298.15	.003565616	998.84	.015
298.15	.004326129	999.22	.015
298.15	.005478355	999.81	.015
298.15	.006267975	1000.22	.015
298.15	.006996303	1000.57	.015
298.15	.00803867	1001.14	.015
298.15	.008853788	1001.57	.015
308.15	.000904	994.45	.015
308.15	.001349377	994.65	.015
308.15	.001765025	994.84	.015
308.15	.002486218	995.19	.015
308.15	.003565616	995.7	.015
308.15	.004326129	996.05	.015
308.15	.005478355	996.59	.015
308.15	.006267975	996.97	.015
308.15	.006996303	997.3	.015
308.15	.00803867	997.82	.015
308.15	.008853788	998.22	.015
313.15	.000904	992.61	.015
313.15	.001349377	992.81	.015
313.15	.001765025	992.99	.015
313.15	.002486218	993.33	.015
313.15	.003565616	993.82	.015
313.15	.004326129	994.15	.015
313.15	.005478355	994.68	.015
313.15	.006267975	995.04	.015
313.15	.006996303	995.36	.015
313.15	.00803867	995.85	.015
313.15	.008853788	996.23	.015
318.15	.000904	990.61	.015
318.15	.001349377	990.8	.015
318.15	.001765025	990.96	.015
318.15	.002486218	991.29	.015
318.15	.003565616	991.77	.015
318.15	.004326129	992.09	.015
318.15	.005478355	992.59	.015
318.15	.006267975	992.94	.015
318.15	.006996303	993.25	.015
318.15	.00803867	993.72	.015
318.15	.008853788	994.08	.015

System: 1,3-dimethyl-2-imidazolidinone + water-d2; phases: Liquid
Fixed: Pressure, kPa = 101.3
Property: Mass density, kg/m3 (Liquid); method: Vibrating tube method
Temperature, K	Mole fraction of 1,3-dimethyl-2-imidazolidinone	Mass density, kg/m3	uncertainty
278.15	0	1105.46	.015
278.15	.001013772	1105.53	.015
278.15	.001853214	1105.6	.015
278.15	.002463451	1105.67	.015
278.15	.003371504	1105.77	.015
278.15	.004298267	1105.89	.015
278.15	.004981507	1105.97	.015
278.15	.006229013	1106.16	.015
278.15	.007163435	1106.33	.015
278.15	.00805427	1106.48	.015
278.15	.009083981	1106.65	.015
278.15	.010506645	1106.96	.015
288.15	0	1105.7	.015
288.15	.001013772	1105.7	.015
288.15	.001853214	1105.72	.015
288.15	.002463451	1105.72	.015
288.15	.003371504	1105.73	.015
288.15	.004298267	1105.78	.015
288.15	.004981507	1105.83	.015
288.15	.006229013	1105.89	.015
288.15	.007163435	1105.96	.015
288.15	.00805427	1106.05	.015
288.15	.009083981	1106.13	.015
288.15	.010506645	1106.33	.015
298.15	0	1104.31	.015
298.15	.001013772	1104.24	.015
298.15	.001853214	1104.2	.015
298.15	.002463451	1104.15	.015
298.15	.003371504	1104.13	.015
298.15	.004298267	1104.08	.015
298.15	.004981507	1104.06	.015
298.15	.006229013	1104.06	.015
298.15	.007163435	1104.06	.015
298.15	.00805427	1104.07	.015
298.15	.009083981	1104.08	.015
298.15	.010506645	1104.16	.015
308.15	0	1101.59	.015
308.15	.001013772	1101.46	.015
308.15	.001853214	1101.34	.015
308.15	.002463451	1101.29	.015
308.15	.003371504	1101.19	.015
308.15	.004298267	1101.13	.015
308.15	.004981507	1101.05	.015
308.15	.006229013	1100.95	.015
308.15	.007163435	1100.89	.015
308.15	.00805427	1100.87	.015
308.15	.009083981	1100.81	.015
308.15	.010506645	1100.77	.015
313.15	0	1099.83	.015
313.15	.001013772	1099.65	.015
313.15	.001853214	1099.52	.015
313.15	.002463451	1099.44	.015
313.15	.003371504	1099.33	.015
313.15	.004298267	1099.22	.015
313.15	.004981507	1099.13	.015
313.15	.006229013	1099	.015
313.15	.007163435	1098.91	.015
313.15	.00805427	1098.85	.015
313.15	.009083981	1098.77	.015
313.15	.010506645	1098.67	.015
318.15	0	1097.81	.015
318.15	.001013772	1097.62	.015
318.15	.001853214	1097.48	.015
318.15	.002463451	1097.38	.015
318.15	.003371504	1097.23	.015
318.15	.004298267	1097.09	.015
318.15	.004981507	1097.01	.015
318.15	.006229013	1096.83	.015
318.15	.007163435	1096.72	.015
318.15	.00805427	1096.62	.015
318.15	.009083981	1096.51	.015
318.15	.010506645	1096.37	.015
