Measured thermophysical data. Implicit and explicit solvent models to understand the D(+)-glucose solvation in aqueous protic ionic liquid solution: Volumetric and computational approach
Source: J. Chem. Thermodyn., 2016, 10.1016/j.jct.2016.07.051
Compound 1: D(+)-glucose, C6H12O6, purity 98%
Compound 2: propylammonium formate, C4H11NO2
Compound 3: water, H2O, purity 99.8%

System: D(+)-glucose + water + propylammonium formate; phases: Liquid
Fixed: Pressure, kPa = 100
Property: Mass density, kg/m3 (Liquid); method: Vibrating tube method
Solvent: Molality, mol/kg of propylammonium formate	Molality, mol/kg of D(+)-glucose	Temperature, K	Mass density, kg/m3	uncertainty
0	0	293.15	998.208	
0	.05008	293.15	1001.674	
0	.0698	293.15	1003.023	
0	.09118	293.15	1004.474	
0	.11084	293.15	1005.799	
0	.13123	293.15	1007.163	
0	.14987	293.15	1008.403	
0	0	298.15	997.048	
0	.05008	298.15	1000.439	
0	.0698	298.15	1001.757	
0	.09118	298.15	1003.174	
0	.11084	298.15	1004.469	
0	.13123	298.15	1005.796	
0	.14987	298.15	1007.001	
0	0	303.15	995.66	
0	.05008	303.15	999.038	
0	.0698	303.15	1000.348	
0	.09118	303.15	1001.764	
0	.11084	303.15	1003.055	
0	.13123	303.15	1004.378	
0	.14987	303.15	1005.584	
0	0	308.15	994.044	
0	.05008	308.15	997.396	
0	.0698	308.15	998.701	
0	.09118	308.15	1000.107	
0	.11084	308.15	1001.389	
0	.13123	308.15	1002.707	
0	.14987	308.15	1003.909	
0	0	313.15	992.228	
0	.05008	313.15	995.571	
0	.0698	313.15	996.873	
0	.09118	313.15	998.274	
0	.11084	313.15	999.553	
0	.13123	313.15	1000.869	
0	.14987	313.15	1002.063	
0	0	318.15	990.224	
0	.05008	318.15	993.55	
0	.0698	318.15	994.845	
0	.09118	318.15	996.24	
0	.11084	318.15	997.508	
0	.13123	318.15	998.817	
0	.14987	318.15	1000.005	
0	0	323.15	988.031	
0	.05008	323.15	991.349	
0	.0698	323.15	992.639	
0	.09118	323.15	994.028	
0	.11084	323.15	995.295	
0	.13123	323.15	996.6	
0	.14987	323.15	997.788	
.1	0	293.15	999.222	
.1	.04952	293.15	1002.632	
.1	.07147	293.15	1004.128	
.1	.09134	293.15	1005.475	
.1	.11017	293.15	1006.745	
.1	.13258	293.15	1008.245	
.1	.15037	293.15	1009.43	
.1	0	298.15	997.851	
.1	.04952	298.15	1001.199	
.1	.07147	298.15	1002.663	
.1	.09134	298.15	1003.982	
.1	.11017	298.15	1005.224	
.1	.13258	298.15	1006.689	
.1	.15037	298.15	1007.841	
.1	0	303.15	996.637	
.1	.04952	303.15	999.971	
.1	.07147	303.15	1001.431	
.1	.09134	303.15	1002.742	
.1	.11017	303.15	1003.977	
.1	.13258	303.15	1005.439	
.1	.15037	303.15	1006.592	
.1	0	308.15	994.884	
.1	.04952	308.15	998.217	
.1	.07147	308.15	999.678	
.1	.09134	308.15	1000.99	
.1	.11017	308.15	1002.222	
.1	.13258	308.15	1003.685	
.1	.15037	308.15	1004.833	
.1	0	313.15	993.191	
.1	.04952	313.15	996.539	
.1	.07147	313.15	998.005	
.1	.09134	313.15	999.325	
.1	.11017	313.15	1000.568	
.1	.13258	313.15	1002.037	
.1	.15037	313.15	1003.2	
.1	0	318.15	990.986	
.1	.04952	318.15	994.338	
.1	.07147	318.15	995.809	
.1	.09134	318.15	997.132	
.1	.11017	318.15	998.381	
.1	.13258	318.15	999.855	
.1	.15037	318.15	1001.02	
.1	0	323.15	988.793	
.1	.04952	323.15	992.151	
.1	.07147	323.15	993.623	
.1	.09134	323.15	994.949	
.1	.11017	323.15	996.196	
.1	.13258	323.15	997.675	
.1	.15037	323.15	998.84	
.2	0	293.15	1000.067	
.2	.05049	293.15	1003.528	
.2	.0701	293.15	1004.857	
.2	.08799	293.15	1006.066	
.2	.11707	293.15	1008.015	
.2	.12563	293.15	1008.584	
.2	.14907	293.15	1010.142	
.2	0	298.15	998.673	
.2	.05049	298.15	1002.078	
.2	.0701	298.15	1003.387	
.2	.08799	298.15	1004.573	
.2	.11707	298.15	1006.484	
.2	.12563	298.15	1007.047	
.2	.14907	298.15	1008.574	
.2	0	303.15	997.448	
.2	.05049	303.15	1000.861	
.2	.0701	303.15	1002.171	
.2	.08799	303.15	1003.359	
.2	.11707	303.15	1005.275	
.2	.12563	303.15	1005.834	
.2	.14907	303.15	1007.361	
.2	0	308.15	995.676	
.2	.05049	308.15	999.108	
.2	.0701	308.15	1000.429	
.2	.08799	308.15	1001.626	
.2	.11707	308.15	1003.563	
.2	.12563	308.15	1004.128	
.2	.14907	308.15	1005.674	
.2	0	313.15	993.97	
.2	.05049	313.15	997.393	
.2	.0701	313.15	998.706	
.2	.08799	313.15	999.896	
.2	.11707	313.15	1001.816	
.2	.12563	313.15	1002.373	
.2	.14907	313.15	1003.902	
.2	0	318.15	991.749	
.2	.05049	318.15	995.187	
.2	.0701	318.15	996.505	
.2	.08799	318.15	997.702	
.2	.11707	318.15	999.633	
.2	.12563	318.15	1000.195	
.2	.14907	318.15	1001.733	
.2	0	323.15	989.611	
.2	.05049	323.15	993.056	
.2	.0701	323.15	994.382	
.2	.08799	323.15	995.582	
.2	.11707	323.15	997.522	
.2	.12563	323.15	998.089	
.2	.14907	323.15	999.637	
.3	0	293.15	1000.908	
.3	.04676	293.15	1004.099	
.3	.07014	293.15	1005.677	
.3	.08721	293.15	1006.824	
.3	.1136	293.15	1008.584	
.3	.1358	293.15	1010.058	
.3	.15532	293.15	1011.341	
.3	0	298.15	999.689	
.3	.04676	298.15	1002.818	
.3	.07014	298.15	1004.364	
.3	.08721	298.15	1005.486	
.3	.1136	298.15	1007.21	
.3	.1358	298.15	1008.649	
.3	.15532	298.15	1009.907	
.3	0	303.15	998.238	
.3	.04676	303.15	1001.397	
.3	.07014	303.15	1002.963	
.3	.08721	303.15	1004.099	
.3	.1136	303.15	1005.844	
.3	.1358	303.15	1007.304	
.3	.15532	303.15	1008.577	
.3	0	308.15	996.581	
.3	.04676	308.15	999.753	
.3	.07014	308.15	1001.324	
.3	.08721	308.15	1002.465	
.3	.1136	308.15	1004.215	
.3	.1358	308.15	1005.679	
.3	.15532	308.15	1006.958	
.3	0	313.15	994.725	
.3	.04676	313.15	997.906	
.3	.07014	313.15	999.481	
.3	.08721	313.15	1000.624	
.3	.1136	313.15	1002.381	
.3	.1358	313.15	1003.848	
.3	.15532	313.15	1005.133	
.3	0	318.15	992.694	
.3	.04676	318.15	995.866	
.3	.07014	318.15	997.432	
.3	.08721	318.15	998.572	
.3	.1136	318.15	1000.319	
.3	.1358	318.15	1001.779	
.3	.15532	318.15	1003.052	
.3	0	323.15	990.498	
.3	.04676	323.15	993.687	
.3	.07014	323.15	995.265	
.3	.08721	323.15	996.41	
.3	.1136	323.15	998.169	
.3	.1358	323.15	999.639	
.3	.15532	323.15	1000.926	
.4	0	293.15	1001.806	
.4	.0504	293.15	1005.311	
.4	.07105	293.15	1006.731	
.4	.10107	293.15	1008.78	
.4	.11537	293.15	1009.748	
.4	.12852	293.15	1010.634	
.4	.148	293.15	1011.943	
.4	0	298.15	1000.559	
.4	.0504	298.15	1003.994	
.4	.07105	298.15	1005.387	
.4	.10107	298.15	1007.396	
.4	.11537	298.15	1008.347	
.4	.12852	298.15	1009.216	
.4	.148	298.15	1010.498	
.4	0	303.15	999.087	
.4	.0504	303.15	1002.516	
.4	.07105	303.15	1003.907	
.4	.10107	303.15	1005.912	
.4	.11537	303.15	1006.863	
.4	.12852	303.15	1007.73	
.4	.148	303.15	1009.015	
.4	0	308.15	997.41	
.4	.0504	308.15	1000.852	
.4	.07105	308.15	1002.245	
.4	.10107	308.15	1004.255	
.4	.11537	308.15	1005.208	
.4	.12852	308.15	1006.077	
.4	.148	308.15	1007.36	
.4	0	313.15	995.542	
.4	.0504	313.15	998.983	
.4	.07105	313.15	1000.376	
.4	.10107	313.15	1002.388	
.4	.11537	313.15	1003.341	
.4	.12852	313.15	1004.212	
.4	.148	313.15	1005.496	
.4	0	318.15	993.502	
.4	.0504	318.15	996.932	
.4	.07105	318.15	998.321	
.4	.10107	318.15	1000.324	
.4	.11537	318.15	1001.272	
.4	.12852	318.15	1002.139	
.4	.148	318.15	1003.419	
.4	0	323.15	991.295	
.4	.0504	323.15	994.72	
.4	.07105	323.15	996.11	
.4	.10107	323.15	998.115	
.4	.11537	323.15	999.064	
.4	.12852	323.15	999.931	
.4	.148	323.15	1001.215	

System: D(+)-glucose + water + propylammonium formate; phases: Liquid
Fixed: Pressure, kPa = 100
Fixed: Frequency, MHz = 3
Property: Speed of sound, m/s (Liquid); method: Sing-around technique in a fixed-path interferometer
Solvent: Molality, mol/kg of propylammonium formate	Molality, mol/kg of D(+)-glucose	Temperature, K	Speed of sound, m/s	uncertainty
0	0	293.15	1482.89	
0	.05008	293.15	1485.77	
0	.0698	293.15	1486.98	
0	.09118	293.15	1488.31	
0	.11084	293.15	1489.55	
0	.13123	293.15	1490.82	
0	.14987	293.15	1491.99	
0	0	298.15	1496.82	
0	.05008	298.15	1500.12	
0	.0698	298.15	1501.36	
0	.09118	298.15	1502.71	
0	.11084	298.15	1503.96	
0	.13123	298.15	1505.27	
0	.14987	298.15	1506.46	
0	0	303.15	1509.25	
0	.05008	303.15	1512.19	
0	.0698	303.15	1513.4	
0	.09118	303.15	1514.71	
0	.11084	303.15	1515.92	
0	.13123	303.15	1517.19	
0	.14987	303.15	1518.34	
0	0	308.15	1519.85	
0	.05008	308.15	1522.83	
0	.0698	308.15	1524.04	
0	.09118	308.15	1525.36	
0	.11084	308.15	1526.58	
0	.13123	308.15	1527.86	
0	.14987	308.15	1529.03	
0	0	313.15	1528.92	
0	.05008	313.15	1531.64	
0	.0698	313.15	1532.75	
0	.09118	313.15	1533.95	
0	.11084	313.15	1535.06	
0	.13123	313.15	1536.22	
0	.14987	313.15	1537.28	
0	0	318.15	1536.56	
0	.05008	318.15	1539.12	
0	.0698	318.15	1540.2	
0	.09118	318.15	1541.36	
0	.11084	318.15	1542.44	
0	.13123	318.15	1543.57	
0	.14987	318.15	1544.61	
0	0	323.15	1542.75	
0	.05008	323.15	1545.31	
0	.0698	323.15	1546.33	
0	.09118	323.15	1547.43	
0	.11084	323.15	1548.45	
0	.13123	323.15	1549.52	
0	.14987	323.15	1550.5	
.1	0	293.15	1492.17	
.1	.04952	293.15	1495.14	
.1	.07147	293.15	1496.46	
.1	.09134	293.15	1497.66	
.1	.11017	293.15	1498.8	
.1	.13258	293.15	1500.16	
.1	.15037	293.15	1501.24	
.1	0	298.15	1505.68	
.1	.04952	298.15	1508.68	
.1	.07147	298.15	1510.02	
.1	.09134	298.15	1511.24	
.1	.11017	298.15	1512.39	
.1	.13258	298.15	1513.77	
.1	.15037	298.15	1514.87	
.1	0	303.15	1517.53	
.1	.04952	303.15	1520.46	
.1	.07147	303.15	1521.77	
.1	.09134	303.15	1522.96	
.1	.11017	303.15	1524.09	
.1	.13258	303.15	1525.43	
.1	.15037	303.15	1526.5	
.1	0	308.15	1527.75	
.1	.04952	308.15	1530.71	
.1	.07147	308.15	1532.02	
.1	.09134	308.15	1533.21	
.1	.11017	308.15	1534.36	
.1	.13258	308.15	1535.71	
.1	.15037	308.15	1536.79	
.1	0	313.15	1536.4	
.1	.04952	313.15	1539.08	
.1	.07147	313.15	1540.28	
.1	.09134	313.15	1541.37	
.1	.11017	313.15	1542.39	
.1	.13258	313.15	1543.63	
.1	.15037	313.15	1544.6	
.1	0	318.15	1543.62	
.1	.04952	318.15	1546.23	
.1	.07147	318.15	1547.38	
.1	.09134	318.15	1548.43	
.1	.11017	318.15	1549.43	
.1	.13258	318.15	1550.62	
.1	.15037	318.15	1551.57	
.1	0	323.15	1550.48	
.1	.04952	323.15	1552.93	
.1	.07147	323.15	1554.02	
.1	.09134	323.15	1555	
.1	.11017	323.15	1555.94	
.1	.13258	323.15	1557.07	
.1	.15037	323.15	1557.95	
.2	0	293.15	1500.41	
.2	.05049	293.15	1503.48	
.2	.0701	293.15	1504.68	
.2	.08799	293.15	1505.77	
.2	.11707	293.15	1507.55	
.2	.12563	293.15	1508.08	
.2	.14907	293.15	1509.52	
.2	0	298.15	1513.43	
.2	.05049	298.15	1516.51	
.2	.0701	298.15	1517.71	
.2	.08799	298.15	1518.8	
.2	.11707	298.15	1520.61	
.2	.12563	298.15	1521.12	
.2	.14907	298.15	1522.57	
.2	0	303.15	1524.88	
.2	.05049	303.15	1527.88	
.2	.0701	303.15	1529.06	
.2	.08799	303.15	1530.13	
.2	.11707	303.15	1531.88	
.2	.12563	303.15	1532.4	
.2	.14907	303.15	1533.83	
.2	0	308.15	1534.68	
.2	.05049	308.15	1537.67	
.2	.0701	308.15	1538.84	
.2	.08799	308.15	1539.91	
.2	.11707	308.15	1541.64	
.2	.12563	308.15	1542.15	
.2	.14907	308.15	1543.55	
.2	0	313.15	1542.99	
.2	.05049	313.15	1545.72	
.2	.0701	313.15	1546.79	
.2	.08799	313.15	1547.77	
.2	.11707	313.15	1549.37	
.2	.12563	313.15	1549.85	
.2	.14907	313.15	1551.15	
.2	0	318.15	1549.86	
.2	.05049	318.15	1552.5	
.2	.0701	318.15	1553.54	
.2	.08799	318.15	1554.49	
.2	.11707	318.15	1556.03	
.2	.12563	318.15	1556.49	
.2	.14907	318.15	1557.74	
.2	0	323.15	1555.4	
.2	.05049	323.15	1557.91	
.2	.0701	323.15	1558.88	
.2	.08799	323.15	1559.77	
.2	.11707	323.15	1561.23	
.2	.12563	323.15	1561.66	
.2	.14907	323.15	1562.84	
.3	0	293.15	1508.25	
.3	.04676	293.15	1511.11	
.3	.07014	293.15	1512.54	
.3	.08721	293.15	1513.59	
.3	.1136	293.15	1515.22	
.3	.1358	293.15	1516.59	
.3	.15532	293.15	1517.8	
.3	0	298.15	1520.78	
.3	.04676	298.15	1523.67	
.3	.07014	298.15	1525.12	
.3	.08721	298.15	1526.18	
.3	.1136	298.15	1527.82	
.3	.1358	298.15	1529.21	
.3	.15532	298.15	1530.43	
.3	0	303.15	1531.81	
.3	.04676	303.15	1534.56	
.3	.07014	303.15	1535.94	
.3	.08721	303.15	1536.95	
.3	.1136	303.15	1538.51	
.3	.1358	303.15	1539.82	
.3	.15532	303.15	1540.98	
.3	0	308.15	1541.26	
.3	.04676	308.15	1544.03	
.3	.07014	308.15	1545.42	
.3	.08721	308.15	1546.44	
.3	.1136	308.15	1548.02	
.3	.1358	308.15	1549.34	
.3	.15532	308.15	1550.51	
.3	0	313.15	1549.34	
.3	.04676	313.15	1551.85	
.3	.07014	313.15	1553.1	
.3	.08721	313.15	1554.02	
.3	.1136	313.15	1555.45	
.3	.1358	313.15	1556.66	
.3	.15532	313.15	1557.72	
.3	0	318.15	1555.86	
.3	.04676	318.15	1558.34	
.3	.07014	318.15	1559.59	
.3	.08721	318.15	1560.51	
.3	.1136	318.15	1561.93	
.3	.1358	318.15	1563.13	
.3	.15532	318.15	1564.18	
.3	0	323.15	1561.07	
.3	.04676	323.15	1563.41	
.3	.07014	323.15	1564.58	
.3	.08721	323.15	1565.44	
.3	.1136	323.15	1566.78	
.3	.1358	323.15	1567.91	
.3	.15532	323.15	1568.89	
.4	0	293.15	1516.93	
.4	.0504	293.15	1520.09	
.4	.07105	293.15	1521.39	
.4	.10107	293.15	1523.29	
.4	.11537	293.15	1524.2	
.4	.12852	293.15	1525.04	
.4	.148	293.15	1526.27	
.4	0	298.15	1528.93	
.4	.0504	298.15	1532.11	
.4	.07105	298.15	1533.42	
.4	.10107	298.15	1535.33	
.4	.11537	298.15	1536.24	
.4	.12852	298.15	1537.08	
.4	.148	298.15	1538.33	
.4	0	303.15	1539.44	
.4	.0504	303.15	1542.56	
.4	.07105	303.15	1543.84	
.4	.10107	303.15	1545.71	
.4	.11537	303.15	1546.6	
.4	.12852	303.15	1547.42	
.4	.148	303.15	1548.64	
.4	0	308.15	1548.39	
.4	.0504	308.15	1551.5	
.4	.07105	308.15	1552.78	
.4	.10107	308.15	1554.65	
.4	.11537	308.15	1555.53	
.4	.12852	308.15	1556.35	
.4	.148	308.15	1557.57	
.4	0	313.15	1555.91	
.4	.0504	313.15	1558.7	
.4	.07105	313.15	1559.85	
.4	.10107	313.15	1561.53	
.4	.11537	313.15	1562.33	
.4	.12852	313.15	1563.07	
.4	.148	313.15	1564.17	
.4	0	318.15	1562.05	
.4	.0504	318.15	1564.76	
.4	.07105	318.15	1565.88	
.4	.10107	318.15	1567.52	
.4	.11537	318.15	1568.3	
.4	.12852	318.15	1569.02	
.4	.148	318.15	1570.08	
.4	0	323.15	1566.9	
.4	.0504	323.15	1569.5	
.4	.07105	323.15	1570.56	
.4	.10107	323.15	1572.12	
.4	.11537	323.15	1572.86	
.4	.12852	323.15	1573.55	
.4	.148	323.15	1574.56	

System: D(+)-glucose + water; phases: Liquid
Property: Mass density, kg/m3 (Liquid); method: Vibrating tube method
Molality, mol/kg of D(+)-glucose	Temperature, K	Pressure, kPa	Mass density, kg/m3	uncertainty
.05008	293.15	100	1001.674	
.0698	293.15	100	1003.023	
.09118	293.15	100	1004.474	
.11084	293.15	100	1005.799	
.13123	293.15	100	1007.163	
.14987	293.15	100	1008.403	
.05008	298.15	100	1000.439	
.0698	298.15	100	1001.757	
.09118	298.15	100	1003.174	
.11084	298.15	100	1004.469	
.13123	298.15	100	1005.796	
.14987	298.15	100	1007.001	
.05008	303.15	100	999.038	
.0698	303.15	100	1000.348	
.09118	303.15	100	1001.764	
.11084	303.15	100	1003.055	
.13123	303.15	100	1004.378	
.14987	303.15	100	1005.584	
.05008	308.15	100	997.396	
.0698	308.15	100	998.701	
.09118	308.15	100	1000.107	
.11084	308.15	100	1001.389	
.13123	308.15	100	1002.707	
.14987	308.15	100	1003.909	
.05008	313.15	100	995.571	
.0698	313.15	100	996.873	
.09118	313.15	100	998.274	
.11084	313.15	100	999.553	
.13123	313.15	100	1000.869	
.14987	313.15	100	1002.063	
.05008	318.15	100	993.55	
.0698	318.15	100	994.845	
.09118	318.15	100	996.24	
.11084	318.15	100	997.508	
.13123	318.15	100	998.817	
.14987	318.15	100	1000.005	
.05008	323.15	100	991.349	
.0698	323.15	100	992.639	
.09118	323.15	100	994.028	
.11084	323.15	100	995.295	
.13123	323.15	100	996.6	
.14987	323.15	100	997.788	
0	293.15	100	998.208	
0	298.15	100	997.048	
0	303.15	100	995.66	
0	308.15	100	994.044	
0	313.15	100	992.228	
0	318.15	100	990.224	
0	323.15	100	988.031	

System: D(+)-glucose + water; phases: Liquid
Fixed: Frequency, MHz = 3
Property: Speed of sound, m/s (Liquid); method: Sing-around technique in a fixed-path interferometer
Molality, mol/kg of D(+)-glucose	Temperature, K	Pressure, kPa	Speed of sound, m/s	uncertainty
.05008	293.15	100	1485.77	
.0698	293.15	100	1486.98	
.09118	293.15	100	1488.31	
.11084	293.15	100	1489.55	
.13123	293.15	100	1490.82	
.14987	293.15	100	1491.99	
.05008	298.15	100	1500.12	
.0698	298.15	100	1501.36	
.09118	298.15	100	1502.71	
.11084	298.15	100	1503.96	
.13123	298.15	100	1505.27	
.14987	298.15	100	1506.46	
.05008	303.15	100	1512.19	
.0698	303.15	100	1513.4	
.09118	303.15	100	1514.71	
.11084	303.15	100	1515.92	
.13123	303.15	100	1517.19	
.14987	303.15	100	1518.34	
.05008	308.15	100	1522.83	
.0698	308.15	100	1524.04	
.09118	308.15	100	1525.36	
.11084	308.15	100	1526.58	
.13123	308.15	100	1527.86	
.14987	308.15	100	1529.03	
.05008	313.15	100	1531.64	
.0698	313.15	100	1532.75	
.09118	313.15	100	1533.95	
.11084	313.15	100	1535.06	
.13123	313.15	100	1536.22	
.14987	313.15	100	1537.28	
.05008	318.15	100	1539.12	
.0698	318.15	100	1540.2	
.09118	318.15	100	1541.36	
.11084	318.15	100	1542.44	
.13123	318.15	100	1543.57	
.14987	318.15	100	1544.61	
.05008	323.15	100	1545.31	
.0698	323.15	100	1546.33	
.09118	323.15	100	1547.43	
.11084	323.15	100	1548.45	
.13123	323.15	100	1549.52	
.14987	323.15	100	1550.5	
0	293.15	100	1482.89	
0	298.15	100	1496.82	
0	303.15	100	1509.25	
0	308.15	100	1519.85	
0	313.15	100	1528.92	
0	318.15	100	1536.56	
0	323.15	100	1542.75	

System: water + propylammonium formate; phases: Liquid
Property: Mass density, kg/m3 (Liquid); method: Vibrating tube method
Molality, mol/kg of propylammonium formate	Temperature, K	Pressure, kPa	Mass density, kg/m3	uncertainty
.1	293.15	100	999.222	
.1	298.15	100	997.851	
.1	303.15	100	996.637	
.1	308.15	100	994.884	
.1	313.15	100	993.191	
.1	318.15	100	990.986	
.1	323.15	100	988.793	
.2	293.15	100	1000.067	
.2	298.15	100	998.673	
.2	303.15	100	997.448	
.2	308.15	100	995.676	
.2	313.15	100	993.97	
.2	318.15	100	991.749	
.2	323.15	100	989.611	
.3	293.15	100	1000.908	
.3	298.15	100	999.689	
.3	303.15	100	998.238	
.3	308.15	100	996.581	
.3	313.15	100	994.725	
.3	318.15	100	992.694	
.3	323.15	100	990.498	
.4	293.15	100	1001.806	
.4	298.15	100	1000.559	
.4	303.15	100	999.087	
.4	308.15	100	997.41	
.4	313.15	100	995.542	
.4	318.15	100	993.502	
.4	323.15	100	991.295	
0	293.15	100	998.208	
0	298.15	100	997.048	
0	303.15	100	995.66	
0	308.15	100	994.044	
0	313.15	100	992.228	
0	318.15	100	990.224	
0	323.15	100	988.031	

System: water + propylammonium formate; phases: Liquid
Fixed: Frequency, MHz = 3
Property: Speed of sound, m/s (Liquid); method: Sing-around technique in a fixed-path interferometer
Molality, mol/kg of propylammonium formate	Temperature, K	Pressure, kPa	Speed of sound, m/s	uncertainty
.1	293.15	100	1492.17	
.1	298.15	100	1505.68	
.1	303.15	100	1517.53	
.1	308.15	100	1527.75	
.1	313.15	100	1536.4	
.1	318.15	100	1543.62	
.1	323.15	100	1550.48	
.2	293.15	100	1500.41	
.2	298.15	100	1513.43	
.2	303.15	100	1524.88	
.2	308.15	100	1534.68	
.2	313.15	100	1542.99	
.2	318.15	100	1549.86	
.2	323.15	100	1555.4	
.3	293.15	100	1508.25	
.3	298.15	100	1520.78	
.3	303.15	100	1531.81	
.3	308.15	100	1541.26	
.3	313.15	100	1549.34	
.3	318.15	100	1555.86	
.3	323.15	100	1561.07	
.4	293.15	100	1516.93	
.4	298.15	100	1528.93	
.4	303.15	100	1539.44	
.4	308.15	100	1548.39	
.4	313.15	100	1555.91	
.4	318.15	100	1562.05	
.4	323.15	100	1566.9	
0	293.15	100	1482.89	
0	298.15	100	1496.82	
0	303.15	100	1509.25	
0	308.15	100	1519.85	
0	313.15	100	1528.92	
0	318.15	100	1536.56	
0	323.15	100	1542.75	
