Measured thermophysical data. Volumetric and viscometric studies of amino acids in L-ascorbic acid aqueous solutions at T = (293.15 to 323.15) K
Source: J. Chem. Thermodyn., 2014, 10.1016/j.jct.2013.11.002
Compound 1: L-(+)-ascorbic acid, C6H8O6, purity 99.7%
Compound 2: aminoethanoic acid, C2H5NO2, purity 99%
Compound 3: (S)-2-aminopropanoic acid, C3H7NO2, purity 99%
Compound 4: L-valine, C5H11NO2, purity 99%
Compound 5: L-threonine, C4H9NO3, purity 99%
Compound 6: L-arginine, C6H14N4O2, purity 99%
Compound 7: water, H2O

System: water; phases: Liquid
Property: Mass density, kg/m3 (Liquid); method: Vibrating tube method
Temperature, K	Pressure, kPa	Mass density, kg/m3	uncertainty
293.15	101	998.21	.5
303.15	101	995.64	.5
313.15	101	992.22	.5
323.15	101	988.05	.5

System: water; phases: Liquid
Property: Viscosity, Pa*s (Liquid); method: Capillary tube (Ostwald; Ubbelohde) method
Temperature, K	Pressure, kPa	Viscosity, Pa*s	uncertainty
293.15	101	.001002	.00001002
303.15	101	.0007977	.000007977
313.15	101	.0006532	.000006532
323.15	101	.000547	.00000547

System: L-(+)-ascorbic acid + aminoethanoic acid + water; phases: Liquid
Fixed: Pressure, kPa = 101
Property: Mass density, kg/m3 (Liquid); method: Vibrating tube method
Temperature, K	Solvent: Molality, mol/kg of L-(+)-ascorbic acid	Molality, mol/kg of aminoethanoic acid	Mass density, kg/m3	uncertainty
293.15	0	0	998.21	.5
293.15	0	.1001	1001.43	.5
293.15	0	.2001	1004.6	.5
293.15	0	.3	1007.71	.5
293.15	0	.4002	1010.78	.5
293.15	0	.5003	1013.78	.5
293.15	0	.6004	1016.75	.5
293.15	0	.7002	1019.65	.5
303.15	0	0	995.64	.5
303.15	0	.1001	998.81	.5
303.15	0	.2001	1001.93	.5
303.15	0	.3	1004.98	.5
303.15	0	.4002	1008	.5
303.15	0	.5003	1010.97	.5
303.15	0	.6004	1013.88	.5
303.15	0	.7002	1016.74	.5
313.15	0	0	992.22	.5
313.15	0	.1001	995.34	.5
313.15	0	.2001	998.41	.5
313.15	0	.3	1001.42	.5
313.15	0	.4002	1004.4	.5
313.15	0	.5003	1007.34	.5
313.15	0	.6004	1010.22	.5
313.15	0	.7002	1013.06	.5
323.15	0	0	988.05	.5
323.15	0	.1001	991.13	.5
323.15	0	.2001	994.16	.5
323.15	0	.3	997.13	.5
323.15	0	.4002	1000.07	.5
323.15	0	.5003	1002.96	.5
323.15	0	.6004	1005.83	.5
323.15	0	.7002	1008.64	.5
293.15	.1	0	1005.24	.5
293.15	.1	.1007	1008.47	.5
293.15	.1	.2001	1011.59	.5
293.15	.1	.3001	1014.69	.5
293.15	.1	.4006	1017.75	.5
293.15	.1	.5005	1020.74	.5
293.15	.1	.6002	1023.68	.5
293.15	.1	.7003	1026.57	.5
303.15	.1	0	1002.56	.5
303.15	.1	.1007	1005.73	.5
303.15	.1	.2001	1008.81	.5
303.15	.1	.3001	1011.86	.5
303.15	.1	.4006	1014.87	.5
303.15	.1	.5005	1017.82	.5
303.15	.1	.6002	1020.72	.5
303.15	.1	.7003	1023.58	.5
313.15	.1	0	999.06	.5
313.15	.1	.1007	1002.17	.5
313.15	.1	.2001	1005.2	.5
313.15	.1	.3001	1008.21	.5
313.15	.1	.4006	1011.18	.5
313.15	.1	.5005	1014.1	.5
313.15	.1	.6002	1016.98	.5
313.15	.1	.7003	1019.83	.5
323.15	.1	0	994.78	.5
323.15	.1	.1007	997.86	.5
323.15	.1	.2001	1000.85	.5
323.15	.1	.3001	1003.82	.5
323.15	.1	.4006	1006.77	.5
323.15	.1	.5005	1009.66	.5
323.15	.1	.6002	1012.51	.5
323.15	.1	.7003	1015.35	.5
293.15	.2	0	1012.06	.5
293.15	.2	.1001	1015.25	.5
293.15	.2	.2001	1018.38	.5
293.15	.2	.3002	1021.47	.5
293.15	.2	.3999	1024.49	.5
293.15	.2	.5003	1027.49	.5
293.15	.2	.6003	1030.42	.5
293.15	.2	.7003	1033.31	.5
303.15	.2	0	1009.29	.5
303.15	.2	.1001	1012.43	.5
303.15	.2	.2001	1015.5	.5
303.15	.2	.3002	1018.54	.5
303.15	.2	.3999	1021.51	.5
303.15	.2	.5003	1024.45	.5
303.15	.2	.6003	1027.34	.5
303.15	.2	.7003	1030.18	.5
313.15	.2	0	1005.67	.5
313.15	.2	.1001	1008.75	.5
313.15	.2	.2001	1011.78	.5
313.15	.2	.3002	1014.77	.5
313.15	.2	.3999	1017.7	.5
313.15	.2	.5003	1020.61	.5
313.15	.2	.6003	1023.48	.5
313.15	.2	.7003	1026.3	.5
323.15	.2	0	1001.33	.5
323.15	.2	.1001	1004.37	.5
323.15	.2	.2001	1007.37	.5
323.15	.2	.3002	1010.32	.5
323.15	.2	.3999	1013.22	.5
323.15	.2	.5003	1016.11	.5
323.15	.2	.6003	1018.95	.5
323.15	.2	.7003	1021.75	.5
293.15	.3	0	1018.77	.5
293.15	.3	.1001	1021.94	.5
293.15	.3	.2	1025.05	.5
293.15	.3	.3003	1028.12	.5
293.15	.3	.4002	1031.13	.5
293.15	.3	.5002	1034.09	.5
293.15	.3	.6	1036.98	.5
293.15	.3	.7	1039.84	.5
303.15	.3	0	1015.86	.5
303.15	.3	.1001	1018.97	.5
303.15	.3	.2	1022.03	.5
303.15	.3	.3003	1025.05	.5
303.15	.3	.4002	1028	.5
303.15	.3	.5002	1030.9	.5
303.15	.3	.6	1033.76	.5
303.15	.3	.7	1036.58	.5
313.15	.3	0	1012.14	.5
313.15	.3	.1001	1015.2	.5
313.15	.3	.2	1018.21	.5
313.15	.3	.3003	1021.18	.5
313.15	.3	.4002	1024.1	.5
313.15	.3	.5002	1026.98	.5
313.15	.3	.6	1029.81	.5
313.15	.3	.7	1032.6	.5
323.15	.3	0	1007.75	.5
323.15	.3	.1001	1010.77	.5
323.15	.3	.2	1013.74	.5
323.15	.3	.3003	1016.68	.5
323.15	.3	.4002	1019.57	.5
323.15	.3	.5002	1022.42	.5
323.15	.3	.6	1025.23	.5
323.15	.3	.7	1028.01	.5
293.15	.4	0	1025.29	.5
293.15	.4	.1007	1028.46	.5
293.15	.4	.2002	1031.52	.5
293.15	.4	.3001	1034.56	.5
293.15	.4	.4007	1037.55	.5
293.15	.4	.5001	1040.46	.5
293.15	.4	.6004	1043.34	.5
293.15	.4	.7003	1046.17	.5
303.15	.4	0	1022.27	.5
303.15	.4	.1007	1025.38	.5
303.15	.4	.2002	1028.41	.5
303.15	.4	.3001	1031.4	.5
303.15	.4	.4007	1034.35	.5
303.15	.4	.5001	1037.23	.5
303.15	.4	.6004	1040.09	.5
303.15	.4	.7003	1042.89	.5
313.15	.4	0	1018.47	.5
313.15	.4	.1007	1021.53	.5
313.15	.4	.2002	1024.5	.5
313.15	.4	.3001	1027.44	.5
313.15	.4	.4007	1030.36	.5
313.15	.4	.5001	1033.21	.5
313.15	.4	.6004	1036.03	.5
313.15	.4	.7003	1038.85	.5
323.15	.4	0	1014.02	.5
323.15	.4	.1007	1017.04	.5
323.15	.4	.2002	1019.97	.5
323.15	.4	.3001	1022.89	.5
323.15	.4	.4007	1025.79	.5
323.15	.4	.5001	1028.61	.5
323.15	.4	.6004	1031.42	.5
323.15	.4	.7003	1034.19	.5

System: L-(+)-ascorbic acid + aminoethanoic acid + water; phases: Liquid
Fixed: Pressure, kPa = 101
Property: Viscosity, Pa*s (Liquid); method: Capillary tube (Ostwald; Ubbelohde) method
Temperature, K	Solvent: Molality, mol/kg of L-(+)-ascorbic acid	Molality, mol/kg of aminoethanoic acid	Viscosity, Pa*s	uncertainty
293.15	0	0	.001002	.00001002
293.15	0	.1001	.0010156	.000010156
293.15	0	.2001	.001029	.00001029
293.15	0	.3	.001043	.00001043
293.15	0	.4002	.0010577	.000010577
293.15	0	.5003	.0010731	.000010731
293.15	0	.6004	.0010845	.000010845
293.15	0	.7002	.0011011	.000011011
303.15	0	0	.0007977	.000007977
303.15	0	.1001	.0008095	.000008095
303.15	0	.2001	.0008207	.000008207
303.15	0	.3	.0008311	.000008311
303.15	0	.4002	.0008428	.000008428
303.15	0	.5003	.0008555	.000008555
303.15	0	.6004	.0008659	.000008659
303.15	0	.7002	.0008788	.000008788
313.15	0	0	.0006532	.000006532
313.15	0	.1001	.0006628	.000006628
313.15	0	.2001	.0006721	.000006721
313.15	0	.3	.0006819	.000006819
313.15	0	.4002	.0006913	.000006913
313.15	0	.5003	.0007015	.000007015
313.15	0	.6004	.0007107	.000007107
313.15	0	.7002	.0007213	.000007213
323.15	0	0	.000547	.00000547
323.15	0	.1001	.000555	.00000555
323.15	0	.2001	.0005631	.000005631
323.15	0	.3	.0005714	.000005714
323.15	0	.4002	.0005794	.000005794
323.15	0	.5003	.0005878	.000005878
323.15	0	.6004	.0005957	.000005957
323.15	0	.7002	.0006035	.000006035
293.15	.1	0	.0010412	.000010412
293.15	.1	.1007	.0010555	.000010555
293.15	.1	.2001	.0010708	.000010708
293.15	.1	.3001	.0010869	.000010869
293.15	.1	.4006	.0011025	.000011025
293.15	.1	.5005	.0011176	.000011176
293.15	.1	.6002	.0011331	.000011331
293.15	.1	.7003	.0011493	.000011493
303.15	.1	0	.0008278	.000008278
303.15	.1	.1007	.00084	.0000084
303.15	.1	.2001	.0008523	.000008523
303.15	.1	.3001	.000865	.00000865
303.15	.1	.4006	.0008775	.000008775
303.15	.1	.5005	.0008904	.000008904
303.15	.1	.6002	.0009028	.000009028
303.15	.1	.7003	.0009153	.000009153
313.15	.1	0	.0006766	.000006766
313.15	.1	.1007	.0006872	.000006872
313.15	.1	.2001	.0006971	.000006971
313.15	.1	.3001	.000708	.00000708
313.15	.1	.4006	.0007179	.000007179
313.15	.1	.5005	.0007279	.000007279
313.15	.1	.6002	.0007381	.000007381
313.15	.1	.7003	.0007486	.000007486
323.15	.1	0	.0005655	.000005655
323.15	.1	.1007	.0005744	.000005744
323.15	.1	.2001	.000583	.00000583
323.15	.1	.3001	.0005917	.000005917
323.15	.1	.4006	.0006003	.000006003
323.15	.1	.5005	.0006084	.000006084
323.15	.1	.6002	.0006173	.000006173
323.15	.1	.7003	.0006259	.000006259
293.15	.2	0	.0010783	.000010783
293.15	.2	.1001	.0010945	.000010945
293.15	.2	.2001	.0011116	.000011116
293.15	.2	.3002	.0011287	.000011287
293.15	.2	.3999	.0011463	.000011463
293.15	.2	.5003	.0011644	.000011644
293.15	.2	.6003	.0011819	.000011819
293.15	.2	.7003	.0012005	.000012005
303.15	.2	0	.0008579	.000008579
303.15	.2	.1001	.0008714	.000008714
303.15	.2	.2001	.0008845	.000008845
303.15	.2	.3002	.000898	.00000898
303.15	.2	.3999	.0009107	.000009107
303.15	.2	.5003	.0009245	.000009245
303.15	.2	.6003	.0009375	.000009375
303.15	.2	.7003	.0009509	.000009509
313.15	.2	0	.0006989	.000006989
313.15	.2	.1001	.0007097	.000007097
313.15	.2	.2001	.0007209	.000007209
313.15	.2	.3002	.0007319	.000007319
313.15	.2	.3999	.0007433	.000007433
313.15	.2	.5003	.0007547	.000007547
313.15	.2	.6003	.0007655	.000007655
313.15	.2	.7003	.0007775	.000007775
323.15	.2	0	.0005841	.000005841
323.15	.2	.1001	.0005934	.000005934
323.15	.2	.2001	.0006026	.000006026
323.15	.2	.3002	.0006116	.000006116
323.15	.2	.3999	.0006208	.000006208
323.15	.2	.5003	.0006297	.000006297
323.15	.2	.6003	.0006387	.000006387
323.15	.2	.7003	.0006478	.000006478
293.15	.3	0	.0011244	.000011244
293.15	.3	.1001	.0011422	.000011422
293.15	.3	.2	.0011594	.000011594
293.15	.3	.3003	.0011766	.000011766
293.15	.3	.4002	.0011936	.000011936
293.15	.3	.5002	.0012119	.000012119
293.15	.3	.6	.0012291	.000012291
293.15	.3	.7	.0012461	.000012461
303.15	.3	0	.0008897	.000008897
303.15	.3	.1001	.0009037	.000009037
303.15	.3	.2	.0009177	.000009177
303.15	.3	.3003	.0009319	.000009319
303.15	.3	.4002	.0009464	.000009464
303.15	.3	.5002	.0009605	.000009605
303.15	.3	.6	.000975	.00000975
303.15	.3	.7	.0009892	.000009892
313.15	.3	0	.0007237	.000007237
313.15	.3	.1001	.0007354	.000007354
313.15	.3	.2	.0007471	.000007471
313.15	.3	.3003	.0007586	.000007586
313.15	.3	.4002	.0007699	.000007699
313.15	.3	.5002	.000782	.00000782
313.15	.3	.6	.0007935	.000007935
313.15	.3	.7	.0008052	.000008052
323.15	.3	0	.0006027	.000006027
323.15	.3	.1001	.0006126	.000006126
323.15	.3	.2	.0006223	.000006223
323.15	.3	.3003	.0006317	.000006317
323.15	.3	.4002	.0006417	.000006417
323.15	.3	.5002	.0006511	.000006511
323.15	.3	.6	.000661	.00000661
323.15	.3	.7	.0006706	.000006706
293.15	.4	0	.001166	.00001166
293.15	.4	.1007	.0011855	.000011855
293.15	.4	.2002	.0012047	.000012047
293.15	.4	.3001	.001224	.00001224
293.15	.4	.4007	.0012435	.000012435
293.15	.4	.5001	.0012632	.000012632
293.15	.4	.6004	.0012832	.000012832
293.15	.4	.7003	.0013027	.000013027
303.15	.4	0	.0009213	.000009213
303.15	.4	.1007	.0009368	.000009368
303.15	.4	.2002	.0009528	.000009528
303.15	.4	.3001	.0009683	.000009683
303.15	.4	.4007	.0009845	.000009845
303.15	.4	.5001	.0010003	.000010003
303.15	.4	.6004	.0010164	.000010164
303.15	.4	.7003	.0010323	.000010323
313.15	.4	0	.0007485	.000007485
313.15	.4	.1007	.0007614	.000007614
313.15	.4	.2002	.000774	.00000774
313.15	.4	.3001	.0007871	.000007871
313.15	.4	.4007	.0008002	.000008002
313.15	.4	.5001	.0008128	.000008128
313.15	.4	.6004	.0008257	.000008257
313.15	.4	.7003	.000839	.00000839
323.15	.4	0	.0006221	.000006221
323.15	.4	.1007	.0006326	.000006326
323.15	.4	.2002	.0006435	.000006435
323.15	.4	.3001	.0006537	.000006537
323.15	.4	.4007	.0006644	.000006644
323.15	.4	.5001	.0006746	.000006746
323.15	.4	.6004	.000685	.00000685
323.15	.4	.7003	.0006948	.000006948

System: L-(+)-ascorbic acid + (S)-2-aminopropanoic acid + water; phases: Liquid
Fixed: Pressure, kPa = 101
Property: Mass density, kg/m3 (Liquid); method: Vibrating tube method
Temperature, K	Solvent: Molality, mol/kg of L-(+)-ascorbic acid	Molality, mol/kg of (S)-2-aminopropanoic acid	Mass density, kg/m3	uncertainty
293.15	0	0	998.21	.5
293.15	0	.1002	1001.09	.5
293.15	0	.2	1003.91	.5
293.15	0	.2999	1006.69	.5
293.15	0	.4	1009.42	.5
293.15	0	.5002	1012.11	.5
293.15	0	.5998	1014.74	.5
293.15	0	.6999	1017.34	.5
303.15	0	0	995.64	.5
303.15	0	.1002	998.49	.5
303.15	0	.2	1001.27	.5
303.15	0	.2999	1004.01	.5
303.15	0	.4	1006.7	.5
303.15	0	.5002	1009.36	.5
303.15	0	.5998	1011.94	.5
303.15	0	.6999	1014.5	.5
313.15	0	0	992.22	.5
313.15	0	.1002	995.03	.5
313.15	0	.2	997.78	.5
313.15	0	.2999	1000.49	.5
313.15	0	.4	1003.15	.5
313.15	0	.5002	1005.76	.5
313.15	0	.5998	1008.32	.5
313.15	0	.6999	1010.85	.5
323.15	0	0	988.05	.5
323.15	0	.1002	990.84	.5
323.15	0	.2	993.57	.5
323.15	0	.2999	996.26	.5
323.15	0	.4	998.91	.5
323.15	0	.5002	1001.52	.5
323.15	0	.5998	1004.06	.5
323.15	0	.6999	1006.58	.5
293.15	.1	0	1005.24	.5
293.15	.1	.1001	1008.09	.5
293.15	.1	.2	1010.88	.5
293.15	.1	.3001	1013.63	.5
293.15	.1	.4	1016.33	.5
293.15	.1	.5002	1018.99	.5
293.15	.1	.6003	1021.6	.5
293.15	.1	.7	1024.16	.5
303.15	.1	0	1002.56	.5
303.15	.1	.1001	1005.37	.5
303.15	.1	.2	1008.13	.5
303.15	.1	.3001	1010.84	.5
303.15	.1	.4	1013.5	.5
303.15	.1	.5002	1016.13	.5
303.15	.1	.6003	1018.7	.5
303.15	.1	.7	1021.23	.5
313.15	.1	0	999.06	.5
313.15	.1	.1001	1001.83	.5
313.15	.1	.2	1004.56	.5
313.15	.1	.3001	1007.24	.5
313.15	.1	.4	1009.88	.5
313.15	.1	.5002	1012.48	.5
313.15	.1	.6003	1015.04	.5
313.15	.1	.7	1017.54	.5
323.15	.1	0	994.78	.5
323.15	.1	.1001	997.53	.5
323.15	.1	.2	1000.24	.5
323.15	.1	.3001	1002.91	.5
323.15	.1	.4	1005.53	.5
323.15	.1	.5002	1008.12	.5
323.15	.1	.6003	1010.66	.5
323.15	.1	.7	1013.15	.5
293.15	.2	0	1012.06	.5
293.15	.2	.1001	1014.87	.5
293.15	.2	.2004	1017.65	.5
293.15	.2	.3003	1020.36	.5
293.15	.2	.4002	1023.02	.5
293.15	.2	.4998	1025.63	.5
293.15	.2	.6003	1028.22	.5
293.15	.2	.6998	1030.74	.5
303.15	.2	0	1009.29	.5
303.15	.2	.1001	1012.07	.5
303.15	.2	.2004	1014.81	.5
303.15	.2	.3003	1017.48	.5
303.15	.2	.4002	1020.11	.5
303.15	.2	.4998	1022.69	.5
303.15	.2	.6003	1025.25	.5
303.15	.2	.6998	1027.73	.5
313.15	.2	0	1005.67	.5
313.15	.2	.1001	1008.42	.5
313.15	.2	.2004	1011.12	.5
313.15	.2	.3003	1013.78	.5
313.15	.2	.4002	1016.38	.5
313.15	.2	.4998	1018.94	.5
313.15	.2	.6003	1021.48	.5
313.15	.2	.6998	1023.96	.5
323.15	.2	0	1001.33	.5
323.15	.2	.1001	1004.06	.5
323.15	.2	.2004	1006.74	.5
323.15	.2	.3003	1009.37	.5
323.15	.2	.4002	1011.96	.5
323.15	.2	.4998	1014.5	.5
323.15	.2	.6003	1017.02	.5
323.15	.2	.6998	1019.48	.5
293.15	.3	0	1018.77	.5
293.15	.3	.1001	1021.55	.5
293.15	.3	.1999	1024.28	.5
293.15	.3	.3001	1026.97	.5
293.15	.3	.4	1029.6	.5
293.15	.3	.5	1032.18	.5
293.15	.3	.6002	1034.72	.5
293.15	.3	.7002	1037.21	.5
303.15	.3	0	1015.86	.5
303.15	.3	.1001	1018.61	.5
303.15	.3	.1999	1021.3	.5
303.15	.3	.3001	1023.95	.5
303.15	.3	.4	1026.55	.5
303.15	.3	.5	1029.11	.5
303.15	.3	.6002	1031.63	.5
303.15	.3	.7002	1034.09	.5
313.15	.3	0	1012.14	.5
313.15	.3	.1001	1014.86	.5
313.15	.3	.1999	1017.52	.5
313.15	.3	.3001	1020.15	.5
313.15	.3	.4	1022.72	.5
313.15	.3	.5	1025.25	.5
313.15	.3	.6002	1027.74	.5
313.15	.3	.7002	1030.19	.5
323.15	.3	0	1007.75	.5
323.15	.3	.1001	1010.44	.5
323.15	.3	.1999	1013.09	.5
323.15	.3	.3001	1015.69	.5
323.15	.3	.4	1018.24	.5
323.15	.3	.5	1020.75	.5
323.15	.3	.6002	1023.22	.5
323.15	.3	.7002	1025.65	.5
293.15	.4	0	1025.29	.5
293.15	.4	.1003	1028.05	.5
293.15	.4	.2	1030.75	.5
293.15	.4	.3002	1033.41	.5
293.15	.4	.4	1036.01	.5
293.15	.4	.5	1038.57	.5
293.15	.4	.6002	1041.08	.5
293.15	.4	.7003	1043.55	.5
303.15	.4	0	1022.27	.5
303.15	.4	.1003	1025	.5
303.15	.4	.2	1027.66	.5
303.15	.4	.3002	1030.28	.5
303.15	.4	.4	1032.85	.5
303.15	.4	.5	1035.38	.5
303.15	.4	.6002	1037.86	.5
303.15	.4	.7003	1040.3	.5
313.15	.4	0	1018.47	.5
313.15	.4	.1003	1021.16	.5
313.15	.4	.2	1023.79	.5
313.15	.4	.3002	1026.39	.5
313.15	.4	.4	1028.94	.5
313.15	.4	.5	1031.44	.5
313.15	.4	.6002	1033.91	.5
313.15	.4	.7003	1036.34	.5
323.15	.4	0	1014.02	.5
323.15	.4	.1003	1016.69	.5
323.15	.4	.2	1019.3	.5
323.15	.4	.3002	1021.88	.5
323.15	.4	.4	1024.4	.5
323.15	.4	.5	1026.89	.5
323.15	.4	.6002	1029.34	.5
323.15	.4	.7003	1031.76	.5

System: L-(+)-ascorbic acid + (S)-2-aminopropanoic acid + water; phases: Liquid
Fixed: Pressure, kPa = 101
Property: Viscosity, Pa*s (Liquid); method: Capillary tube (Ostwald; Ubbelohde) method
Temperature, K	Solvent: Molality, mol/kg of L-(+)-ascorbic acid	Molality, mol/kg of (S)-2-aminopropanoic acid	Viscosity, Pa*s	uncertainty
293.15	0	0	.001002	.00001002
293.15	0	.1002	.0010278	.000010278
293.15	0	.2	.0010534	.000010534
293.15	0	.2999	.0010802	.000010802
293.15	0	.4	.0011073	.000011073
293.15	0	.5002	.001135	.00001135
293.15	0	.5998	.0011643	.000011643
293.15	0	.6999	.0011919	.000011919
303.15	0	0	.0007977	.000007977
303.15	0	.1002	.0008176	.000008176
303.15	0	.2	.0008373	.000008373
303.15	0	.2999	.0008574	.000008574
303.15	0	.4	.0008775	.000008775
303.15	0	.5002	.0008984	.000008984
303.15	0	.5998	.0009202	.000009202
303.15	0	.6999	.0009412	.000009412
313.15	0	0	.0006532	.000006532
313.15	0	.1002	.0006687	.000006687
313.15	0	.2	.0006839	.000006839
313.15	0	.2999	.0006994	.000006994
313.15	0	.4	.0007152	.000007152
313.15	0	.5002	.0007316	.000007316
313.15	0	.5998	.0007487	.000007487
313.15	0	.6999	.0007659	.000007659
323.15	0	0	.000547	.00000547
323.15	0	.1002	.0005592	.000005592
323.15	0	.2	.0005713	.000005713
323.15	0	.2999	.0005833	.000005833
323.15	0	.4	.0005961	.000005961
323.15	0	.5002	.0006095	.000006095
323.15	0	.5998	.0006229	.000006229
323.15	0	.6999	.0006364	.000006364
293.15	.1	0	.0010412	.000010412
293.15	.1	.1001	.0010687	.000010687
293.15	.1	.2	.0010961	.000010961
293.15	.1	.3001	.0011242	.000011242
293.15	.1	.4	.0011528	.000011528
293.15	.1	.5002	.0011809	.000011809
293.15	.1	.6003	.0012119	.000012119
293.15	.1	.7	.0012402	.000012402
303.15	.1	0	.0008278	.000008278
303.15	.1	.1001	.0008489	.000008489
303.15	.1	.2	.0008695	.000008695
303.15	.1	.3001	.0008913	.000008913
303.15	.1	.4	.000913	.00000913
303.15	.1	.5002	.0009346	.000009346
303.15	.1	.6003	.0009573	.000009573
303.15	.1	.7	.0009788	.000009788
313.15	.1	0	.0006766	.000006766
313.15	.1	.1001	.0006927	.000006927
313.15	.1	.2	.0007088	.000007088
313.15	.1	.3001	.000725	.00000725
313.15	.1	.4	.0007415	.000007415
313.15	.1	.5002	.0007582	.000007582
313.15	.1	.6003	.0007758	.000007758
313.15	.1	.7	.0007931	.000007931
323.15	.1	0	.0005655	.000005655
323.15	.1	.1001	.0005783	.000005783
323.15	.1	.2	.0005913	.000005913
323.15	.1	.3001	.0006041	.000006041
323.15	.1	.4	.0006172	.000006172
323.15	.1	.5002	.0006302	.000006302
323.15	.1	.6003	.0006444	.000006444
323.15	.1	.7	.000658	.00000658
293.15	.2	0	.0010783	.000010783
293.15	.2	.1001	.0011073	.000011073
293.15	.2	.2004	.0011375	.000011375
293.15	.2	.3003	.0011683	.000011683
293.15	.2	.4002	.0011993	.000011993
293.15	.2	.4998	.0012299	.000012299
293.15	.2	.6003	.0012623	.000012623
293.15	.2	.6998	.0012944	.000012944
303.15	.2	0	.0008579	.000008579
303.15	.2	.1001	.0008802	.000008802
303.15	.2	.2004	.0009027	.000009027
303.15	.2	.3003	.0009247	.000009247
303.15	.2	.4002	.0009485	.000009485
303.15	.2	.4998	.0009714	.000009714
303.15	.2	.6003	.0009953	.000009953
303.15	.2	.6998	.0010176	.000010176
313.15	.2	0	.0006989	.000006989
313.15	.2	.1001	.0007165	.000007165
313.15	.2	.2004	.0007338	.000007338
313.15	.2	.3003	.0007512	.000007512
313.15	.2	.4002	.0007695	.000007695
313.15	.2	.4998	.0007873	.000007873
313.15	.2	.6003	.0008054	.000008054
313.15	.2	.6998	.0008229	.000008229
323.15	.2	0	.0005841	.000005841
323.15	.2	.1001	.0005977	.000005977
323.15	.2	.2004	.0006114	.000006114
323.15	.2	.3003	.0006251	.000006251
323.15	.2	.4002	.0006384	.000006384
323.15	.2	.4998	.0006521	.000006521
323.15	.2	.6003	.0006662	.000006662
323.15	.2	.6998	.0006797	.000006797
293.15	.3	0	.0011244	.000011244
293.15	.3	.1001	.0011562	.000011562
293.15	.3	.1999	.0011865	.000011865
293.15	.3	.3001	.0012185	.000012185
293.15	.3	.4	.0012511	.000012511
293.15	.3	.5	.0012833	.000012833
293.15	.3	.6002	.001315	.00001315
293.15	.3	.7002	.0013491	.000013491
303.15	.3	0	.0008897	.000008897
303.15	.3	.1001	.0009131	.000009131
303.15	.3	.1999	.0009368	.000009368
303.15	.3	.3001	.0009609	.000009609
303.15	.3	.4	.000985	.00000985
303.15	.3	.5	.001009	.00001009
303.15	.3	.6002	.0010329	.000010329
303.15	.3	.7002	.0010579	.000010579
313.15	.3	0	.0007237	.000007237
313.15	.3	.1001	.0007423	.000007423
313.15	.3	.1999	.0007602	.000007602
313.15	.3	.3001	.0007781	.000007781
313.15	.3	.4	.0007966	.000007966
313.15	.3	.5	.0008156	.000008156
313.15	.3	.6002	.0008334	.000008334
313.15	.3	.7002	.0008513	.000008513
323.15	.3	0	.0006027	.000006027
323.15	.3	.1001	.0006169	.000006169
323.15	.3	.1999	.0006309	.000006309
323.15	.3	.3001	.0006458	.000006458
323.15	.3	.4	.0006602	.000006602
323.15	.3	.5	.0006748	.000006748
323.15	.3	.6002	.0006891	.000006891
323.15	.3	.7002	.0007043	.000007043
293.15	.4	0	.001166	.00001166
293.15	.4	.1003	.0011998	.000011998
293.15	.4	.2	.0012331	.000012331
293.15	.4	.3002	.0012672	.000012672
293.15	.4	.4	.0013011	.000013011
293.15	.4	.5	.0013355	.000013355
293.15	.4	.6002	.0013708	.000013708
293.15	.4	.7003	.001408	.00001408
303.15	.4	0	.0009213	.000009213
303.15	.4	.1003	.0009468	.000009468
303.15	.4	.2	.0009715	.000009715
303.15	.4	.3002	.0009975	.000009975
303.15	.4	.4	.0010228	.000010228
303.15	.4	.5	.0010489	.000010489
303.15	.4	.6002	.0010757	.000010757
303.15	.4	.7003	.0011036	.000011036
313.15	.4	0	.0007485	.000007485
313.15	.4	.1003	.000768	.00000768
313.15	.4	.2	.0007873	.000007873
313.15	.4	.3002	.000807	.00000807
313.15	.4	.4	.0008266	.000008266
313.15	.4	.5	.0008464	.000008464
313.15	.4	.6002	.0008665	.000008665
313.15	.4	.7003	.0008866	.000008866
323.15	.4	0	.0006221	.000006221
323.15	.4	.1003	.0006373	.000006373
323.15	.4	.2	.0006524	.000006524
323.15	.4	.3002	.0006681	.000006681
323.15	.4	.4	.0006837	.000006837
323.15	.4	.5	.0006997	.000006997
323.15	.4	.6002	.0007157	.000007157
323.15	.4	.7003	.000732	.00000732

System: L-(+)-ascorbic acid + L-valine + water; phases: Liquid
Fixed: Pressure, kPa = 101
Property: Mass density, kg/m3 (Liquid); method: Vibrating tube method
Temperature, K	Solvent: Molality, mol/kg of L-(+)-ascorbic acid	Molality, mol/kg of L-valine	Mass density, kg/m3	uncertainty
293.15	0	0	998.21	.5
293.15	0	.1003	1000.9	.5
293.15	0	.2001	1003.52	.5
293.15	0	.3	1006.08	.5
293.15	0	.4	1008.59	.5
293.15	0	.4999	1011.03	.5
303.15	0	0	995.64	.5
303.15	0	.1003	998.3	.5
303.15	0	.2001	1000.88	.5
303.15	0	.3	1003.4	.5
303.15	0	.4	1005.87	.5
303.15	0	.4999	1008.28	.5
313.15	0	0	992.22	.5
313.15	0	.1003	994.83	.5
313.15	0	.2001	997.37	.5
313.15	0	.3	999.85	.5
313.15	0	.4	1002.28	.5
313.15	0	.4999	1004.66	.5
323.15	0	0	988.05	.5
323.15	0	.1003	990.61	.5
323.15	0	.2001	993.1	.5
323.15	0	.3	995.54	.5
323.15	0	.4	997.93	.5
323.15	0	.4999	1000.25	.5
293.15	.1	0	1005.24	.5
293.15	.1	.1	1007.87	.5
293.15	.1	.2001	1010.45	.5
293.15	.1	.3	1012.96	.5
293.15	.1	.4004	1015.43	.5
293.15	.1	.4999	1017.83	.5
303.15	.1	0	1002.56	.5
303.15	.1	.1	1005.16	.5
303.15	.1	.2001	1007.69	.5
303.15	.1	.3	1010.17	.5
303.15	.1	.4004	1012.59	.5
303.15	.1	.4999	1014.94	.5
313.15	.1	0	999.06	.5
313.15	.1	.1	1001.61	.5
313.15	.1	.2001	1004.1	.5
313.15	.1	.3	1006.53	.5
313.15	.1	.4004	1008.93	.5
313.15	.1	.4999	1011.24	.5
323.15	.1	0	994.78	.5
323.15	.1	.1	997.28	.5
323.15	.1	.2001	999.73	.5
323.15	.1	.3	1002.13	.5
323.15	.1	.4004	1004.48	.5
323.15	.1	.4999	1006.75	.5
293.15	.2	0	1012.06	.5
293.15	.2	.1001	1014.64	.5
293.15	.2	.2001	1017.17	.5
293.15	.2	.3	1019.63	.5
293.15	.2	.4001	1022.05	.5
293.15	.2	.5001	1024.39	.5
303.15	.2	0	1009.29	.5
303.15	.2	.1001	1011.84	.5
303.15	.2	.2001	1014.32	.5
303.15	.2	.3	1016.74	.5
303.15	.2	.4001	1019.1	.5
303.15	.2	.5001	1021.4	.5
313.15	.2	0	1005.67	.5
313.15	.2	.1001	1008.17	.5
313.15	.2	.2001	1010.61	.5
313.15	.2	.3	1012.98	.5
313.15	.2	.4001	1015.3	.5
313.15	.2	.5001	1017.56	.5
323.15	.2	0	1001.33	.5
323.15	.2	.1001	1003.79	.5
323.15	.2	.2001	1006.19	.5
323.15	.2	.3	1008.54	.5
323.15	.2	.4001	1010.84	.5
323.15	.2	.5001	1013.07	.5
293.15	.3	0	1018.77	.5
293.15	.3	.1001	1021.3	.5
293.15	.3	.2002	1023.76	.5
293.15	.3	.3002	1026.16	.5
293.15	.3	.4003	1028.5	.5
293.15	.3	.5	1030.78	.5
303.15	.3	0	1015.86	.5
303.15	.3	.1001	1018.36	.5
303.15	.3	.2002	1020.79	.5
303.15	.3	.3002	1023.15	.5
303.15	.3	.4003	1025.47	.5
303.15	.3	.5	1027.72	.5
313.15	.3	0	1012.14	.5
313.15	.3	.1001	1014.59	.5
313.15	.3	.2002	1016.98	.5
313.15	.3	.3002	1019.3	.5
313.15	.3	.4003	1021.57	.5
313.15	.3	.5	1023.78	.5
323.15	.3	0	1007.75	.5
323.15	.3	.1001	1010.16	.5
323.15	.3	.2002	1012.51	.5
323.15	.3	.3002	1014.8	.5
323.15	.3	.4003	1017.05	.5
323.15	.3	.5	1019.24	.5
293.15	.4	0	1025.29	.5
293.15	.4	.1003	1027.77	.5
293.15	.4	.2001	1030.18	.5
293.15	.4	.3	1032.53	.5
293.15	.4	.4	1034.81	.5
293.15	.4	.5	1037.04	.5
303.15	.4	0	1022.27	.5
303.15	.4	.1003	1024.72	.5
303.15	.4	.2001	1027.09	.5
303.15	.4	.3	1029.41	.5
303.15	.4	.4	1031.66	.5
303.15	.4	.5	1033.85	.5
313.15	.4	0	1018.47	.5
313.15	.4	.1003	1020.87	.5
313.15	.4	.2001	1023.2	.5
313.15	.4	.3	1025.47	.5
313.15	.4	.4	1027.68	.5
313.15	.4	.5	1029.85	.5
323.15	.4	0	1014.02	.5
323.15	.4	.1003	1016.38	.5
323.15	.4	.2001	1018.67	.5
323.15	.4	.3	1020.91	.5
323.15	.4	.4	1023.09	.5
323.15	.4	.5	1025.24	.5

System: L-(+)-ascorbic acid + L-valine + water; phases: Liquid
Fixed: Pressure, kPa = 101
Property: Viscosity, Pa*s (Liquid); method: Capillary tube (Ostwald; Ubbelohde) method
Temperature, K	Solvent: Molality, mol/kg of L-(+)-ascorbic acid	Molality, mol/kg of L-valine	Viscosity, Pa*s	uncertainty
293.15	0	0	.001002	.00001002
293.15	0	.1003	.0010455	.000010455
293.15	0	.2001	.0010894	.000010894
293.15	0	.3	.0011366	.000011366
293.15	0	.4	.0011853	.000011853
293.15	0	.4999	.0012355	.000012355
303.15	0	0	.0007977	.000007977
303.15	0	.1003	.00083	.0000083
303.15	0	.2001	.000861	.00000861
303.15	0	.3	.0008951	.000008951
303.15	0	.4	.0009297	.000009297
303.15	0	.4999	.0009658	.000009658
313.15	0	0	.0006532	.000006532
313.15	0	.1003	.0006773	.000006773
313.15	0	.2001	.0007008	.000007008
313.15	0	.3	.0007269	.000007269
313.15	0	.4	.000752	.00000752
313.15	0	.4999	.0007794	.000007794
323.15	0	0	.000547	.00000547
323.15	0	.1003	.0005656	.000005656
323.15	0	.2001	.0005841	.000005841
323.15	0	.3	.0006037	.000006037
323.15	0	.4	.0006235	.000006235
323.15	0	.4999	.0006454	.000006454
293.15	.1	0	.0010412	.000010412
293.15	.1	.1	.0010884	.000010884
293.15	.1	.2001	.001135	.00001135
293.15	.1	.3	.0011848	.000011848
293.15	.1	.4004	.0012347	.000012347
293.15	.1	.4999	.0012901	.000012901
303.15	.1	0	.0008267	.000008267
303.15	.1	.1	.0008596	.000008596
303.15	.1	.2001	.0008943	.000008943
303.15	.1	.3	.0009313	.000009313
303.15	.1	.4004	.0009669	.000009669
303.15	.1	.4999	.0010054	.000010054
313.15	.1	0	.0006755	.000006755
313.15	.1	.1	.0007015	.000007015
313.15	.1	.2001	.0007257	.000007257
313.15	.1	.3	.0007536	.000007536
313.15	.1	.4004	.0007815	.000007815
313.15	.1	.4999	.0008094	.000008094
323.15	.1	0	.0005646	.000005646
323.15	.1	.1	.0005845	.000005845
323.15	.1	.2001	.0006028	.000006028
323.15	.1	.3	.0006249	.000006249
323.15	.1	.4004	.0006456	.000006456
323.15	.1	.4999	.0006673	.000006673
293.15	.2	0	.001081	.00001081
293.15	.2	.1001	.0011303	.000011303
293.15	.2	.2001	.001181	.00001181
293.15	.2	.3	.0012337	.000012337
293.15	.2	.4001	.0012865	.000012865
293.15	.2	.5001	.0013438	.000013438
303.15	.2	0	.0008564	.000008564
303.15	.2	.1001	.0008925	.000008925
303.15	.2	.2001	.0009288	.000009288
303.15	.2	.3	.0009682	.000009682
303.15	.2	.4001	.0010051	.000010051
303.15	.2	.5001	.0010461	.000010461
313.15	.2	0	.0006987	.000006987
313.15	.2	.1001	.0007275	.000007275
313.15	.2	.2001	.0007533	.000007533
313.15	.2	.3	.0007815	.000007815
313.15	.2	.4001	.0008098	.000008098
313.15	.2	.5001	.0008413	.000008413
323.15	.2	0	.0005832	.000005832
323.15	.2	.1001	.000603	.00000603
323.15	.2	.2001	.0006247	.000006247
323.15	.2	.3	.0006472	.000006472
323.15	.2	.4001	.0006687	.000006687
323.15	.2	.5001	.0006924	.000006924
293.15	.3	0	.0011222	.000011222
293.15	.3	.1001	.0011759	.000011759
293.15	.3	.2002	.0012279	.000012279
293.15	.3	.3002	.001283	.00001283
293.15	.3	.4003	.0013408	.000013408
293.15	.3	.5	.0014014	.000014014
303.15	.3	0	.0008876	.000008876
303.15	.3	.1001	.0009263	.000009263
303.15	.3	.2002	.000964	.00000964
303.15	.3	.3002	.0010043	.000010043
303.15	.3	.4003	.0010442	.000010442
303.15	.3	.5	.0010855	.000010855
313.15	.3	0	.0007227	.000007227
313.15	.3	.1001	.000752	.00000752
313.15	.3	.2002	.0007808	.000007808
313.15	.3	.3002	.00081	.0000081
313.15	.3	.4003	.0008397	.000008397
313.15	.3	.5	.0008723	.000008723
323.15	.3	0	.0006022	.000006022
323.15	.3	.1001	.0006245	.000006245
323.15	.3	.2002	.0006458	.000006458
323.15	.3	.3002	.0006689	.000006689
323.15	.3	.4003	.0006919	.000006919
323.15	.3	.5	.0007161	.000007161
293.15	.4	0	.0011657	.000011657
293.15	.4	.1003	.0012228	.000012228
293.15	.4	.2001	.0012789	.000012789
293.15	.4	.3	.0013348	.000013348
293.15	.4	.4	.0013944	.000013944
293.15	.4	.5	.0014562	.000014562
303.15	.4	0	.0009197	.000009197
303.15	.4	.1003	.0009596	.000009596
303.15	.4	.2001	.0010003	.000010003
303.15	.4	.3	.0010431	.000010431
303.15	.4	.4	.0010855	.000010855
303.15	.4	.5	.0011279	.000011279
313.15	.4	0	.0007473	.000007473
313.15	.4	.1003	.0007776	.000007776
313.15	.4	.2001	.0008085	.000008085
313.15	.4	.3	.0008391	.000008391
313.15	.4	.4	.0008715	.000008715
313.15	.4	.5	.0009033	.000009033
323.15	.4	0	.0006216	.000006216
323.15	.4	.1003	.0006435	.000006435
323.15	.4	.2001	.0006671	.000006671
323.15	.4	.3	.0006916	.000006916
323.15	.4	.4	.0007152	.000007152
323.15	.4	.5	.0007385	.000007385

System: L-(+)-ascorbic acid + L-threonine + water; phases: Liquid
Fixed: Pressure, kPa = 101
Property: Mass density, kg/m3 (Liquid); method: Vibrating tube method
Temperature, K	Solvent: Molality, mol/kg of L-(+)-ascorbic acid	Molality, mol/kg of L-threonine	Mass density, kg/m3	uncertainty
293.15	0	0	998.21	.5
293.15	0	.1003	1002.44	.5
293.15	0	.2	1006.57	.5
293.15	0	.3001	1010.62	.5
293.15	0	.3999	1014.57	.5
293.15	0	.5001	1018.47	.5
293.15	0	.6001	1022.28	.5
293.15	0	.6999	1026	.5
303.15	0	0	995.64	.5
303.15	0	.1003	999.82	.5
303.15	0	.2	1003.89	.5
303.15	0	.3001	1007.89	.5
303.15	0	.3999	1011.79	.5
303.15	0	.5001	1015.64	.5
303.15	0	.6001	1019.4	.5
303.15	0	.6999	1023.08	.5
313.15	0	0	992.22	.5
313.15	0	.1003	996.35	.5
313.15	0	.2	1000.36	.5
313.15	0	.3001	1004.31	.5
313.15	0	.3999	1008.17	.5
313.15	0	.5001	1011.96	.5
313.15	0	.6001	1015.68	.5
313.15	0	.6999	1019.31	.5
323.15	0	0	988.05	.5
323.15	0	.1003	992.15	.5
323.15	0	.2	996.14	.5
323.15	0	.3001	1000.07	.5
323.15	0	.3999	1003.92	.5
323.15	0	.5001	1007.7	.5
323.15	0	.6001	1011.4	.5
323.15	0	.6999	1015.03	.5
293.15	.1	0	1005.24	.5
293.15	.1	.1001	1009.43	.5
293.15	.1	.2	1013.53	.5
293.15	.1	.3	1017.55	.5
293.15	.1	.4	1021.49	.5
293.15	.1	.4999	1025.35	.5
293.15	.1	.6	1029.15	.5
293.15	.1	.7002	1032.87	.5
303.15	.1	0	1002.56	.5
303.15	.1	.1001	1006.7	.5
303.15	.1	.2	1010.74	.5
303.15	.1	.3	1014.71	.5
303.15	.1	.4	1018.59	.5
303.15	.1	.4999	1022.4	.5
303.15	.1	.6	1026.15	.5
303.15	.1	.7002	1029.83	.5
313.15	.1	0	999.06	.5
313.15	.1	.1001	1003.14	.5
313.15	.1	.2	1007.13	.5
313.15	.1	.3	1011.05	.5
313.15	.1	.4	1014.89	.5
313.15	.1	.4999	1018.65	.5
313.15	.1	.6	1022.36	.5
313.15	.1	.7002	1025.99	.5
323.15	.1	0	994.78	.5
323.15	.1	.1001	998.83	.5
323.15	.1	.2	1002.8	.5
323.15	.1	.3	1006.7	.5
323.15	.1	.4	1010.53	.5
323.15	.1	.4999	1014.29	.5
323.15	.1	.6	1017.98	.5
323.15	.1	.7002	1021.62	.5
293.15	.2	0	1012.06	.5
293.15	.2	.1001	1016.21	.5
293.15	.2	.2001	1020.28	.5
293.15	.2	.3	1024.25	.5
293.15	.2	.4	1028.15	.5
293.15	.2	.5004	1031.97	.5
293.15	.2	.6	1035.69	.5
293.15	.2	.7001	1039.35	.5
303.15	.2	0	1009.29	.5
303.15	.2	.1001	1013.39	.5
303.15	.2	.2001	1017.4	.5
303.15	.2	.3	1021.32	.5
303.15	.2	.4	1025.16	.5
303.15	.2	.5004	1028.94	.5
303.15	.2	.6	1032.63	.5
303.15	.2	.7001	1036.24	.5
313.15	.2	0	1005.67	.5
313.15	.2	.1001	1009.71	.5
313.15	.2	.2001	1013.68	.5
313.15	.2	.3	1017.56	.5
313.15	.2	.4	1021.38	.5
313.15	.2	.5004	1025.13	.5
313.15	.2	.6	1028.78	.5
313.15	.2	.7001	1032.39	.5
323.15	.2	0	1001.33	.5
323.15	.2	.1001	1005.35	.5
323.15	.2	.2001	1009.29	.5
323.15	.2	.3	1013.15	.5
323.15	.2	.4	1016.95	.5
323.15	.2	.5004	1020.68	.5
323.15	.2	.6	1024.32	.5
323.15	.2	.7001	1027.92	.5
293.15	.3	0	1018.77	.5
293.15	.3	.1001	1022.89	.5
293.15	.3	.2002	1026.91	.5
293.15	.3	.3001	1030.84	.5
293.15	.3	.4001	1034.69	.5
293.15	.3	.5001	1038.45	.5
293.15	.3	.5998	1042.13	.5
293.15	.3	.7001	1045.74	.5
303.15	.3	0	1015.86	.5
303.15	.3	.1001	1019.92	.5
303.15	.3	.2002	1023.89	.5
303.15	.3	.3001	1027.78	.5
303.15	.3	.4001	1031.57	.5
303.15	.3	.5001	1035.29	.5
303.15	.3	.5998	1038.92	.5
303.15	.3	.7001	1042.5	.5
313.15	.3	0	1012.14	.5
313.15	.3	.1001	1016.15	.5
313.15	.3	.2002	1020.08	.5
313.15	.3	.3001	1023.91	.5
313.15	.3	.4001	1027.68	.5
313.15	.3	.5001	1031.36	.5
313.15	.3	.5998	1034.97	.5
313.15	.3	.7001	1038.53	.5
323.15	.3	0	1007.75	.5
323.15	.3	.1001	1011.73	.5
323.15	.3	.2002	1015.63	.5
323.15	.3	.3001	1019.45	.5
323.15	.3	.4001	1023.19	.5
323.15	.3	.5001	1026.86	.5
323.15	.3	.5998	1030.46	.5
323.15	.3	.7001	1034	.5
293.15	.4	0	1025.29	.5
293.15	.4	.1001	1029.37	.5
293.15	.4	.2	1033.35	.5
293.15	.4	.3	1037.24	.5
293.15	.4	.3999	1041.04	.5
293.15	.4	.5003	1044.77	.5
293.15	.4	.5998	1048.38	.5
293.15	.4	.7002	1051.95	.5
303.15	.4	0	1022.27	.5
303.15	.4	.1001	1026.29	.5
303.15	.4	.2	1030.22	.5
303.15	.4	.3	1034.07	.5
303.15	.4	.3999	1037.83	.5
303.15	.4	.5003	1041.52	.5
303.15	.4	.5998	1045.11	.5
303.15	.4	.7002	1048.66	.5
313.15	.4	0	1018.47	.5
313.15	.4	.1001	1022.44	.5
313.15	.4	.2	1026.32	.5
313.15	.4	.3	1030.12	.5
313.15	.4	.3999	1033.84	.5
313.15	.4	.5003	1037.5	.5
313.15	.4	.5998	1041.07	.5
313.15	.4	.7002	1044.6	.5
323.15	.4	0	1014.02	.5
323.15	.4	.1001	1017.96	.5
323.15	.4	.2	1021.82	.5
323.15	.4	.3	1025.59	.5
323.15	.4	.3999	1029.29	.5
323.15	.4	.5003	1032.93	.5
323.15	.4	.5998	1036.46	.5
323.15	.4	.7002	1039.97	.5

System: L-(+)-ascorbic acid + L-threonine + water; phases: Liquid
Fixed: Pressure, kPa = 101
Property: Viscosity, Pa*s (Liquid); method: Capillary tube (Ostwald; Ubbelohde) method
Temperature, K	Solvent: Molality, mol/kg of L-(+)-ascorbic acid	Molality, mol/kg of L-threonine	Viscosity, Pa*s	uncertainty
293.15	0	0	.001002	.00001002
293.15	0	.1003	.0010358	.000010358
293.15	0	.2	.0010702	.000010702
293.15	0	.3001	.0011059	.000011059
293.15	0	.3999	.0011436	.000011436
293.15	0	.5001	.0011834	.000011834
293.15	0	.6001	.0012264	.000012264
293.15	0	.6999	.0012694	.000012694
303.15	0	0	.0007977	.000007977
303.15	0	.1003	.0008232	.000008232
303.15	0	.2	.0008495	.000008495
303.15	0	.3001	.000876	.00000876
303.15	0	.3999	.000904	.00000904
303.15	0	.5001	.0009336	.000009336
303.15	0	.6001	.0009654	.000009654
303.15	0	.6999	.0009968	.000009968
313.15	0	0	.0006532	.000006532
313.15	0	.1003	.0006733	.000006733
313.15	0	.2	.0006939	.000006939
313.15	0	.3001	.0007144	.000007144
313.15	0	.3999	.000736	.00000736
313.15	0	.5001	.000758	.00000758
313.15	0	.6001	.0007828	.000007828
313.15	0	.6999	.0008054	.000008054
323.15	0	0	.000547	.00000547
323.15	0	.1003	.0005622	.000005622
323.15	0	.2	.0005782	.000005782
323.15	0	.3001	.0005946	.000005946
323.15	0	.3999	.0006118	.000006118
323.15	0	.5001	.0006298	.000006298
323.15	0	.6001	.000649	.00000649
323.15	0	.6999	.0006668	.000006668
293.15	.1	0	.0010412	.000010412
293.15	.1	.1001	.0010779	.000010779
293.15	.1	.2	.001116	.00001116
293.15	.1	.3	.0011546	.000011546
293.15	.1	.4	.0011943	.000011943
293.15	.1	.4999	.0012348	.000012348
293.15	.1	.6	.0012813	.000012813
293.15	.1	.7002	.0013246	.000013246
303.15	.1	0	.0008267	.000008267
303.15	.1	.1001	.0008544	.000008544
303.15	.1	.2	.0008826	.000008826
303.15	.1	.3	.0009117	.000009117
303.15	.1	.4	.0009417	.000009417
303.15	.1	.4999	.0009715	.000009715
303.15	.1	.6	.0010059	.000010059
303.15	.1	.7002	.0010374	.000010374
313.15	.1	0	.0006755	.000006755
313.15	.1	.1001	.0006971	.000006971
313.15	.1	.2	.000719	.00000719
313.15	.1	.3	.0007412	.000007412
313.15	.1	.4	.0007648	.000007648
313.15	.1	.4999	.0007879	.000007879
313.15	.1	.6	.0008124	.000008124
313.15	.1	.7002	.0008366	.000008366
323.15	.1	0	.0005646	.000005646
323.15	.1	.1001	.0005815	.000005815
323.15	.1	.2	.0005989	.000005989
323.15	.1	.3	.0006169	.000006169
323.15	.1	.4	.0006353	.000006353
323.15	.1	.4999	.0006536	.000006536
323.15	.1	.6	.0006725	.000006725
323.15	.1	.7002	.0006914	.000006914
293.15	.2	0	.001081	.00001081
293.15	.2	.1001	.001121	.00001121
293.15	.2	.2001	.0011623	.000011623
293.15	.2	.3	.0012035	.000012035
293.15	.2	.4	.0012468	.000012468
293.15	.2	.5004	.0012918	.000012918
293.15	.2	.6	.0013351	.000013351
293.15	.2	.7001	.0013826	.000013826
303.15	.2	0	.0008564	.000008564
303.15	.2	.1001	.0008865	.000008865
303.15	.2	.2001	.0009167	.000009167
303.15	.2	.3	.0009477	.000009477
303.15	.2	.4	.0009806	.000009806
303.15	.2	.5004	.0010138	.000010138
303.15	.2	.6	.0010451	.000010451
303.15	.2	.7001	.0010774	.000010774
313.15	.2	0	.0006987	.000006987
313.15	.2	.1001	.000722	.00000722
313.15	.2	.2001	.0007457	.000007457
313.15	.2	.3	.0007694	.000007694
313.15	.2	.4	.0007942	.000007942
313.15	.2	.5004	.0008194	.000008194
313.15	.2	.6	.0008443	.000008443
313.15	.2	.7001	.0008705	.000008705
323.15	.2	0	.0005832	.000005832
323.15	.2	.1001	.0006014	.000006014
323.15	.2	.2001	.0006201	.000006201
323.15	.2	.3	.0006391	.000006391
323.15	.2	.4	.000658	.00000658
323.15	.2	.5004	.000677	.00000677
323.15	.2	.6	.0006959	.000006959
323.15	.2	.7001	.0007161	.000007161
293.15	.3	0	.0011222	.000011222
293.15	.3	.1001	.0011647	.000011647
293.15	.3	.2002	.001208	.00001208
293.15	.3	.3001	.001254	.00001254
293.15	.3	.4001	.0013004	.000013004
293.15	.3	.5001	.0013467	.000013467
293.15	.3	.5998	.0013912	.000013912
293.15	.3	.7001	.0014403	.000014403
303.15	.3	0	.0008876	.000008876
303.15	.3	.1001	.0009191	.000009191
303.15	.3	.2002	.0009516	.000009516
303.15	.3	.3001	.0009858	.000009858
303.15	.3	.4001	.0010201	.000010201
303.15	.3	.5001	.0010537	.000010537
303.15	.3	.5998	.0010867	.000010867
303.15	.3	.7001	.0011221	.000011221
313.15	.3	0	.0007227	.000007227
313.15	.3	.1001	.0007473	.000007473
313.15	.3	.2002	.0007719	.000007719
313.15	.3	.3001	.0007978	.000007978
313.15	.3	.4001	.0008243	.000008243
313.15	.3	.5001	.0008499	.000008499
313.15	.3	.5998	.0008758	.000008758
313.15	.3	.7001	.0009015	.000009015
323.15	.3	0	.0006022	.000006022
323.15	.3	.1001	.0006215	.000006215
323.15	.3	.2002	.0006412	.000006412
323.15	.3	.3001	.0006611	.000006611
323.15	.3	.4001	.0006818	.000006818
323.15	.3	.5001	.0007014	.000007014
323.15	.3	.5998	.0007219	.000007219
323.15	.3	.7001	.0007428	.000007428
293.15	.4	0	.0011657	.000011657
293.15	.4	.1001	.0012119	.000012119
293.15	.4	.2	.0012583	.000012583
293.15	.4	.3	.0013057	.000013057
293.15	.4	.3999	.0013541	.000013541
293.15	.4	.5003	.001404	.00001404
293.15	.4	.5998	.0014526	.000014526
293.15	.4	.7002	.0015045	.000015045
303.15	.4	0	.0009197	.000009197
303.15	.4	.1001	.000954	.00000954
303.15	.4	.2	.0009889	.000009889
303.15	.4	.3	.0010236	.000010236
303.15	.4	.3999	.0010592	.000010592
303.15	.4	.5003	.0010964	.000010964
303.15	.4	.5998	.001131	.00001131
303.15	.4	.7002	.001168	.00001168
313.15	.4	0	.0007473	.000007473
313.15	.4	.1001	.0007734	.000007734
313.15	.4	.2	.0008003	.000008003
313.15	.4	.3	.0008267	.000008267
313.15	.4	.3999	.0008539	.000008539
313.15	.4	.5003	.0008818	.000008818
313.15	.4	.5998	.0009091	.000009091
313.15	.4	.7002	.0009362	.000009362
323.15	.4	0	.0006216	.000006216
323.15	.4	.1001	.0006421	.000006421
323.15	.4	.2	.0006632	.000006632
323.15	.4	.3	.000684	.00000684
323.15	.4	.3999	.0007059	.000007059
323.15	.4	.5003	.0007278	.000007278
323.15	.4	.5998	.0007498	.000007498
323.15	.4	.7002	.0007717	.000007717

System: L-(+)-ascorbic acid + L-arginine + water; phases: Liquid
Fixed: Pressure, kPa = 101
Property: Mass density, kg/m3 (Liquid); method: Vibrating tube method
Temperature, K	Solvent: Molality, mol/kg of L-(+)-ascorbic acid	Molality, mol/kg of L-arginine	Mass density, kg/m3	uncertainty
293.15	0	0	998.21	.5
293.15	0	.1001	1003.17	.5
293.15	0	.2	1007.96	.5
293.15	0	.3	1012.6	.5
293.15	0	.3998	1017.07	.5
293.15	0	.5	1021.42	.5
293.15	0	.5998	1025.63	.5
293.15	0	.7002	1029.71	.5
303.15	0	0	995.64	.5
303.15	0	.1001	1000.53	.5
303.15	0	.2	1005.25	.5
303.15	0	.3	1009.81	.5
303.15	0	.3998	1014.22	.5
303.15	0	.5	1018.5	.5
303.15	0	.5998	1022.63	.5
303.15	0	.7002	1026.64	.5
313.15	0	0	992.22	.5
313.15	0	.1001	997.05	.5
313.15	0	.2	1001.7	.5
313.15	0	.3	1006.21	.5
313.15	0	.3998	1010.54	.5
313.15	0	.5	1014.74	.5
313.15	0	.5998	1018.79	.5
313.15	0	.7002	1022.73	.5
323.15	0	0	988.05	.5
323.15	0	.1001	992.82	.5
323.15	0	.2	997.43	.5
323.15	0	.3	1001.89	.5
323.15	0	.3998	1006.2	.5
323.15	0	.5	1010.38	.5
323.15	0	.5998	1014.41	.5
323.15	0	.7002	1018.32	.5
293.15	.1	0	1005.24	.5
293.15	.1	.1001	1011.36	.5
293.15	.1	.2001	1016.69	.5
293.15	.1	.3	1021.62	.5
293.15	.1	.4002	1026.11	.5
293.15	.1	.5002	1030.4	.5
293.15	.1	.6001	1035.6	.5
293.15	.1	.6999	1039.89	.5
303.15	.1	0	1002.56	.5
303.15	.1	.1001	1008.61	.5
303.15	.1	.2001	1013.94	.5
303.15	.1	.3	1018.72	.5
303.15	.1	.4002	1022.94	.5
303.15	.1	.5002	1026.99	.5
303.15	.1	.6001	1031.8	.5
303.15	.1	.6999	1036.07	.5
313.15	.1	0	999.06	.5
313.15	.1	.1001	1005.06	.5
313.15	.1	.2001	1010.04	.5
313.15	.1	.3	1015.04	.5
313.15	.1	.4002	1019.08	.5
313.15	.1	.5002	1023.02	.5
313.15	.1	.6001	1027.73	.5
313.15	.1	.6999	1031.92	.5
323.15	.1	0	994.78	.5
323.15	.1	.1001	1000.72	.5
323.15	.1	.2001	1005.98	.5
323.15	.1	.3	1010.64	.5
323.15	.1	.4002	1014.62	.5
323.15	.1	.5002	1018.47	.5
323.15	.1	.6001	1023.22	.5
323.15	.1	.6999	1027.6	.5
293.15	.2	0	1012.06	.5
293.15	.2	.1	1018.13	.5
293.15	.2	.2002	1023.69	.5
293.15	.2	.2999	1028.75	.5
293.15	.2	.4	1033.38	.5
293.15	.2	.5001	1037.52	.5
293.15	.2	.6	1042.46	.5
293.15	.2	.7	1046.63	.5
303.15	.2	0	1009.29	.5
303.15	.2	.1	1015.3	.5
303.15	.2	.2002	1020.81	.5
303.15	.2	.2999	1025.8	.5
303.15	.2	.4	1030.37	.5
303.15	.2	.5001	1034.51	.5
303.15	.2	.6	1038.94	.5
303.15	.2	.7	1043.29	.5
313.15	.2	0	1005.67	.5
313.15	.2	.1	1011.62	.5
313.15	.2	.2002	1017.08	.5
313.15	.2	.2999	1022	.5
313.15	.2	.4	1026.52	.5
313.15	.2	.5001	1030.59	.5
313.15	.2	.6	1035.06	.5
313.15	.2	.7	1039.23	.5
323.15	.2	0	1001.33	.5
323.15	.2	.1	1007.23	.5
323.15	.2	.2002	1012.65	.5
323.15	.2	.2999	1017.55	.5
323.15	.2	.4	1022.01	.5
323.15	.2	.5001	1026.06	.5
323.15	.2	.6	1030.77	.5
323.15	.2	.7	1035.03	.5
293.15	.3	0	1018.77	.5
293.15	.3	.1003	1024.83	.5
293.15	.3	.2	1030.42	.5
293.15	.3	.3	1035.61	.5
293.15	.3	.3999	1040.42	.5
293.15	.3	.5001	1044.85	.5
293.15	.3	.6002	1049.75	.5
293.15	.3	.7	1054.1	.5
303.15	.3	0	1015.86	.5
303.15	.3	.1003	1021.85	.5
303.15	.3	.2	1027.38	.5
303.15	.3	.3	1032.55	.5
303.15	.3	.3999	1037.33	.5
303.15	.3	.5001	1041.71	.5
303.15	.3	.6002	1046.3	.5
303.15	.3	.7	1050.73	.5
313.15	.3	0	1012.14	.5
313.15	.3	.1003	1018.07	.5
313.15	.3	.2	1023.56	.5
313.15	.3	.3	1028.65	.5
313.15	.3	.3999	1033.39	.5
313.15	.3	.5001	1037.69	.5
313.15	.3	.6002	1042.33	.5
313.15	.3	.7	1046.59	.5
323.15	.3	0	1007.75	.5
323.15	.3	.1003	1013.62	.5
323.15	.3	.2	1019.06	.5
323.15	.3	.3	1024.12	.5
323.15	.3	.3999	1028.81	.5
323.15	.3	.5001	1033.16	.5
323.15	.3	.6002	1037.68	.5
323.15	.3	.7	1041.75	.5
293.15	.4	0	1025.29	.5
293.15	.4	.1001	1031.28	.5
293.15	.4	.2001	1036.94	.5
293.15	.4	.3002	1042.32	.5
293.15	.4	.4	1047.37	.5
293.15	.4	.4998	1052.11	.5
293.15	.4	.6001	1056.61	.5
293.15	.4	.7	1060.83	.5
303.15	.4	0	1022.27	.5
303.15	.4	.1001	1028.2	.5
303.15	.4	.2001	1033.8	.5
303.15	.4	.3002	1039.12	.5
303.15	.4	.4	1044.13	.5
303.15	.4	.4998	1048.88	.5
303.15	.4	.6001	1053.34	.5
303.15	.4	.7	1057.57	.5
313.15	.4	0	1018.47	.5
313.15	.4	.1001	1024.34	.5
313.15	.4	.2001	1029.91	.5
313.15	.4	.3002	1035.19	.5
313.15	.4	.4	1040.17	.5
313.15	.4	.4998	1044.88	.5
313.15	.4	.6001	1049.37	.5
313.15	.4	.7	1053.57	.5
323.15	.4	0	1014.02	.5
323.15	.4	.1001	1019.84	.5
323.15	.4	.2001	1025.37	.5
323.15	.4	.3002	1030.62	.5
323.15	.4	.4	1035.6	.5
323.15	.4	.4998	1040.33	.5
323.15	.4	.6001	1044.83	.5
323.15	.4	.7	1049.08	.5

System: L-(+)-ascorbic acid + L-arginine + water; phases: Liquid
Fixed: Pressure, kPa = 101
Property: Viscosity, Pa*s (Liquid); method: Capillary tube (Ostwald; Ubbelohde) method
Temperature, K	Solvent: Molality, mol/kg of L-(+)-ascorbic acid	Molality, mol/kg of L-arginine	Viscosity, Pa*s	uncertainty
293.15	0	0	.001002	.00001002
293.15	0	.1001	.0010536	.000010536
293.15	0	.2	.0011083	.000011083
293.15	0	.3	.001167	.00001167
293.15	0	.3998	.0012286	.000012286
293.15	0	.5	.0012948	.000012948
293.15	0	.5998	.0013589	.000013589
293.15	0	.7002	.0014314	.000014314
303.15	0	0	.0007977	.000007977
303.15	0	.1001	.0008367	.000008367
303.15	0	.2	.0008782	.000008782
303.15	0	.3	.0009225	.000009225
303.15	0	.3998	.000969	.00000969
303.15	0	.5	.0010183	.000010183
303.15	0	.5998	.0010675	.000010675
303.15	0	.7002	.0011201	.000011201
313.15	0	0	.0006532	.000006532
313.15	0	.1001	.0006836	.000006836
313.15	0	.2	.0007161	.000007161
313.15	0	.3	.0007504	.000007504
313.15	0	.3998	.0007865	.000007865
313.15	0	.5	.0008245	.000008245
313.15	0	.5998	.0008631	.000008631
313.15	0	.7002	.0009039	.000009039
323.15	0	0	.000547	.00000547
323.15	0	.1001	.0005712	.000005712
323.15	0	.2	.000597	.00000597
323.15	0	.3	.0006242	.000006242
323.15	0	.3998	.0006531	.000006531
323.15	0	.5	.0006832	.000006832
323.15	0	.5998	.000713	.00000713
323.15	0	.7002	.0007455	.000007455
293.15	.1	0	.0010412	.000010412
293.15	.1	.1001	.0010974	.000010974
293.15	.1	.2001	.0011579	.000011579
293.15	.1	.3	.0012233	.000012233
293.15	.1	.4002	.0012913	.000012913
293.15	.1	.5002	.0013608	.000013608
293.15	.1	.6001	.0014365	.000014365
293.15	.1	.6999	.0015156	.000015156
303.15	.1	0	.0008267	.000008267
303.15	.1	.1001	.0008702	.000008702
303.15	.1	.2001	.0009157	.000009157
303.15	.1	.3	.0009641	.000009641
303.15	.1	.4002	.0010146	.000010146
303.15	.1	.5002	.0010687	.000010687
303.15	.1	.6001	.0011213	.000011213
303.15	.1	.6999	.0011799	.000011799
313.15	.1	0	.0006755	.000006755
313.15	.1	.1001	.0007098	.000007098
313.15	.1	.2001	.0007462	.000007462
313.15	.1	.3	.0007842	.000007842
313.15	.1	.4002	.0008234	.000008234
313.15	.1	.5002	.0008642	.000008642
313.15	.1	.6001	.0009049	.000009049
313.15	.1	.6999	.0009499	.000009499
323.15	.1	0	.0005646	.000005646
323.15	.1	.1001	.0005924	.000005924
323.15	.1	.2001	.0006213	.000006213
323.15	.1	.3	.0006517	.000006517
323.15	.1	.4002	.0006828	.000006828
323.15	.1	.5002	.0007142	.000007142
323.15	.1	.6001	.0007472	.000007472
323.15	.1	.6999	.0007809	.000007809
293.15	.2	0	.001081	.00001081
293.15	.2	.1	.0011419	.000011419
293.15	.2	.2002	.0012055	.000012055
293.15	.2	.2999	.0012745	.000012745
293.15	.2	.4	.0013464	.000013464
293.15	.2	.5001	.0014228	.000014228
293.15	.2	.6	.0014991	.000014991
293.15	.2	.7	.0015848	.000015848
303.15	.2	0	.0008564	.000008564
303.15	.2	.1	.0009029	.000009029
303.15	.2	.2002	.000952	.00000952
303.15	.2	.2999	.001004	.00001004
303.15	.2	.4	.0010578	.000010578
303.15	.2	.5001	.0011136	.000011136
303.15	.2	.6	.0011724	.000011724
303.15	.2	.7	.0012334	.000012334
313.15	.2	0	.0006987	.000006987
313.15	.2	.1	.0007359	.000007359
313.15	.2	.2002	.0007738	.000007738
313.15	.2	.2999	.0008152	.000008152
313.15	.2	.4	.0008556	.000008556
313.15	.2	.5001	.0008994	.000008994
313.15	.2	.6	.0009428	.000009428
313.15	.2	.7	.0009906	.000009906
323.15	.2	0	.0005832	.000005832
323.15	.2	.1	.0006133	.000006133
323.15	.2	.2002	.0006437	.000006437
323.15	.2	.2999	.0006759	.000006759
323.15	.2	.4	.0007091	.000007091
323.15	.2	.5001	.0007431	.000007431
323.15	.2	.6	.0007777	.000007777
323.15	.2	.7	.0008128	.000008128
293.15	.3	0	.0011222	.000011222
293.15	.3	.1003	.0011873	.000011873
293.15	.3	.2	.0012545	.000012545
293.15	.3	.3	.0013274	.000013274
293.15	.3	.3999	.0014037	.000014037
293.15	.3	.5001	.0014864	.000014864
293.15	.3	.6002	.0015688	.000015688
293.15	.3	.7	.0016604	.000016604
303.15	.3	0	.0008876	.000008876
303.15	.3	.1003	.0009381	.000009381
303.15	.3	.2	.0009896	.000009896
303.15	.3	.3	.0010434	.000010434
303.15	.3	.3999	.001102	.00001102
303.15	.3	.5001	.0011621	.000011621
303.15	.3	.6002	.0012231	.000012231
303.15	.3	.7	.0012906	.000012906
313.15	.3	0	.0007227	.000007227
313.15	.3	.1003	.0007624	.000007624
313.15	.3	.2	.000803	.00000803
313.15	.3	.3	.0008445	.000008445
313.15	.3	.3999	.0008901	.000008901
313.15	.3	.5001	.0009364	.000009364
313.15	.3	.6002	.0009833	.000009833
313.15	.3	.7	.0010337	.000010337
323.15	.3	0	.0006022	.000006022
323.15	.3	.1003	.000634	.00000634
323.15	.3	.2	.0006666	.000006666
323.15	.3	.3	.0007005	.000007005
323.15	.3	.3999	.0007359	.000007359
323.15	.3	.5001	.0007712	.000007712
323.15	.3	.6002	.0008084	.000008084
323.15	.3	.7	.0008468	.000008468
293.15	.4	0	.0011657	.000011657
293.15	.4	.1001	.0012354	.000012354
293.15	.4	.2001	.0013078	.000013078
293.15	.4	.3002	.0013855	.000013855
293.15	.4	.4	.0014672	.000014672
293.15	.4	.4998	.0015559	.000015559
293.15	.4	.6001	.0016455	.000016455
293.15	.4	.7	.0017425	.000017425
303.15	.4	0	.0009197	.000009197
303.15	.4	.1001	.0009729	.000009729
303.15	.4	.2001	.0010279	.000010279
303.15	.4	.3002	.0010869	.000010869
303.15	.4	.4	.0011499	.000011499
303.15	.4	.4998	.0012142	.000012142
303.15	.4	.6001	.0012823	.000012823
303.15	.4	.7	.0013536	.000013536
313.15	.4	0	.0007473	.000007473
313.15	.4	.1001	.0007889	.000007889
313.15	.4	.2001	.0008332	.000008332
313.15	.4	.3002	.0008788	.000008788
313.15	.4	.4	.0009259	.000009259
313.15	.4	.4998	.0009755	.000009755
313.15	.4	.6001	.0010274	.000010274
313.15	.4	.7	.0010809	.000010809
323.15	.4	0	.0006216	.000006216
323.15	.4	.1001	.0006554	.000006554
323.15	.4	.2001	.0006905	.000006905
323.15	.4	.3002	.0007272	.000007272
323.15	.4	.4	.0007643	.000007643
323.15	.4	.4998	.0008031	.000008031
323.15	.4	.6001	.0008433	.000008433
323.15	.4	.7	.0008853	.000008853

System: aminoethanoic acid + water; phases: Liquid
Fixed: Pressure, kPa = 101
Property: Mass density, kg/m3 (Liquid); method: Vibrating tube method
Temperature, K	Molality, mol/kg of aminoethanoic acid	Mass density, kg/m3	uncertainty
293.15	.1001	1001.43	.5
293.15	.2001	1004.6	.5
293.15	.3	1007.71	.5
293.15	.4002	1010.78	.5
293.15	.5003	1013.78	.5
293.15	.6004	1016.75	.5
293.15	.7002	1019.65	.5
303.15	.1001	998.81	.5
303.15	.2001	1001.93	.5
303.15	.3	1004.98	.5
303.15	.4002	1008	.5
303.15	.5003	1010.97	.5
303.15	.6004	1013.88	.5
303.15	.7002	1016.74	.5
313.15	.1001	995.34	.5
313.15	.2001	998.41	.5
313.15	.3	1001.42	.5
313.15	.4002	1004.4	.5
313.15	.5003	1007.34	.5
313.15	.6004	1010.22	.5
313.15	.7002	1013.06	.5
323.15	.1001	991.13	.5
323.15	.2001	994.16	.5
323.15	.3	997.13	.5
323.15	.4002	1000.07	.5
323.15	.5003	1002.96	.5
323.15	.6004	1005.83	.5
323.15	.7002	1008.64	.5

System: aminoethanoic acid + water; phases: Liquid
Fixed: Pressure, kPa = 101
Property: Viscosity, Pa*s (Liquid); method: Capillary tube (Ostwald; Ubbelohde) method
Temperature, K	Molality, mol/kg of aminoethanoic acid	Viscosity, Pa*s	uncertainty
293.15	.1001	.0010156	.000010156
293.15	.2001	.001029	.00001029
293.15	.3	.001043	.00001043
293.15	.4002	.0010577	.000010577
293.15	.5003	.0010731	.000010731
293.15	.6004	.0010845	.000010845
293.15	.7002	.0011011	.000011011
303.15	.1001	.0008095	.000008095
303.15	.2001	.0008207	.000008207
303.15	.3	.0008311	.000008311
303.15	.4002	.0008428	.000008428
303.15	.5003	.0008555	.000008555
303.15	.6004	.0008659	.000008659
303.15	.7002	.0008788	.000008788
313.15	.1001	.0006628	.000006628
313.15	.2001	.0006721	.000006721
313.15	.3	.0006819	.000006819
313.15	.4002	.0006913	.000006913
313.15	.5003	.0007015	.000007015
313.15	.6004	.0007107	.000007107
313.15	.7002	.0007213	.000007213
323.15	.1001	.000555	.00000555
323.15	.2001	.0005631	.000005631
323.15	.3	.0005714	.000005714
323.15	.4002	.0005794	.000005794
323.15	.5003	.0005878	.000005878
323.15	.6004	.0005957	.000005957
323.15	.7002	.0006035	.000006035

System: L-(+)-ascorbic acid + water; phases: Liquid
Fixed: Pressure, kPa = 101
Property: Mass density, kg/m3 (Liquid); method: Vibrating tube method
Temperature, K	Molality, mol/kg of L-(+)-ascorbic acid	Mass density, kg/m3	uncertainty
293.15	.1	1005.24	.5
303.15	.1	1002.56	.5
313.15	.1	999.06	.5
323.15	.1	994.78	.5
293.15	.2	1012.06	.5
303.15	.2	1009.29	.5
313.15	.2	1005.67	.5
323.15	.2	1001.33	.5
293.15	.3	1018.77	.5
303.15	.3	1015.86	.5
313.15	.3	1012.14	.5
323.15	.3	1007.75	.5
293.15	.4	1025.29	.5
303.15	.4	1022.27	.5
313.15	.4	1018.47	.5
323.15	.4	1014.02	.5

System: L-(+)-ascorbic acid + water; phases: Liquid
Fixed: Pressure, kPa = 101
Property: Viscosity, Pa*s (Liquid); method: Capillary tube (Ostwald; Ubbelohde) method
Temperature, K	Molality, mol/kg of L-(+)-ascorbic acid	Viscosity, Pa*s	uncertainty
293.15	.1	.0010412	.000010412
303.15	.1	.0008278	.000008278
313.15	.1	.0006766	.000006766
323.15	.1	.0005655	.000005655
293.15	.2	.0010783	.000010783
303.15	.2	.0008579	.000008579
313.15	.2	.0006989	.000006989
323.15	.2	.0005841	.000005841
293.15	.3	.0011244	.000011244
303.15	.3	.0008897	.000008897
313.15	.3	.0007237	.000007237
323.15	.3	.0006027	.000006027
293.15	.4	.001166	.00001166
303.15	.4	.0009213	.000009213
313.15	.4	.0007485	.000007485
323.15	.4	.0006221	.000006221
303.15	.1	.0008267	.000008267
313.15	.1	.0006755	.000006755
323.15	.1	.0005646	.000005646
293.15	.2	.001081	.00001081
303.15	.2	.0008564	.000008564
313.15	.2	.0006987	.000006987
323.15	.2	.0005832	.000005832
293.15	.3	.0011222	.000011222
303.15	.3	.0008876	.000008876
313.15	.3	.0007227	.000007227
323.15	.3	.0006022	.000006022
293.15	.4	.0011657	.000011657
303.15	.4	.0009197	.000009197
313.15	.4	.0007473	.000007473
323.15	.4	.0006216	.000006216

System: (S)-2-aminopropanoic acid + water; phases: Liquid
Fixed: Pressure, kPa = 101
Property: Mass density, kg/m3 (Liquid); method: Vibrating tube method
Temperature, K	Molality, mol/kg of (S)-2-aminopropanoic acid	Mass density, kg/m3	uncertainty
293.15	.1002	1001.09	.5
293.15	.2	1003.91	.5
293.15	.2999	1006.69	.5
293.15	.4	1009.42	.5
293.15	.5002	1012.11	.5
293.15	.5998	1014.74	.5
293.15	.6999	1017.34	.5
303.15	.1002	998.49	.5
303.15	.2	1001.27	.5
303.15	.2999	1004.01	.5
303.15	.4	1006.7	.5
303.15	.5002	1009.36	.5
303.15	.5998	1011.94	.5
303.15	.6999	1014.5	.5
313.15	.1002	995.03	.5
313.15	.2	997.78	.5
313.15	.2999	1000.49	.5
313.15	.4	1003.15	.5
313.15	.5002	1005.76	.5
313.15	.5998	1008.32	.5
313.15	.6999	1010.85	.5
323.15	.1002	990.84	.5
323.15	.2	993.57	.5
323.15	.2999	996.26	.5
323.15	.4	998.91	.5
323.15	.5002	1001.52	.5
323.15	.5998	1004.06	.5
323.15	.6999	1006.58	.5

System: (S)-2-aminopropanoic acid + water; phases: Liquid
Fixed: Pressure, kPa = 101
Property: Viscosity, Pa*s (Liquid); method: Capillary tube (Ostwald; Ubbelohde) method
Temperature, K	Molality, mol/kg of (S)-2-aminopropanoic acid	Viscosity, Pa*s	uncertainty
293.15	.1002	.0010278	.000010278
293.15	.2	.0010534	.000010534
293.15	.2999	.0010802	.000010802
293.15	.4	.0011073	.000011073
293.15	.5002	.001135	.00001135
293.15	.5998	.0011643	.000011643
293.15	.6999	.0011919	.000011919
303.15	.1002	.0008176	.000008176
303.15	.2	.0008373	.000008373
303.15	.2999	.0008574	.000008574
303.15	.4	.0008775	.000008775
303.15	.5002	.0008984	.000008984
303.15	.5998	.0009202	.000009202
303.15	.6999	.0009412	.000009412
313.15	.1002	.0006687	.000006687
313.15	.2	.0006839	.000006839
313.15	.2999	.0006994	.000006994
313.15	.4	.0007152	.000007152
313.15	.5002	.0007316	.000007316
313.15	.5998	.0007487	.000007487
313.15	.6999	.0007659	.000007659
323.15	.1002	.0005592	.000005592
323.15	.2	.0005713	.000005713
323.15	.2999	.0005833	.000005833
323.15	.4	.0005961	.000005961
323.15	.5002	.0006095	.000006095
323.15	.5998	.0006229	.000006229
323.15	.6999	.0006364	.000006364

System: L-valine + water; phases: Liquid
Fixed: Pressure, kPa = 101
Property: Mass density, kg/m3 (Liquid); method: Vibrating tube method
Temperature, K	Molality, mol/kg of L-valine	Mass density, kg/m3	uncertainty
293.15	.1003	1000.9	.5
293.15	.2001	1003.52	.5
293.15	.3	1006.08	.5
293.15	.4	1008.59	.5
293.15	.4999	1011.03	.5
303.15	.1003	998.3	.5
303.15	.2001	1000.88	.5
303.15	.3	1003.4	.5
303.15	.4	1005.87	.5
303.15	.4999	1008.28	.5
313.15	.1003	994.83	.5
313.15	.2001	997.37	.5
313.15	.3	999.85	.5
313.15	.4	1002.28	.5
313.15	.4999	1004.66	.5
323.15	.1003	990.61	.5
323.15	.2001	993.1	.5
323.15	.3	995.54	.5
323.15	.4	997.93	.5
323.15	.4999	1000.25	.5

System: L-valine + water; phases: Liquid
Fixed: Pressure, kPa = 101
Property: Viscosity, Pa*s (Liquid); method: Capillary tube (Ostwald; Ubbelohde) method
Temperature, K	Molality, mol/kg of L-valine	Viscosity, Pa*s	uncertainty
293.15	.1003	.0010455	.000010455
293.15	.2001	.0010894	.000010894
293.15	.3	.0011366	.000011366
293.15	.4	.0011853	.000011853
293.15	.4999	.0012355	.000012355
303.15	.1003	.00083	.0000083
303.15	.2001	.000861	.00000861
303.15	.3	.0008951	.000008951
303.15	.4	.0009297	.000009297
303.15	.4999	.0009658	.000009658
313.15	.1003	.0006773	.000006773
313.15	.2001	.0007008	.000007008
313.15	.3	.0007269	.000007269
313.15	.4	.000752	.00000752
313.15	.4999	.0007794	.000007794
323.15	.1003	.0005656	.000005656
323.15	.2001	.0005841	.000005841
323.15	.3	.0006037	.000006037
323.15	.4	.0006235	.000006235
323.15	.4999	.0006454	.000006454

System: L-threonine + water; phases: Liquid
Fixed: Pressure, kPa = 101
Property: Mass density, kg/m3 (Liquid); method: Vibrating tube method
Temperature, K	Molality, mol/kg of L-threonine	Mass density, kg/m3	uncertainty
293.15	.1003	1002.44	.5
293.15	.2	1006.57	.5
293.15	.3001	1010.62	.5
293.15	.3999	1014.57	.5
293.15	.5001	1018.47	.5
293.15	.6001	1022.28	.5
293.15	.6999	1026	.5
303.15	.1003	999.82	.5
303.15	.2	1003.89	.5
303.15	.3001	1007.89	.5
303.15	.3999	1011.79	.5
303.15	.5001	1015.64	.5
303.15	.6001	1019.4	.5
303.15	.6999	1023.08	.5
313.15	.1003	996.35	.5
313.15	.2	1000.36	.5
313.15	.3001	1004.31	.5
313.15	.3999	1008.17	.5
313.15	.5001	1011.96	.5
313.15	.6001	1015.68	.5
313.15	.6999	1019.31	.5
323.15	.1003	992.15	.5
323.15	.2	996.14	.5
323.15	.3001	1000.07	.5
323.15	.3999	1003.92	.5
323.15	.5001	1007.7	.5
323.15	.6001	1011.4	.5
323.15	.6999	1015.03	.5

System: L-threonine + water; phases: Liquid
Fixed: Pressure, kPa = 101
Property: Viscosity, Pa*s (Liquid); method: Capillary tube (Ostwald; Ubbelohde) method
Temperature, K	Molality, mol/kg of L-threonine	Viscosity, Pa*s	uncertainty
293.15	.1003	.0010358	.000010358
293.15	.2	.0010702	.000010702
293.15	.3001	.0011059	.000011059
293.15	.3999	.0011436	.000011436
293.15	.5001	.0011834	.000011834
293.15	.6001	.0012264	.000012264
293.15	.6999	.0012694	.000012694
303.15	.1003	.0008232	.000008232
303.15	.2	.0008495	.000008495
303.15	.3001	.000876	.00000876
303.15	.3999	.000904	.00000904
303.15	.5001	.0009336	.000009336
303.15	.6001	.0009654	.000009654
303.15	.6999	.0009968	.000009968
313.15	.1003	.0006733	.000006733
313.15	.2	.0006939	.000006939
313.15	.3001	.0007144	.000007144
313.15	.3999	.000736	.00000736
313.15	.5001	.000758	.00000758
313.15	.6001	.0007828	.000007828
313.15	.6999	.0008054	.000008054
323.15	.1003	.0005622	.000005622
323.15	.2	.0005782	.000005782
323.15	.3001	.0005946	.000005946
323.15	.3999	.0006118	.000006118
323.15	.5001	.0006298	.000006298
323.15	.6001	.000649	.00000649
323.15	.6999	.0006668	.000006668

System: L-arginine + water; phases: Liquid
Fixed: Pressure, kPa = 101
Property: Mass density, kg/m3 (Liquid); method: Vibrating tube method
Temperature, K	Molality, mol/kg of L-arginine	Mass density, kg/m3	uncertainty
293.15	.1001	1003.17	.5
293.15	.2	1007.96	.5
293.15	.3	1012.6	.5
293.15	.3998	1017.07	.5
293.15	.5	1021.42	.5
293.15	.5998	1025.63	.5
293.15	.7002	1029.71	.5
303.15	.1001	1000.53	.5
303.15	.2	1005.25	.5
303.15	.3	1009.81	.5
303.15	.3998	1014.22	.5
303.15	.5	1018.5	.5
303.15	.5998	1022.63	.5
303.15	.7002	1026.64	.5
313.15	.1001	997.05	.5
313.15	.2	1001.7	.5
313.15	.3	1006.21	.5
313.15	.3998	1010.54	.5
313.15	.5	1014.74	.5
313.15	.5998	1018.79	.5
313.15	.7002	1022.73	.5
323.15	.1001	992.82	.5
323.15	.2	997.43	.5
323.15	.3	1001.89	.5
323.15	.3998	1006.2	.5
323.15	.5	1010.38	.5
323.15	.5998	1014.41	.5
323.15	.7002	1018.32	.5

System: L-arginine + water; phases: Liquid
Fixed: Pressure, kPa = 101
Property: Viscosity, Pa*s (Liquid); method: Capillary tube (Ostwald; Ubbelohde) method
Temperature, K	Molality, mol/kg of L-arginine	Viscosity, Pa*s	uncertainty
293.15	.1001	.0010536	.000010536
293.15	.2	.0011083	.000011083
293.15	.3	.001167	.00001167
293.15	.3998	.0012286	.000012286
293.15	.5	.0012948	.000012948
293.15	.5998	.0013589	.000013589
293.15	.7002	.0014314	.000014314
303.15	.1001	.0008367	.000008367
303.15	.2	.0008782	.000008782
303.15	.3	.0009225	.000009225
303.15	.3998	.000969	.00000969
303.15	.5	.0010183	.000010183
303.15	.5998	.0010675	.000010675
303.15	.7002	.0011201	.000011201
313.15	.1001	.0006836	.000006836
313.15	.2	.0007161	.000007161
313.15	.3	.0007504	.000007504
313.15	.3998	.0007865	.000007865
313.15	.5	.0008245	.000008245
313.15	.5998	.0008631	.000008631
313.15	.7002	.0009039	.000009039
323.15	.1001	.0005712	.000005712
323.15	.2	.000597	.00000597
323.15	.3	.0006242	.000006242
323.15	.3998	.0006531	.000006531
323.15	.5	.0006832	.000006832
323.15	.5998	.000713	.00000713
323.15	.7002	.0007455	.000007455
