Measured thermophysical data. Osmotic coefficients of binary mixtures of four ionic liquids with ethanol or water at T = (313.15 and 333.15) K
Source: J. Chem. Thermodyn., 2009, 10.1016/j.jct.2008.08.011
Compound 1: 1-n-butyl-3-methylimidazolium chloride, C8H15ClN2
Compound 2: 1-hexyl-3-methylimidazolium chloride, C10H19ClN2
Compound 3: 1-ethyl-3-methylimidazolium chloride, C6H11ClN2
Compound 4: 1-ethyl-3-methylpyridinium ethylsulfate, C10H17NO4S
Compound 5: water, H2O
Compound 6: ethanol, C2H6O

System: ethanol + 1-n-butyl-3-methylimidazolium chloride; phases: Liquid mixture 1, Liquid mixture 2
Property: Osmotic coefficient (Liquid mixture 1); method: Knauer K-7000 vapour pressure osmometer
Temperature, K	Molality, mol/kg of 1-n-butyl-3-methylimidazolium chloride	Osmotic coefficient	uncertainty
313.15	.1278	1.02	.006
313.15	.3749	.887	.006
313.15	.6198	.802	.006
313.15	.7747	.783	.006
313.15	1.096	.742	.006
313.15	1.4368	.717	.006
313.15	1.9039	.685	.006
313.15	2.3185	.68	.006
313.15	2.6876	.657	.006
313.15	3.0181	.653	.006
313.15	3.3481	.66	.006
313.15	3.5208	.66	.006
333.15	.1278	.782	.006
333.15	.3749	.709	.006
333.15	.6198	.666	.006
333.15	.7747	.647	.006
333.15	1.096	.63	.006
333.15	1.4368	.613	.006
333.15	1.9039	.589	.006
333.15	2.3185	.576	.006
333.15	2.6876	.566	.006
333.15	3.0181	.553	.006
333.15	3.3481	.55	.006
333.15	3.5208	.548	.006

System: ethanol + 1-hexyl-3-methylimidazolium chloride; phases: Liquid mixture 1, Liquid mixture 2
Property: Osmotic coefficient (Liquid mixture 1); method: Knauer K-7000 vapour pressure osmometer
Temperature, K	Molality, mol/kg of 1-hexyl-3-methylimidazolium chloride	Osmotic coefficient	uncertainty
313.15	.0583	.955	.006
313.15	.0975	.92	.006
313.15	.4274	.735	.006
313.15	.6999	.695	.006
313.15	1.0138	.677	.006
313.15	1.3536	.662	.006
313.15	1.597	.659	.006
313.15	1.9237	.652	.006
313.15	2.2111	.648	.006
313.15	2.5789	.636	.006
313.15	2.859	.635	.006
313.15	3.2716	.628	.006
333.15	.0583	.7423	.006
333.15	.0975	.714	.006
333.15	.4274	.6079	.006
333.15	.6999	.5835	.006
333.15	1.0138	.5679	.006
333.15	1.3536	.5613	.006
333.15	1.597	.5578	.006
333.15	1.9237	.5512	.006
333.15	2.2111	.5532	.006
333.15	2.5789	.5444	.006
333.15	2.859	.5443	.006
333.15	3.2716	.5347	.006

System: water + 1-ethyl-3-methylimidazolium chloride; phases: Liquid mixture 1, Liquid mixture 2
Property: Osmotic coefficient (Liquid mixture 1); method: Knauer K-7000 vapour pressure osmometer
Temperature, K	Molality, mol/kg of 1-ethyl-3-methylimidazolium chloride	Osmotic coefficient	uncertainty
313.15	.1847	.97	.006
313.15	.3033	.949	.006
313.15	.3896	.941	.006
313.15	.5094	.923	.006
313.15	.7105	.895	.006
313.15	1.0472	.861	.006
313.15	1.2943	.842	.006
313.15	1.6782	.835	.006
313.15	2.1131	.831	.006
313.15	2.4905	.829	.006
313.15	2.9466	.844	.006
313.15	3.2369	.852	.006
313.15	3.7222	.885	.006
313.15	4.1131	.921	.006
333.15	.1847	.936	.006
333.15	.3033	.918	.006
333.15	.3896	.896	.006
333.15	.5094	.865	.006
333.15	.7105	.847	.006
333.15	1.0472	.812	.006
333.15	1.2943	.801	.006
333.15	1.6782	.79	.006
333.15	2.1131	.784	.006
333.15	2.4905	.788	.006
333.15	2.9466	.797	.006
333.15	3.2369	.809	.006
333.15	3.7222	.831	.006
333.15	4.1131	.855	.006

System: water + 1-ethyl-3-methylpyridinium ethylsulfate; phases: Liquid mixture 1, Liquid mixture 2
Property: Osmotic coefficient (Liquid mixture 1); method: Knauer K-7000 vapour pressure osmometer
Temperature, K	Molality, mol/kg of 1-ethyl-3-methylpyridinium ethylsulfate	Osmotic coefficient	uncertainty
313.15	.1419	.956	.006
313.15	.2108	.927	.006
313.15	.3168	.897	.006
313.15	.3829	.873	.006
313.15	.5036	.846	.006
313.15	.6837	.828	.006
313.15	1.0336	.813	.006
313.15	1.326	.808	.006
313.15	1.7255	.807	.006
313.15	2.1099	.813	.006
313.15	2.5006	.826	.006
313.15	2.8922	.843	.006
313.15	3.3025	.859	.006
333.15	.1419	.948	.006
333.15	.2108	.925	.006
333.15	.3168	.887	.006
333.15	.3829	.864	.006
333.15	.5036	.836	.006
333.15	.6837	.811	.006
333.15	1.0336	.784	.006
333.15	1.326	.782	.006
333.15	1.7255	.782	.006
333.15	2.1099	.792	.006
333.15	2.5006	.802	.006
333.15	2.8922	.809	.006
333.15	3.3025	.817	.006
