Measured thermophysical data. Volumetric behaviour of the ternary liquid system composed of methyl tert-butyl ether, toluene, and isooctane at temperatures from (298.15 to 328.15) K: Experimental data and correlation
Source: J. Chem. Thermodyn., 2010, 10.1016/j.jct.2010.03.005
Compound 1: methyl tert-butyl ether, C5H12O, purity 95%
Compound 2: isooctane, C8H18, purity 99.5%
Compound 3: toluene, C7H8, purity 99.5%

System: toluene + isooctane + methyl tert-butyl ether; phases: Liquid
Fixed: Pressure, kPa = 101
Property: Mass density, kg/m3 (Liquid); method: Vibrating tube method
Temperature, K	Mole fraction of methyl tert-butyl ether	Mole fraction of toluene	Mass density, kg/m3	uncertainty
298.15	0	.74356	800.92	.02
298.15	.10802	.66325	794.5	.02
298.15	.20785	.58902	788.38	.02
298.15	.29143	.52687	783.22	.02
298.15	.40526	.44223	775.94	.02
298.15	.51104	.36357	769.09	.02
298.15	.60317	.29507	762.98	.02
298.15	.71135	.21463	755.66	.02
298.15	.80398	.14575	749.23	.02
298.15	.89857	.07542	742.59	.02
298.15	1	0	735.27	.02
298.15	0	.495	754.64	.02
298.15	.08989	.4505	753.18	.02
298.15	.20511	.39347	751.23	.02
298.15	.29634	.34831	749.64	.02
298.15	.40704	.29352	747.62	.02
298.15	.50068	.24716	745.87	.02
298.15	.5958	.20008	744	.02
298.15	.70796	.14456	741.73	.02
298.15	.81463	.09176	739.47	.02
298.15	.90603	.04651	737.43	.02
298.15	1	0	735.27	.02
298.15	0	.25332	718.51	.02
298.15	.09951	.22811	719.67	.02
298.15	.19178	.20474	720.81	.02
298.15	.29594	.17835	722.19	.02
298.15	.40045	.15188	723.72	.02
298.15	.49923	.12686	725.25	.02
298.15	.60622	.09975	727.07	.02
298.15	.69768	.07658	728.77	.02
298.15	.80983	.04817	730.97	.02
298.15	.89825	.02578	732.88	.02
298.15	1	0	735.27	.02
308.15	0	.74356	792	.02
308.15	.10802	.66325	785.42	.02
308.15	.20785	.58902	779.17	.02
308.15	.29143	.52687	773.89	.02
308.15	.40526	.44223	766.44	.02
308.15	.51104	.36357	759.42	.02
308.15	.60317	.29507	753.14	.02
308.15	.71135	.21463	745.65	.02
308.15	.80398	.14575	739.05	.02
308.15	.89857	.07542	732.22	.02
308.15	1	0	724.72	.02
308.15	0	.495	746	.02
308.15	.08989	.4505	744.4	.02
308.15	.20511	.39347	742.27	.02
308.15	.29634	.34831	740.52	.02
308.15	.40704	.29352	738.3	.02
308.15	.50068	.24716	736.37	.02
308.15	.5958	.20008	734.32	.02
308.15	.70796	.14456	731.8	.02
308.15	.81463	.09176	729.3	.02
308.15	.90603	.04651	727.07	.02
308.15	1	0	724.72	.02
308.15	0	.25332	710.1	.02
308.15	.09951	.22811	711.08	.02
308.15	.19178	.20474	712.06	.02
308.15	.29594	.17835	713.25	.02
308.15	.40045	.15188	714.57	.02
308.15	.49923	.12686	715.89	.02
308.15	.60622	.09975	717.48	.02
308.15	.69768	.07658	718.96	.02
308.15	.80983	.04817	720.89	.02
308.15	.89825	.02578	722.58	.02
308.15	1	0	724.72	.02
318.15	0	.74356	783.12	.02
318.15	.10802	.66325	776.39	.02
318.15	.20785	.58902	769.99	.02
318.15	.29143	.52687	764.67	.02
318.15	.40526	.44223	756.95	.02
318.15	.51104	.36357	749.74	.02
318.15	.60317	.29507	743.33	.02
318.15	.71135	.21463	735.59	.02
318.15	.80398	.14575	728.85	.02
318.15	.89857	.07542	721.79	.02
318.15	1	0	714.01	.02
318.15	0	.495	737.43	.02
318.15	.08989	.4505	735.67	.02
318.15	.20511	.39347	733.35	.02
318.15	.29634	.34831	731.43	.02
318.15	.40704	.29352	729.01	.02
318.15	.50068	.24716	726.89	.02
318.15	.5958	.20008	724.63	.02
318.15	.70796	.14456	721.88	.02
318.15	.81463	.09176	719.16	.02
318.15	.90603	.04651	716.67	.02
318.15	1	0	714.01	.02
318.15	0	.25332	701.76	.02
318.15	.09951	.22811	702.56	.02
318.15	.19178	.20474	703.37	.02
318.15	.29594	.17835	704.35	.02
318.15	.40045	.15188	705.46	.02
318.15	.49923	.12686	706.57	.02
318.15	.60622	.09975	707.91	.02
318.15	.69768	.07658	709.16	.02
318.15	.80983	.04817	710.79	.02
318.15	.89825	.02578	712.25	.02
318.15	1	0	714.01	.02
328.15	0	.74356	774.25	.02
328.15	.10802	.66325	767.36	.02
328.15	.20785	.58902	760.82	.02
328.15	.29143	.52687	755.32	.02
328.15	.40526	.44223	747.43	.02
328.15	.51104	.36357	740.04	.02
328.15	.60317	.29507	733.47	.02
328.15	.71135	.21463	725.5	.02
328.15	.80398	.14575	718.35	.02
328.15	1	0	702.22	.02
328.15	0	.495	728.87	.02
328.15	.08989	.4505	726.96	.02
328.15	.20511	.39347	724.37	.02
328.15	.29634	.34831	722.34	.02
328.15	.40704	.29352	719.68	.02
328.15	.50068	.24716	717.37	.02
328.15	.70796	.14456	711.89	.02
328.15	1	0	702.22	.02
328.15	0	.25332	693.44	.02
328.15	.09951	.22811	694.06	.02
328.15	.19178	.20474	694.68	.02
328.15	.29594	.17835	695.45	.02
328.15	.40045	.15188	696.32	.02
328.15	.49923	.12686	697.2	.02
328.15	.60622	.09975	698.28	.02
328.15	1	0	702.22	.02

System: toluene + isooctane + methyl tert-butyl ether; phases: Liquid
Fixed: Pressure, kPa = 101
Property: Speed of sound, m/s (Liquid); method: Sing-around technique in a fixed-path interferometer
Temperature, K	Mole fraction of methyl tert-butyl ether	Mole fraction of toluene	Speed of sound, m/s	uncertainty
298.15	0	.74356	1221.3	.5
298.15	.10802	.66325	1202.9	.5
298.15	.20785	.58902	1185.6	.5
298.15	.29143	.52687	1171	.5
298.15	.40526	.44223	1150.4	.5
298.15	.51104	.36357	1131.1	.5
298.15	.60317	.29507	1113.9	.5
298.15	.71135	.21463	1093.3	.5
298.15	.80398	.14575	1075.2	.5
298.15	.89857	.07542	1056.7	.5
298.15	1	0	1036.4	.5
298.15	0	.495	1162	.5
298.15	.08989	.4505	1151.8	.5
298.15	.20511	.39347	1138.5	.5
298.15	.29634	.34831	1127.8	.5
298.15	.40704	.29352	1114.4	.5
298.15	.50068	.24716	1102.8	.5
298.15	.5958	.20008	1090.8	.5
298.15	.70796	.14456	1076.2	.5
298.15	.81463	.09176	1062.2	.5
298.15	.90603	.04651	1049.5	.5
298.15	1	0	1036.4	.5
298.15	0	.25332	1118.2	.5
298.15	.09951	.22811	1110.2	.5
298.15	.19178	.20474	1102.9	.5
298.15	.29594	.17835	1094.5	.5
298.15	.40045	.15188	1085.9	.5
298.15	.49923	.12686	1077.9	.5
298.15	.60622	.09975	1069.1	.5
298.15	.69768	.07658	1061.6	.5
298.15	.80983	.04817	1052.2	.5
298.15	.89825	.02578	1044.8	.5
298.15	1	0	1036.4	.5
308.15	0	.74356	1179.2	.5
308.15	.10802	.66325	1160.4	.5
308.15	.20785	.58902	1142.8	.5
308.15	.29143	.52687	1127.9	.5
308.15	.40526	.44223	1106.9	.5
308.15	.51104	.36357	1087.2	.5
308.15	.60317	.29507	1069.5	.5
308.15	.71135	.21463	1048.7	.5
308.15	.80398	.14575	1030.3	.5
308.15	.89857	.07542	1011.4	.5
308.15	1	0	990.8	.5
308.15	0	.495	1120.2	.5
308.15	.08989	.4505	1109.7	.5
308.15	.20511	.39347	1096	.5
308.15	.29634	.34831	1084.9	.5
308.15	.40704	.29352	1071.1	.5
308.15	.50068	.24716	1059.1	.5
308.15	.5958	.20008	1046.8	.5
308.15	.70796	.14456	1031.7	.5
308.15	.81463	.09176	1017.2	.5
308.15	.90603	.04651	1006.1	.5
308.15	1	0	990.8	.5
308.15	0	.25332	1076.6	.5
308.15	.09951	.22811	1068.2	.5
308.15	.19178	.20474	1060.5	.5
308.15	.29594	.17835	1051.7	.5
308.15	.40045	.15188	1042.8	.5
308.15	.49923	.12686	1034.4	.5
308.15	.60622	.09975	1025.1	.5
308.15	.69768	.07658	1017.3	.5
308.15	.80983	.04817	1007.3	.5
308.15	.89825	.02578	999.5	.5
308.15	1	0	990.8	.5
318.15	0	.74356	1137.6	.5
318.15	.10802	.66325	1118.5	.5
318.15	.20785	.58902	1100.5	.5
318.15	.29143	.52687	1085.3	.5
318.15	.40526	.44223	1063.9	.5
318.15	.51104	.36357	1043.7	.5
318.15	.60317	.29507	1025.8	.5
318.15	.71135	.21463	1004.4	.5
318.15	.80398	.14575	985.9	.5
318.15	.89857	.07542	966.2	.5
318.15	1	0	945.3	.5
318.15	0	.495	1079.2	.5
318.15	.08989	.4505	1068.1	.5
318.15	.20511	.39347	1054	.5
318.15	.29634	.34831	1042.5	.5
318.15	.40704	.29352	1028.3	.5
318.15	.50068	.24716	1016.1	.5
318.15	.5958	.20008	1003.1	.5
318.15	.70796	.14456	987.5	.5
318.15	.81463	.09176	973.3	.5
318.15	.90603	.04651	959.7	.5
318.15	1	0	945.3	.5
318.15	0	.25332	1035.4	.5
318.15	.09951	.22811	1026.7	.5
318.15	.19178	.20474	1018.6	.5
318.15	.29594	.17835	1009.4	.5
318.15	.40045	.15188	1000.1	.5
318.15	.49923	.12686	991.3	.5
318.15	.60622	.09975	981.6	.5
318.15	.69768	.07658	973.7	.5
318.15	.80983	.04817	963	.5
318.15	.89825	.02578	954.5	.5
318.15	1	0	945.3	.5
328.15	0	.74356	1096.6	.5
328.15	.10802	.66325	1077	.5
328.15	.20785	.58902	1058.6	.5
328.15	.29143	.52687	1043.2	.5
328.15	.40526	.44223	1021.2	.5
328.15	.51104	.36357	1000.9	.5
328.15	.60317	.29507	982.5	.5
328.15	.71135	.21463	960.6	.5
328.15	.80398	.14575	941.8	.5
328.15	0	.495	1038.2	.5
328.15	.08989	.4505	1027.1	.5
328.15	.20511	.39347	1012.4	.5
328.15	.29634	.34831	1001.1	.5
328.15	.40704	.29352	985.9	.5
328.15	.50068	.24716	973.5	.5
328.15	.69835	.14932	960.6	.5
328.15	.70796	.14456	944.4	.5
328.15	0	.25332	994.8	.5
328.15	.09951	.22811	985.7	.5
328.15	.19178	.20474	977.2	.5
328.15	.29594	.17835	967.6	.5
328.15	.40045	.15188	958	.5
328.15	.49923	.12686	948.8	.5
328.15	.60622	.09975	938.5	.5
