Measured thermophysical data. Volumetric, ultrasonic speed, and viscometric studies of salbutamol sulphate in aqueous methanol solution at different temperatures
Source: J. Chem. Thermodyn., 2010, 10.1016/j.jct.2010.03.016
Compound 1: albuterol, C13H21NO3, purity 99.5%
Compound 2: methanol, CH4O
Compound 3: water, H2O

System: methanol + water + albuterol; phases: Liquid
Fixed: Pressure, kPa = 101
Property: Mass density, kg/m3 (Liquid); method: Pycnometric method
Temperature, K	Solvent: Volume fraction of water	Molality, mol/kg of albuterol	Mass density, kg/m3	uncertainty
303.15	.9	0	985.8	.423
303.15	.9	.05	993	.423
303.15	.9	.075	997.6	.423
303.15	.9	.1	1002.6	.423
303.15	.9	.125	1008.8	.423
303.15	.9	.15	1014.1	.423
308.15	.9	0	985.6	.401
308.15	.9	.05	992.2	.401
308.15	.9	.075	996.5	.401
308.15	.9	.1	1001.5	.401
308.15	.9	.125	1007.1	.401
308.15	.9	.15	1012.4	.401
313.15	.9	0	983	.329
313.15	.9	.05	988.6	.329
313.15	.9	.075	992.2	.329
313.15	.9	.1	996.3	.329
313.15	.9	.125	1000.6	.329
313.15	.9	.15	1005.1	.329
318.15	.9	0	980.4	.309
318.15	.9	.05	985.2	.309
318.15	.9	.075	988.5	.309
318.15	.9	.1	992.3	.309
318.15	.9	.125	996.5	.309
318.15	.9	.15	1001.2	.309
303.15	.8	0	978.1	.383
303.15	.8	.05	985.1	.383
303.15	.8	.075	988.9	.383
303.15	.8	.1	993.9	.383
303.15	.8	.125	998.9	.383
303.15	.8	.15	1003.9	.383
308.15	.8	0	974.7	.382
308.15	.8	.05	981.2	.382
308.15	.8	.075	985.4	.382
308.15	.8	.1	990.2	.382
308.15	.8	.125	995.4	.382
308.15	.8	.15	1000.2	.382
313.15	.8	0	972.7	.313
313.15	.8	.05	978.2	.313
313.15	.8	.075	981.6	.313
313.15	.8	.1	985.4	.313
313.15	.8	.125	989.6	.313
313.15	.8	.15	993.8	.313
318.15	.8	0	969.4	.295
318.15	.8	.05	974.2	.295
318.15	.8	.075	977.4	.295
318.15	.8	.1	981.1	.295
318.15	.8	.125	984.9	.295
318.15	.8	.15	989.3	.295
303.15	.7	0	958.8	.404
303.15	.7	.05	965.2	.404
303.15	.7	.075	969.3	.404
303.15	.7	.1	975.1	.404
303.15	.7	.125	979.8	.404
303.15	.7	.15	985.9	.404
308.15	.7	0	958.5	.392
308.15	.7	.05	964.7	.392
308.15	.7	.075	968.9	.392
308.15	.7	.1	974	.392
308.15	.7	.125	979.2	.392
308.15	.7	.15	984.7	.392
313.15	.7	0	958.2	.312
313.15	.7	.05	963.5	.312
313.15	.7	.075	966.9	.312
313.15	.7	.1	970.9	.312
313.15	.7	.125	974.9	.312
313.15	.7	.15	979.2	.312
318.15	.7	0	953.4	.293
318.15	.7	.05	958.2	.293
318.15	.7	.075	961.3	.293
318.15	.7	.1	965	.293
318.15	.7	.125	968.9	.293
318.15	.7	.15	973.1	.293
303.15	.6	0	943.8	.396
303.15	.6	.05	950	.396
303.15	.6	.075	954.5	.396
303.15	.6	.1	959.4	.396
303.15	.6	.125	964.5	.396
303.15	.6	.15	970.4	.396
308.15	.6	0	943.2	.384
308.15	.6	.05	949.2	.384
308.15	.6	.075	953.3	.384
308.15	.6	.1	958.3	.384
308.15	.6	.125	963.4	.384
308.15	.6	.15	968.8	.384
313.15	.6	0	941	.274
313.15	.6	.05	945.9	.274
313.15	.6	.075	948.9	.274
313.15	.6	.1	952.2	.274
313.15	.6	.125	955.8	.274
313.15	.6	.15	959.5	.274
318.15	.6	0	938.6	.265
318.15	.6	.05	943.2	.265
318.15	.6	.075	946.1	.265
318.15	.6	.1	949.4	.265
318.15	.6	.125	952.8	.265
318.15	.6	.15	956.4	.265
303.15	.5	0	931.5	.356
303.15	.5	.05	937.3	.356
303.15	.5	.075	941.2	.356
303.15	.5	.1	945.3	.356
303.15	.5	.125	950.2	.356
303.15	.5	.15	955.6	.356
308.15	.5	0	930.1	.336
308.15	.5	.05	935.7	.336
308.15	.5	.075	939.3	.336
308.15	.5	.1	943.5	.336
308.15	.5	.125	948.1	.336
308.15	.5	.15	952.6	.336
313.15	.5	0	927.9	.27
313.15	.5	.05	932.6	.27
313.15	.5	.075	935.4	.27
313.15	.5	.1	938.5	.27
313.15	.5	.125	942.4	.27
313.15	.5	.15	946.2	.27
318.15	.5	0	924.1	.281
318.15	.5	.05	928.6	.281
318.15	.5	.075	931.4	.281
318.15	.5	.1	934.7	.281
318.15	.5	.125	938.5	.281
318.15	.5	.15	943.2	.281

System: methanol + water + albuterol; phases: Liquid
Fixed: Pressure, kPa = 101
Property: Speed of sound, m/s (Liquid); method: Multiple path-length method
Temperature, K	Solvent: Volume fraction of water	Molality, mol/kg of albuterol	Speed of sound, m/s	uncertainty
303.15	.9	0	1535	.323
303.15	.9	.05	1546.8	.323
303.15	.9	.075	1550.9	.323
303.15	.9	.1	1554.3	.323
303.15	.9	.125	1555.3	.323
303.15	.9	.15	1555.7	.323
308.15	.9	0	1539.8	.368
308.15	.9	.05	1552.6	.368
308.15	.9	.075	1556.8	.368
308.15	.9	.1	1559.4	.368
308.15	.9	.125	1562.5	.368
308.15	.9	.15	1564.9	.368
313.15	.9	0	1545	.456
313.15	.9	.05	1559	.456
313.15	.9	.075	1564.4	.456
313.15	.9	.1	1568.8	.456
313.15	.9	.125	1572.5	.456
313.15	.9	.15	1576	.456
318.15	.9	0	1548.6	.495
318.15	.9	.05	1563.7	.495
318.15	.9	.075	1569.7	.495
318.15	.9	.1	1574.6	.495
318.15	.9	.125	1578.7	.495
318.15	.9	.15	1582	.495
303.15	.8	0	1554.3	.424
303.15	.8	.05	1567.9	.424
303.15	.8	.075	1572.8	.424
303.15	.8	.1	1576.5	.424
303.15	.8	.125	1579.8	.424
303.15	.8	.15	1583.3	.424
308.15	.8	0	1556.8	.389
308.15	.8	.05	1569.6	.389
308.15	.8	.075	1574.1	.389
308.15	.8	.1	1577.4	.389
308.15	.8	.125	1580.2	.389
308.15	.8	.15	1583.5	.389
313.15	.8	0	1561.6	.476
313.15	.8	.05	1575.8	.476
313.15	.8	.075	1581.5	.476
313.15	.8	.1	1586.3	.476
313.15	.8	.125	1590.1	.476
313.15	.8	.15	1594	.476
318.15	.8	0	1565	.495
318.15	.8	.05	1580.2	.495
318.15	.8	.075	1585.9	.495
318.15	.8	.1	1590.4	.495
318.15	.8	.125	1595.1	.495
318.15	.8	.15	1598.7	.495
303.15	.7	0	1566.1	.355
303.15	.7	.05	1578.8	.355
303.15	.7	.075	1583.5	.355
303.15	.7	.1	1585.3	.355
303.15	.7	.125	1588.8	.355
303.15	.7	.15	1589.6	.355
308.15	.7	0	1560.2	.345
308.15	.7	.05	1573.3	.345
308.15	.7	.075	1577.4	.345
308.15	.7	.1	1579.8	.345
308.15	.7	.125	1581.8	.345
308.15	.7	.15	1583.2	.345
313.15	.7	0	1556	.472
313.15	.7	.05	1570.6	.472
313.15	.7	.075	1575.8	.472
313.15	.7	.1	1579.4	.472
313.15	.7	.125	1584.6	.472
313.15	.7	.15	1588.5	.472
318.15	.7	0	1549.8	.498
318.15	.7	.05	1564.6	.498
318.15	.7	.075	1570.6	.498
318.15	.7	.1	1575.4	.498
318.15	.7	.125	1579.8	.498
318.15	.7	.15	1583.6	.498
303.15	.6	0	1549.6	.367
303.15	.6	.05	1562.8	.367
303.15	.6	.075	1566.8	.367
303.15	.6	.1	1569.9	.367
303.15	.6	.125	1572.7	.367
303.15	.6	.15	1574.1	.367
308.15	.6	0	1544.3	.364
308.15	.6	.05	1557.1	.364
308.15	.6	.075	1561.5	.364
308.15	.6	.1	1564.3	.364
308.15	.6	.125	1566.8	.364
308.15	.6	.15	1568.7	.364
313.15	.6	0	1541.6	.514
313.15	.6	.05	1556.1	.514
313.15	.6	.075	1562.1	.514
313.15	.6	.1	1567.3	.514
313.15	.6	.125	1572.2	.514
313.15	.6	.15	1576.6	.514
318.15	.6	0	1538.2	.521
318.15	.6	.05	1553.1	.521
318.15	.6	.075	1559.1	.521
318.15	.6	.1	1564.2	.521
318.15	.6	.125	1569.2	.521
318.15	.6	.15	1573.8	.521
303.15	.5	0	1528.4	.42
303.15	.5	.05	1542.4	.42
303.15	.5	.075	1546.9	.42
303.15	.5	.1	1551.4	.42
303.15	.5	.125	1554.4	.42
303.15	.5	.15	1556.5	.42
308.15	.5	0	1517.6	.396
308.15	.5	.05	1530.6	.396
308.15	.5	.075	1535.3	.396
308.15	.5	.1	1538.7	.396
308.15	.5	.125	1541.6	.396
308.15	.5	.15	1544.6	.396
313.15	.5	0	1506.5	.494
313.15	.5	.05	1520.8	.494
313.15	.5	.075	1526.6	.494
313.15	.5	.1	1531.9	.494
313.15	.5	.125	1536	.494
313.15	.5	.15	1540	.494
318.15	.5	0	1493.6	.476
318.15	.5	.05	1508	.476
318.15	.5	.075	1513.9	.476
318.15	.5	.1	1518.7	.476
318.15	.5	.125	1522.8	.476
318.15	.5	.15	1525.4	.476

System: methanol + water + albuterol; phases: Liquid
Fixed: Pressure, kPa = 101
Property: Viscosity, Pa*s (Liquid); method: Capillary tube (Ostwald; Ubbelohde) method
Temperature, K	Solvent: Volume fraction of water	Molality, mol/kg of albuterol	Viscosity, Pa*s	uncertainty
303.15	.9	0	.000961	.0000033
303.15	.9	.05	.001009	.0000033
303.15	.9	.075	.00105	.0000033
303.15	.9	.1	.001094	.0000033
303.15	.9	.125	.001142	.0000033
303.15	.9	.15	.0012	.0000033
308.15	.9	0	.000853	.0000041
308.15	.9	.05	.000969	.0000041
308.15	.9	.075	.001011	.0000041
308.15	.9	.1	.001051	.0000041
308.15	.9	.125	.001099	.0000041
308.15	.9	.15	.001137	.0000041
313.15	.9	0	.000764	.0000031
313.15	.9	.05	.000812	.0000031
313.15	.9	.075	.000874	.0000031
313.15	.9	.1	.000909	.0000031
313.15	.9	.125	.000943	.0000031
313.15	.9	.15	.000965	.0000031
318.15	.9	0	.000691	.0000029
318.15	.9	.05	.000762	.0000029
318.15	.9	.075	.000792	.0000029
318.15	.9	.1	.00082	.0000029
318.15	.9	.125	.000861	.0000029
318.15	.9	.15	.000896	.0000029
303.15	.8	0	.001091	.0000041
303.15	.8	.05	.00114	.0000041
303.15	.8	.075	.001188	.0000041
303.15	.8	.1	.001245	.0000041
303.15	.8	.125	.001305	.0000041
303.15	.8	.15	.001353	.0000041
308.15	.8	0	.000991	.0000046
308.15	.8	.05	.001114	.0000046
308.15	.8	.075	.00116	.0000046
308.15	.8	.1	.001209	.0000046
308.15	.8	.125	.001259	.0000046
308.15	.8	.15	.001309	.0000046
313.15	.8	0	.000885	.0000038
313.15	.8	.05	.000977	.0000038
313.15	.8	.075	.001016	.0000038
313.15	.8	.1	.001057	.0000038
313.15	.8	.125	.001105	.0000038
313.15	.8	.15	.001151	.0000038
318.15	.8	0	.00079	.0000032
318.15	.8	.05	.000864	.0000032
318.15	.8	.075	.000898	.0000032
318.15	.8	.1	.000931	.0000032
318.15	.8	.125	.000967	.0000032
318.15	.8	.15	.001021	.0000032
303.15	.7	0	.001211	.0000042
303.15	.7	.05	.001246	.0000042
303.15	.7	.075	.001285	.0000042
303.15	.7	.1	.001344	.0000042
303.15	.7	.125	.001421	.0000042
303.15	.7	.15	.001482	.0000042
308.15	.7	0	.001108	.0000048
308.15	.7	.05	.001216	.0000048
308.15	.7	.075	.001268	.0000048
308.15	.7	.1	.001328	.0000048
308.15	.7	.125	.001387	.0000048
308.15	.7	.15	.001435	.0000048
313.15	.7	0	.000978	.0000041
313.15	.7	.05	.001073	.0000041
313.15	.7	.075	.001114	.0000041
313.15	.7	.1	.001161	.0000041
313.15	.7	.125	.00121	.0000041
313.15	.7	.15	.001265	.0000041
318.15	.7	0	.000871	.0000035
318.15	.7	.05	.000948	.0000035
318.15	.7	.075	.000983	.0000035
318.15	.7	.1	.001023	.0000035
318.15	.7	.125	.00107	.0000035
318.15	.7	.15	.001116	.0000035
303.15	.6	0	.001317	.0000045
303.15	.6	.05	.001352	.0000045
303.15	.6	.075	.001359	.0000045
303.15	.6	.1	.00145	.0000045
303.15	.6	.125	.001553	.0000045
303.15	.6	.15	.001582	.0000045
308.15	.6	0	.001227	.0000046
308.15	.6	.05	.00129	.0000046
308.15	.6	.075	.001356	.0000046
308.15	.6	.1	.001412	.0000046
308.15	.6	.125	.001482	.0000046
308.15	.6	.15	.001528	.0000046
313.15	.6	0	.001056	.0000038
313.15	.6	.05	.001102	.0000038
313.15	.6	.075	.001151	.0000038
313.15	.6	.1	.001202	.0000038
313.15	.6	.125	.00124	.0000038
313.15	.6	.15	.001314	.0000038
318.15	.6	0	.000965	.0000032
318.15	.6	.05	.001003	.0000032
318.15	.6	.075	.001045	.0000032
318.15	.6	.1	.001091	.0000032
318.15	.6	.125	.001137	.0000032
318.15	.6	.15	.001189	.0000032
303.15	.5	0	.00137	.0000045
303.15	.5	.05	.001396	.0000045
303.15	.5	.075	.001418	.0000045
303.15	.5	.1	.001496	.0000045
303.15	.5	.125	.001568	.0000045
303.15	.5	.15	.001659	.0000045
308.15	.5	0	.001305	.0000044
308.15	.5	.05	.001328	.0000044
308.15	.5	.075	.001398	.0000044
308.15	.5	.1	.00146	.0000044
308.15	.5	.125	.001516	.0000044
308.15	.5	.15	.001584	.0000044
313.15	.5	0	.001135	.0000038
313.15	.5	.05	.001153	.0000038
313.15	.5	.075	.001213	.0000038
313.15	.5	.1	.001266	.0000038
313.15	.5	.125	.001311	.0000038
313.15	.5	.15	.001376	.0000038
318.15	.5	0	.001014	.0000033
318.15	.5	.05	.001033	.0000033
318.15	.5	.075	.001077	.0000033
318.15	.5	.1	.00113	.0000033
318.15	.5	.125	.001174	.0000033
318.15	.5	.15	.001225	.0000033
