Measured thermophysical data. Solubility and thermodynamic modeling of hydrogen sulfide in aqueous (diisopropanolamine + 2-amino-2-methyl-1-propanol + piperazine) solution at high pressure
Source: J. Chem. Thermodyn., 2015, 10.1016/j.jct.2015.06.032
Compound 1: diisopropanolamine, C6H15NO2, purity 98%
Compound 2: 2-amino-2-methyl-1-propanol, C4H11NO, purity 97%
Compound 3: water, H2O, purity 99.8%

System: diisopropanolamine + 2-amino-2-methyl-1-propanol + water; phases: Liquid
Fixed: Pressure, kPa = 100
Fixed: Mass fraction of diisopropanolamine = .25
Fixed: Mass fraction of 2-amino-2-methyl-1-propanol = .2
Property: Mass density, kg/m3 (Liquid); method: Pycnometric method
Temperature, K	Mass density, kg/m3	uncertainty
308.15	1007.2	.5
313.15	1003.6	.5
318.15	1000.3	.5
323.15	997	.5
328.15	993.1	.5
333.15	989.6	.5
338.15	985.9	.5
343.15	981.5	.5

System: diisopropanolamine + 2-amino-2-methyl-1-propanol + water; phases: Liquid, Gas
Fixed: Mass fraction of diisopropanolamine = .25
Fixed: Mass fraction of 2-amino-2-methyl-1-propanol = .2
Property: Vapor or sublimation pressure, kPa (Liquid); method: Closed cell (Static) method
Temperature, K	Vapor or sublimation pressure, kPa	uncertainty
313.15	5.8	.3
328.15	11.4	.3
343.15	25.3	.3
