Measured thermophysical data. Salting-out effect on the (liquid + liquid) equilibrium for the ternary systems (water + phosphoric acid + dichloromethane or 1,2-dichloroethane)
Source: J. Chem. Thermodyn., 2014, 10.1016/j.jct.2013.11.034
Compound 1: phosphoric acid, H3O4P, purity 99%
Compound 2: dichloromethane, CH2Cl2, purity 99%
Compound 3: 1,2-dichloroethane, C2H4Cl2, purity 99%
Compound 4: water, H2O

System: dichloromethane + phosphoric acid + water; phases: Liquid mixture 1, Liquid mixture 2
Fixed: Pressure, kPa = 100
Fixed: Temperature, K = 298.15
Property: Mass fraction of phosphoric acid (Liquid mixture 1); method: Titration method
Mass fraction of water	Mass fraction of phosphoric acid	uncertainty
.9685	0	.0001
.93	.0225	.0001
.8929	.045	.0001
.8283	.082	.0001
.7712	.1143	.0001
.7144	.1429	.0001
.6506	.1733	.0001
.589	.2	.0001
.5096	.2307	.0001
.4102	.2571	.0001
.32	.265	.0001
.2495	.2517	.0001
.1932	.2235	.0001
.1676	.2025	.0001
.1465	.18	.0001
.1286	.1571	.0001
.1077	.1231	.0001
.0968	.0968	.0001
.076	.053	.0001
.0566	0	.0001

System: dichloromethane + phosphoric acid + water; phases: Liquid mixture 1, Liquid mixture 2
Property: Mass fraction of phosphoric acid (Liquid mixture 1); method: Titration method
Property: Mass fraction of phosphoric acid (Liquid mixture 2); method: Titration method
Property: Mass fraction of water (Liquid mixture 2); method: Titration method
Temperature, K	Pressure, kPa	Mass fraction of water	Mass fraction of phosphoric acid	uncertainty	Mass fraction of phosphoric acid	uncertainty	Mass fraction of water	uncertainty
298.2	100	.7073	.1472	.0001	.0132	.0001	.0609	.0001
298.2	100	.6729	.1631	.0001	.0151	.0001	.0624	.0001
298.2	100	.5726	.2047	.0001	.0224	.0001	.0654	.0001
298.2	100	.5161	.2291	.0001	.0276	.0001	.0665	.0001
298.2	100	.4574	.245	.0001	.0336	.0001	.068	.0001

System: 1,2-dichloroethane + phosphoric acid + water; phases: Liquid mixture 1, Liquid mixture 2
Fixed: Pressure, kPa = 100
Fixed: Temperature, K = 298.15
Property: Mass fraction of phosphoric acid (Liquid mixture 1); method: Titration method
Mass fraction of water	Mass fraction of phosphoric acid	uncertainty
.9387	0	.0001
.8986	.0437	.0001
.8566	.087	.0001
.8237	.123	.0001
.7842	.1628	.0001
.7473	.1985	.0001
.716	.2302	.0001
.6684	.2757	.0001
.5878	.346	.0001
.5111	.3879	.0001
.42	.4068	.0001
.342	.3879	.0001
.2695	.3386	.0001
.228	.295	.0001
.1924	.2478	.0001
.149	.1781	.0001
.1281	.1364	.0001
.1172	.1111	.0001
.0997	.0678	.0001
.0771	0	.0001

System: 1,2-dichloroethane + phosphoric acid + water; phases: Liquid mixture 1, Liquid mixture 2
Property: Mass fraction of water (Liquid mixture 1); method: Titration method
Property: Mass fraction of phosphoric acid (Liquid mixture 2); method: Titration method
Property: Mass fraction of water (Liquid mixture 2); method: Titration method
Temperature, K	Pressure, kPa	Mass fraction of phosphoric acid	Mass fraction of water	uncertainty	Mass fraction of phosphoric acid	uncertainty	Mass fraction of water	uncertainty
298.2	100	.13	.8134	.0001	.0149	.0001	.0845	.0001
298.2	100	.1716	.7738	.0001	.0199	.0001	.0851	.0001
298.2	100	.2024	.7432	.0001	.0239	.0001	.0859	.0001
298.2	100	.2375	.7089	.0001	.0286	.0001	.0871	.0001
298.2	100	.2709	.676	.0001	.0331	.0001	.09	.0001

System: dichloromethane + water; phases: Liquid mixture 1, Liquid mixture 2
Property: Mass fraction of water (Liquid mixture 1); method: Titration method
Pressure, kPa	Temperature, K	Mass fraction of water	uncertainty
100	298.15	.9685	.0001
100	298.15	.0566	.0001

System: 1,2-dichloroethane + water; phases: Liquid mixture 1, Liquid mixture 2
Property: Mass fraction of water (Liquid mixture 1); method: Titration method
Pressure, kPa	Temperature, K	Mass fraction of water	uncertainty
100	298.15	.9387	.0001
100	298.15	.0771	.0001
