Measured thermophysical data. Phase behaviour for aqueous two-phase systems containing the ionic liquid 1-butylpyridinium tetrafluoroborate /1-butyl-4-methylpyridinium tetrafluoroborate and organic salts (sodium tartrate/ammonium citrate/trisodium citrate) at different temperatures
Source: J. Chem. Thermodyn., 2013, 10.1016/j.jct.2013.06.011
Compound 1: sodium tartrate, C4H4Na2O6, purity 99%
Compound 2: water, H2O
Compound 3: 1-butylpyridinium tetrafluoroborate, C9H14BF4N, purity 99%
Compound 4: 1-butyl-4-methylpyridinium tetrafluoroborate, C10H16BF4N, purity 99%
Compound 5: ammonium 2-hydroxypropane-1,2,3-tricarboxylate, C6H17N3O7, purity 99%
Compound 6: 3-carboxy-3-hydroxy-pentan-1,5-dioic acid trisodium salt, C6H5Na3O7, purity 99%

System: sodium tartrate + water + 1-butylpyridinium tetrafluoroborate; phases: Liquid mixture 1, Liquid mixture 2
Fixed: Pressure, kPa = 100
Property: Mass fraction of sodium tartrate (Liquid mixture 1); method: Titration method
Temperature, K	Mass fraction of 1-butylpyridinium tetrafluoroborate	Mass fraction of sodium tartrate	uncertainty
298.15	.7697	.0094	.001
298.15	.7189	.0106	.001
298.15	.6591	.0141	.001
298.15	.5955	.0181	.001
298.15	.5508	.0208	.001
298.15	.5284	.0231	.001
298.15	.5089	.0241	.001
298.15	.4956	.0251	.001
298.15	.4846	.0265	.001
298.15	.4693	.0284	.001
298.15	.4482	.0311	.001
298.15	.4328	.0331	.001
298.15	.4167	.0346	.001
298.15	.3896	.0376	.001
298.15	.3766	.0394	.001
298.15	.359	.0419	.001
298.15	.3564	.0424	.001
298.15	.3515	.0431	.001
298.15	.3354	.0456	.001
298.15	.3211	.0479	.001
298.15	.3161	.0488	.001
298.15	.3128	.0496	.001
298.15	.3007	.0517	.001
298.15	.2843	.0559	.001
298.15	.2764	.0578	.001
298.15	.258	.0623	.001
298.15	.2502	.0648	.001
298.15	.2389	.0675	.001
298.15	.2265	.0711	.001
298.15	.2197	.0748	.001
298.15	.2126	.0783	.001
298.15	.2022	.0828	.001
298.15	.1936	.0867	.001
298.15	.1836	.0915	.001
298.15	.1797	.0927	.001
298.15	.1736	.0964	.001
298.15	.1642	.1011	.001
298.15	.1596	.1041	.001
298.15	.1607	.105	.001
298.15	.1587	.1052	.001
298.15	.1539	.1089	.001
298.15	.1429	.1153	.001
298.15	.1348	.1207	.001
298.15	.1282	.125	.001
298.15	.1234	.13	.001
298.15	.1195	.1339	.001
298.15	.1172	.1374	.001
298.15	.1069	.1466	.001
298.15	.09969	.1542	.001
298.15	.0963	.1614	.001
298.15	.0879	.1752	.001
298.15	.0784	.1968	.001
298.15	.0739	.21	.001
298.15	.0653	.2422	.001
308.15	.785	.0048	.001
308.15	.705	.0105	.001
308.15	.6777	.0123	.001
308.15	.6509	.0145	.001
308.15	.6323	.0156	.001
308.15	.5786	.0203	.001
308.15	.5636	.0217	.001
308.15	.5511	.0225	.001
308.15	.5414	.0242	.001
308.15	.5284	.0254	.001
308.15	.5186	.027	.001
308.15	.5067	.0284	.001
308.15	.4983	.0296	.001
308.15	.4867	.0307	.001
308.15	.4738	.0333	.001
308.15	.4579	.0354	.001
308.15	.4395	.0372	.001
308.15	.4184	.0401	.001
308.15	.4069	.0423	.001
308.15	.3923	.0453	.001
308.15	.3755	.0462	.001
308.15	.3644	.0479	.001
308.15	.3543	.0495	.001
308.15	.3458	.0526	.001
308.15	.3352	.0538	.001
308.15	.328	.0552	.001
308.15	.3177	.0572	.001
308.15	.3057	.0596	.001
308.15	.3001	.0606	.001
308.15	.2755	.0644	.001
308.15	.2761	.0666	.001
308.15	.2581	.0687	.001
308.15	.2532	.0702	.001
308.15	.2483	.0719	.001
308.15	.244	.0752	.001
308.15	.2383	.0771	.001
308.15	.2264	.0811	.001
308.15	.2188	.0834	.001
308.15	.2142	.0851	.001
308.15	.2093	.0872	.001
308.15	.202	.0892	.001
308.15	.1948	.0924	.001
308.15	.1911	.0938	.001
308.15	.1902	.0953	.001
308.15	.1853	.0977	.001
308.15	.1808	.0993	.001
308.15	.1783	.1011	.001
308.15	.1723	.1044	.001
308.15	.1709	.1051	.001
308.15	.1672	.1072	.001
308.15	.1631	.1096	.001
308.15	.1552	.1134	.001
308.15	.1525	.1156	.001
308.15	.149	.12	.001
308.15	.1449	.1235	.001
308.15	.1376	.1292	.001
308.15	.1323	.1325	.001
308.15	.1283	.1357	.001
308.15	.1248	.1396	.001
308.15	.1194	.1441	.001
308.15	.1159	.1487	.001
308.15	.1122	.1548	.001
308.15	.1079	.1599	.001
308.15	.1027	.1681	.001
308.15	.0918	.1851	.001
308.15	.0859	.1941	.001
308.15	.0805	.206	.001
308.15	.0747	.2175	.001
308.15	.0684	.2327	.001
308.15	.0594	.2441	.001
328.15	.773	.0088	.001
328.15	.7024	.0161	.001
328.15	.6198	.0221	.001
328.15	.5683	.0272	.001
328.15	.5242	.0335	.001
328.15	.4868	.04	.001
328.15	.4707	.0426	.001
328.15	.4601	.0447	.001
328.15	.4503	.0466	.001
328.15	.4394	.0488	.001
328.15	.4223	.0518	.001
328.15	.4129	.054	.001
328.15	.4037	.0559	.001
328.15	.3946	.058	.001
328.15	.3863	.0596	.001
328.15	.3776	.0614	.001
328.15	.3638	.0641	.001
328.15	.3546	.0668	.001
328.15	.3581	.067	.001
328.15	.3401	.0694	.001
328.15	.3359	.0715	.001
328.15	.3221	.0734	.001
328.15	.318	.0762	.001
328.15	.3114	.0779	.001
328.15	.3021	.0801	.001
328.15	.2988	.0811	.001
328.15	.2916	.083	.001
328.15	.2835	.0851	.001
328.15	.2757	.0872	.001
328.15	.2712	.0888	.001
328.15	.2657	.091	.001
328.15	.2625	.092	.001
328.15	.2546	.0953	.001
328.15	.2447	.0984	.001
328.15	.2351	.1021	.001
328.15	.2292	.1041	.001
328.15	.2239	.1061	.001
328.15	.2197	.1081	.001
328.15	.2157	.11	.001
328.15	.2118	.1119	.001
328.15	.2083	.1132	.001
328.15	.2052	.1149	.001
328.15	.2014	.1164	.001
328.15	.1957	.1188	.001
328.15	.1923	.1208	.001
328.15	.1889	.1228	.001
328.15	.1847	.1258	.001
328.15	.1811	.128	.001
328.15	.1775	.1303	.001
328.15	.1732	.1328	.001
328.15	.1695	.1352	.001
328.15	.1642	.138	.001
328.15	.162	.1403	.001
328.15	.1575	.1431	.001
328.15	.1532	.1459	.001
328.15	.1488	.1488	.001
328.15	.145	.1527	.001
328.15	.141	.1567	.001
328.15	.129	.1666	.01
328.15	.1101	.1776	.01
328.15	.099	.1894	.01
328.15	.0888	.1986	.01
328.15	.0793	.2078	.01
328.15	.0705	.2169	.01
328.15	.0604	.2284	.01
328.15	.0549	.2352	.01

System: sodium tartrate + water + 1-butylpyridinium tetrafluoroborate; phases: Liquid mixture 1, Liquid mixture 2
Fixed: Pressure, kPa = 100
Property: Mass fraction of sodium tartrate (Liquid mixture 1); method: atomic absorption spectroscopy
Property: Mass fraction of 1-butylpyridinium tetrafluoroborate (Liquid mixture 2); method: atomic absorption spectroscopy
Property: Mass fraction of sodium tartrate (Liquid mixture 2); method: atomic absorption spectroscopy
Temperature, K	Mass fraction of 1-butylpyridinium tetrafluoroborate	Mass fraction of sodium tartrate	uncertainty	Mass fraction of 1-butylpyridinium tetrafluoroborate	uncertainty	Mass fraction of sodium tartrate	uncertainty
298.15	.7165	.0113	.001	.1622	.001	.1029	.001
298.15	.6464	.0147	.001	.2091	.001	.0803	.001
298.15	.8064	.008	.001	.0976	.001	.1589	.001
308.15	.6919	.0118	.001	.1578	.001	.1173	.001
308.15	.7995	.0072	.001	.0868	.001	.1754	.001
308.15	.7718	.0082	.001	.0946	.001	.1672	.001
328.15	.6457	.01982	.001	.0899	.001	.1953	.001
328.15	.774	.0106	.001	.0459	.001	.2432	.001
328.15	.6171	.0224	.001	.0947	.001	.1911	.001

System: sodium tartrate + water + 1-butyl-4-methylpyridinium tetrafluoroborate; phases: Liquid mixture 1, Liquid mixture 2
Fixed: Pressure, kPa = 100
Fixed: Temperature, K = 298.15
Property: Mass fraction of sodium tartrate (Liquid mixture 1); method: Titration method
Mass fraction of 1-butyl-4-methylpyridinium tetrafluoroborate	Mass fraction of sodium tartrate	uncertainty
.7857	.0043	.001
.7278	.0062	.001
.6763	.0071	.001
.6354	.0084	.001
.6062	.0101	.001
.5804	.0115	.001
.5567	.0128	.001
.5351	.0139	.001
.5147	.0151	.001
.4987	.0163	.001
.4842	.0172	.001
.4679	.0181	.001
.4523	.0189	.001
.4432	.0198	.001
.4335	.0204	.001
.4123	.0223	.001
.3947	.0239	.001
.3787	.0253	.001
.3653	.0267	.001
.3526	.028	.001
.3423	.0293	.001
.3312	.0304	.001
.3208	.0316	.001
.3121	.0327	.001
.303	.0336	.001
.2953	.0346	.001
.2884	.0356	.001
.2812	.0366	.001
.2727	.0381	.001
.2641	.04	.001
.255	.0419	.001
.2467	.0436	.001
.238	.0459	.001
.2326	.0469	.001
.2278	.0481	.001
.2239	.0496	.001
.2185	.0512	.001
.2137	.0529	.001
.2077	.0549	.001
.202	.0567	.001
.1952	.0593	.001
.19	.0614	.001
.1838	.0642	.001
.1777	.0667	.001
.1704	.0693	.001
.1599	.073	.001
.1533	.0743	.001
.1441	.079	.001
.1412	.082	.001
.1345	.0872	.001
.1298	.0899	.001
.1255	.0932	.001
.1206	.0977	.001
.1135	.102	.001
.1113	.1043	.001
.1102	.1079	.001
.1076	.1106	.001
.107	.113	.001
.1005	.1166	.001
.0978	.1198	.001
.0942	.123	.001
.0917	.1278	.001
.0891	.1331	.001
.0852	.1372	.001
.0815	.1416	.001
.0781	.1482	.001
.0744	.1556	.001
.0696	.1637	.001
.0653	.1727	.001
.0609	.1825	.001
.056	.1969	.001
.0512	.2138	.001

System: sodium tartrate + water + 1-butyl-4-methylpyridinium tetrafluoroborate; phases: Liquid mixture 1, Liquid mixture 2
Fixed: Pressure, kPa = 100
Fixed: Temperature, K = 298.15
Property: Mass fraction of sodium tartrate (Liquid mixture 1); method: atomic absorption spectroscopy
Property: Mass fraction of 1-butyl-4-methylpyridinium tetrafluoroborate (Liquid mixture 2); method: atomic absorption spectroscopy
Property: Mass fraction of sodium tartrate (Liquid mixture 2); method: atomic absorption spectroscopy
Mass fraction of 1-butyl-4-methylpyridinium tetrafluoroborate	Mass fraction of sodium tartrate	uncertainty	Mass fraction of 1-butyl-4-methylpyridinium tetrafluoroborate	uncertainty	Mass fraction of sodium tartrate	uncertainty
.7566	.0047	.001	.1531	.001	.0707	.001
.6448	.0086	.001	.1999	.001	.0567	.001
.6091	.009	.001	.2232	.001	.04753	.001

System: ammonium 2-hydroxypropane-1,2,3-tricarboxylate + water + 1-butyl-4-methylpyridinium tetrafluoroborate; phases: Liquid mixture 1, Liquid mixture 2
Fixed: Pressure, kPa = 100
Fixed: Temperature, K = 298.15
Property: Mass fraction of ammonium 2-hydroxypropane-1,2,3-tricarboxylate (Liquid mixture 1); method: Titration method
Mass fraction of 1-butyl-4-methylpyridinium tetrafluoroborate	Mass fraction of ammonium 2-hydroxypropane-1,2,3-tricarboxylate	uncertainty
.7869	.0065	.001
.6755	.0113	.001
.5712	.0144	.001
.5154	.0163	.001
.4816	.0187	.001
.4558	.0213	.001
.4275	.0236	.001
.402	.0261	.001
.3803	.0278	.001
.3638	.0296	.001
.3484	.0316	.001
.3322	.0326	.001
.3221	.0341	.001
.3099	.0357	.001
.2998	.0368	.001
.2871	.0391	.001
.2828	.0398	.001
.2721	.0419	.001
.2704	.0424	.001
.2722	.0428	.001
.2524	.0463	.001
.2501	.0469	.001
.2492	.0473	.001
.235	.0511	.001
.2237	.0548	.001
.2219	.0557	.001
.2113	.0596	.001
.2087	.0604	.001
.2017	.0634	.001
.2	.0639	.001
.1977	.0656	.001
.186	.0707	.001
.1861	.0714	.001
.1789	.0745	.001
.1763	.076	.001
.1653	.0824	.001
.1625	.0842	.001
.1555	.0891	.001
.1499	.0931	.001
.1466	.0971	.001
.142	.1009	.001
.14	.1033	.001
.1359	.1075	.001
.1319	.1104	.001
.1314	.1121	.001
.126	.1171	.001
.1203	.1234	.001
.1169	.127	.001
.1155	.1294	.001
.1142	.1316	.001
.1107	.1345	.001
.1068	.1376	.001
.1032	.1418	.001
.1018	.1446	.001
.1013	.1485	.001
.0982	.1518	.001
.0966	.155	.001
.0951	.1582	.001
.0934	.1616	.001
.0914	.1651	.001
.0892	.169	.001
.0871	.173	.001
.0847	.1771	.001
.0839	.183	.001
.0808	.1858	.001
.0784	.1929	.001
.0766	.2002	.001
.07323	.2034	.001
.0704	.2093	.001
.0677	.2177	.001
.0662	.2265	.001
.0636	.2366	.001
.0602	.2479	.001
.0557	.2529	.001
.0543	.2649	.001
.0511	.283	.001
.0472	.2987	.001

System: ammonium 2-hydroxypropane-1,2,3-tricarboxylate + water + 1-butyl-4-methylpyridinium tetrafluoroborate; phases: Liquid mixture 1, Liquid mixture 2
Fixed: Temperature, K = 298.15
Fixed: Pressure, kPa = 100
Property: Mass fraction of ammonium 2-hydroxypropane-1,2,3-tricarboxylate (Liquid mixture 1); method: atomic absorption spectroscopy
Property: Mass fraction of 1-butyl-4-methylpyridinium tetrafluoroborate (Liquid mixture 2); method: atomic absorption spectroscopy
Property: Mass fraction of ammonium 2-hydroxypropane-1,2,3-tricarboxylate (Liquid mixture 2); method: atomic absorption spectroscopy
Mass fraction of 1-butyl-4-methylpyridinium tetrafluoroborate	Mass fraction of ammonium 2-hydroxypropane-1,2,3-tricarboxylate	uncertainty	Mass fraction of 1-butyl-4-methylpyridinium tetrafluoroborate	uncertainty	Mass fraction of ammonium 2-hydroxypropane-1,2,3-tricarboxylate	uncertainty
.7924	.0056	.001	.1394	.001	.0965	.001
.6066	.0121	.001	.2106	.001	.061	.001
.6437	.0105	.001	.1771	.001	.0733	.001

System: 3-carboxy-3-hydroxy-pentan-1,5-dioic acid trisodium salt + water + 1-butyl-4-methylpyridinium tetrafluoroborate; phases: Liquid mixture 1, Liquid mixture 2
Fixed: Pressure, kPa = 100
Fixed: Temperature, K = 298.15
Property: Mass fraction of 3-carboxy-3-hydroxy-pentan-1,5-dioic acid trisodium salt (Liquid mixture 1); method: Titration method
Mass fraction of 1-butyl-4-methylpyridinium tetrafluoroborate	Mass fraction of 3-carboxy-3-hydroxy-pentan-1,5-dioic acid trisodium salt	uncertainty
.783	.0063	.001
.6327	.0097	.001
.5553	.0124	.001
.5068	.0149	.001
.4662	.0172	.001
.4366	.0191	.001
.4142	.0211	.001
.3906	.0227	.001
.373	.0242	.001
.3567	.0256	.001
.3412	.027	.001
.3303	.0284	.001
.3174	.0296	.001
.3078	.0308	.001
.2968	.0317	.001
.2825	.0341	.001
.2749	.0351	.001
.2609	.037	.001
.256	.0382	.001
.2454	.04	.001
.2369	.0421	.001
.2292	.0437	.001
.2255	.0446	.001
.222	.0453	.001
.2151	.0469	.001
.2128	.048	.001
.2086	.0498	.001
.2047	.0518	.001
.1947	.055	.001
.1902	.0564	.001
.1827	.0595	.001
.1787	.0608	.001
.175	.0633	.001
.1706	.0654	.001
.1665	.0675	.001
.1626	.0695	.001
.1588	.0714	.001
.1553	.0731	.001
.1513	.0756	.001
.145	.0788	.001
.142	.0813	.001
.1382	.0842	.001
.135	.0862	.001
.1319	.0881	.001
.129	.0909	.001
.126	.0932	.001
.1233	.0948	.001
.1205	.0978	.001
.1168	.1015	.001
.1134	.105	.001
.1107	.1066	.001
.1078	.11	.001
.1048	.1131	.001
.1008	.1183	.001
.0981	.1202	.001
.0962	.122	.001
.0939	.1251	.001
.0914	.1286	.001
.088	.1339	.001
.0845	.1387	.001
.0813	.1433	.001
.0779	.1484	.001
.0746	.1548	.001
.0722	.1599	.001
.07	.1673	.001
.0676	.1732	.001
.064	.18	.001
.0605	.1873	.001
.0572	.1972	.001
.0537	.208	.001
.0505	.2228	.001
.0466	.2405	.001
.0399	.2499	.001

System: 3-carboxy-3-hydroxy-pentan-1,5-dioic acid trisodium salt + water + 1-butyl-4-methylpyridinium tetrafluoroborate; phases: Liquid mixture 2, Liquid mixture 1
Fixed: Temperature, K = 298.15
Fixed: Pressure, kPa = 100
Property: Mass fraction of 3-carboxy-3-hydroxy-pentan-1,5-dioic acid trisodium salt (Liquid mixture 2); method: atomic absorption spectroscopy
Property: Mass fraction of 1-butyl-4-methylpyridinium tetrafluoroborate (Liquid mixture 1); method: atomic absorption spectroscopy
Property: Mass fraction of 3-carboxy-3-hydroxy-pentan-1,5-dioic acid trisodium salt (Liquid mixture 1); method: atomic absorption spectroscopy
Mass fraction of 1-butyl-4-methylpyridinium tetrafluoroborate	Mass fraction of 3-carboxy-3-hydroxy-pentan-1,5-dioic acid trisodium salt	uncertainty	Mass fraction of 1-butyl-4-methylpyridinium tetrafluoroborate	uncertainty	Mass fraction of 3-carboxy-3-hydroxy-pentan-1,5-dioic acid trisodium salt	uncertainty
.1292	.0875	.001	.71	.001	.0069	.001
.1164	.0976	.001	.7486	.001	.0059	.001
.213	.0503	.001	.5614	.001	.01217	.001
