Measured thermophysical data. Vapour pressures and isobaric (vapour + liquid) equilibrium data for the binary system of (RS-4-vinyl-1-cyclohexene + ZE-3-pentenenitrile) at (50.0 and 100.0) kPa
Source: J. Chem. Thermodyn., 2016, 10.1016/j.jct.2015.08.015
Compound 1: 4-vinyl-1-cyclohexene, C8H12, purity 95.9%
Compound 2: 3-pentenenitrile, C5H7N, purity 94%

System: 3-pentenenitrile; phases: Liquid, Gas
Property: Vapor or sublimation pressure, kPa (Liquid); method: Ebulliometric method (Recirculating still)
Temperature, K	Vapor or sublimation pressure, kPa	uncertainty
339.24	7.588	.07588
344.85	9.491	.09491
353.91	13.477	.13477
362.45	18.324	.18324
368.92	22.905	.22905
375.61	28.796	.28796
382.01	35.372	.35372
386.13	40.089	.40089
388.17	42.828	.42828
391.42	47.084	.47084
394.31	51.621	.51621
398.64	57.825	.57825
402.51	65.489	.65489
407.31	74.487	.74487
409.72	80.007	.80007
412.88	86.785	.86785
414.32	90.499	.90499
417.51	97.901	.97901

System: 4-vinyl-1-cyclohexene + 3-pentenenitrile; phases: Liquid, Gas
Property: Boiling temperature at pressure P, K (Liquid); method: Ebulliometric method (Recirculating still)
Mole fraction of 4-vinyl-1-cyclohexene	Pressure, kPa	Boiling temperature at pressure P, K	uncertainty
.124	50	383.65	.01
.22	50	379.25	.01
.294	50	377.55	.01
.401	50	374.85	.01
.484	50	373.35	.01
.601	50	372.55	.01
.69	50	372.15	.01
.756	50	372.15	.01
.86	50	373.05	.01
.13	100	410.65	.01
.201	100	408.15	.01
.27	100	405.85	.01
.403	100	402.65	.01
.468	100	401.55	.01
.601	100	400.25	.01
.72	100	399.25	.01
.793	100	399.05	.01
.871	100	399.25	.01

System: 4-vinyl-1-cyclohexene + 3-pentenenitrile; phases: Gas, Liquid
Property: Mole fraction of 4-vinyl-1-cyclohexene (Gas); method: Chromatography
Mole fraction of 4-vinyl-1-cyclohexene	Pressure, kPa	Mole fraction of 4-vinyl-1-cyclohexene	uncertainty
.124	50	.306	.002
.22	50	.445	.002
.294	50	.504	.002
.401	50	.61	.002
.484	50	.65	.002
.601	50	.686	.002
.69	50	.718	.002
.756	50	.76	.002
.86	50	.817	.002
.13	100	.3	.002
.201	100	.41	.002
.27	100	.487	.002
.403	100	.603	.002
.468	100	.643	.002
.601	100	.69	.002
.72	100	.75	.002
.793	100	.779	.002
.871	100	.827	.002
