Measured thermophysical data. Volumetric properties of the (water + hexamethylphosphoric triamide) mixtures from (288.15 to 308.15) K
Source: J. Chem. Thermodyn., 2010, 10.1016/j.jct.2010.04.003
Compound 1: phosphoric triamide, hexamethyl-, C6H18N3OP, purity 99%
Compound 2: water, H2O, purity 99.8%

System: phosphoric triamide, hexamethyl-; phases: Liquid
Fixed: Pressure, kPa = 101.325
Property: Mass density, kg/m3 (Liquid); method: Buoyancy - hydrostatic balance with magnetic suspension - one sinker
Temperature, K	Mass density, kg/m3	uncertainty
288.15	1028.54	.022
293.15	1024.33	.022
298.15	1020.03	.022
303.15	1015.86	.022
308.15	1011.61	.022

System: phosphoric triamide, hexamethyl- + water; phases: Liquid
Fixed: Pressure, kPa = 101
Property: Mass density, kg/m3 (Liquid); method: Buoyancy - hydrostatic balance with magnetic suspension - one sinker
Temperature, K	Mole fraction of phosphoric triamide, hexamethyl-	Mass density, kg/m3	uncertainty
288.15	0	999.101	.022
288.15	.0023	1001.1	.022
288.15	.00503	1003.51	.022
288.15	.0101	1007.82	.022
288.15	.0297	1024.31	.022
288.15	.05	1036.43	.022
288.15	.07	1043.92	.022
288.15	.1	1050.24	.022
288.15	.1496	1054.84	.022
288.15	.1999	1054.7	.022
288.15	.3008	1049.56	.022
288.15	.3999	1044.61	.022
288.15	.5002	1040.86	.022
288.15	.6	1038.03	.022
288.15	.6997	1035.45	.022
288.15	.8004	1033.06	.022
288.15	.8505	1031.95	.022
288.15	.91	1030.54	.022
288.15	.9499	1029.63	.022
288.15	.9703	1029.16	.022
288.15	.9849	1028.81	.022
288.15	.9937	1028.61	.022
288.15	.9967	1028.54	.022
288.15	1	1028.47	.022
293.15	0	998.206	.022
293.15	.0023	1000.05	.022
293.15	.00503	1002.29	.022
293.15	.0101	1006.2	.022
293.15	.0297	1021.59	.022
293.15	.05	1033.08	.022
293.15	.07	1040.44	.022
293.15	.1	1046.86	.022
293.15	.1496	1050.62	.022
293.15	.1999	1050.33	.022
293.15	.3008	1045	.022
293.15	.3999	1040.34	.022
293.15	.5002	1036.54	.022
293.15	.6	1033.74	.022
293.15	.6997	1031.15	.022
293.15	.8004	1028.72	.022
293.15	.8505	1027.66	.022
293.15	.91	1026.29	.022
293.15	.9499	1025.4	.022
293.15	.9703	1024.92	.022
293.15	.9849	1024.6	.022
293.15	.9937	1024.4	.022
293.15	.9967	1024.33	.022
293.15	1	1024.26	.022
298.15	0	997.047	.022
298.15	.0023	998.77	.022
298.15	.00503	1000.85	.022
298.15	.0101	1004.52	.022
298.15	.0297	1018.84	.022
298.15	.05	1029.72	.022
298.15	.07	1036.96	.022
298.15	.1	1042.73	.022
298.15	.1496	1046.2	.022
298.15	.1999	1045.83	.022
298.15	.3008	1040.47	.022
298.15	.3999	1035.76	.022
298.15	.5002	1032.12	.022
298.15	.6	1029.39	.022
298.15	.6997	1026.79	.022
298.15	.8004	1024.37	.022
298.15	.8505	1023.31	.022
298.15	.91	1021.95	.022
298.15	.9499	1021.07	.022
298.15	.9703	1020.61	.022
298.15	.9849	1020.3	.022
298.15	.9937	1020.1	.022
298.15	.9967	1020.03	.022
298.15	1	1019.96	.022
303.15	0	995.65	.022
303.15	.0023	997.25	.022
303.15	.00503	999.27	.022
303.15	.0101	1002.76	.022
303.15	.0297	1016.02	.022
303.15	.05	1026.56	.022
303.15	.07	1033.47	.022
303.15	.1	1039	.022
303.15	.1496	1041.95	.022
303.15	.1999	1041.49	.022
303.15	.3008	1036.04	.022
303.15	.3999	1031.36	.022
303.15	.5002	1027.81	.022
303.15	.6	1025.15	.022
303.15	.6997	1022.51	.022
303.15	.8004	1020.03	.022
303.15	.8505	1019.05	.022
303.15	.91	1017.74	.022
303.15	.9499	1016.88	.022
303.15	.9703	1016.44	.022
303.15	.9849	1016.12	.022
303.15	.9937	1015.93	.022
303.15	.9967	1015.86	.022
303.15	1	1015.79	.022
308.15	0	994.035	.022
308.15	.0023	995.51	.022
308.15	.00503	997.34	.022
308.15	.0101	1000.79	.022
308.15	.0297	1013.39	.022
308.15	.05	1023.13	.022
308.15	.07	1029.7	.022
308.15	.1	1034.91	.022
308.15	.1496	1037.57	.022
308.15	.1999	1037.05	.022
308.15	.3008	1031.66	.022
308.15	.3999	1026.94	.022
308.15	.5002	1023.35	.022
308.15	.6	1020.66	.022
308.15	.6997	1018	.022
308.15	.8004	1015.57	.022
308.15	.8505	1014.64	.022
308.15	.91	1013.41	.022
308.15	.9499	1012.59	.022
308.15	.9703	1012.14	.022
308.15	.9849	1011.86	.022
308.15	.9937	1011.68	.022
308.15	.9967	1011.61	.022
308.15	1	1011.54	.022
