Measured thermophysical data. Effect of gelatin on micellization and microstructural behavior of amphiphilic amitriptyline hydrochloride drug solution: A detailed study
Source: J. Chem. Thermodyn., 2015, 10.1016/j.jct.2015.05.007
Compound 1: amitriptyline hydrochloride, C20H24ClN, purity 98%
Compound 2: water, H2O

System: amitriptyline hydrochloride + water; phases: Liquid
Fixed: Pressure, kPa = 100
Fixed: Temperature, K = 310.15
Property: Electrical conductivity, S/m (Liquid); method: Alternating current cell with electrodes
Molality, mol/kg of amitriptyline hydrochloride	Electrical conductivity, S/m	uncertainty
.00262	.031	.0015
.00516	.059	.0015
.00762	.085	.0015
.01	.113	.0015
.01231	.138	.0015
.01455	.163	.0015
.01672	.183	.0015
.01882	.205	.0015
.02087	.225	.0015
.02286	.244	.0015
.02479	.264	.0015
.02667	.281	.0015
.02849	.298	.0015
.03027	.315	.0015
.032	.331	.0015
.03368	.346	.0015
.03532	.361	.0015
.03692	.375	.0015
.03848	.387	.0015
.04	.4	.0015
.04148	.411	.0015
.04293	.422	.0015
.04434	.432	.0015
.04571	.442	.0015
.04706	.452	.0015
.04837	.461	.0015
.04966	.469	.0015
.05091	.478	.0015
.05213	.487	.0015
.05333	.495	.0015
.05451	.501	.0015
.05565	.508	.0015
.05677	.514	.0015
.05787	.519	.0015

System: amitriptyline hydrochloride + water; phases: Liquid, Air at 1 atmosphere
Fixed: Temperature, K = 310.15
Property: Surface tension liquid-gas, N/m (Liquid); method: Ring tensiometer
Molality, mol/kg of amitriptyline hydrochloride	Surface tension liquid-gas, N/m	uncertainty
.00398	.0645	
.00632	.05957	
.01007	.05487	
.01641	.04979	
.02143	.04712	
.02489	.04546	
.02904	.04458	
.03228	.04382	
.03908	.04326	
.04207	.04322	
.04699	.04322	
.05035	.04323	
.05248	.04325	
.05623	.04324	
