Measured thermophysical data. Experimental and computational thermochemical study  of the dichloronitrobenzene isomers
Source: J. Chem. Thermodyn., 2009, 10.1016/j.jct.2009.03.001
Compound 1: 2,4-dichloronitrobenzene, C6H3Cl2NO2, purity 97%
Compound 2: 2,5-dichloronitrobenzene, C6H3Cl2NO2, purity 97%
Compound 3: 3,4-dichloro-1-nitrobenzene, C6H3Cl2NO2, purity 97%
Compound 4: 3,5-dichloronitrobenzene, C6H3Cl2NO2, purity 97%
Compound 5: hydrogen chloride, ClH
Compound 6: carbon dioxide, CO2
Compound 7: nitrogen, N2
Compound 8: water, H2O
Compound 9: oxygen, O2

System: 2,4-dichloronitrobenzene; phases: Crystal, Gas
Property: Molar enthalpy of vaporization or sublimation, kJ/mol (Crystal); method: drop microcalorimetry
Temperature, K	Molar enthalpy of vaporization or sublimation, kJ/mol	uncertainty
298.15	87.8	1.7

System: 2,4-dichloronitrobenzene; phases: Gas
Property: Molar enthalpy, kJ/mol (Gas); method: drop microcalorimetry
Temperature, K	Pressure, kPa	Molar enthalpy, kJ/mol	uncertainty
324.2	100	91.9	.3

System: 2,5-dichloronitrobenzene; phases: Crystal, Gas
Property: Molar enthalpy of vaporization or sublimation, kJ/mol (Crystal); method: drop microcalorimetry
Temperature, K	Molar enthalpy of vaporization or sublimation, kJ/mol	uncertainty
298.15	87.4	2.5

System: 2,5-dichloronitrobenzene; phases: Gas
Property: Molar enthalpy, kJ/mol (Gas); method: drop microcalorimetry
Temperature, K	Pressure, kPa	Molar enthalpy, kJ/mol	uncertainty
339.4	100	94	.4

System: 3,4-dichloro-1-nitrobenzene; phases: Crystal, Gas
Property: Molar enthalpy of vaporization or sublimation, kJ/mol (Crystal); method: drop microcalorimetry
Temperature, K	Molar enthalpy of vaporization or sublimation, kJ/mol	uncertainty
298.15	85.8	2.5

System: 3,4-dichloro-1-nitrobenzene; phases: Gas
Property: Molar enthalpy, kJ/mol (Gas); method: drop microcalorimetry
Temperature, K	Pressure, kPa	Molar enthalpy, kJ/mol	uncertainty
339.4	100	92.1	.4

System: 3,5-dichloronitrobenzene; phases: Crystal, Gas
Property: Molar enthalpy of vaporization or sublimation, kJ/mol (Crystal); method: drop microcalorimetry
Temperature, K	Molar enthalpy of vaporization or sublimation, kJ/mol	uncertainty
298.15	83.2	1.5

System: 3,5-dichloronitrobenzene; phases: Gas
Property: Molar enthalpy, kJ/mol (Gas); method: drop microcalorimetry
Temperature, K	Pressure, kPa	Molar enthalpy, kJ/mol	uncertainty
339.9	100	89.9	.2

Reaction: -1 2,4-dichloronitrobenzene + 2 hydrogen chloride + 6 carbon dioxide + 0.5 nitrogen + 0.5 water + -5.25 oxygen
Property: Specific internal energy of reaction at constant volume, J/g
-14545.7

Reaction: -1 2,5-dichloronitrobenzene + 2 hydrogen chloride + 6 carbon dioxide + 0.5 nitrogen + 0.5 water + -5.25 oxygen
Property: Specific internal energy of reaction at constant volume, J/g
-14547

Reaction: -1 3,4-dichloro-1-nitrobenzene + 2 hydrogen chloride + 6 carbon dioxide + 0.5 nitrogen + 0.5 water + -5.25 oxygen
Property: Specific internal energy of reaction at constant volume, J/g
-14448.2

Reaction: -1 3,5-dichloronitrobenzene + 2 hydrogen chloride + 6 carbon dioxide + 0.5 nitrogen + 0.5 water + -5.25 oxygen
Property: Specific internal energy of reaction at constant volume, J/g
-14425
