Measured thermophysical data. Vapour pressures of 1-methyl derivatives of benzimidazole, pyrazole and indole. The energy of the intermolecular hydrogen bond N-H...N
Source: J. Chem. Thermodyn., 2014, 10.1016/j.jct.2014.04.026
Compound 1: 1-methylbenzimidazole, C8H8N2, purity 99.5%
Compound 2: 1-methylpyrazole, C4H6N2, purity 99.5%
Compound 3: 1-methylindole, C9H9N, purity 97.8%

System: 1-methylbenzimidazole; phases: Crystal, Liquid, Air at 1 atmosphere
Property: Normal melting temperature, K (Crystal); method: DSC/DTA
Normal melting temperature, K	uncertainty
329.2	.2

System: 1-methylbenzimidazole; phases: Crystal, Liquid, Air at 1 atmosphere
Property: Molar enthalpy of transition or fusion, kJ/mol (Crystal); method: DSC
Molar enthalpy of transition or fusion, kJ/mol	uncertainty
13.9	.1

System: 1-methylbenzimidazole; phases: Crystal, Gas
Property: Vapor or sublimation pressure, kPa (Crystal); method: Closed cell (Static) method
Temperature, K	Vapor or sublimation pressure, kPa	uncertainty
301.22	.00026	.00000065
303.14	.00033	.000000825
305.14	.00042	.00000105
305.18	.00041	.000001025
307.14	.00051	.000001275
309.11	.00063	.000001575
311.07	.00078	.00000195
313.09	.00097	.000002425
315.1	.00119	.000002975
317.06	.00146	.00000365
319.03	.00178	.00000445
321.02	.00217	.000005425
322.97	.00264	.0000066
325.01	.00324	.0000081
327	.00392	.0000098
328.91	.00473	.000011825

System: 1-methylbenzimidazole; phases: Liquid, Gas
Property: Vapor or sublimation pressure, kPa (Liquid); method: Closed cell (Static) method
Temperature, K	Vapor or sublimation pressure, kPa	uncertainty
303.16	.00051	.000001275
305.2	.00062	.00000155
307.12	.00074	.00000185
309.1	.00089	.000002225
311.09	.00107	.000002675
313.12	.00128	.0000032
315.09	.00153	.000003825
317.04	.00182	.00000455
319.07	.00217	.000005425
321.01	.00255	.000006375
322.99	.00304	.0000076
332.95	.00656	.0000164
334.92	.00759	.000018975
336.91	.0089	.00002225
336.92	.00896	.0000224
338.9	.01031	.000025775
340.86	.01187	.000029675
340.87	.01203	.000030075
342.88	.01375	.000034375
344.83	.01603	.000040075
344.83	.01591	.000039775
346.81	.01835	.000045875
348.79	.02107	.000052675
350.76	.02401	.000060025
352.73	.02767	.000069175
352.73	.02759	.000068975
354.7	.03132	.0000783
356.69	.03607	.000090175
358.67	.04098	.00010245
360.63	.04632	.0001158
362.6	.05225	.000130625
364.59	.05898	.00014745
366.55	.06653	.000166325
368.53	.07509	.000187725
370.5	.08443	.000211075
372.49	.09469	.000236725

System: 1-methylpyrazole; phases: Crystal, Liquid, Air at 1 atmosphere
Property: Normal melting temperature, K (Crystal); method: DSC/DTA
Normal melting temperature, K	uncertainty
229.2	.2

System: 1-methylpyrazole; phases: Crystal, Liquid, Air at 1 atmosphere
Property: Molar enthalpy of transition or fusion, kJ/mol (Crystal); method: DSC
Molar enthalpy of transition or fusion, kJ/mol	uncertainty
11.4	.3

System: 1-methylpyrazole; phases: Liquid, Gas
Property: Vapor or sublimation pressure, kPa (Liquid); method: Closed cell (Static) method
Temperature, K	Vapor or sublimation pressure, kPa	uncertainty
253.9	.0681	.00017025
255.85	.08089	.000202225
257.81	.0948	.000237
260.03	.1138	.0002845
261.7	.1308	.000327
263.65	.1508	.000377
265.63	.1755	.00043875
267.62	.2033	.00050825
269.55	.2358	.0005895
271.5	.2714	.0006785
273.47	.3111	.00077775
275.47	.3597	.00089925
277.42	.4115	.00102875
279.4	.4704	.001176
281.39	.539	.0013475
283.35	.6108	.001527
285.3	.6958	.0017395
287.32	.7878	.0019695
289.32	.893	.0022325
291.27	1.01	.002525
293.27	1.147	.0028675

System: 1-methylindole; phases: Crystal, Liquid, Air at 1 atmosphere
Property: Normal melting temperature, K (Crystal); method: DSC/DTA
Normal melting temperature, K	uncertainty
276.5	.1

System: 1-methylindole; phases: Crystal, Liquid, Air at 1 atmosphere
Property: Molar enthalpy of transition or fusion, kJ/mol (Crystal); method: DSC
Molar enthalpy of transition or fusion, kJ/mol	uncertainty
10.9	.3

System: 1-methylindole; phases: Crystal, Gas
Property: Vapor or sublimation pressure, kPa (Crystal); method: Closed cell (Static) method
Temperature, K	Vapor or sublimation pressure, kPa	uncertainty
267.62	.00033	.000000825
268.6	.00037	.000000925
269.57	.00042	.00000105
270.55	.00048	.0000012
271.57	.00054	.00000135
272.52	.0006	.0000015
273.51	.00068	.0000017
274.5	.00077	.000001925
275.47	.00086	.00000215

System: 1-methylindole; phases: Liquid, Gas
Property: Vapor or sublimation pressure, kPa (Liquid); method: Closed cell (Static) method
Temperature, K	Vapor or sublimation pressure, kPa	uncertainty
268.58	.00043	.000001075
270.56	.00054	.00000135
272.5	.00066	.00000165
274.48	.00081	.000002025
276.45	.00097	.000002425
278.42	.0012	.000003
280.39	.00145	.000003625
282.35	.00176	.0000044
284.36	.00211	.000005275
286.31	.00252	.0000063
288.32	.00302	.00000755
290.27	.00358	.00000895
290.29	.00359	.000008975
292.29	.00431	.000010775
294.24	.00507	.000012675
296.28	.00607	.000015175
298.2	.0071	.00001775
300.25	.00844	.0000211
302.2	.00987	.000024675
304.21	.01167	.000029175
306.16	.01359	.000033975
308.14	.0158	.0000395
310.17	.01854	.00004635
312.14	.02149	.000053725
314.11	.02521	.000063025
316.14	.029	.0000725
318.06	.03354	.00008385
320.05	.03839	.000095975
322.02	.0445	.00011125
324.04	.05044	.0001261
326.02	.05848	.0001462
327.98	.06647	.000166175
329.95	.07637	.000190925
331.91	.08658	.00021645
333.89	.09881	.000247025
335.91	.1114	.0002785
337.89	.1263	.00031575
339.81	.1424	.000356
341.9	.1624	.000406
