Measured thermophysical data. VLE measurements using a static cell vapor phase manual sampling method accompanied with an empirical data consistency test
Source: J. Chem. Thermodyn., 2015, 10.1016/j.jct.2014.08.024
Compound 1: methanol, CH4O, purity 99.8%
Compound 2: water, H2O
Compound 3: acetone, C3H6O, purity 99.5%
Compound 4: 1-butanol, C4H10O, purity 99%

System: methanol + water; phases: Gas, Liquid
Property: Mole fraction of methanol (Gas); method: Chromatography
Temperature, K	Mole fraction of methanol	Mole fraction of methanol	uncertainty
283.2	.029	.188	.00376
283.2	.061	.345	.0069
283.2	.158	.587	.01174
283.2	.36	.773	.01546
283.2	.407	.808	.01616
283.2	.57	.883	.01766
283.2	.628	.891	.01782
283.2	.813	.945	.0189
283.2	.913	.973	.01946
283.2	.914	.962	.01924
283.2	.971	.981	.01962
298.2	.061	.343	.00686
298.2	.188	.623	.01246
298.2	.36	.767	.01534
298.2	.57	.846	.01692
298.2	.806	.93	.0186
308.2	.029	.232	.00464
308.2	.061	.387	.00774
308.2	.158	.585	.0117
308.2	.195	.61	.0122
308.2	.407	.785	.0157
308.2	.57	.84	.0168
308.2	.691	.913	.01826
308.2	.916	.97	.0194
322.9	.061	.346	.00692
322.9	.195	.594	.01188
322.9	.36	.735	.0147
322.9	.407	.757	.01514
322.9	.57	.832	.01664
322.9	.813	.915	.0183

System: acetone + 1-butanol; phases: Gas, Liquid
Property: Mole fraction of acetone (Gas); method: Chromatography
Temperature, K	Mole fraction of acetone	Mole fraction of acetone	uncertainty
283.2	.012	.645	.0129
283.2	.037	.843	.01686
283.2	.087	.921	.01842
283.2	.291	.969	.01938
283.2	.552	.986	.01972
283.2	.826	.997	.01994
295.2	.012	.499	.00998
295.2	.037	.765	.0153
295.2	.087	.868	.01736
295.2	.291	.948	.01896
295.2	.552	.976	.01952
295.2	.826	.991	.01982
308.2	.012	.402	.00804
308.2	.037	.666	.01332
308.2	.087	.818	.01636
308.2	.291	.924	.01848
308.2	.552	.974	.01948
308.2	.826	.988	.01976
324.2	.012	.26	.0052
324.2	.037	.522	.01044
324.2	.087	.707	.01414
324.2	.291	.892	.01784
324.2	.552	.95	.019
324.2	.826	.985	.0197

System: 1-butanol + water; phases: Gas, Liquid
Property: Mole fraction of water (Gas); method: Chromatography
Temperature, K	Mole fraction of water	Mole fraction of water	uncertainty
283.2	.032	.588	.02352
283.2	.052	.609	.02436
283.2	.099	.705	.0282
283.2	.146	.766	.03064
283.2	.181	.78	.0312
283.2	.211	.795	.0318
283.2	.263	.819	.03276
283.2	.322	.832	.03328
283.2	.407	.837	.03348
283.2	.638	.843	.03372
283.2	.942	.843	.03372
283.2	.973	.842	.03368
283.2	.981	.859	.03436
283.2	.987	.887	.03548
283.2	.994	.929	.03716
283.2	.997	.963	.03852
283.2	.999	.991	.03964
298.2	.032	.421	.01684
298.2	.052	.506	.02024
298.2	.099	.659	.02636
298.2	.146	.708	.02832
298.2	.181	.733	.02932
298.2	.211	.755	.0302
298.2	.263	.783	.03132
298.2	.322	.799	.03196
298.2	.407	.816	.03264
298.2	.638	.818	.03272
298.2	.942	.82	.0328
298.2	.973	.82	.0328
298.2	.981	.823	.03292
298.2	.987	.851	.03404
298.2	.994	.9	.036
298.2	.997	.941	.03764
298.2	.999	.978	.03912

System: 1-butanol + water; phases: Gas, Liquid
Property: Mole fraction of water (Gas); method: Chromatography
Temperature, K	Mole fraction of water	Mole fraction of water	uncertainty
313.2	.052	.441	.01764
313.2	.097	.587	.02348
313.2	.148	.672	.02688
313.2	.148	.675	.027
313.2	.181	.708	.02832
313.2	.211	.738	.02952
313.2	.211	.729	.02916
313.2	.267	.758	.03032
313.2	.322	.776	.03104
313.2	.407	.791	.03164
313.2	.51	.794	.03176
313.2	.942	.792	.03168
313.2	.973	.797	.03188
313.2	.981	.798	.03192
313.2	.987	.806	.03224
313.2	.994	.871	.03484
313.2	.997	.915	.0366
313.2	.999	.964	.03856
313.2	.999	.966	.03864
323.2	.052	.445	.0178
323.2	.097	.589	.02356
323.2	.148	.687	.02748
323.2	.181	.71	.0284
323.2	.181	.717	.02868
323.2	.211	.742	.02968
323.2	.267	.772	.03088
323.2	.322	.776	.03104
323.2	.407	.787	.03148
323.2	.51	.795	.0318
323.2	.638	.791	.03164
323.2	.973	.786	.03144
323.2	.981	.788	.03152
323.2	.987	.806	.03224
323.2	.994	.849	.03396
323.2	.997	.903	.03612
323.2	.999	.956	.03824
