Measured thermophysical data. Thermodynamic properties of sublimation of the ortho and meta isomers of acetoxy and acetamido benzoic acids
Source: J. Chem. Thermodyn., 2015, 10.1016/j.jct.2015.02.010
Compound 1: 2-acetoxybenzoic acid, C9H8O4
Compound 2: 3-acetoxybenzoic acid, C9H8O4
Compound 3: 2-acetamidobenzoic acid, C9H9NO3
Compound 4: 3-(acetylamino)benzoic acid, C9H9NO3

System: 2-acetoxybenzoic acid; phases: Crystal, Liquid, Air at 1 atmosphere
Property: Molar enthalpy of transition or fusion, kJ/mol (Crystal); method: DSC
Molar enthalpy of transition or fusion, kJ/mol	uncertainty
33.85	.07

System: 2-acetoxybenzoic acid; phases: Crystal, Liquid, Air at 1 atmosphere
Property: Normal melting temperature, K (Crystal); method: DSC/DTA
Normal melting temperature, K	uncertainty
407.38	.16

System: 2-acetoxybenzoic acid; phases: Crystal, Gas
Property: Vapor or sublimation pressure, kPa (Crystal); method: Knudsen effusion method
Temperature, K	Vapor or sublimation pressure, kPa	uncertainty
341.11	.00012	.00001
343.24	.000158	.00001
345.28	.000203	.00001
347.1	.000238	.00001
349.24	.000305	.00001
351.27	.000387	.00001
353.1	.000471	.00001
355.28	.000643	.00003
357.27	.000796	.00004
359.23	.000966	.00005
361.11	.001165	.00001
341.11	.000119	.00001
343.24	.000147	.00001
345.28	.000194	.00001
347.1	.00023	.00001
349.24	.00029	.00001
351.27	.000378	.00001
353.1	.000478	.00001
355.28	.000599	.00003
357.27	.000744	.00004
359.23	.00089	.00005
361.11	.001165	.00001

System: 3-acetoxybenzoic acid; phases: Crystal, Liquid, Air at 1 atmosphere
Property: Molar enthalpy of transition or fusion, kJ/mol (Crystal); method: DSC
Molar enthalpy of transition or fusion, kJ/mol	uncertainty
26.27	.3

System: 3-acetoxybenzoic acid; phases: Crystal, Liquid, Air at 1 atmosphere
Property: Normal melting temperature, K (Crystal); method: DSC/DTA
Normal melting temperature, K	uncertainty
404.76	.16

System: 3-acetoxybenzoic acid; phases: Crystal, Gas
Property: Vapor or sublimation pressure, kPa (Crystal); method: Knudsen effusion method
Temperature, K	Vapor or sublimation pressure, kPa	uncertainty
344.16	.000129	.00001
346.15	.000163	.00001
348.2	.000205	.00001
350.13	.000257	.00001
353.17	.00037	.00001
356.21	.00051	.00001
358.16	.000652	.00001
362.16	.001004	.00002
344.16	.000123	.00001
346.15	.000157	.00001
348.2	.000198	.00001
350.13	.000251	.00001
353.17	.000355	.00001
356.21	.000497	.00001
358.16	.000631	.00001
360.17	.000813	.00001
362.16	.000967	.00002
344.16	.000124	.00001
346.15	.000158	.00001
348.2	.000199	.00001
350.13	.00025	.00001
353.17	.000357	.00001
356.21	.000499	.00001
358.16	.000631	.00001
360.17	.00081	.00001
362.16	.000966	.00002

System: 2-acetamidobenzoic acid; phases: Crystal, Liquid, Air at 1 atmosphere
Property: Molar enthalpy of transition or fusion, kJ/mol (Crystal); method: DSC
Molar enthalpy of transition or fusion, kJ/mol	uncertainty
29.32	.23

System: 2-acetamidobenzoic acid; phases: Crystal, Liquid, Air at 1 atmosphere
Property: Normal melting temperature, K (Crystal); method: DSC/DTA
Normal melting temperature, K	uncertainty
455.11	.21

System: 2-acetamidobenzoic acid; phases: Crystal, Gas
Property: Vapor or sublimation pressure, kPa (Crystal); method: Knudsen effusion method
Temperature, K	Vapor or sublimation pressure, kPa	uncertainty
367.17	.000083	.00001
369.28	.000106	.00001
373.16	.000163	.00001
377.16	.000258	.00001
379.19	.000308	.00001
381.29	.000378	.00001
383.16	.000438	.00001
385.15	.000574	.00001
387.26	.00078	.00004
389.15	.00084	.00001
367.17	.000083	.00001
369.28	.000109	.00001
373.16	.00016	.00001
375.26	.000207	.00001
377.16	.000248	.00001
379.19	.000305	.00001
381.29	.000385	.00001
385.15	.000577	.00001
387.26	.000697	.00004
389.15	.000829	.00001
367.17	.000083	.00001
369.28	.000108	.00001
371.16	.000128	.00001
375.26	.00021	.00001
377.16	.000255	.00001
379.19	.000303	.00001
381.29	.000373	.00001
385.15	.000561	.00001
387.26	.000711	.00004
389.15	.00084	.00001

System: 3-(acetylamino)benzoic acid; phases: Crystal, Liquid, Air at 1 atmosphere
Property: Molar enthalpy of transition or fusion, kJ/mol (Crystal); method: DSC
Molar enthalpy of transition or fusion, kJ/mol	uncertainty
42.28	.54

System: 3-(acetylamino)benzoic acid; phases: Crystal, Liquid, Air at 1 atmosphere
Property: Normal melting temperature, K (Crystal); method: DSC/DTA
Normal melting temperature, K	uncertainty
522.19	.16

System: 3-(acetylamino)benzoic acid; phases: Crystal, Gas
Property: Vapor or sublimation pressure, kPa (Crystal); method: Knudsen effusion method
Temperature, K	Vapor or sublimation pressure, kPa	uncertainty
425.28	.000193	.00001
427.09	.000219	.00001
429.23	.000283	.00001
431.28	.000341	.00001
433.24	.000419	.00001
435.1	.000496	.00001
437.29	.000621	.00001
439.23	.000744	.00001
441.1	.000907	.00002
423.22	.000156	.00001
425.28	.000189	.00001
427.09	.000223	.00001
429.23	.000279	.00001
431.28	.000336	.00001
433.24	.00041	.00001
435.1	.000495	.00001
437.29	.000619	.00001
439.23	.000751	.00001
441.1	.000886	.00002
