Measured thermophysical data. Volatile caesium-containing compounds of Cs[Y(.beta.-diketonato)4] type: Thermal behaviour in condensed and gas phases
Source: J. Chem. Thermodyn., 2014, 10.1016/j.jct.2013.10.002
Compound 1: cesium tetrakis(1,1,1-trifluoro-5,5-dimethyl-2,4-hexanedionato-O,O')yttrate(1-), C32H40CsF12O8Y
Compound 2: sodium tetrakis(1,1,1-trifluoro-5,5-dimethyl-2,4-hexanedionato-O,O')yttrate(1-), C32H40F12NaO8Y
Compound 3: potassium tetrakis(1,1,1-trifluoro-5,5-dimethyl-2,4-hexanedionato-O,O')yttrate(1-), C32H40F12KO8Y
Compound 4: cesium tetrakis(1,1,1,5,5,5-hexafluoro-2,4-pentanedionato-O,O')yttrate(1-), C20H4CsF24O8Y
Compound 5: cesium tetrakis(1,1,1-trifluoro-2,4-pentanedionato-O,O')yttrate(1-), C20H16CsF12O8Y
Compound 6: cesium tetrakis(4,4,4-trifluoro-1-phenyl-1,3-butanedionato-O,O')yttrate(1-), C40H24CsF12O8Y

System: cesium tetrakis(1,1,1-trifluoro-5,5-dimethyl-2,4-hexanedionato-O,O')yttrate(1-); phases: Crystal, Liquid, Air at 1 atmosphere
Property: Normal melting temperature, K (Crystal); method: DSC/DTA
Normal melting temperature, K	uncertainty
488.5	

System: cesium tetrakis(1,1,1-trifluoro-5,5-dimethyl-2,4-hexanedionato-O,O')yttrate(1-); phases: Crystal, Liquid, Air at 1 atmosphere
Property: Molar enthalpy of transition or fusion, kJ/mol (Crystal); method: DSC/DTA
Molar enthalpy of transition or fusion, kJ/mol	uncertainty
22.8	

System: cesium tetrakis(1,1,1-trifluoro-5,5-dimethyl-2,4-hexanedionato-O,O')yttrate(1-); phases: Crystal, Gas
Property: Vapor or sublimation pressure, kPa (Crystal); method: Transpiration method
Temperature, K	Vapor or sublimation pressure, kPa	uncertainty
433.2	.000987	.00004935
433.2	.000933	.00004665
443	.002533	.00012665
453.2	.005732	.0002866
453.3	.006266	.0003133
463.2	.013732	.0006866
463.2	.014932	.0007466
473.2	.028798	.0014399
473.2	.028664	.0014332
478.3	.043996	.0021998
483.2	.060795	.00303975

System: cesium tetrakis(1,1,1-trifluoro-5,5-dimethyl-2,4-hexanedionato-O,O')yttrate(1-); phases: Crystal, Gas
Property: Vapor or sublimation pressure, kPa (Crystal); method: Knudsen effusion method
Temperature, K	Vapor or sublimation pressure, kPa	uncertainty
374.7	.000002	.0000002
382.2	.000005	.0000005
390.7	.000014	.0000014
392.2	.000017	.0000017
400.2	.000043	.0000043
401.7	.000051	.0000051
411.7	.000155	.0000155
414.7	.000215	.0000215
423.7	.000552	.0000552
425.7	.000676	.0000676
436.7	.002013	.0002013

System: sodium tetrakis(1,1,1-trifluoro-5,5-dimethyl-2,4-hexanedionato-O,O')yttrate(1-); phases: Crystal, Gas
Property: Vapor or sublimation pressure, kPa (Crystal); method: Transpiration method
Temperature, K	Vapor or sublimation pressure, kPa	uncertainty
423	.002773	.00013865
430.2	.00516	.000258
433.2	.006467	.00032335
438.2	.01069	.0005345

System: potassium tetrakis(1,1,1-trifluoro-5,5-dimethyl-2,4-hexanedionato-O,O')yttrate(1-); phases: Crystal, Gas
Property: Vapor or sublimation pressure, kPa (Crystal); method: Transpiration method
Temperature, K	Vapor or sublimation pressure, kPa	uncertainty
425.7	.000437	.00002185
433.2	.000876	.0000438
443.2	.0026	.00013
443.2	.00268	.000134
453.2	.00791	.0003955
453.2	.005616	.0002808
453.2	.00629	.0003145
464.2	.017545	.00087725
464.2	.016519	.00082595
473.2	.03577	.0017885

System: cesium tetrakis(1,1,1,5,5,5-hexafluoro-2,4-pentanedionato-O,O')yttrate(1-); phases: Crystal 2, Crystal 1, Air at 1 atmosphere
Property: Triple point temperature, K (Crystal 2); method: DSC/DTA
Triple point temperature, K	uncertainty
484.7	

System: cesium tetrakis(1,1,1,5,5,5-hexafluoro-2,4-pentanedionato-O,O')yttrate(1-); phases: Crystal 1, Liquid, Air at 1 atmosphere
Property: Normal melting temperature, K (Crystal 1); method: DSC/DTA
Normal melting temperature, K	uncertainty
521.6	5

System: cesium tetrakis(1,1,1,5,5,5-hexafluoro-2,4-pentanedionato-O,O')yttrate(1-); phases: Crystal 2, Crystal 1, Air at 1 atmosphere
Property: Molar enthalpy of transition or fusion, kJ/mol (Crystal 2); method: DSC/DTA
Molar enthalpy of transition or fusion, kJ/mol	uncertainty
14.5	

System: cesium tetrakis(1,1,1,5,5,5-hexafluoro-2,4-pentanedionato-O,O')yttrate(1-); phases: Crystal 2, Gas
Property: Vapor or sublimation pressure, kPa (Crystal 2); method: Transpiration method
Temperature, K	Vapor or sublimation pressure, kPa	uncertainty
423.2	.00012	.000006
433.7	.000413	.00002065
443.2	.001173	.00005865
453.2	.002266	.0001133
453.2	.0024	.00012
463.2	.006266	.0003133
463.2	.007334	.0003667
468.2	.009999	.00049995
468.6	.010266	.0005133
473.2	.013066	.0006533
473.4	.014532	.0007266
481.8	.026531	.00132655

System: cesium tetrakis(1,1,1-trifluoro-2,4-pentanedionato-O,O')yttrate(1-); phases: Crystal 2, Crystal 1, Air at 1 atmosphere
Property: Triple point temperature, K (Crystal 2); method: DSC/DTA
Triple point temperature, K	uncertainty
462.1	

System: cesium tetrakis(1,1,1-trifluoro-2,4-pentanedionato-O,O')yttrate(1-); phases: Crystal 1, Liquid, Air at 1 atmosphere
Property: Normal melting temperature, K (Crystal 1); method: DSC/DTA
Normal melting temperature, K	uncertainty
486.6	

System: cesium tetrakis(1,1,1-trifluoro-2,4-pentanedionato-O,O')yttrate(1-); phases: Crystal 2, Crystal 1, Air at 1 atmosphere
Property: Molar enthalpy of transition or fusion, kJ/mol (Crystal 2); method: DSC/DTA
Molar enthalpy of transition or fusion, kJ/mol	uncertainty
18.4	

System: cesium tetrakis(1,1,1-trifluoro-2,4-pentanedionato-O,O')yttrate(1-); phases: Crystal 1, Liquid, Air at 1 atmosphere
Property: Molar enthalpy of transition or fusion, kJ/mol (Crystal 1); method: DSC/DTA
Molar enthalpy of transition or fusion, kJ/mol	uncertainty
11.6	

System: cesium tetrakis(1,1,1-trifluoro-2,4-pentanedionato-O,O')yttrate(1-); phases: Crystal 1, Gas
Property: Vapor or sublimation pressure, kPa (Crystal 1); method: Transpiration method
Temperature, K	Vapor or sublimation pressure, kPa	uncertainty
462.8	.00116	.000058
463.2	.001227	.00006135
467.7	.001867	.00009335
468.2	.002	.0001
473.2	.00276	.000138
473.2	.002813	.00014065
478.2	.003946	.0001973

System: cesium tetrakis(4,4,4-trifluoro-1-phenyl-1,3-butanedionato-O,O')yttrate(1-); phases: Crystal, Liquid, Air at 1 atmosphere
Property: Normal melting temperature, K (Crystal); method: DSC/DTA
Normal melting temperature, K	uncertainty
482	5

System: cesium tetrakis(4,4,4-trifluoro-1-phenyl-1,3-butanedionato-O,O')yttrate(1-); phases: Crystal, Liquid, Air at 1 atmosphere
Property: Molar enthalpy of transition or fusion, kJ/mol (Crystal); method: DSC/DTA
Molar enthalpy of transition or fusion, kJ/mol	uncertainty
29.6	1

System: cesium tetrakis(4,4,4-trifluoro-1-phenyl-1,3-butanedionato-O,O')yttrate(1-); phases: Crystal, Gas
Property: Vapor or sublimation pressure, kPa (Crystal); method: Knudsen effusion method
Temperature, K	Vapor or sublimation pressure, kPa	uncertainty
451	.000004	.0000004
458.4	.000009	.0000009
467	.000023	.0000023
471.6	.00004	.000004
476	.000059	.0000059
481	.000094	.0000094

System: cesium tetrakis(4,4,4-trifluoro-1-phenyl-1,3-butanedionato-O,O')yttrate(1-); phases: Liquid, Gas
Property: Vapor or sublimation pressure, kPa (Liquid); method: Knudsen effusion method
Temperature, K	Vapor or sublimation pressure, kPa	uncertainty
488.6	.000192	.0000192
496.9	.000397	.0000397
501.5	.000521	.0000521
510	.001066	.0001066
