Measured thermophysical data. .alpha.-Cyclodextrin - Water binary system. New data on dehydration of .alpha.-cyclodextrin hexahydrate
Source: J. Chem. Thermodyn., 2016, 10.1016/j.jct.2016.06.008
Compound 1: .alpha.-cyclodextrin, C36H60O30, purity 98%
Compound 2: water, H2O

System: water + .alpha.-cyclodextrin; phases: Crystal of intercomponent compound 1, Crystal, Liquid, Air at 1 atmosphere
Fixed: Pressure, kPa = 101.325
Property: Eutectic temperature, K (Crystal of intercomponent compound 1); method: DSC/DTA
Eutectic temperature, K	uncertainty
273	

System: water + .alpha.-cyclodextrin; phases: Crystal of intercomponent compound 1, Crystal of intercomponent compound 2, Liquid, Air at 1 atmosphere
Property: Boiling temperature at pressure P, K (Crystal of intercomponent compound 1); method: DSC
Boiling temperature at pressure P, K	uncertainty
351.5	

System: water + .alpha.-cyclodextrin; phases: Liquid, Crystal of intercomponent compound 1
Fixed: Pressure, kPa = 100
Property: Mass fraction of .alpha.-cyclodextrin (Liquid); method: gravimetric method
Temperature, K	Mass fraction of .alpha.-cyclodextrin	uncertainty
305.2	.151	
308.2	.167	
313.2	.205	
318.2	.244	
323.2	.277	
328.2	.32	
333.2	.368	
338.2	.416	
343.2	.442	
348.2	.484	

System: water + .alpha.-cyclodextrin; phases: Liquid, Crystal of intercomponent compound 2
Fixed: Pressure, kPa = 100
Property: Mass fraction of .alpha.-cyclodextrin (Liquid); method: gravimetric method
Temperature, K	Mass fraction of .alpha.-cyclodextrin	uncertainty
353.2	.51	
358.2	.546	
360.2	.554	
363.2	.555	
