Measured thermophysical data. Activity coefficients at infinite dilution of organic solutes in the ionic liquid 1-octyl-3-methylimidazolium hexafluorophosphate using gas liquid chromatography at T = (313.15, 323.15, and 333.15) K
Source: J. Chem. Thermodyn., 2010, 10.1016/j.jct.2009.12.004
Compound 1: 1-octyl-3-methylimidazolium hexafluorophosphate, C12H23F6N2P, purity 98%
Compound 2: pentane, C5H12, purity 98%
Compound 3: n-hexane, C6H14, purity 98%
Compound 4: heptane, C7H16, purity 98%
Compound 5: octane, C8H18, purity 98%
Compound 6: decane, C10H22, purity 98%
Compound 7: n-undecane, C11H24, purity 98%
Compound 8: 1-hexene, C6H12, purity 98%
Compound 9: 1-heptene, C7H14, purity 98%
Compound 10: 1-octene, C8H16, purity 98%
Compound 11: 1-nonene, C9H18, purity 98%
Compound 12: 1-decene, C10H20, purity 98%
Compound 13: 1-pentyne, C5H8, purity 98%
Compound 14: 1-hexyne, C6H10, purity 98%
Compound 15: 1-heptyne, C7H12, purity 98%
Compound 16: 1-octyne, C8H14, purity 98%
Compound 17: cyclopentane, C5H10, purity 98%
Compound 18: cyclohexane, C6H12, purity 98%
Compound 19: cycloheptane, C7H14, purity 98%
Compound 20: cyclooctane, C8H16, purity 98%
Compound 21: methanol, CH4O, purity 98%
Compound 22: ethanol, C2H6O, purity 98%
Compound 23: benzene, C6H6, purity 98%
Compound 24: toluene, C7H8, purity 98%
Compound 25: ethylbenzene, C8H10, purity 98%

System: 1-octyl-3-methylimidazolium hexafluorophosphate; phases: Liquid
Fixed: Pressure, kPa = 101.325
Property: Mass density, kg/m3 (Liquid); method: Vibrating tube method
Temperature, K	Mass density, kg/m3	uncertainty
298.15	1238.51	4.95404

System: pentane + 1-octyl-3-methylimidazolium hexafluorophosphate; phases: Liquid, Gas
Fixed: Mole fraction of pentane = 0
Property: Activity coefficient of pentane (Liquid); method: Chromatography
Temperature, K	Activity coefficient of pentane	uncertainty
313.15	8.2	.328
313.15	8.3	.332
323.15	8.1	.324
323.15	8.1	.324
333.15	7.8	.312
333.15	8	.32

System: n-hexane + 1-octyl-3-methylimidazolium hexafluorophosphate; phases: Liquid, Gas
Fixed: Mole fraction of n-hexane = 0
Property: Activity coefficient of n-hexane (Liquid); method: Chromatography
Temperature, K	Activity coefficient of n-hexane	uncertainty
313.15	10.8	.432
313.15	11	.44
323.15	10.7	.428
323.15	10.6	.424
333.15	10.2	.408
333.15	10.4	.416

System: heptane + 1-octyl-3-methylimidazolium hexafluorophosphate; phases: Liquid, Gas
Fixed: Mole fraction of heptane = 0
Property: Activity coefficient of heptane (Liquid); method: Chromatography
Temperature, K	Activity coefficient of heptane	uncertainty
313.15	14.1	.564
313.15	14.3	.572
323.15	13.6	.544
323.15	13.8	.552
333.15	13.2	.528
333.15	13.2	.528

System: octane + 1-octyl-3-methylimidazolium hexafluorophosphate; phases: Liquid, Gas
Fixed: Mole fraction of octane = 0
Property: Activity coefficient of octane (Liquid); method: Chromatography
Temperature, K	Activity coefficient of octane	uncertainty
313.15	18.3	.732
313.15	17.6	.704
323.15	17.1	.684
323.15	17.9	.716
333.15	17	.68
333.15	16.9	.676

System: decane + 1-octyl-3-methylimidazolium hexafluorophosphate; phases: Liquid, Gas
Fixed: Mole fraction of decane = 0
Property: Activity coefficient of decane (Liquid); method: Chromatography
Temperature, K	Activity coefficient of decane	uncertainty
313.15	31.8	1.272
313.15	31.7	1.268
323.15	30.8	1.232
323.15	30.3	1.212
333.15	28.2	1.128
333.15	29	1.16

System: n-undecane + 1-octyl-3-methylimidazolium hexafluorophosphate; phases: Liquid, Gas
Fixed: Mole fraction of n-undecane = 0
Property: Activity coefficient of n-undecane (Liquid); method: Chromatography
Temperature, K	Activity coefficient of n-undecane	uncertainty
313.15	42.1	1.684
313.15	41.3	1.652
323.15	40.1	1.604
323.15	39.6	1.584
333.15	36.5	1.46
333.15	37	1.48

System: 1-hexene + 1-octyl-3-methylimidazolium hexafluorophosphate; phases: Liquid, Gas
Fixed: Mole fraction of 1-hexene = 0
Property: Activity coefficient of 1-hexene (Liquid); method: Chromatography
Temperature, K	Activity coefficient of 1-hexene	uncertainty
313.15	6.2	.248
313.15	6.5	.26
323.15	6.29	.2516
323.15	6.15	.246
333.15	6.1	.244
333.15	6.15	.246

System: 1-heptene + 1-octyl-3-methylimidazolium hexafluorophosphate; phases: Liquid, Gas
Fixed: Mole fraction of 1-heptene = 0
Property: Activity coefficient of 1-heptene (Liquid); method: Chromatography
Temperature, K	Activity coefficient of 1-heptene	uncertainty
313.15	8.2	.328
313.15	8.2	.328
323.15	8.1	.324
323.15	8.2	.328
333.15	8	.32
333.15	8.1	.324

System: 1-octene + 1-octyl-3-methylimidazolium hexafluorophosphate; phases: Liquid, Gas
Fixed: Mole fraction of 1-octene = 0
Property: Activity coefficient of 1-octene (Liquid); method: Chromatography
Temperature, K	Activity coefficient of 1-octene	uncertainty
313.15	10.8	.432
313.15	10.3	.412
323.15	10.2	.408
323.15	10.7	.428
333.15	10.4	.416
333.15	10.3	.412

System: 1-nonene + 1-octyl-3-methylimidazolium hexafluorophosphate; phases: Liquid, Gas
Fixed: Mole fraction of 1-nonene = 0
Property: Activity coefficient of 1-nonene (Liquid); method: Chromatography
Temperature, K	Activity coefficient of 1-nonene	uncertainty
313.15	14.2	.568
313.15	13.5	.54
323.15	13.3	.532
323.15	13.9	.556
333.15	13.5	.54
333.15	13.3	.532

System: 1-decene + 1-octyl-3-methylimidazolium hexafluorophosphate; phases: Liquid, Gas
Fixed: Mole fraction of 1-decene = 0
Property: Activity coefficient of 1-decene (Liquid); method: Chromatography
Temperature, K	Activity coefficient of 1-decene	uncertainty
313.15	16.3	.652
313.15	16.7	.668
323.15	16.3	.652
323.15	16.5	.66
333.15	16.3	.652
333.15	16.4	.656

System: 1-pentyne + 1-octyl-3-methylimidazolium hexafluorophosphate; phases: Liquid, Gas
Fixed: Mole fraction of 1-pentyne = 0
Property: Activity coefficient of 1-pentyne (Liquid); method: Chromatography
Temperature, K	Activity coefficient of 1-pentyne	uncertainty
313.15	1.7	.068
313.15	1.72	.0688
323.15	1.79	.0716
323.15	1.75	.07
333.15	1.78	.0712
333.15	1.84	.0736

System: 1-hexyne + 1-octyl-3-methylimidazolium hexafluorophosphate; phases: Liquid, Gas
Fixed: Mole fraction of 1-hexyne = 0
Property: Activity coefficient of 1-hexyne (Liquid); method: Chromatography
Temperature, K	Activity coefficient of 1-hexyne	uncertainty
313.15	2.24	.0896
313.15	2.33	.0932
323.15	2.38	.0952
323.15	2.3	.092
333.15	2.34	.0936
333.15	2.43	.0972

System: 1-heptyne + 1-octyl-3-methylimidazolium hexafluorophosphate; phases: Liquid, Gas
Fixed: Mole fraction of 1-heptyne = 0
Property: Activity coefficient of 1-heptyne (Liquid); method: Chromatography
Temperature, K	Activity coefficient of 1-heptyne	uncertainty
313.15	2.81	.1124
313.15	2.93	.1172
323.15	2.98	.1192
323.15	2.87	.1148
333.15	2.93	.1172
333.15	3.04	.1216

System: 1-octyne + 1-octyl-3-methylimidazolium hexafluorophosphate; phases: Liquid, Gas
Fixed: Mole fraction of 1-octyne = 0
Property: Activity coefficient of 1-octyne (Liquid); method: Chromatography
Temperature, K	Activity coefficient of 1-octyne	uncertainty
313.15	3.77	.1508
313.15	3.9	.156
323.15	3.94	.1576
323.15	3.87	.1548
333.15	3.94	.1576
333.15	4.03	.1612

System: cyclopentane + 1-octyl-3-methylimidazolium hexafluorophosphate; phases: Liquid, Gas
Fixed: Mole fraction of cyclopentane = 0
Property: Activity coefficient of cyclopentane (Liquid); method: Chromatography
Temperature, K	Activity coefficient of cyclopentane	uncertainty
313.15	5.02	.2008
313.15	5.06	.2024
323.15	4.95	.198
323.15	4.92	.1968
333.15	4.77	.1908
333.15	4.79	.1916

System: cyclohexane + 1-octyl-3-methylimidazolium hexafluorophosphate; phases: Liquid, Gas
Fixed: Mole fraction of cyclohexane = 0
Property: Activity coefficient of cyclohexane (Liquid); method: Chromatography
Temperature, K	Activity coefficient of cyclohexane	uncertainty
313.15	6.7	.268
313.15	6.82	.2728
323.15	6.61	.2644
323.15	6.56	.2624
333.15	6.29	.2516
333.15	6.3	.252

System: cycloheptane + 1-octyl-3-methylimidazolium hexafluorophosphate; phases: Liquid, Gas
Fixed: Mole fraction of cycloheptane = 0
Property: Activity coefficient of cycloheptane (Liquid); method: Chromatography
Temperature, K	Activity coefficient of cycloheptane	uncertainty
313.15	8.2	.328
313.15	8	.32
323.15	7.74	.3096
323.15	7.97	.3188
333.15	7.63	.3052
333.15	7.75	.31

System: cyclooctane + 1-octyl-3-methylimidazolium hexafluorophosphate; phases: Liquid, Gas
Fixed: Mole fraction of cyclooctane = 0
Property: Activity coefficient of cyclooctane (Liquid); method: Chromatography
Temperature, K	Activity coefficient of cyclooctane	uncertainty
313.15	10.2	.408
313.15	9.9	.396
323.15	9.5	.38
323.15	9.9	.396
333.15	9.4	.376
333.15	9.4	.376

System: methanol + 1-octyl-3-methylimidazolium hexafluorophosphate; phases: Liquid, Gas
Fixed: Mole fraction of methanol = 0
Property: Activity coefficient of methanol (Liquid); method: Chromatography
Temperature, K	Activity coefficient of methanol	uncertainty
313.15	1.77	.0708
313.15	1.85	.074
323.15	1.65	.066
323.15	1.61	.0644
333.15	1.46	.0584
333.15	1.5	.06

System: ethanol + 1-octyl-3-methylimidazolium hexafluorophosphate; phases: Liquid, Gas
Fixed: Mole fraction of ethanol = 0
Property: Activity coefficient of ethanol (Liquid); method: Chromatography
Temperature, K	Activity coefficient of ethanol	uncertainty
313.15	2.22	.0888
313.15	2.32	.0928
323.15	2.05	.082
323.15	2	.08
333.15	1.79	.0716
333.15	1.82	.0728

System: benzene + 1-octyl-3-methylimidazolium hexafluorophosphate; phases: Liquid, Gas
Fixed: Mole fraction of benzene = 0
Property: Activity coefficient of benzene (Liquid); method: Chromatography
Temperature, K	Activity coefficient of benzene	uncertainty
313.15	.96	.0384
313.15	.97	.0388
323.15	.99	.0396
323.15	.99	.0396
333.15	1	.04
333.15	1.03	.0412

System: toluene + 1-octyl-3-methylimidazolium hexafluorophosphate; phases: Liquid, Gas
Fixed: Mole fraction of toluene = 0
Property: Activity coefficient of toluene (Liquid); method: Chromatography
Temperature, K	Activity coefficient of toluene	uncertainty
313.15	1.31	.0524
313.15	1.36	.0544
323.15	1.37	.0548
323.15	1.35	.054
333.15	1.37	.0548
333.15	1.41	.0564

System: ethylbenzene + 1-octyl-3-methylimidazolium hexafluorophosphate; phases: Liquid, Gas
Fixed: Mole fraction of ethylbenzene = 0
Property: Activity coefficient of ethylbenzene (Liquid); method: Chromatography
Temperature, K	Activity coefficient of ethylbenzene	uncertainty
313.15	1.95	.078
313.15	1.95	.078
323.15	1.98	.0792
323.15	1.98	.0792
333.15	1.99	.0796
333.15	2.02	.0808
