Measured thermophysical data. Measurements of activity coefficients at infinite dilution for organic solutes and water in N-hexylisoquinolinium thiocyanate, [HiQuin][SCN] using GLC
Source: J. Chem. Thermodyn., 2013, 10.1016/j.jct.2013.02.004
Compound 1: 2-hexylisoquinolinium thiocyanate, C16H20N2S
Compound 2: n-hexane, C6H14, purity 99%
Compound 3: 3-methylpentane, C6H14, purity 99%
Compound 4: 2,2-dimethylbutane, C6H14, purity 99%
Compound 5: n-heptane, C7H16, purity 99.5%
Compound 6: n-octane, C8H18, purity 99%
Compound 7: 2,2,4-trimethylpentane, C8H18, purity 99%
Compound 8: n-nonane, C9H20, purity 99%
Compound 9: n-decane, C10H22, purity 99%
Compound 10: cyclopentane, C5H10, purity 99%
Compound 11: cyclohexane, C6H12, purity 99%
Compound 12: methylcyclohexane, C7H14, purity 99%
Compound 13: cycloheptane, C7H14, purity 98%
Compound 14: cyclooctane, C8H16, purity 99%
Compound 15: 1-pentene, C5H10, purity 98.5%
Compound 16: 1-hexene, C6H12, purity 99%
Compound 17: cyclohexene, C6H10, purity 99%
Compound 18: 1-heptene, C7H14, purity 99%
Compound 19: 1-octene, C8H16, purity 98%
Compound 20: 1-decene, C10H20, purity 97%
Compound 21: 1-pentyne, C5H8, purity 99%
Compound 22: 1-hexyne, C6H10, purity 97%
Compound 23: 1-heptyne, C7H12, purity 98%
Compound 24: 1-octyne, C8H14, purity 97%
Compound 25: benzene, C6H6, purity 99.8%
Compound 26: toluene, C7H8, purity 99.8%
Compound 27: ethylbenzene, C8H10, purity 99.8%
Compound 28: o-xylene, C8H10, purity 99%
Compound 29: m-xylene, C8H10, purity 99%
Compound 30: p-xylene, C8H10, purity 99%
Compound 31: methanol, CH4O, purity 99.9%
Compound 32: ethanol, C2H6O, purity 99.8%
Compound 33: 1-propanol, C3H8O, purity 99.9%
Compound 34: 1-butanol, C4H10O, purity 99.8%
Compound 35: water, H2O
Compound 36: thiophene, C4H4S, purity 99%
Compound 37: tetrahydrofuran, C4H8O, purity 99.9%
Compound 38: 1,4-dioxane, C4H8O2, purity 99.8%
Compound 39: tert-butyl methyl ether, C5H12O, purity 99.8%
Compound 40: tert-butyl ethyl ether, C6H14O, purity 99%
Compound 41: tert-amyl methyl ether, C6H14O, purity 97%
Compound 42: diethyl ether, C4H10O, purity 99.9%
Compound 43: dipropyl ether, C6H14O, purity 99%
Compound 44: diisopropyl ether, C6H14O, purity 99%
Compound 45: acetone, C3H6O, purity 99.9%
Compound 46: 2-pentanone, C5H10O, purity 99%
Compound 47: 3-pentanone, C5H10O, purity 99%
Compound 48: 2-hexanone, C6H12O, purity 99%
Compound 49: 3-hexanone, C6H12O, purity 99%
Compound 50: acetonitrile, C2H3N, purity 99.9%
Compound 51: pyridine, C5H5N, purity 99.8%
Compound 52: 1-nitropropane, C3H7NO2, purity 98.5%
Compound 53: dibutyl ether, C8H18O, purity 99.3%

System: n-hexane + 2-hexylisoquinolinium thiocyanate; phases: Liquid
Fixed: Pressure, kPa = 101
Fixed: Mole fraction of n-hexane = 0
Property: Activity coefficient of n-hexane (Liquid); method: Chromatography
Temperature, K	Activity coefficient of n-hexane	uncertainty
308.15	46.6	1.398
318.15	40.5	1.215
328.15	35.6	1.068
338.15	31.6	.948
348.15	28.3	.849
358.15	25.4	.762
368.15	23.1	.693

System: 3-methylpentane + 2-hexylisoquinolinium thiocyanate; phases: Liquid
Fixed: Pressure, kPa = 101
Fixed: Mole fraction of 3-methylpentane = 0
Property: Activity coefficient of 3-methylpentane (Liquid); method: Chromatography
Temperature, K	Activity coefficient of 3-methylpentane	uncertainty
308.15	52.3	1.569
318.15	43.4	1.302
328.15	37.8	1.134
338.15	31.9	.957
348.15	27.9	.837
358.15	24.7	.741
368.15	21.5	.645

System: 2,2-dimethylbutane + 2-hexylisoquinolinium thiocyanate; phases: Liquid
Fixed: Pressure, kPa = 101
Fixed: Mole fraction of 2,2-dimethylbutane = 0
Property: Activity coefficient of 2,2-dimethylbutane (Liquid); method: Chromatography
Temperature, K	Activity coefficient of 2,2-dimethylbutane	uncertainty
308.15	91.5	2.745
318.15	72.2	2.166
328.15	57.2	1.716
338.15	45.5	1.365
348.15	37.9	1.137
358.15	31.2	.936
368.15	25.6	.768

System: n-heptane + 2-hexylisoquinolinium thiocyanate; phases: Liquid
Fixed: Pressure, kPa = 101
Fixed: Mole fraction of n-heptane = 0
Property: Activity coefficient of n-heptane (Liquid); method: Chromatography
Temperature, K	Activity coefficient of n-heptane	uncertainty
308.15	53	1.59
318.15	47	1.41
328.15	42.5	1.275
338.15	38	1.14
348.15	35.2	1.056
358.15	32	.96
368.15	29.1	.873

System: n-octane + 2-hexylisoquinolinium thiocyanate; phases: Liquid
Fixed: Pressure, kPa = 101
Fixed: Mole fraction of n-octane = 0
Property: Activity coefficient of n-octane (Liquid); method: Chromatography
Temperature, K	Activity coefficient of n-octane	uncertainty
308.15	64.1	1.923
318.15	58	1.74
328.15	53.3	1.599
338.15	48.3	1.449
348.15	45.7	1.371
358.15	42.1	1.263
368.15	38.6	1.158

System: 2,2,4-trimethylpentane + 2-hexylisoquinolinium thiocyanate; phases: Liquid
Fixed: Pressure, kPa = 101
Fixed: Mole fraction of 2,2,4-trimethylpentane = 0
Property: Activity coefficient of 2,2,4-trimethylpentane (Liquid); method: Chromatography
Temperature, K	Activity coefficient of 2,2,4-trimethylpentane	uncertainty
308.15	96.5	2.895
318.15	79.7	2.391
328.15	68.6	2.058
338.15	57.7	1.731
348.15	50.8	1.524
358.15	44.5	1.335
368.15	39.1	1.173

System: n-nonane + 2-hexylisoquinolinium thiocyanate; phases: Liquid
Fixed: Pressure, kPa = 101
Fixed: Mole fraction of n-nonane = 0
Property: Activity coefficient of n-nonane (Liquid); method: Chromatography
Temperature, K	Activity coefficient of n-nonane	uncertainty
308.15	79.7	2.391
318.15	73.2	2.196
328.15	68.2	2.046
338.15	62.5	1.875
348.15	59	1.77
358.15	54.5	1.635
368.15	51.3	1.539

System: n-decane + 2-hexylisoquinolinium thiocyanate; phases: Liquid
Fixed: Pressure, kPa = 101
Fixed: Mole fraction of n-decane = 0
Property: Activity coefficient of n-decane (Liquid); method: Chromatography
Temperature, K	Activity coefficient of n-decane	uncertainty
308.15	105	3.15
318.15	96.7	2.901
328.15	90.4	2.712
338.15	84.1	2.523
348.15	78.4	2.352
358.15	73.4	2.202
368.15	68.1	2.043

System: cyclopentane + 2-hexylisoquinolinium thiocyanate; phases: Liquid
Fixed: Pressure, kPa = 101
Fixed: Mole fraction of cyclopentane = 0
Property: Activity coefficient of cyclopentane (Liquid); method: Chromatography
Temperature, K	Activity coefficient of cyclopentane	uncertainty
308.15	14.7	.441
318.15	13.4	.402
328.15	12.3	.369
338.15	11.5	.345
348.15	10.8	.324
358.15	10.2	.306
368.15	9.6	.288

System: cyclohexane + 2-hexylisoquinolinium thiocyanate; phases: Liquid
Fixed: Pressure, kPa = 101
Fixed: Mole fraction of cyclohexane = 0
Property: Activity coefficient of cyclohexane (Liquid); method: Chromatography
Temperature, K	Activity coefficient of cyclohexane	uncertainty
308.15	15.4	.462
318.15	14.2	.426
328.15	13.3	.399
338.15	12.4	.372
348.15	11.6	.348
358.15	10.8	.324
368.15	10.2	.306

System: methylcyclohexane + 2-hexylisoquinolinium thiocyanate; phases: Liquid
Fixed: Pressure, kPa = 101
Fixed: Mole fraction of methylcyclohexane = 0
Property: Activity coefficient of methylcyclohexane (Liquid); method: Chromatography
Temperature, K	Activity coefficient of methylcyclohexane	uncertainty
308.15	24.2	.726
318.15	21.5	.645
328.15	19.8	.594
338.15	17.7	.531
348.15	16.4	.492
358.15	15.2	.456
368.15	14	.42

System: cycloheptane + 2-hexylisoquinolinium thiocyanate; phases: Liquid
Fixed: Pressure, kPa = 101
Fixed: Mole fraction of cycloheptane = 0
Property: Activity coefficient of cycloheptane (Liquid); method: Chromatography
Temperature, K	Activity coefficient of cycloheptane	uncertainty
308.15	17	.51
318.15	15.8	.474
328.15	14.5	.435
338.15	13.4	.402
348.15	12.6	.378
358.15	11.9	.357
368.15	11.3	.339

System: cyclooctane + 2-hexylisoquinolinium thiocyanate; phases: Liquid
Fixed: Pressure, kPa = 101
Fixed: Mole fraction of cyclooctane = 0
Property: Activity coefficient of cyclooctane (Liquid); method: Chromatography
Temperature, K	Activity coefficient of cyclooctane	uncertainty
308.15	18.8	.564
318.15	17.5	.525
328.15	16.5	.495
338.15	15.4	.462
348.15	14.5	.435
358.15	13.7	.411
368.15	12.9	.387

System: 1-pentene + 2-hexylisoquinolinium thiocyanate; phases: Liquid
Fixed: Pressure, kPa = 101
Fixed: Mole fraction of 1-pentene = 0
Property: Activity coefficient of 1-pentene (Liquid); method: Chromatography
Temperature, K	Activity coefficient of 1-pentene	uncertainty
308.15	18.4	.552
318.15	16.2	.486
328.15	14.5	.435
338.15	12.9	.387
348.15	11.7	.351
358.15	10.7	.321
368.15	9.6	.288

System: 1-hexene + 2-hexylisoquinolinium thiocyanate; phases: Liquid
Fixed: Pressure, kPa = 101
Fixed: Mole fraction of 1-hexene = 0
Property: Activity coefficient of 1-hexene (Liquid); method: Chromatography
Temperature, K	Activity coefficient of 1-hexene	uncertainty
308.15	20.2	.606
318.15	18.2	.546
328.15	16.9	.507
338.15	15.4	.462
348.15	14.4	.432
358.15	13.3	.399
368.15	12.3	.369

System: cyclohexene + 2-hexylisoquinolinium thiocyanate; phases: Liquid
Fixed: Pressure, kPa = 101
Fixed: Mole fraction of cyclohexene = 0
Property: Activity coefficient of cyclohexene (Liquid); method: Chromatography
Temperature, K	Activity coefficient of cyclohexene	uncertainty
308.15	7.2	.216
318.15	6.9	.207
328.15	6.6	.198
338.15	6.2	.186
348.15	5.9	.177
358.15	5.7	.171
368.15	5.5	.165

System: 1-heptene + 2-hexylisoquinolinium thiocyanate; phases: Liquid
Fixed: Pressure, kPa = 101
Fixed: Mole fraction of 1-heptene = 0
Property: Activity coefficient of 1-heptene (Liquid); method: Chromatography
Temperature, K	Activity coefficient of 1-heptene	uncertainty
308.15	23.5	.705
318.15	22	.66
328.15	20.9	.627
338.15	19.5	.585
348.15	18.7	.561
358.15	17.7	.531
368.15	16.9	.507

System: 1-octene + 2-hexylisoquinolinium thiocyanate; phases: Liquid
Fixed: Pressure, kPa = 101
Fixed: Mole fraction of 1-octene = 0
Property: Activity coefficient of 1-octene (Liquid); method: Chromatography
Temperature, K	Activity coefficient of 1-octene	uncertainty
308.15	30.2	.906
318.15	28.5	.855
328.15	27.1	.813
338.15	25.6	.768
348.15	24.4	.732
358.15	23.2	.696
368.15	22.2	.666

System: 1-decene + 2-hexylisoquinolinium thiocyanate; phases: Liquid
Fixed: Pressure, kPa = 101
Fixed: Mole fraction of 1-decene = 0
Property: Activity coefficient of 1-decene (Liquid); method: Chromatography
Temperature, K	Activity coefficient of 1-decene	uncertainty
308.15	50.6	1.518
318.15	48.1	1.443
328.15	46.3	1.389
338.15	44.2	1.326
348.15	42.5	1.275
358.15	40.5	1.215
368.15	39.1	1.173

System: 1-pentyne + 2-hexylisoquinolinium thiocyanate; phases: Liquid
Fixed: Pressure, kPa = 101
Fixed: Mole fraction of 1-pentyne = 0
Property: Activity coefficient of 1-pentyne (Liquid); method: Chromatography
Temperature, K	Activity coefficient of 1-pentyne	uncertainty
308.15	2.79	.0837
318.15	2.85	.0855
328.15	2.91	.0873
338.15	2.97	.0891
348.15	3.03	.0909
358.15	3.07	.0921
368.15	3.14	.0942

System: 1-hexyne + 2-hexylisoquinolinium thiocyanate; phases: Liquid
Fixed: Pressure, kPa = 101
Fixed: Mole fraction of 1-hexyne = 0
Property: Activity coefficient of 1-hexyne (Liquid); method: Chromatography
Temperature, K	Activity coefficient of 1-hexyne	uncertainty
308.15	3.57	.1071
318.15	3.64	.1092
328.15	3.71	.1113
338.15	3.78	.1134
348.15	3.83	.1149
358.15	3.9	.117
368.15	3.96	.1188

System: 1-heptyne + 2-hexylisoquinolinium thiocyanate; phases: Liquid
Fixed: Pressure, kPa = 101
Fixed: Mole fraction of 1-heptyne = 0
Property: Activity coefficient of 1-heptyne (Liquid); method: Chromatography
Temperature, K	Activity coefficient of 1-heptyne	uncertainty
308.15	4.77	.1431
318.15	4.85	.1455
328.15	4.93	.1479
338.15	5.02	.1506
348.15	5.09	.1527
358.15	5.16	.1548
368.15	5.21	.1563

System: 1-octyne + 2-hexylisoquinolinium thiocyanate; phases: Liquid
Fixed: Pressure, kPa = 101
Fixed: Mole fraction of 1-octyne = 0
Property: Activity coefficient of 1-octyne (Liquid); method: Chromatography
Temperature, K	Activity coefficient of 1-octyne	uncertainty
308.15	6.31	.1893
318.15	6.43	.1929
328.15	6.52	.1956
338.15	6.64	.1992
348.15	6.71	.2013
358.15	6.8	.204
368.15	6.87	.2061

System: benzene + 2-hexylisoquinolinium thiocyanate; phases: Liquid
Fixed: Pressure, kPa = 101
Fixed: Mole fraction of benzene = 0
Property: Activity coefficient of benzene (Liquid); method: Chromatography
Temperature, K	Activity coefficient of benzene	uncertainty
328.15	1.47	.0441
338.15	1.48	.0444
348.15	1.48	.0444
358.15	1.48	.0444
368.15	1.49	.0447

System: toluene + 2-hexylisoquinolinium thiocyanate; phases: Liquid
Fixed: Pressure, kPa = 101
Fixed: Mole fraction of toluene = 0
Property: Activity coefficient of toluene (Liquid); method: Chromatography
Temperature, K	Activity coefficient of toluene	uncertainty
328.15	2.05	.0615
338.15	2.07	.0621
348.15	2.08	.0624
358.15	2.1	.063
368.15	2.11	.0633

System: ethylbenzene + 2-hexylisoquinolinium thiocyanate; phases: Liquid
Fixed: Pressure, kPa = 101
Fixed: Mole fraction of ethylbenzene = 0
Property: Activity coefficient of ethylbenzene (Liquid); method: Chromatography
Temperature, K	Activity coefficient of ethylbenzene	uncertainty
328.15	3.08	.0924
338.15	3.07	.0921
348.15	3.07	.0921
358.15	3.06	.0918
368.15	3.05	.0915

System: o-xylene + 2-hexylisoquinolinium thiocyanate; phases: Liquid
Fixed: Pressure, kPa = 101
Fixed: Mole fraction of o-xylene = 0
Property: Activity coefficient of o-xylene (Liquid); method: Chromatography
Temperature, K	Activity coefficient of o-xylene	uncertainty
328.15	2.35	.0705
338.15	2.37	.0711
348.15	2.41	.0723
358.15	2.43	.0729
368.15	2.45	.0735

System: m-xylene + 2-hexylisoquinolinium thiocyanate; phases: Liquid
Fixed: Pressure, kPa = 101
Fixed: Mole fraction of m-xylene = 0
Property: Activity coefficient of m-xylene (Liquid); method: Chromatography
Temperature, K	Activity coefficient of m-xylene	uncertainty
328.15	2.9	.087
338.15	2.93	.0879
348.15	2.96	.0888
358.15	2.98	.0894
368.15	3.01	.0903

System: p-xylene + 2-hexylisoquinolinium thiocyanate; phases: Liquid
Fixed: Pressure, kPa = 101
Fixed: Mole fraction of p-xylene = 0
Property: Activity coefficient of p-xylene (Liquid); method: Chromatography
Temperature, K	Activity coefficient of p-xylene	uncertainty
328.15	2.82	.0846
338.15	2.85	.0855
348.15	2.88	.0864
358.15	2.9	.087
368.15	2.94	.0882

System: methanol + 2-hexylisoquinolinium thiocyanate; phases: Liquid
Fixed: Pressure, kPa = 101
Fixed: Mole fraction of methanol = 0
Property: Activity coefficient of methanol (Liquid); method: Chromatography
Temperature, K	Activity coefficient of methanol	uncertainty
328.15	.381	.01143
338.15	.378	.01134
348.15	.375	.01125
358.15	.376	.01128
368.15	.37	.0111

System: ethanol + 2-hexylisoquinolinium thiocyanate; phases: Liquid
Fixed: Pressure, kPa = 101
Fixed: Mole fraction of ethanol = 0
Property: Activity coefficient of ethanol (Liquid); method: Chromatography
Temperature, K	Activity coefficient of ethanol	uncertainty
328.15	.6	.018
338.15	.59	.0177
348.15	.581	.01743
358.15	.574	.01722
368.15	.566	.01698

System: 1-propanol + 2-hexylisoquinolinium thiocyanate; phases: Liquid
Fixed: Pressure, kPa = 101
Fixed: Mole fraction of 1-propanol = 0
Property: Activity coefficient of 1-propanol (Liquid); method: Chromatography
Temperature, K	Activity coefficient of 1-propanol	uncertainty
328.15	.693	.02079
338.15	.681	.02043
348.15	.671	.02013
358.15	.664	.01992
368.15	.653	.01959

System: 1-butanol + 2-hexylisoquinolinium thiocyanate; phases: Liquid
Fixed: Pressure, kPa = 101
Fixed: Mole fraction of 1-butanol = 0
Property: Activity coefficient of 1-butanol (Liquid); method: Chromatography
Temperature, K	Activity coefficient of 1-butanol	uncertainty
328.15	.846	.02538
338.15	.829	.02487
348.15	.812	.02436
358.15	.802	.02406
368.15	.788	.02364

System: water + 2-hexylisoquinolinium thiocyanate; phases: Liquid
Fixed: Pressure, kPa = 101
Fixed: Mole fraction of water = 0
Property: Activity coefficient of water (Liquid); method: Chromatography
Temperature, K	Activity coefficient of water	uncertainty
328.15	.401	.01203
338.15	.406	.01218
348.15	.41	.0123
358.15	.399	.01197
368.15	.418	.01254

System: thiophene + 2-hexylisoquinolinium thiocyanate; phases: Liquid
Fixed: Pressure, kPa = 101
Fixed: Mole fraction of thiophene = 0
Property: Activity coefficient of thiophene (Liquid); method: Chromatography
Temperature, K	Activity coefficient of thiophene	uncertainty
328.15	.921	.02763
338.15	.943	.02829
348.15	.963	.02889
358.15	.98	.0294
368.15	.998	.02994

System: tetrahydrofuran + 2-hexylisoquinolinium thiocyanate; phases: Liquid
Fixed: Pressure, kPa = 101
Fixed: Mole fraction of tetrahydrofuran = 0
Property: Activity coefficient of tetrahydrofuran (Liquid); method: Chromatography
Temperature, K	Activity coefficient of tetrahydrofuran	uncertainty
328.15	1.46	.0438
338.15	1.47	.0441
348.15	1.48	.0444
358.15	1.48	.0444
368.15	1.5	.045

System: 1,4-dioxane + 2-hexylisoquinolinium thiocyanate; phases: Liquid
Fixed: Pressure, kPa = 101
Fixed: Mole fraction of 1,4-dioxane = 0
Property: Activity coefficient of 1,4-dioxane (Liquid); method: Chromatography
Temperature, K	Activity coefficient of 1,4-dioxane	uncertainty
328.15	1.23	.0369
338.15	1.25	.0375
348.15	1.27	.0381
358.15	1.28	.0384
368.15	1.31	.0393

System: tert-butyl methyl ether + 2-hexylisoquinolinium thiocyanate; phases: Liquid
Fixed: Pressure, kPa = 101
Fixed: Mole fraction of tert-butyl methyl ether = 0
Property: Activity coefficient of tert-butyl methyl ether (Liquid); method: Chromatography
Temperature, K	Activity coefficient of tert-butyl methyl ether	uncertainty
308.15	8.61	.2583
318.15	8.13	.2439
328.15	7.65	.2295
338.15	7.18	.2154
348.15	6.99	.2097
358.15	6.61	.1983
368.15	6.28	.1884

System: tert-butyl ethyl ether + 2-hexylisoquinolinium thiocyanate; phases: Liquid
Fixed: Pressure, kPa = 101
Fixed: Mole fraction of tert-butyl ethyl ether = 0
Property: Activity coefficient of tert-butyl ethyl ether (Liquid); method: Chromatography
Temperature, K	Activity coefficient of tert-butyl ethyl ether	uncertainty
308.15	20.6	.618
318.15	18.6	.558
328.15	17.2	.516
338.15	15.7	.471
348.15	14.7	.441
358.15	13.8	.414
368.15	12.8	.384

System: tert-amyl methyl ether + 2-hexylisoquinolinium thiocyanate; phases: Liquid
Fixed: Pressure, kPa = 101
Fixed: Mole fraction of tert-amyl methyl ether = 0
Property: Activity coefficient of tert-amyl methyl ether (Liquid); method: Chromatography
Temperature, K	Activity coefficient of tert-amyl methyl ether	uncertainty
308.15	9.8	.294
318.15	9.34	.2802
328.15	9.01	.2703
338.15	8.58	.2574
348.15	8.36	.2508
358.15	8.13	.2439
368.15	7.85	.2355

System: diethyl ether + 2-hexylisoquinolinium thiocyanate; phases: Liquid
Fixed: Pressure, kPa = 101
Fixed: Mole fraction of diethyl ether = 0
Property: Activity coefficient of diethyl ether (Liquid); method: Chromatography
Temperature, K	Activity coefficient of diethyl ether	uncertainty
308.15	7.48	.2244
318.15	7.07	.2121
328.15	6.69	.2007
338.15	6.34	.1902
348.15	6.15	.1845
358.15	5.91	.1773
368.15	5.66	.1698

System: dipropyl ether + 2-hexylisoquinolinium thiocyanate; phases: Liquid
Fixed: Pressure, kPa = 101
Fixed: Mole fraction of dipropyl ether = 0
Property: Activity coefficient of dipropyl ether (Liquid); method: Chromatography
Temperature, K	Activity coefficient of dipropyl ether	uncertainty
308.15	15.9	.477
318.15	14.9	.447
328.15	14.2	.426
338.15	13.2	.396
348.15	12.6	.378
358.15	11.9	.357
368.15	11.3	.339

System: diisopropyl ether + 2-hexylisoquinolinium thiocyanate; phases: Liquid
Fixed: Pressure, kPa = 101
Fixed: Mole fraction of diisopropyl ether = 0
Property: Activity coefficient of diisopropyl ether (Liquid); method: Chromatography
Temperature, K	Activity coefficient of diisopropyl ether	uncertainty
308.15	23.7	.711
318.15	21.2	.636
328.15	20.5	.615
338.15	17.6	.528
348.15	16.5	.495
358.15	15.7	.471
368.15	14.1	.423

System: dibutyl ether + 2-hexylisoquinolinium thiocyanate; phases: Liquid
Fixed: Pressure, kPa = 101
Fixed: Mole fraction of dibutyl ether = 0
Property: Activity coefficient of dibutyl ether (Liquid); method: Chromatography
Temperature, K	Activity coefficient of dibutyl ether	uncertainty
308.15	27.8	.834
318.15	25.9	.777
328.15	24.4	.732
338.15	23.1	.693
348.15	21.8	.654
358.15	20.8	.624
368.15	19.6	.588

System: acetone + 2-hexylisoquinolinium thiocyanate; phases: Liquid
Fixed: Pressure, kPa = 101
Fixed: Mole fraction of acetone = 0
Property: Activity coefficient of acetone (Liquid); method: Chromatography
Temperature, K	Activity coefficient of acetone	uncertainty
328.15	1.33	.0399
338.15	1.31	.0393
348.15	1.3	.039
358.15	1.3	.039
368.15	1.28	.0384

System: 2-pentanone + 2-hexylisoquinolinium thiocyanate; phases: Liquid
Fixed: Pressure, kPa = 101
Fixed: Mole fraction of 2-pentanone = 0
Property: Activity coefficient of 2-pentanone (Liquid); method: Chromatography
Temperature, K	Activity coefficient of 2-pentanone	uncertainty
328.15	2.1	.063
338.15	2.11	.0633
348.15	2.12	.0636
358.15	2.12	.0636
368.15	2.13	.0639

System: 3-pentanone + 2-hexylisoquinolinium thiocyanate; phases: Liquid
Fixed: Pressure, kPa = 101
Fixed: Mole fraction of 3-pentanone = 0
Property: Activity coefficient of 3-pentanone (Liquid); method: Chromatography
Temperature, K	Activity coefficient of 3-pentanone	uncertainty
328.15	2.1	.063
338.15	2.11	.0633
348.15	2.13	.0639
358.15	2.15	.0645
368.15	2.15	.0645

System: 2-hexanone + 2-hexylisoquinolinium thiocyanate; phases: Liquid
Fixed: Pressure, kPa = 101
Fixed: Mole fraction of 2-hexanone = 0
Property: Activity coefficient of 2-hexanone (Liquid); method: Chromatography
Temperature, K	Activity coefficient of 2-hexanone	uncertainty
328.15	2.62	.0786
338.15	2.63	.0789
348.15	2.64	.0792
358.15	2.65	.0795
368.15	2.65	.0795

System: 3-hexanone + 2-hexylisoquinolinium thiocyanate; phases: Liquid
Fixed: Pressure, kPa = 101
Fixed: Mole fraction of 3-hexanone = 0
Property: Activity coefficient of 3-hexanone (Liquid); method: Chromatography
Temperature, K	Activity coefficient of 3-hexanone	uncertainty
328.15	2.86	.0858
338.15	2.88	.0864
348.15	2.89	.0867
358.15	2.9	.087
368.15	2.91	.0873

System: acetonitrile + 2-hexylisoquinolinium thiocyanate; phases: Liquid
Fixed: Pressure, kPa = 101
Fixed: Mole fraction of acetonitrile = 0
Property: Activity coefficient of acetonitrile (Liquid); method: Chromatography
Temperature, K	Activity coefficient of acetonitrile	uncertainty
328.15	1.02	.0306
338.15	1.01	.0303
348.15	1	.03
358.15	.994	.02982
368.15	.982	.02946

System: pyridine + 2-hexylisoquinolinium thiocyanate; phases: Liquid
Fixed: Pressure, kPa = 101
Fixed: Mole fraction of pyridine = 0
Property: Activity coefficient of pyridine (Liquid); method: Chromatography
Temperature, K	Activity coefficient of pyridine	uncertainty
328.15	.703	.02109
338.15	.713	.02139
348.15	.722	.02166
358.15	.729	.02187
368.15	.745	.02235

System: 1-nitropropane + 2-hexylisoquinolinium thiocyanate; phases: Liquid
Fixed: Pressure, kPa = 101
Fixed: Mole fraction of 1-nitropropane = 0
Property: Activity coefficient of 1-nitropropane (Liquid); method: Chromatography
Temperature, K	Activity coefficient of 1-nitropropane	uncertainty
328.15	1.39	.0417
338.15	1.38	.0414
348.15	1.37	.0411
358.15	1.37	.0411
368.15	1.35	.0405
