Measured thermophysical data. Ultrasonic speeds and isentropic compressibilities of {difurylmethane + (C1 C6)  n-alkanol} binary mixtures at T = 298.15 K
Source: J. Chem. Thermodyn., 2010, 10.1016/j.jct.2010.05.016
Compound 1: 2,2'-methylenebisfuran, C9H8O2, purity 98%
Compound 2: methanol, CH4O, purity 99%
Compound 3: ethanol, C2H6O, purity 99%
Compound 4: propan-1-ol, C3H8O, purity 99%
Compound 5: butan-1-ol, C4H10O, purity 99%
Compound 6: pentan-1-ol, C5H12O, purity 99%
Compound 7: pentylcarbinol, C6H14O, purity 99%

System: 2,2'-methylenebisfuran; phases: Liquid
Property: Mass density, kg/m3 (Liquid); method: Vibrating tube method
Temperature, K	Pressure, kPa	Mass density, kg/m3	uncertainty
298.15	101	1090.91	.1

System: 2,2'-methylenebisfuran; phases: Liquid
Property: Speed of sound, m/s (Liquid); method: Linear variable-path acoustic interferometer
Temperature, K	Pressure, kPa	Speed of sound, m/s	uncertainty
298.15	101	1369	4.107

System: methanol; phases: Liquid
Property: Mass density, kg/m3 (Liquid); method: Vibrating tube method
Temperature, K	Pressure, kPa	Mass density, kg/m3	uncertainty
298.15	101	786.51	.1

System: methanol; phases: Liquid
Property: Speed of sound, m/s (Liquid); method: Linear variable-path acoustic interferometer
Temperature, K	Pressure, kPa	Speed of sound, m/s	uncertainty
298.15	101	1104.6	3.3138

System: ethanol; phases: Liquid
Property: Mass density, kg/m3 (Liquid); method: Vibrating tube method
Temperature, K	Pressure, kPa	Mass density, kg/m3	uncertainty
298.15	101	785.06	.1

System: ethanol; phases: Liquid
Property: Speed of sound, m/s (Liquid); method: Linear variable-path acoustic interferometer
Temperature, K	Pressure, kPa	Speed of sound, m/s	uncertainty
298.15	101	1141.8	3.4254

System: propan-1-ol; phases: Liquid
Property: Mass density, kg/m3 (Liquid); method: Vibrating tube method
Temperature, K	Pressure, kPa	Mass density, kg/m3	uncertainty
298.15	101	799.54	.1

System: propan-1-ol; phases: Liquid
Property: Speed of sound, m/s (Liquid); method: Linear variable-path acoustic interferometer
Temperature, K	Pressure, kPa	Speed of sound, m/s	uncertainty
298.15	101	1205.8	3.6174

System: butan-1-ol; phases: Liquid
Property: Mass density, kg/m3 (Liquid); method: Vibrating tube method
Temperature, K	Pressure, kPa	Mass density, kg/m3	uncertainty
298.15	101	805.75	.1

System: butan-1-ol; phases: Liquid
Property: Speed of sound, m/s (Liquid); method: Linear variable-path acoustic interferometer
Temperature, K	Pressure, kPa	Speed of sound, m/s	uncertainty
298.15	101	1241.3	3.7239

System: pentan-1-ol; phases: Liquid
Property: Mass density, kg/m3 (Liquid); method: Vibrating tube method
Temperature, K	Pressure, kPa	Mass density, kg/m3	uncertainty
298.15	101	810.88	.1

System: pentan-1-ol; phases: Liquid
Property: Speed of sound, m/s (Liquid); method: Linear variable-path acoustic interferometer
Temperature, K	Pressure, kPa	Speed of sound, m/s	uncertainty
298.15	101	1281.2	3.8436

System: pentylcarbinol; phases: Liquid
Property: Mass density, kg/m3 (Liquid); method: Vibrating tube method
Temperature, K	Pressure, kPa	Mass density, kg/m3	uncertainty
298.15	101	815.18	.1

System: pentylcarbinol; phases: Liquid
Property: Speed of sound, m/s (Liquid); method: Linear variable-path acoustic interferometer
Temperature, K	Pressure, kPa	Speed of sound, m/s	uncertainty
298.15	101	1312.4	3.9372

System: methanol + 2,2'-methylenebisfuran; phases: Liquid
Fixed: Temperature, K = 298.15
Fixed: Pressure, kPa = 101
Property: Mass density, kg/m3 (Liquid); method: Vibrating tube method
Mole fraction of 2,2'-methylenebisfuran	Mass density, kg/m3	uncertainty
0	786.51	.1
.01492	802.15	.1
.04083	826.79	.1
.05799	841.55	.1
.08275	860.92	.1
.1515	905.29	.1
.20914	934.57	.1
.25286	953.28	.1
.33875	983.59	.1
.39661	1000.31	.1
.45178	1014.1	.1
.54121	1032.92	.1
.68394	1056.44	.1
.7975	1071.16	.1
.92042	1084.6	.1
1	1090.91	.1

System: methanol + 2,2'-methylenebisfuran; phases: Liquid
Fixed: Temperature, K = 298.15
Fixed: Pressure, kPa = 101
Property: Speed of sound, m/s (Liquid); method: Linear variable-path acoustic interferometer
Mole fraction of 2,2'-methylenebisfuran	Speed of sound, m/s	uncertainty
0	1104.6	3.3138
.01492	1117.7	3.3531
.04083	1135.4	3.4062
.05799	1148.6	3.4458
.08275	1164.6	3.4938
.1515	1199.2	3.5976
.20914	1223.6	3.6708
.25286	1236.4	3.7092
.33875	1258.4	3.7752
.39661	1270.4	3.8112
.45178	1279.2	3.8376
.54121	1295.8	3.8874
.68394	1322.8	3.9684
.7975	1340.8	4.0224
.92042	1359.6	4.0788
1	1369	4.107

System: ethanol + 2,2'-methylenebisfuran; phases: Liquid
Fixed: Temperature, K = 298.15
Fixed: Pressure, kPa = 101
Property: Mass density, kg/m3 (Liquid); method: Vibrating tube method
Mole fraction of 2,2'-methylenebisfuran	Mass density, kg/m3	uncertainty
0	785.06	.1
.0014	786.13	.1
.00584	789.46	.1
.02672	804.55	.1
.03979	813.52	.1
.09801	849.63	.1
.20242	900.2	.1
.25233	923.21	.1
.34274	956.12	.1
.39443	972.48	.1
.45993	991.1	.1
.50979	1003.93	.1
.56775	1017.59	.1
.6249	1029.92	.1
.72165	1046.32	.1
.75764	1054.93	.1
.7983	1061.71	.1
.85132	1070.4	.1
.93605	1082.18	.1
1	1090.91	.1

System: ethanol + 2,2'-methylenebisfuran; phases: Liquid
Fixed: Temperature, K = 298.15
Fixed: Pressure, kPa = 101
Property: Speed of sound, m/s (Liquid); method: Linear variable-path acoustic interferometer
Mole fraction of 2,2'-methylenebisfuran	Speed of sound, m/s	uncertainty
0	1141.8	3.4254
.0014	1146.8	3.4404
.00584	1148.6	3.4458
.02672	1160.4	3.4812
.03979	1165	3.495
.09801	1187.8	3.5634
.20242	1226.5	3.6795
.25233	1244.2	3.7326
.34274	1276	3.828
.39443	1294.8	3.8844
.45993	1320	3.96
.50979	1334.1	4.0023
.56775	1340.8	4.0224
.6249	1349	4.047
.72165	1350.2	4.0506
.75764	1353	4.059
.7983	1357	4.071
.85132	1360	4.08
.93605	1359	4.077
1	1369	4.107

System: propan-1-ol + 2,2'-methylenebisfuran; phases: Liquid
Fixed: Temperature, K = 298.15
Fixed: Pressure, kPa = 101
Property: Mass density, kg/m3 (Liquid); method: Vibrating tube method
Mole fraction of 2,2'-methylenebisfuran	Mass density, kg/m3	uncertainty
0	799.54	.1
.02411	812.31	.1
.04315	822.03	.1
.05818	829.48	.1
.1078	852.82	.1
.14595	869.56	.1
.19951	891.51	.1
.30015	928.42	.1
.39724	959.43	.1
.44913	974.44	.1
.61445	1016.39	.1
.65117	1024.71	.1
.81596	1058.54	.1
.89498	1072.99	.1
1	1090.91	.1

System: propan-1-ol + 2,2'-methylenebisfuran; phases: Liquid
Fixed: Temperature, K = 298.15
Fixed: Pressure, kPa = 101
Property: Speed of sound, m/s (Liquid); method: Linear variable-path acoustic interferometer
Mole fraction of 2,2'-methylenebisfuran	Speed of sound, m/s	uncertainty
0	1205.8	3.6174
.02411	1213.2	3.6396
.04315	1218.6	3.6558
.05818	1225.1	3.6753
.1078	1233.7	3.7011
.14595	1242.3	3.7269
.19951	1252	3.756
.30015	1268.7	3.8061
.39724	1287.1	3.8613
.44913	1296.3	3.8889
.61445	1323	3.969
.65117	1326.4	3.9792
.81596	1349.7	4.0491
.89498	1357.1	4.0713
1	1369	4.107

System: butan-1-ol + 2,2'-methylenebisfuran; phases: Liquid
Fixed: Temperature, K = 298.15
Fixed: Pressure, kPa = 101
Property: Mass density, kg/m3 (Liquid); method: Vibrating tube method
Mole fraction of 2,2'-methylenebisfuran	Mass density, kg/m3	uncertainty
0	805.75	.1
.01014	810.05	.1
.01564	812.35	.1
.03184	819.07	.1
.04084	822.75	.1
.05128	826.98	.1
.0601	830.51	.1
.07024	834.54	.1
.08028	838.48	.1
.10263	847.13	.1
.15117	865.28	.1
.21008	886.26	.1
.25096	900.19	.1
.3524	932.71	.1
.41573	951.68	.1
.50223	976.08	.1
.60172	1002.22	.1
.70441	1027.3	.1
.80065	1049.26	.1
.85121	1060.27	.1
.90408	1071.44	.1
.96254	1083.38	.1
1	1090.91	.1

System: butan-1-ol + 2,2'-methylenebisfuran; phases: Liquid
Fixed: Temperature, K = 298.15
Fixed: Pressure, kPa = 101
Property: Speed of sound, m/s (Liquid); method: Linear variable-path acoustic interferometer
Mole fraction of 2,2'-methylenebisfuran	Speed of sound, m/s	uncertainty
0	1241.3	3.7239
.01014	1243	3.729
.01564	1247.9	3.7437
.03184	1252	3.756
.04084	1254.1	3.7623
.05128	1256.8	3.7704
.0601	1259.5	3.7785
.07024	1261.8	3.7854
.08028	1262.9	3.7887
.10263	1266	3.798
.15117	1269.2	3.8076
.21008	1272.1	3.8163
.25096	1274.6	3.8238
.3524	1283.1	3.8493
.41573	1287.7	3.8631
.50223	1296.9	3.8907
.60172	1307.7	3.9231
.70441	1321.6	3.9648
.80065	1336.2	4.0086
.85121	1344	4.032
.90408	1352	4.056
.96254	1362.2	4.0866
1	1369	4.107

System: pentan-1-ol + 2,2'-methylenebisfuran; phases: Liquid
Fixed: Temperature, K = 298.15
Fixed: Pressure, kPa = 101
Property: Mass density, kg/m3 (Liquid); method: Vibrating tube method
Mole fraction of 2,2'-methylenebisfuran	Mass density, kg/m3	uncertainty
0	810.88	.1
.03017	821.3	.1
.06488	833.06	.1
.08187	838.74	.1
.14945	860.84	.1
.20938	879.86	.1
.25015	892.5	.1
.29587	906.41	.1
.33879	919.21	.1
.39536	935.71	.1
.45244	951.97	.1
.55106	979.15	.1
.65104	1005.63	.1
.75642	1032.44	.1
.78122	1038.6	.1
.86249	1062.12	.1
.92382	1072.99	.1
1	1090.91	.1

System: pentan-1-ol + 2,2'-methylenebisfuran; phases: Liquid
Fixed: Temperature, K = 298.15
Fixed: Pressure, kPa = 101
Property: Speed of sound, m/s (Liquid); method: Linear variable-path acoustic interferometer
Mole fraction of 2,2'-methylenebisfuran	Speed of sound, m/s	uncertainty
0	1281.2	3.8436
.03017	1280.8	3.8424
.06488	1281.6	3.8448
.08187	1282.2	3.8466
.14945	1285.2	3.8556
.20938	1289.1	3.8673
.25015	1292.8	3.8784
.29587	1296	3.888
.33879	1299.8	3.8994
.39536	1304	3.912
.45244	1309.3	3.9279
.55106	1318.7	3.9561
.65104	1328.5	3.9855
.75642	1339.4	4.0182
.78122	1342.4	4.0272
.86249	1350.2	4.0506
.92382	1358	4.074
1	1369	4.107

System: pentylcarbinol + 2,2'-methylenebisfuran; phases: Liquid
Fixed: Temperature, K = 298.15
Fixed: Pressure, kPa = 101
Property: Mass density, kg/m3 (Liquid); method: Vibrating tube method
Mole fraction of 2,2'-methylenebisfuran	Mass density, kg/m3	uncertainty
0	815.18	.1
.02029	821.09	.1
.03038	824.03	.1
.05871	832.25	.1
.08213	839.02	.1
.10334	845.14	.1
.14899	858.24	.1
.16396	862.53	.1
.18251	867.82	.1
.24916	886.77	.1
.29455	899.59	.1
.33564	911.16	.1
.39419	927.55	.1
.45042	943.19	.1
.5455	969.37	.1
.57856	978.38	.1
.68857	1007.99	.1
.78206	1032.62	.1
.85076	1050.29	.1
.8988	1062.37	.1
.95436	1076	.1
1	1090.91	.1

System: pentylcarbinol + 2,2'-methylenebisfuran; phases: Liquid
Fixed: Temperature, K = 298.15
Fixed: Pressure, kPa = 101
Property: Speed of sound, m/s (Liquid); method: Linear variable-path acoustic interferometer
Mole fraction of 2,2'-methylenebisfuran	Speed of sound, m/s	uncertainty
0	1312.4	3.9372
.02029	1310.1	3.9303
.03038	1308.3	3.9249
.05871	1307.1	3.9213
.08213	1305.7	3.9171
.10334	1305.4	3.9162
.14899	1304.4	3.9132
.16396	1302.9	3.9087
.18251	1302.3	3.9069
.24916	1302.3	3.9069
.29455	1305.4	3.9162
.33564	1310.5	3.9315
.39419	1316.2	3.9486
.45042	1321.5	3.9645
.5455	1329.5	3.9885
.57856	1332.8	3.9984
.68857	1340.5	4.0215
.78206	1348.1	4.0443
.85076	1354	4.062
.8988	1358.1	4.0743
.95436	1363.4	4.0902
1	1369	4.107
