Measured thermophysical data. Vapour pressure and enthalpy of vaporization of aliphatic poly-amines
Source: J. Chem. Thermodyn., 2010, 10.1016/j.jct.2009.09.003
Compound 1: N,N'-dimethylpiperazine, C6H14N2, purity 99%
Compound 2: N-(2-aminoethyl)piperazine, C6H15N3, purity 99%
Compound 3: 1-(2-Aminoethyl)-4-methyl-piperazine, C7H17N3, purity 99%
Compound 4: triethylenetetramine, C6H18N4, purity 99%

System: N,N'-dimethylpiperazine; phases: Liquid, Gas
Property: Molar enthalpy of vaporization or sublimation, kJ/mol (Liquid); method: Derived from vapor pressure data
Temperature, K	Molar enthalpy of vaporization or sublimation, kJ/mol	uncertainty
298.15	41.2	.4

System: N,N'-dimethylpiperazine; phases: Liquid, Gas
Property: Vapor or sublimation pressure, kPa (Liquid); method: Transpiration
Temperature, K	Vapor or sublimation pressure, kPa	uncertainty
270.3	.2719	.02719
274.8	.3656	.03656
278.5	.486	.0486
283.6	.6602	.06602
288.5	.8272	.08272
293.6	1.1163	.11163
298.5	1.5609	.15609
303.4	2.1019	.21019
308.5	2.6003	.26003
268.1	.2307	.02307
274.1	.3511	.03511
280.1	.5177	.05177
286.1	.7611	.07611
291.1	.9973	.09973
296.1	1.3594	.13594
301.1	1.8343	.18343
306.1	2.518	.2518
311.1	3.2017	.32017

System: N-(2-aminoethyl)piperazine; phases: Liquid, Gas
Property: Molar enthalpy of vaporization or sublimation, kJ/mol (Liquid); method: Derived from vapor pressure data
Temperature, K	Molar enthalpy of vaporization or sublimation, kJ/mol	uncertainty
298.15	68.7	.3

System: N-(2-aminoethyl)piperazine; phases: Liquid, Gas
Property: Vapor or sublimation pressure, kPa (Liquid); method: Transpiration
Temperature, K	Vapor or sublimation pressure, kPa	uncertainty
295.7	.0064	.00064
297.7	.0079	.00079
300.4	.0096	.00096
303.3	.0127	.00127
303.3	.0131	.00131
304.7	.0144	.00144
305.6	.015	.0015
308.2	.0193	.00193
310.2	.0227	.00227
312.6	.028	.0028
314.6	.0333	.00333
317.5	.0414	.00414
320.7	.0534	.00534
323.1	.0653	.00653
326.4	.0835	.00835
328.2	.0943	.00943
330.5	.1135	.01135
330.7	.1203	.01203
333.1	.1411	.01411
333.2	.134	.0134
335.2	.1628	.01628
338.1	.1943	.01943

System: 1-(2-Aminoethyl)-4-methyl-piperazine; phases: Liquid, Gas
Property: Molar enthalpy of vaporization or sublimation, kJ/mol (Liquid); method: Derived by Second law
Temperature, K	Molar enthalpy of vaporization or sublimation, kJ/mol	uncertainty
298.15	64	.2

System: 1-(2-Aminoethyl)-4-methyl-piperazine; phases: Liquid, Gas
Property: Vapor or sublimation pressure, kPa (Liquid); method: Transpiration
Temperature, K	Vapor or sublimation pressure, kPa	uncertainty
297.8	.0246	.00246
298.8	.0265	.00265
302	.0341	.00341
302.7	.0368	.00368
304.6	.0433	.00433
307.2	.0548	.00548
307.2	.0538	.00538
310.5	.0691	.00691
311.6	.0765	.00765
313.2	.085	.0085
314.3	.0925	.00925
315.9	.1026	.01026
317.1	.1153	.01153
320.2	.1434	.01434
323.7	.1872	.01872
327.7	.2497	.02497
331.8	.3218	.03218

System: triethylenetetramine; phases: Liquid, Gas
Property: Molar enthalpy of vaporization or sublimation, kJ/mol (Liquid); method: Derived by Second law
Temperature, K	Molar enthalpy of vaporization or sublimation, kJ/mol	uncertainty
298.15	84.7	.3

System: triethylenetetramine; phases: Liquid, Gas
Property: Vapor or sublimation pressure, kPa (Liquid); method: Transpiration
Temperature, K	Vapor or sublimation pressure, kPa	uncertainty
338.2	.00866	.000866
340.7	.01059	.001059
343.5	.0135	.00135
346.3	.01645	.001645
347.2	.01792	.001792
348.2	.01944	.001944
349.4	.0209	.00209
350.1	.022	.0022
350.2	.02259	.002259
352.4	.02695	.002695
353.2	.02857	.002857
355.2	.03317	.003317
355.4	.03445	.003445
356.2	.03575	.003575
358.5	.04226	.004226
359.2	.04519	.004519
361.2	.05252	.005252
363.2	.05873	.005873
364.2	.0654	.00654
365.4	.06908	.006908
367.4	.07992	.007992
368.1	.08563	.008563
368.1	.08484	.008484
370.2	.09747	.009747
370.4	.09756	.009756
371	.10085	.010085
373.3	.11758	.011758
