Measured thermophysical data. Thermodynamics of mixtures with strongly negative deviations from Raoult s law. XII. Densities, viscosities and refractive indices at T = (293.15 to 303.15) K for (1-heptanol, or 1-decanol + cyclohexylamine) systems. Application of the ERAS model to (1-alkanol + cyclohexylamine) mixtures
Source: J. Chem. Thermodyn., 2015, 10.1016/j.jct.2014.09.005
Compound 1: 1-heptanol, C7H16O, purity 99%
Compound 2: 1-decanol, C10H22O, purity 99%
Compound 3: cyclohexylamine, C6H13N, purity 99%

System: 1-heptanol; phases: Liquid
Fixed: Pressure, kPa = 101.325
Property: Mass density, kg/m3 (Liquid); method: Vibrating tube method
Temperature, K	Mass density, kg/m3	uncertainty
293.15	822.52	.05
298.15	818.99	.05
303.15	815.4	.05

System: 1-heptanol; phases: Liquid
Fixed: Pressure, kPa = 101.325
Property: Viscosity, Pa*s (Liquid); method: Capillary tube (Ostwald; Ubbelohde) method
Temperature, K	Viscosity, Pa*s	uncertainty
293.15	.007106	.00007106
298.15	.005966	.00005966
303.15	.004841	.00004841

System: 1-heptanol; phases: Liquid
Fixed: Pressure, kPa = 101.325
Property: Refractive index (Na D-line) (Liquid); method: Standard Abbe refractometry
Temperature, K	Refractive index (Na D-line)	uncertainty
293.15	1.42429	.00002
298.15	1.42227	.00002
303.15	1.42023	.00002

System: 1-decanol; phases: Liquid
Fixed: Pressure, kPa = 101.325
Property: Mass density, kg/m3 (Liquid); method: Vibrating tube method
Temperature, K	Mass density, kg/m3	uncertainty
293.15	829.97	.05
298.15	826.58	.05
303.15	823.13	.05

System: 1-decanol; phases: Liquid
Fixed: Pressure, kPa = 101.325
Property: Viscosity, Pa*s (Liquid); method: Capillary tube (Ostwald; Ubbelohde) method
Temperature, K	Viscosity, Pa*s	uncertainty
293.15	.014523	.00014523
298.15	.011824	.00011824
303.15	.009738	.00009738

System: 1-decanol; phases: Liquid
Fixed: Pressure, kPa = 101.325
Property: Refractive index (Na D-line) (Liquid); method: Standard Abbe refractometry
Temperature, K	Refractive index (Na D-line)	uncertainty
293.15	1.43728	.00002
298.15	1.43531	.00002
303.15	1.43345	.00002

System: cyclohexylamine; phases: Liquid
Fixed: Pressure, kPa = 101.325
Property: Mass density, kg/m3 (Liquid); method: Vibrating tube method
Temperature, K	Mass density, kg/m3	uncertainty
293.15	867.2	.05
298.15	862.69	.05
303.15	858.12	.05

System: cyclohexylamine; phases: Liquid
Fixed: Pressure, kPa = 101.325
Property: Viscosity, Pa*s (Liquid); method: Capillary tube (Ostwald; Ubbelohde) method
Temperature, K	Viscosity, Pa*s	uncertainty
293.15	.002142	.00002142
298.15	.001909	.00001909
303.15	.001699	.00001699

System: cyclohexylamine; phases: Liquid
Fixed: Pressure, kPa = 101.325
Property: Refractive index (Na D-line) (Liquid); method: Standard Abbe refractometry
Temperature, K	Refractive index (Na D-line)	uncertainty
293.15	1.45936	.00002
298.15	1.45694	.00002
303.15	1.45427	.00002

System: cyclohexylamine + 1-heptanol; phases: Liquid
Fixed: Pressure, kPa = 101
Property: Mass density, kg/m3 (Liquid); method: Vibrating tube method
Temperature, K	Mole fraction of 1-heptanol	Mass density, kg/m3	uncertainty
293.15	.1018	863.57	.05
293.15	.1499	861.92	.05
293.15	.1996	860.22	.05
293.15	.2982	856.82	.05
293.15	.3979	853.09	.05
293.15	.4465	851.2	.05
293.15	.4931	849.3	.05
293.15	.5432	847.06	.05
293.15	.6008	844.43	.05
293.15	.6598	841.57	.05
293.15	.7019	839.35	.05
293.15	.7479	836.94	.05
293.15	.7967	834.16	.05
293.15	.8466	831.39	.05
293.15	.8935	828.7	.05
293.15	.9432	825.75	.05
298.15	.1018	859.27	.05
298.15	.1499	857.64	.05
298.15	.1996	856.01	.05
298.15	.2982	852.71	.05
298.15	.3979	849.06	.05
298.15	.4565	847.21	.05
298.15	.4931	845.34	.05
298.15	.5432	843.14	.05
298.15	.6008	840.57	.05
298.15	.6598	837.76	.05
298.15	.7019	835.59	.05
298.15	.7479	833.22	.05
298.15	.7967	830.49	.05
298.15	.8466	827.78	.05
298.15	.8935	825.11	.05
298.15	.9432	822.21	.05
303.15	.1018	854.9	.05
303.15	.1499	853.33	.05
303.15	.1996	851.74	.05
303.15	.2982	848.55	.05
303.15	.3979	845	.05
303.15	.4465	843.2	.05
303.15	.4931	841.35	.05
303.15	.5432	839.17	.05
303.15	.6008	836.68	.05
303.15	.6598	833.93	.05
303.15	.7019	831.8	.05
303.15	.7479	829.48	.05
303.15	.7967	826.8	.05
303.15	.8466	824.12	.05
303.15	.8935	821.5	.05
303.15	.9432	818.64	.05

System: cyclohexylamine + 1-heptanol; phases: Liquid
Fixed: Pressure, kPa = 101
Property: Viscosity, Pa*s (Liquid); method: Capillary tube (Ostwald; Ubbelohde) method
Temperature, K	Mole fraction of 1-heptanol	Viscosity, Pa*s	uncertainty
293.15	.1018	.002454	.00002454
293.15	.1499	.002635	.00002635
293.15	.1996	.002838	.00002838
293.15	.2982	.003308	.00003308
293.15	.3979	.003844	.00003844
293.15	.4465	.004118	.00004118
293.15	.4931	.004381	.00004381
293.15	.5432	.00466	.0000466
293.15	.6008	.00498	.0000498
293.15	.6598	.005267	.00005267
293.15	.7019	.005475	.00005475
293.15	.7479	.005687	.00005687
293.15	.7967	.005916	.00005916
293.15	.8466	.006158	.00006158
293.15	.8935	.006421	.00006421
293.15	.9432	.006717	.00006717
298.15	.1018	.002178	.00002178
298.15	.1499	.002338	.00002338
298.15	.1996	.002502	.00002502
298.15	.2982	.002892	.00002892
298.15	.3979	.003334	.00003334
298.15	.4565	.003558	.00003558
298.15	.4931	.003776	.00003776
298.15	.5432	.004007	.00004007
298.15	.6008	.004267	.00004267
298.15	.6598	.004478	.00004478
298.15	.7019	.004682	.00004682
298.15	.7479	.004828	.00004828
298.15	.7967	.005057	.00005057
298.15	.8466	.005232	.00005232
298.15	.8935	.00543	.0000543
298.15	.9432	.005673	.00005673
303.15	.1018	.001931	.002
303.15	.1499	.002059	.002
303.15	.1996	.002204	.002
303.15	.2982	.002531	.002
303.15	.3979	.002895	.002
303.15	.4465	.003079	.002
303.15	.4931	.003258	.002
303.15	.5432	.003443	.002
303.15	.6008	.003658	.002
303.15	.6598	.003694	.002
303.15	.7019	.004005	.002
303.15	.7479	.003974	.002
303.15	.7967	.004317	.002
303.15	.8466	.004283	.002
303.15	.8935	.004444	.002
303.15	.9432	.004626	.002

System: cyclohexylamine + 1-heptanol; phases: Liquid
Fixed: Pressure, kPa = 101
Property: Refractive index (Na D-line) (Liquid); method: Standard Abbe refractometry
Temperature, K	Mole fraction of 1-heptanol	Refractive index (Na D-line)	uncertainty
293.15	.1499	1.45459	.00002
293.15	.1996	1.45301	.00002
293.15	.2982	1.44986	.00002
293.15	.3979	1.44669	.00002
293.15	.4004	1.44661	.00002
293.15	.4465	1.44519	.00002
293.15	.4931	1.44365	.00002
293.15	.5432	1.44192	.00002
293.15	.6008	1.43985	.00002
293.15	.6598	1.43777	.00002
293.15	.6969	1.4364	.00002
293.15	.7479	1.43438	.00002
293.15	.7967	1.43236	.00002
293.15	.8466	1.4305	.00002
293.15	.8935	1.42866	.00002
293.15	.9432	1.42665	.00002
298.15	.1018	1.45356	.00002
298.15	.1499	1.45216	.00002
298.15	.1996	1.45053	.00002
298.15	.2982	1.44763	.00002
298.15	.4004	1.44444	.00002
298.15	.4465	1.44298	.00002
298.15	.4931	1.44143	.00002
298.15	.5432	1.43977	.00002
298.15	.5946	1.43797	.00002
298.15	.6598	1.43561	.00002
298.15	.7019	1.43404	.00002
298.15	.7479	1.43244	.00002
298.15	.7967	1.43053	.00002
298.15	.8466	1.42852	.00002
298.15	.8935	1.42666	.00002
298.15	.9432	1.42476	.00002
303.15	.1018	1.45099	.00002
303.15	.1499	1.44958	.00002
303.15	.1996	1.44805	.00002
303.15	.2982	1.4452	.00002
303.15	.3979	1.44224	.00002
303.15	.4465	1.44068	.00002
303.15	.4931	1.43923	.00002
303.15	.5432	1.43752	.00002
303.15	.5946	1.43575	.00002
303.15	.6008	1.43554	.00002
303.15	.6598	1.43355	.00002
303.15	.7019	1.432	.00002
303.15	.7479	1.43042	.00002
303.15	.7967	1.42836	.00002
303.15	.8466	1.42657	.00002
303.15	.8935	1.42455	.00002
303.15	.9432	1.42262	.00002

System: cyclohexylamine + 1-decanol; phases: Liquid
Fixed: Pressure, kPa = 101
Property: Mass density, kg/m3 (Liquid); method: Vibrating tube method
Temperature, K	Mole fraction of 1-decanol	Mass density, kg/m3	uncertainty
293.15	.153	860.33	.05
293.15	.1956	858.62	.05
293.15	.2939	855.14	.05
293.15	.3417	853.45	.05
293.15	.4077	851.25	.05
293.15	.4581	849.54	.05
293.15	.5059	847.91	.05
293.15	.5401	846.76	.05
293.15	.6042	844.53	.05
293.15	.6538	842.75	.05
293.15	.7021	840.98	.05
293.15	.8084	837.02	.05
293.15	.8868	834.1	.05
298.15	.153	856.19	.05
298.15	.1956	854.54	.05
298.15	.2939	851.2	.05
298.15	.3417	849.56	.05
298.15	.4077	847.42	.05
298.15	.4581	845.76	.05
298.15	.5059	844.17	.05
298.15	.5401	843.04	.05
298.15	.6042	840.86	.05
298.15	.6538	839.13	.05
298.15	.7021	837.39	.05
298.15	.8084	833.53	.05
298.15	.8868	830.66	.05
303.15	.153	851.99	.05
303.15	.1956	850.41	.05
303.15	.2939	847.19	.05
303.15	.3417	845.61	.05
303.15	.4077	843.53	.05
303.15	.4581	841.91	.05
303.15	.5059	840.37	.05
303.15	.5401	839.27	.05
303.15	.6042	837.14	.05
303.15	.6538	835.46	.05
303.15	.7021	833.76	.05
303.15	.8084	829.98	.05
303.15	.8868	827.17	.05

System: cyclohexylamine + 1-decanol; phases: Liquid
Fixed: Pressure, kPa = 101
Property: Viscosity, Pa*s (Liquid); method: Capillary tube (Ostwald; Ubbelohde) method
Temperature, K	Mole fraction of 1-decanol	Viscosity, Pa*s	uncertainty
293.15	.153	.003133	.00003133
293.15	.1956	.00348	.0000348
293.15	.2939	.004452	.00004452
293.15	.3417	.005014	.00005014
293.15	.4077	.00581	.0000581
293.15	.4581	.00648	.0000648
293.15	.5059	.007159	.00007159
293.15	.5401	.007628	.00007628
293.15	.6042	.008558	.00008558
293.15	.6538	.009276	.00009276
293.15	.7021	.009963	.00009963
293.15	.8084	.011521	.00011521
293.15	.8868	.012693	.00012693
298.15	.153	.002749	.00002749
298.15	.1956	.003049	.00003049
298.15	.2939	.003853	.00003853
298.15	.3417	.004308	.00004308
298.15	.4077	.004923	.00004923
298.15	.4581	.005456	.00005456
298.15	.5059	.005991	.00005991
298.15	.5401	.00638	.0000638
298.15	.6042	.007124	.00007124
298.15	.6538	.007689	.00007689
298.15	.7021	.00824	.0000824
298.15	.8084	.009512	.00009512
298.15	.8868	.010411	.00010411
303.15	.153	.002406	.00002406
303.15	.1956	.002663	.00002663
303.15	.2939	.003347	.00003347
303.15	.3417	.003711	.00003711
303.15	.4077	.004216	.00004216
303.15	.4581	.004654	.00004654
303.15	.5059	.005075	.00005075
303.15	.5401	.005393	.00005393
303.15	.6042	.005985	.00005985
303.15	.6538	.006457	.00006457
303.15	.7021	.006893	.00006893
303.15	.8084	.007904	.00007904
303.15	.8868	.008649	.00008649

System: cyclohexylamine + 1-decanol; phases: Liquid
Fixed: Pressure, kPa = 101
Property: Refractive index (Na D-line) (Liquid); method: Standard Abbe refractometry
Temperature, K	Mole fraction of 1-decanol	Refractive index (Na D-line)	uncertainty
293.15	.0957	1.4563	.00002
293.15	.153	1.45514	.00002
293.15	.1955	1.45413	.00002
293.15	.2939	1.45191	.00002
293.15	.3417	1.45101	.00002
293.15	.4077	1.44965	.00002
293.15	.4581	1.44855	.00002
293.15	.5059	1.44765	.00002
293.15	.6042	1.44562	.00002
293.15	.6538	1.44463	.00002
293.15	.7021	1.44358	.00002
293.15	.8084	1.44133	.00002
293.15	.8868	1.43957	.00002
298.15	.0957	1.45392	.00002
298.15	.153	1.45279	.00002
298.15	.1955	1.45174	.00002
298.15	.2939	1.44964	.00002
298.15	.3417	1.44874	.00002
298.15	.4077	1.44743	.00002
298.15	.4581	1.44648	.00002
298.15	.5059	1.44554	.00002
298.15	.5401	1.44481	.00002
298.15	.6042	1.44365	.00002
298.15	.6538	1.44254	.00002
298.15	.7021	1.44141	.00002
298.15	.8084	1.43935	.00002
298.15	.8868	1.43762	.00002
303.15	.0957	1.4514	.00002
303.15	.153	1.45031	.00002
303.15	.1955	1.44938	.00002
303.15	.2939	1.44747	.00002
303.15	.3417	1.44642	.00002
303.15	.4077	1.44514	.00002
303.15	.4581	1.44424	.00002
303.15	.5059	1.44335	.00002
303.15	.5401	1.44256	.00002
303.15	.6042	1.44137	.00002
303.15	.6538	1.44039	.00002
303.15	.7021	1.43943	.00002
303.15	.8084	1.43724	.00002
303.15	.8868	1.43565	.00002
