Measured thermophysical data. Diffusion coefficients of bolaform alkane-1,n-bis(trimethylammonium bromide) surfactants
Source: J. Chem. Thermodyn., 2012, 10.1016/j.jct.2012.02.004
Compound 1: octamethonium dibromide, C14H34N2Br2
Compound 2: decamethonium bromide, C16H38Br2N2
Compound 3: dodecane-1,12-bis-trimethylammonium bromide, C18H42Br2N2
Compound 4: water, H2O, purity 99.8%

System: water + octamethonium dibromide; phases: Liquid
Fixed: Pressure, kPa = 101
Fixed: Temperature, K = 298.15
Property: Binary diffusion coefficient, m2/s (Liquid); method: Taylor dispersion method
Mole fraction of octamethonium dibromide	Binary diffusion coefficient, m2/s	uncertainty
0	0.000000001098	.000000000012
.00119	0.00000000104	.000000000015
.00475	0.00000000099	.000000000014
.0095	0.00000000093	.000000000018
.019	0.000000000899	.000000000011
.038	0.000000000851	.000000000013

System: decamethonium bromide + water; phases: Liquid
Fixed: Pressure, kPa = 101
Fixed: Temperature, K = 298.15
Property: Binary diffusion coefficient, m2/s (Liquid); method: Taylor dispersion method
Mole fraction of decamethonium bromide	Binary diffusion coefficient, m2/s	uncertainty
0	0.000000001058	.00000000001
.00119	0.00000000099	.000000000007
.00475	0.000000000955	.000000000007
.0095	0.000000000904	.000000000013
.019	0.000000000861	.000000000005
.038	0.000000000843	.000000000006

System: dodecane-1,12-bis-trimethylammonium bromide + water; phases: Liquid
Fixed: Pressure, kPa = 101
Fixed: Temperature, K = 298.15
Property: Binary diffusion coefficient, m2/s (Liquid); method: Taylor dispersion method
Mole fraction of dodecane-1,12-bis-trimethylammonium bromide	Binary diffusion coefficient, m2/s	uncertainty
0	0.000000001015	.000000000014
.00119	0.000000000972	.000000000012
.00475	0.000000000945	.000000000015
.0095	0.000000000911	.000000000012
.019	0.00000000087	.000000000013
.038	0.000000000805	.000000000011
