Measured thermophysical data. Thermodynamics and phase equilibrium of the high concentration solid solution-aqueous solution system KCl-RbCl-H2O from T = 298.15 K to T = 323.15 K
Source: J. Chem. Thermodyn., 2017, 10.1016/j.jct.2016.12.003
Compound 1: potassium chloride, ClK
Compound 2: rubidium chloride, ClRb, purity 99.95%
Compound 3: water, H2O

System: potassium chloride + water + rubidium chloride; phases: Liquid
Fixed: Pressure, kPa = 100
Property: (Relative) activity of water (Liquid); method: Other
Temperature, K	Molality, mol/kg of potassium chloride	Molality, mol/kg of rubidium chloride	(Relative) activity of water	uncertainty
298.15	1.7445	0	.9446	
298.15	1.1383	.6273	.9446	
298.15	.8614	.8982	.9446	
298.15	.5312	1.2307	.9446	
298.15	.2434	1.5243	.9446	
298.15	0	1.7718	.9446	
298.15	1.8701	0	.9406	
298.15	1.223	.674	.9406	
298.15	.9238	.9633	.9406	
298.15	.5707	1.3221	.9406	
298.15	.2611	1.6349	.9406	
298.15	0	1.9005	.9406	
298.15	2.8858	0	.9075	
298.15	1.8924	1.0428	.9075	
298.15	1.4306	1.4918	.9075	
298.15	.882	2.0434	.9075	
298.15	.4041	2.5302	.9075	
298.15	0	2.9455	.9075	
298.15	3.935	0	.8724	
298.15	2.573	1.3778	.8724	
298.15	1.9412	1.9668	.8724	
298.15	1.1935	2.6867	.8724	
298.15	.5468	3.327	.8724	
298.15	3.1594	1.741	.8423	
298.15	2.3941	2.4964	.8423	
298.15	1.4803	3.4294	.8423	
298.15	.6788	4.2502	.8423	
298.15	3.4335	1.8921	.8292	
298.15	2.5962	2.7072	.8292	
298.15	1.6043	3.7167	.8292	
298.15	.7358	4.6075	.8292	
298.15	0	5.3418	.8292	
298.15	1.9304	4.4722	.7943	
298.15	.8836	5.5328	.7943	
298.15	0	6.4412	.7943	
298.15	2.0082	4.6524	.7845	
298.15	.9248	5.7907	.7845	
298.15	0	6.7103	.7845	
298.15	1.0554	6.6084	.7555	
298.15	0	7.6455	.7555	
323.15	0	1.858	.9407	
323.15	.2564	1.6055	.9407	
323.15	.5598	1.297	.9407	
323.15	.9066	.9454	.9407	
323.15	1.1977	.66	.9407	
323.15	1.8367	0	.9407	
323.15	0	2.9006	.9068	
323.15	.4002	2.5057	.9068	
323.15	.8723	2.0208	.9068	
323.15	1.4111	1.4714	.9068	
323.15	1.8632	1.0268	.9068	
323.15	2.8536	0	.9068	
323.15	0	4.1589	.8647	
323.15	.5742	3.5955	.8647	
323.15	1.2511	2.8984	.8647	
323.15	2.0232	2.1097	.8647	
323.15	2.6696	1.4712	.8647	
323.15	4.0809	0	.8647	
323.15	0	5.2235	.8307	
323.15	.7163	4.485	.8307	
323.15	1.5666	3.6292	.8307	
323.15	2.5435	2.6522	.8307	
323.15	3.3713	1.8579	.8307	
323.15	5.1131	0	.8307	
323.15	0	6.6085	.7826	
323.15	.9071	5.68	.7826	
323.15	1.9775	4.5814	.7826	
323.15	3.202	3.3388	.7826	
323.15	4.2428	2.3381	.7826	

System: potassium chloride + water + rubidium chloride; phases: Liquid, Crystal
Fixed: Pressure, kPa = 100
Property: Molality, mol/kg of rubidium chloride (Liquid); method: Evaporation
Temperature, K	Molality, mol/kg of potassium chloride	Molality, mol/kg of rubidium chloride	uncertainty
298.15	.3417	7.4887	
298.15	1.1085	6.6532	
298.15	1.7903	5.8191	
298.15	2.4923	4.6405	
298.15	2.8863	3.8049	
298.15	3.4441	2.6203	
298.15	4.1192	1.2594	
308.15	.3659	8.0204	
308.15	1.1853	7.1138	
308.15	1.9092	6.2053	
308.15	2.6651	4.9623	
308.15	3.1001	4.0868	
308.15	3.7114	2.8236	
308.15	4.4512	1.3609	
323.15	.401	8.7884	
323.15	1.3047	7.8304	
323.15	2.0803	6.7615	
323.15	2.9016	5.4026	
323.15	3.4336	4.5265	
323.15	4.1347	3.1457	
323.15	4.9151	1.5028	

System: potassium chloride + water; phases: Liquid, Crystal
Property: Molality, mol/kg of potassium chloride (Liquid); method: Evaporation
Temperature, K	Pressure, kPa	Molality, mol/kg of potassium chloride	uncertainty
308.15	100	5.186	
323.15	100	5.7755	

System: potassium chloride + water; phases: Liquid
Property: (Relative) activity of water (Liquid); method: Other
Temperature, K	Molality, mol/kg of potassium chloride	Pressure, kPa	(Relative) activity of water	uncertainty
298.15	1.7445	100	.9446	
298.15	1.8701	100	.9406	
298.15	2.8858	100	.9075	
298.15	3.935	100	.8724	
323.15	1.8367	100	.9407	
323.15	2.8536	100	.9068	
323.15	4.0809	100	.8647	
323.15	5.1131	100	.8307	

System: water + rubidium chloride; phases: Liquid
Property: (Relative) activity of water (Liquid); method: Other
Temperature, K	Molality, mol/kg of rubidium chloride	Pressure, kPa	(Relative) activity of water	uncertainty
298.15	1.7718	100	.9446	
298.15	1.9005	100	.9406	
298.15	2.9455	100	.9075	
298.15	5.3418	100	.8292	
298.15	6.4412	100	.7943	
298.15	6.7103	100	.7845	
298.15	7.6455	100	.7555	
323.15	1.858	100	.9407	
323.15	2.9006	100	.9068	
323.15	4.1589	100	.8647	
323.15	5.2235	100	.8307	
323.15	6.6085	100	.7826	

System: water + rubidium chloride; phases: Liquid, Crystal
Property: Molality, mol/kg of rubidium chloride (Liquid); method: Evaporation
Temperature, K	Pressure, kPa	Molality, mol/kg of rubidium chloride	uncertainty
308.15	100	8.3285	
323.15	100	9.2118	
