Measured thermophysical data. Effect of hydrophilic additives on volumetric and viscosity properties  of amino acids in aqueous solutions at T = (283.15 to 333.15) K
Source: J. Chem. Thermodyn., 2012, 10.1016/j.jct.2011.12.020
Compound 1: aminoethanoic acid, C2H5NO2, purity 99%
Compound 2: water, H2O
Compound 3: L-2-aminoisovaleric acid, C5H11NO2, purity 99%
Compound 4: L-leucine, C6H13NO2, purity 99%
Compound 5: L-phenylalanine, C9H11NO2, purity 99%
Compound 6: L-asparagine (anhydrous), C4H8N2O3, purity 99%
Compound 7: D-(+)-sucrose, C12H22O11, purity 99%
Compound 8: 1,2-ethanediol, butyl ether, C6H14O2, purity 98%
Compound 9: 2,3-butanediol, C4H10O2, purity 99%
Compound 10: urea, CH4N2O, purity 99%

System: aminoethanoic acid + D-(+)-sucrose + water; phases: Liquid
Fixed: Pressure, kPa = 101
Property: Mass density, kg/m3 (Liquid); method: Vibrating tube method
Temperature, K	Solvent: Mass fraction of D-(+)-sucrose	Amount concentration (molarity), mol/dm3 of aminoethanoic acid	Mass density, kg/m3	uncertainty
283.15	0	0	999.701	
283.15	0	.0099	1000.028	
283.15	0	.0249	1000.522	
283.15	0	.0399	1001.016	
283.15	0	.0999	1002.977	
283.15	0	.2499	1007.798	
283.15	0	.3999	1012.501	
283.15	0	.5999	1018.601	
283.15	0	.7999	1024.496	
283.15	0	.9998	1030.19	
293.15	0	0	998.203	
293.15	0	.0099	998.521	
293.15	0	.0249	999.002	
293.15	0	.0399	999.482	
293.15	0	.0999	1001.39	
293.15	0	.2499	1006.08	
293.15	0	.3999	1010.656	
293.15	0	.5999	1016.59	
293.15	0	.7999	1022.325	
293.15	0	.9998	1027.864	
303.15	0	0	995.647	
303.15	0	.0099	995.959	
303.15	0	.0249	996.431	
303.15	0	.0399	996.902	
303.15	0	.0999	998.774	
303.15	0	.2499	1003.376	
303.15	0	.3999	1007.868	
303.15	0	.5999	1013.682	
303.15	0	.7999	1019.309	
303.15	0	.9998	1024.747	
313.15	0	0	992.214	
313.15	0	.0099	992.522	
313.15	0	.0249	992.988	
313.15	0	.0399	993.453	
313.15	0	.0999	995.303	
313.15	0	.2499	999.853	
313.15	0	.3999	1004.3	
313.15	0	.5999	1010.065	
313.15	0	.7999	1015.658	
313.15	0	.9998	1021.063	
323.15	0	0	988.032	
323.15	0	.0099	988.337	
323.15	0	.0249	988.797	
323.15	0	.0399	989.257	
323.15	0	.0999	991.086	
323.15	0	.2499	995.582	
323.15	0	.3999	999.977	
323.15	0	.5999	1005.674	
323.15	0	.7999	1011.199	
323.15	0	.9998	1016.539	
333.15	0	0	983.193	
333.15	0	.0099	983.494	
333.15	0	.0249	983.949	
333.15	0	.0399	984.403	
333.15	0	.0999	986.209	
333.15	0	.2499	990.655	
333.15	0	.3999	995.003	
333.15	0	.5999	1000.652	
333.15	0	.7999	1006.126	
333.15	0	.9998	1011.44	
283.15	.05	0	1020.65	
283.15	.05	.01	1020.972	
283.15	.05	.025	1021.453	
283.15	.05	.04	1021.933	
283.15	.05	.1	1023.843	
283.15	.05	.25	1028.536	
283.15	.05	.4	1033.115	
283.15	.05	.6	1039.051	
283.15	.05	.8	1044.786	
283.15	.05	1	1050.337	
293.15	.05	0	1018.84	
293.15	.05	.01	1019.153	
293.15	.05	.025	1019.62	
293.15	.05	.04	1020.087	
293.15	.05	.1	1021.944	
293.15	.05	.25	1026.509	
293.15	.05	.4	1030.968	
293.15	.05	.6	1036.75	
293.15	.05	.8	1042.348	
293.15	.05	1	1047.767	
303.15	.05	0	1016.042	
303.15	.05	.01	1016.349	
303.15	.05	.025	1016.809	
303.15	.05	.04	1017.268	
303.15	.05	.1	1019.093	
303.15	.05	.25	1023.58	
303.15	.05	.4	1027.965	
303.15	.05	.6	1033.646	
303.15	.05	.8	1039.153	
303.15	.05	1	1044.476	
313.15	.05	0	1012.432	
313.15	.05	.01	1012.734	
313.15	.05	.025	1013.186	
313.15	.05	.04	1013.636	
313.15	.05	.1	1015.429	
313.15	.05	.25	1019.838	
313.15	.05	.4	1024.145	
313.15	.05	.6	1029.729	
313.15	.05	.8	1035.137	
313.15	.05	1	1040.373	
323.15	.05	0	1008.092	
323.15	.05	.01	1008.392	
323.15	.05	.025	1008.842	
323.15	.05	.04	1009.291	
323.15	.05	.1	1011.074	
323.15	.05	.25	1015.459	
323.15	.05	.4	1019.74	
323.15	.05	.6	1025.294	
323.15	.05	.8	1030.665	
323.15	.05	1	1035.86	
333.15	.05	0	1002.961	
333.15	.05	.01	1003.258	
333.15	.05	.025	1003.703	
333.15	.05	.04	1004.147	
333.15	.05	.1	1005.913	
333.15	.05	.25	1010.258	
333.15	.05	.4	1014.502	
333.15	.05	.6	1020.017	
333.15	.05	.8	1025.358	
333.15	.05	1	1030.533	
283.15	.1	0	1040.432	
283.15	.1	.01	1040.75	
283.15	.1	.0251	1041.229	
283.15	.1	.0401	1041.704	
283.15	.1	.1003	1043.599	
283.15	.1	.2508	1048.259	
283.15	.1	.4012	1052.804	
283.15	.1	.6018	1058.696	
283.15	.1	.8024	1064.397	
283.15	.1	1.003	1069.911	
293.15	.1	0	1038.341	
293.15	.1	.01	1038.65	
293.15	.1	.0251	1039.115	
293.15	.1	.0401	1039.575	
293.15	.1	.1003	1041.412	
293.15	.1	.2508	1045.926	
293.15	.1	.4012	1050.328	
293.15	.1	.6018	1056.034	
293.15	.1	.8024	1061.553	
293.15	.1	1.003	1066.889	
303.15	.1	0	1035.325	
303.15	.1	.01	1035.622	
303.15	.1	.0251	1036.079	
303.15	.1	.0401	1036.531	
303.15	.1	.1003	1038.336	
303.15	.1	.2508	1042.776	
303.15	.1	.4012	1047.109	
303.15	.1	.6018	1052.73	
303.15	.1	.8024	1058.172	
303.15	.1	1.003	1063.44	
313.15	.1	0	1031.436	
313.15	.1	.01	1031.727	
313.15	.1	.0251	1032.173	
313.15	.1	.0401	1032.614	
313.15	.1	.1003	1034.377	
313.15	.1	.2508	1038.712	
313.15	.1	.4012	1042.941	
313.15	.1	.6018	1048.425	
313.15	.1	.8024	1053.733	
313.15	.1	1.003	1058.87	
323.15	.1	0	1026.662	
323.15	.1	.01	1026.957	
323.15	.1	.0251	1027.403	
323.15	.1	.0401	1027.845	
323.15	.1	.1003	1029.609	
323.15	.1	.2508	1033.948	
323.15	.1	.4012	1038.185	
323.15	.1	.6018	1043.684	
323.15	.1	.8024	1049.012	
323.15	.1	1.003	1054.173	
333.15	.1	0	1020.722	
333.15	.1	.01	1021.008	
333.15	.1	.0251	1021.45	
333.15	.1	.0401	1021.889	
333.15	.1	.1003	1023.637	
333.15	.1	.2508	1027.939	
333.15	.1	.4012	1032.142	
333.15	.1	.6018	1037.598	
333.15	.1	.8024	1042.889	
333.15	.1	1.003	1048.016	
283.15	.2	0	1080.456	
283.15	.2	.01	1080.745	
283.15	.2	.025	1081.178	
283.15	.2	.04	1081.61	
283.15	.2	.1	1083.328	
283.15	.2	.25	1087.555	
283.15	.2	.4	1091.681	
283.15	.2	.6	1097.025	
283.15	.2	.8	1102.201	
283.15	.2	1	1107.214	
293.15	.2	0	1080.456	
293.15	.2	.01	1080.745	
293.15	.2	.025	1081.178	
293.15	.2	.04	1081.61	
293.15	.2	.1	1083.328	
293.15	.2	.25	1087.555	
293.15	.2	.4	1091.681	
293.15	.2	.6	1097.025	
293.15	.2	.8	1102.201	
293.15	.2	1	1107.214	
303.15	.2	0	1077.111	
303.15	.2	.01	1077.4	
303.15	.2	.025	1077.832	
303.15	.2	.04	1078.264	
303.15	.2	.1	1079.981	
303.15	.2	.25	1084.211	
303.15	.2	.4	1088.347	
303.15	.2	.6	1093.725	
303.15	.2	.8	1098.945	
303.15	.2	1	1104.014	
313.15	.2	0	1073.742	
313.15	.2	.01	1074.018	
313.15	.2	.025	1074.43	
313.15	.2	.04	1074.842	
313.15	.2	.1	1076.481	
313.15	.2	.25	1080.519	
313.15	.2	.4	1084.468	
313.15	.2	.6	1089.602	
313.15	.2	.8	1094.595	
313.15	.2	1	1099.438	
323.15	.2	0	1070.41	
323.15	.2	.01	1070.679	
323.15	.2	.025	1071.082	
323.15	.2	.04	1071.485	
323.15	.2	.1	1073.085	
323.15	.2	.25	1077.028	
323.15	.2	.4	1080.882	
323.15	.2	.6	1085.899	
323.15	.2	.8	1090.762	
323.15	.2	1	1095.495	
333.15	.2	0	1067.101	
333.15	.2	.01	1067.363	
333.15	.2	.025	1067.756	
333.15	.2	.04	1068.147	
333.15	.2	.1	1069.706	
333.15	.2	.25	1073.547	
333.15	.2	.4	1077.304	
333.15	.2	.6	1082.196	
333.15	.2	.8	1086.94	
333.15	.2	1	1091.561	

System: aminoethanoic acid + urea + water; phases: Liquid
Fixed: Pressure, kPa = 101
Fixed: Solvent: Mass fraction of urea = .05
Property: Mass density, kg/m3 (Liquid); method: Vibrating tube method
Temperature, K	Molality, mol/kg of aminoethanoic acid	Mass density, kg/m3	uncertainty
283.15	0	1014.98	
283.15	.01	1015.304	
283.15	.025	1015.789	
283.15	.04	1016.273	
283.15	.1	1018.196	
283.15	.2499	1022.914	
283.15	.3998	1027.509	
283.15	.5998	1033.446	
283.15	.7997	1039.171	
283.15	.9996	1044.688	
293.15	0	1012.77	
293.15	.01	1013.088	
293.15	.025	1013.563	
293.15	.04	1014.038	
293.15	.1	1015.924	
293.15	.2499	1020.557	
293.15	.3998	1025.078	
293.15	.5998	1030.936	
293.15	.7997	1036.596	
293.15	.9996	1042.066	
303.15	0	1009.68	
303.15	.01	1009.99	
303.15	.025	1010.453	
303.15	.04	1010.916	
303.15	.1	1012.755	
303.15	.2499	1017.276	
303.15	.3998	1021.692	
303.15	.5998	1027.429	
303.15	.7997	1032.978	
303.15	.9996	1038.35	
313.15	0	1005.845	
313.15	.01	1006.149	
313.15	.025	1006.605	
313.15	.04	1007.059	
313.15	.1	1008.867	
313.15	.2499	1013.309	
313.15	.3998	1017.647	
313.15	.5998	1023.28	
313.15	.7997	1028.728	
313.15	.9996	1034	
323.15	0	1001.34	
323.15	.01	1001.64	
323.15	.025	1002.089	
323.15	.04	1002.537	
323.15	.1	1004.318	
323.15	.2499	1008.698	
323.15	.3998	1012.978	
323.15	.5998	1018.538	
323.15	.7997	1023.918	
323.15	.9996	1029.137	
333.15	0	996.262	
333.15	.01	996.56	
333.15	.025	997.005	
333.15	.04	997.45	
333.15	.1	999.217	
333.15	.2499	1003.569	
333.15	.3998	1007.822	
333.15	.5998	1013.345	
333.15	.7997	1018.704	
333.15	.9996	1023.903	

System: aminoethanoic acid + 1,2-ethanediol, butyl ether + water; phases: Liquid
Fixed: Pressure, kPa = 101
Fixed: Solvent: Mass fraction of 1,2-ethanediol, butyl ether = .05
Property: Mass density, kg/m3 (Liquid); method: Vibrating tube method
Temperature, K	Molality, mol/kg of aminoethanoic acid	Mass density, kg/m3	uncertainty
283.15	0	998.344	
283.15	.0099	998.668	
283.15	.0249	999.159	
283.15	.0399	999.648	
283.15	.0999	1001.592	
283.15	.2479	1006.308	
283.15	.3999	1011.031	
283.15	.4999	1014.078	
293.15	0	995.517	
293.15	.0099	995.835	
293.15	.0249	996.315	
293.15	.0399	996.794	
293.15	.0999	998.7	
293.15	.2479	1003.327	
293.15	.3999	1007.967	
293.15	.4999	1010.961	
303.15	0	991.663	
303.15	.0099	991.973	
303.15	.0249	992.442	
303.15	.0399	992.91	
303.15	.0999	994.77	
303.15	.2479	999.287	
303.15	.3999	1003.818	
303.15	.4999	1006.739	
313.15	0	987.019	
313.15	.0099	987.324	
313.15	.0249	987.786	
313.15	.0399	988.246	
313.15	.0999	990.078	
313.15	.2479	994.524	
313.15	.3999	998.989	
313.15	.4999	1001.874	

System: aminoethanoic acid + 2,3-butanediol + water; phases: Liquid
Fixed: Pressure, kPa = 101
Fixed: Solvent: Mass fraction of 2,3-butanediol = .05
Property: Mass density, kg/m3 (Liquid); method: Vibrating tube method
Temperature, K	Molality, mol/kg of aminoethanoic acid	Mass density, kg/m3	uncertainty
283.15	0	1002.001	
283.15	.01	1002.326	
283.15	.025	1002.812	
283.15	.04	1003.297	
283.15	.1	1005.227	
283.15	.25	1009.978	
283.15	.4	1014.627	
283.15	.6	1020.661	
283.15	.8	1026.523	
283.15	1	1032.2	
293.15	0	1000.325	
293.15	.01	1000.644	
293.15	.025	1001.121	
293.15	.04	1001.596	
293.15	.1	1003.489	
293.15	.25	1008.147	
293.15	.4	1012.7	
293.15	.6	1018.616	
293.15	.8	1024.348	
293.15	1	1029.903	
303.15	0	997.603	
303.15	.01	997.915	
303.15	.025	998.382	
303.15	.04	998.848	
303.15	.1	1000.7	
303.15	.25	1005.262	
303.15	.4	1009.718	
303.15	.6	1015.506	
303.15	.8	1021.112	
303.15	1	1026.552	
313.15	0	994.005	
313.15	.01	994.31	
313.15	.025	994.767	
313.15	.04	995.223	
313.15	.1	997.036	
313.15	.25	1001.496	
313.15	.4	1005.852	
313.15	.6	1011.509	
313.15	.8	1016.985	
313.15	1	1022.288	
323.15	0	989.66	
323.15	.01	989.962	
323.15	.025	990.415	
323.15	.04	990.867	
323.15	.1	992.663	
323.15	.25	997.083	
323.15	.4	1001.4	
323.15	.6	1007.005	
323.15	.8	1012.431	
323.15	1	1017.694	
333.15	0	984.675	
333.15	.01	984.973	
333.15	.025	985.418	
333.15	.04	985.862	
333.15	.1	987.629	
333.15	.25	991.978	
333.15	.4	996.228	
333.15	.6	1001.737	
333.15	.8	1007.08	
333.15	1	1012.256	

System: D-(+)-sucrose + L-2-aminoisovaleric acid + water; phases: Liquid
Fixed: Pressure, kPa = 101
Property: Mass density, kg/m3 (Liquid); method: Vibrating tube method
Temperature, K	Solvent: Mass fraction of D-(+)-sucrose	Amount concentration (molarity), mol/dm3 of L-2-aminoisovaleric acid	Mass density, kg/m3	uncertainty
283.15	0	0	999.701	
283.15	0	.0099	999.978	
283.15	0	.0248	1000.394	
283.15	0	.0398	1000.81	
283.15	0	.0748	1001.777	
283.15	0	.0998	1002.463	
283.15	0	.2498	1006.489	
283.15	0	.4197	1010.873	
293.15	0	0	998.203	
303.15	0	0	995.647	
303.15	0	.0099	995.909	
303.15	0	.0248	996.302	
303.15	0	.0398	996.696	
303.15	0	.0748	997.608	
303.15	0	.0998	998.255	
303.15	0	.2498	1002.037	
303.15	0	.4197	1006.123	
313.15	0	0	992.214	
313.15	0	.0099	992.467	
313.15	0	.0248	992.848	
313.15	0	.0398	993.229	
313.15	0	.0748	994.114	
313.15	0	.0998	994.742	
313.15	0	.2498	998.439	
313.15	0	.4197	1002.48	
323.15	0	0	988.032	
323.15	0	.0099	988.284	
323.15	0	.0248	988.663	
323.15	0	.0398	989.042	
323.15	0	.0748	989.92	
323.15	0	.0998	990.541	
323.15	0	.2498	994.17	
323.15	0	.4197	998.075	
333.15	0	0	983.193	
333.15	0	.0099	983.438	
333.15	0	.0248	983.805	
333.15	0	.0398	984.173	
333.15	0	.0748	985.025	
333.15	0	.0998	985.629	
333.15	0	.2498	989.163	
333.15	0	.4197	992.985	
283.15	.05	0	1020.65	
283.15	.05	.01	1020.914	
283.15	.05	.0251	1021.311	
283.15	.05	.0401	1021.705	
283.15	.05	.0753	1022.624	
283.15	.05	.1003	1023.273	
283.15	.05	.2508	1027.11	
283.15	.05	.4214	1031.32	
293.15	.05	0	1018.84	
293.15	.05	.01	1019.099	
293.15	.05	.0251	1019.489	
293.15	.05	.0401	1019.875	
293.15	.05	.0753	1020.773	
293.15	.05	.1003	1021.406	
293.15	.05	.2508	1025.127	
293.15	.05	.4214	1029.163	
303.15	.05	0	1016.042	
303.15	.05	.01	1016.29	
303.15	.05	.0251	1016.663	
303.15	.05	.0401	1017.033	
303.15	.05	.0753	1017.895	
303.15	.05	.1003	1018.502	
303.15	.05	.2508	1022.089	
303.15	.05	.4214	1026.006	
313.15	.05	0	1012.432	
313.15	.05	.01	1012.671	
313.15	.05	.0251	1013.032	
313.15	.05	.0401	1013.389	
313.15	.05	.0753	1014.222	
313.15	.05	.1003	1014.809	
313.15	.05	.2508	1018.28	
313.15	.05	.4214	1022.078	
323.15	.05	0	1008.092	
323.15	.05	.01	1008.329	
323.15	.05	.0251	1008.686	
323.15	.05	.0401	1009.039	
323.15	.05	.0753	1009.863	
323.15	.05	.1003	1010.444	
323.15	.05	.2508	1013.867	
323.15	.05	.4214	1017.6	
333.15	.05	0	1002.961	
333.15	.05	.01	1003.196	
333.15	.05	.0251	1003.55	
333.15	.05	.0401	1003.9	
333.15	.05	.0753	1004.714	
333.15	.05	.1003	1005.286	
333.15	.05	.2508	1008.631	
333.15	.05	.4214	1012.222	
283.15	.1	0	1040.432	
283.15	.1	.01	1040.683	
283.15	.1	.025	1041.058	
283.15	.1	.04	1041.432	
283.15	.1	.075	1042.301	
283.15	.1	.1	1042.916	
283.15	.1	.2498	1046.536	
283.15	.1	.4197	1050.497	
293.15	.1	0	1038.341	
293.15	.1	.01	1038.584	
293.15	.1	.025	1038.948	
293.15	.1	.04	1039.31	
293.15	.1	.075	1040.15	
293.15	.1	.1	1040.745	
293.15	.1	.2498	1044.237	
293.15	.1	.4197	1048.043	
303.15	.1	0	1035.325	
303.15	.1	.01	1035.561	
303.15	.1	.025	1035.913	
303.15	.1	.04	1036.265	
303.15	.1	.075	1037.079	
303.15	.1	.1	1037.657	
303.15	.1	.2498	1041.047	
303.15	.1	.4197	1044.743	
313.15	.1	0	1031.436	
313.15	.1	.01	1031.572	
313.15	.1	.025	1031.91	
313.15	.1	.04	1032.247	
313.15	.1	.075	1033.027	
313.15	.1	.1	1033.579	
313.15	.1	.2498	1036.809	
313.15	.1	.4197	1040.308	
323.15	.1	0	1026.662	
323.15	.1	.01	1026.89	
323.15	.1	.025	1027.231	
323.15	.1	.04	1027.57	
323.15	.1	.075	1028.354	
323.15	.1	.1	1028.908	
323.15	.1	.2498	1032.127	
323.15	.1	.4197	1035.572	
333.15	.1	0	1020.722	
333.15	.1	.01	1020.94	
333.15	.1	.025	1021.266	
333.15	.1	.04	1021.591	
333.15	.1	.075	1022.344	
333.15	.1	.1	1022.878	
333.15	.1	.2498	1026.012	
333.15	.1	.4197	1029.433	
283.15	.2	0	1083.813	
283.15	.2	.01	1084.028	
283.15	.2	.0249	1084.346	
283.15	.2	.0399	1084.664	
283.15	.2	.0748	1085.399	
283.15	.2	.0998	1085.92	
283.15	.2	.2495	1088.941	
283.15	.2	.4191	1092.171	
293.15	.2	0	1080.456	
293.15	.2	.01	1080.657	
293.15	.2	.0249	1080.956	
293.15	.2	.0399	1081.256	
293.15	.2	.0748	1081.948	
293.15	.2	.0998	1082.44	
293.15	.2	.2495	1085.314	
293.15	.2	.4191	1088.424	
303.15	.2	0	1077.111	
303.15	.2	.01	1077.309	
303.15	.2	.0249	1077.604	
303.15	.2	.0399	1077.899	
303.15	.2	.0748	1078.582	
303.15	.2	.0998	1079.067	
303.15	.2	.2495	1081.898	
303.15	.2	.4191	1084.967	
313.15	.2	0	1073.742	
313.15	.2	.01	1073.926	
313.15	.2	.0249	1074.2	
313.15	.2	.0399	1074.475	
313.15	.2	.0748	1075.109	
313.15	.2	.0998	1075.559	
313.15	.2	.2495	1078.187	
313.15	.2	.4191	1081.031	
323.15	.2	0	1070.41	
323.15	.2	.01	1070.585	
323.15	.2	.0249	1070.844	
323.15	.2	.0399	1071.104	
323.15	.2	.0748	1071.704	
323.15	.2	.0998	1072.13	
323.15	.2	.2495	1074.623	
323.15	.2	.4191	1077.314	
333.15	.2	0	1067.101	
333.15	.2	.01	1067.263	
333.15	.2	.0249	1067.504	
333.15	.2	.0399	1067.746	
333.15	.2	.0748	1068.304	
333.15	.2	.0998	1068.7	
333.15	.2	.2495	1071.009	
333.15	.2	.4191	1073.502	

System: D-(+)-sucrose + L-leucine + water; phases: Liquid
Fixed: Pressure, kPa = 101
Property: Viscosity, Pa*s (Liquid); method: Capillary tube (Ostwald; Ubbelohde) method
Temperature, K	Solvent: Mass fraction of D-(+)-sucrose	Amount concentration (molarity), mol/dm3 of L-leucine	Viscosity, Pa*s	uncertainty
283.15	.05	.0103	.001394	.000001
283.15	.05	.0256	.001409	.000001
283.15	.05	.0411	.001408	.000001
283.15	.05	.0767	.00146	.000001
283.15	.05	.1022	.001486	.000001
283.15	.05	.1228	.001507	.000001
293.15	.05	.0103	.001077	.000001
293.15	.05	.0256	.001089	.000001
293.15	.05	.0411	.001088	.000001
293.15	.05	.0765	.001128	.000001
293.15	.05	.102	.001147	.000001
293.15	.05	.1226	.001163	.000001
303.15	.05	.0103	.000902	.000001
303.15	.05	.0255	.000912	.000001
303.15	.05	.0409	.000911	.000001
303.15	.05	.0763	.000944	.000001
303.15	.05	.1017	.00096	.000001
303.15	.05	.1222	.000973	.000001
313.15	.05	.0102	.00076	.000001
313.15	.05	.0254	.000768	.000001
313.15	.05	.0408	.000768	.000001
313.15	.05	.076	.000796	.000001
313.15	.05	.1013	.000809	.000001
313.15	.05	.1218	.000821	.000001
323.15	.05	.0102	.000566	.000001
323.15	.05	.0253	.000572	.000001
323.15	.05	.0406	.000572	.000001
323.15	.05	.0757	.000593	.000001
323.15	.05	.1009	.000603	.000001
323.15	.05	.1213	.000612	.000001
333.15	.05	.0101	.00056	.000001
333.15	.05	.0252	.000566	.000001
333.15	.05	.0404	.000566	.000001
333.15	.05	.0753	.000587	.000001
333.15	.05	.1004	.000598	.000001
333.15	.05	.1207	.000606	.000001
283.15	.1	.0104	.001667	.000001
283.15	.1	.026	.001685	.000001
283.15	.1	.0416	.001703	.000001
283.15	.1	.078	.001745	.000001
283.15	.1	.104	.001775	.000001
283.15	.1	.1249	.0018	.000001
293.15	.1	.0104	.001242	.000001
293.15	.1	.026	.001256	.000001
293.15	.1	.0415	.001269	.000001
293.15	.1	.0779	.0013	.000001
293.15	.1	.1038	.001322	.000001
293.15	.1	.1246	.00134	.000001
303.15	.1	.0104	.001057	.000001
303.15	.1	.0259	.001069	.000001
303.15	.1	.0414	.00108	.000001
303.15	.1	.0776	.001106	.000001
303.15	.1	.1035	.001124	.000001
303.15	.1	.1242	.001139	.000001
313.15	.1	.0103	.000866	.000001
313.15	.1	.0258	.000875	.000001
313.15	.1	.0413	.000884	.000001
313.15	.1	.0774	.000905	.000001
313.15	.1	.1031	.00092	.000001
313.15	.1	.1238	.000932	.000001
323.15	.1	.0103	.000616	.000001
323.15	.1	.0257	.000623	.000001
323.15	.1	.0411	.000629	.000001
323.15	.1	.077	.000645	.000001
323.15	.1	.1027	.000656	.000001
323.15	.1	.1232	.000664	.000001
333.15	.1	.0102	.000622	.000001
333.15	.1	.0255	.000629	.000001
333.15	.1	.0408	.000636	.000001
333.15	.1	.0766	.000651	.000001
333.15	.1	.1021	.000663	.000001
333.15	.1	.1225	.000671	.000001
283.15	.2	.0108	.001889	.000001
283.15	.2	.0271	.001908	.000001
283.15	.2	.0435	.001928	.000001
283.15	.2	.0814	.001973	.000001
283.15	.2	.1086	.002006	.000001
283.15	.2	.1303	.002032	.000001
293.15	.2	.0108	.001375	.000001
293.15	.2	.027	.001389	.000001
293.15	.2	.0433	.001404	.000001
293.15	.2	.0811	.001438	.000001
293.15	.2	.1083	.001462	.000001
293.15	.2	.1299	.001481	.000001
303.15	.2	.0108	.001252	.000001
303.15	.2	.0269	.001266	.000001
303.15	.2	.0432	.00128	.000001
303.15	.2	.0809	.001311	.000001
303.15	.2	.1079	.001334	.000001
303.15	.2	.1295	.001352	.000001
313.15	.2	.0107	.00107	.000001
313.15	.2	.0268	.001081	.000001
313.15	.2	.0431	.001093	.000001
313.15	.2	.0806	.001119	.000001
313.15	.2	.1076	.001138	.000001
313.15	.2	.1291	.001154	.000001
323.15	.2	.0107	.000719	.000001
323.15	.2	.0268	.000727	.000001
323.15	.2	.0429	.000735	.000001
323.15	.2	.0804	.000754	.000001
323.15	.2	.1073	.000767	.000001
323.15	.2	.1287	.000777	.000001
333.15	.2	.0107	.000729	.000001
333.15	.2	.0267	.000737	.000001
333.15	.2	.0428	.000745	.000001
333.15	.2	.0801	.000764	.000001
333.15	.2	.1069	.000777	.000001
333.15	.2	.1283	.000788	.000001

System: D-(+)-sucrose + L-leucine + water; phases: Liquid
Fixed: Pressure, kPa = 101
Property: Mass density, kg/m3 (Liquid); method: Vibrating tube method
Solvent: Mass fraction of D-(+)-sucrose	Temperature, K	Amount concentration (molarity), mol/dm3 of L-leucine	Mass density, kg/m3	uncertainty
0	283.15	0	999.701	
0	283.15	.0101	999.957	
0	283.15	.0251	1000.335	
0	283.15	.0402	1000.713	
0	283.15	.0752	1001.576	
0	283.15	.1002	1002.183	
0	283.15	.1203	1002.665	
0	293.15	0	998.203	
0	293.15	.0101	998.451	
0	293.15	.0251	998.817	
0	293.15	.0402	999.182	
0	293.15	.0752	1000.022	
0	293.15	.1002	1000.614	
0	293.15	.1203	1001.084	
0	303.15	0	995.647	
0	303.15	.0101	995.886	
0	303.15	.0251	996.239	
0	303.15	.0402	996.592	
0	303.15	.0752	997.4	
0	303.15	.1002	997.968	
0	303.15	.1203	998.421	
0	313.15	0	992.214	
0	313.15	.0101	992.444	
0	313.15	.0251	992.784	
0	313.15	.0402	993.124	
0	313.15	.0752	993.907	
0	313.15	.1002	994.459	
0	313.15	.1203	994.902	
0	323.15	0	988.032	
0	323.15	.0101	988.261	
0	323.15	.0251	988.598	
0	323.15	.0402	988.935	
0	323.15	.0752	989.704	
0	323.15	.1002	990.244	
0	323.15	.1203	990.673	
0	333.15	0	983.193	
0	333.15	.0101	983.417	
0	333.15	.0251	983.747	
0	333.15	.0402	984.078	
0	333.15	.0752	984.836	
0	333.15	.1002	985.371	
0	333.15	.1203	985.797	
.05	283.15	0	1020.65	
.05	283.15	.0101	1020.91	
.05	283.15	.0251	1021.293	
.05	283.15	.0403	1021.678	
.05	283.15	.0751	1022.546	
.05	283.15	.1001	1023.158	
.05	283.15	.1203	1023.646	
.05	293.15	0	1018.84	
.05	293.15	.0101	1019.095	
.05	293.15	.0251	1019.471	
.05	293.15	.0403	1019.847	
.05	293.15	.0751	1020.694	
.05	293.15	.1001	1021.29	
.05	293.15	.1203	1021.764	
.05	303.15	0	1016.042	
.05	303.15	.0101	1016.285	
.05	303.15	.0251	1016.644	
.05	303.15	.0403	1017.004	
.05	303.15	.0751	1017.818	
.05	303.15	.1001	1018.393	
.05	303.15	.1203	1018.852	
.05	313.15	0	1012.432	
.05	313.15	.0101	1012.665	
.05	313.15	.0251	1013.01	
.05	313.15	.0403	1013.358	
.05	313.15	.0751	1014.148	
.05	313.15	.1001	1014.711	
.05	313.15	.1203	1015.161	
.05	323.15	0	1008.092	
.05	323.15	.0101	1008.325	
.05	323.15	.0251	1008.668	
.05	323.15	.0403	1009.012	
.05	323.15	.0751	1009.784	
.05	323.15	.1001	1010.328	
.05	323.15	.1203	1010.759	
.05	333.15	0	1002.961	
.05	333.15	.0101	1003.187	
.05	333.15	.0251	1003.521	
.05	333.15	.0403	1003.858	
.05	333.15	.0751	1004.621	
.05	333.15	.1001	1005.163	
.05	333.15	.1203	1005.596	
.1	283.15	.01	1040.661	
.1	283.15	.025	1041.003	
.1	283.15	.04	1041.343	
.1	283.15	.075	1042.13	
.1	283.15	.1	1042.686	
.1	283.15	.12	1043.129	
.1	293.15	.01	1038.566	
.1	293.15	.025	1038.901	
.1	293.15	.04	1039.232	
.1	293.15	.075	1039.993	
.1	293.15	.1	1040.525	
.1	293.15	.12	1040.944	
.1	303.15	.01	1035.537	
.1	303.15	.025	1035.853	
.1	303.15	.04	1036.168	
.1	303.15	.075	1036.894	
.1	303.15	.1	1037.405	
.1	303.15	.12	1037.811	
.1	313.15	.01	1031.552	
.1	313.15	.025	1031.859	
.1	313.15	.04	1032.165	
.1	313.15	.075	1032.871	
.1	313.15	.1	1033.368	
.1	313.15	.12	1033.762	
.1	323.15	.01	1026.863	
.1	323.15	.025	1027.163	
.1	323.15	.04	1027.46	
.1	323.15	.075	1028.145	
.1	323.15	.1	1028.628	
.1	323.15	.12	1029.009	
.1	333.15	.01	1020.921	
.1	333.15	.025	1021.219	
.1	333.15	.04	1021.513	
.1	333.15	.075	1022.192	
.1	333.15	.1	1022.668	
.1	333.15	.12	1023.045	
.2	283.15	0	1083.813	
.2	283.15	.01	1083.994	
.2	283.15	.025	1084.263	
.2	283.15	.0401	1084.532	
.2	283.15	.0751	1085.145	
.2	283.15	.1002	1085.578	
.2	283.15	.1202	1085.917	
.2	293.15	0	1080.456	
.2	293.15	.01	1080.63	
.2	293.15	.025	1080.889	
.2	293.15	.0401	1081.148	
.2	293.15	.0751	1081.742	
.2	293.15	.1002	1082.163	
.2	293.15	.1202	1082.495	
.2	303.15	0	1077.111	
.2	303.15	.01	1077.278	
.2	303.15	.025	1077.527	
.2	303.15	.0401	1077.774	
.2	303.15	.0751	1078.341	
.2	303.15	.1002	1078.74	
.2	303.15	.1202	1079.053	
.2	313.15	0	1073.742	
.2	313.15	.01	1073.9	
.2	313.15	.025	1074.135	
.2	313.15	.0401	1074.371	
.2	313.15	.0751	1074.908	
.2	313.15	.1002	1075.288	
.2	313.15	.1202	1075.587	
.2	323.15	0	1070.41	
.2	323.15	.01	1070.561	
.2	323.15	.025	1070.786	
.2	323.15	.0401	1071.011	
.2	323.15	.0751	1071.525	
.2	323.15	.1002	1071.887	
.2	323.15	.1202	1072.173	
.2	333.15	0	1067.101	
.2	333.15	.01	1067.248	
.2	333.15	.025	1067.466	
.2	333.15	.0401	1067.684	
.2	333.15	.0751	1068.183	
.2	333.15	.1002	1068.535	
.2	333.15	.1202	1068.812	

System: urea + L-leucine + water; phases: Liquid
Fixed: Pressure, kPa = 101
Fixed: Solvent: Mass fraction of urea = .05
Property: Mass density, kg/m3 (Liquid); method: Vibrating tube method
Temperature, K	Amount concentration (molarity), mol/dm3 of L-leucine	Mass density, kg/m3	uncertainty
283.15	0	1014.98	
283.15	.0098	1015.226	
283.15	.0246	1015.594	
283.15	.0394	1015.96	
283.15	.0738	1016.8	
283.15	.0984	1017.391	
283.15	.1181	1017.86	
293.15	0	1012.77	
293.15	.0098	1013.013	
293.15	.0246	1013.376	
293.15	.0394	1013.735	
293.15	.0738	1014.557	
293.15	.0984	1015.133	
293.15	.1181	1015.585	
303.15	0	1009.68	
303.15	.0098	1009.913	
303.15	.0246	1010.263	
303.15	.0394	1010.61	
303.15	.0738	1011.401	
303.15	.0984	1011.957	
303.15	.1181	1012.394	
313.15	0	1005.845	
313.15	.0098	1006.072	
313.15	.0246	1006.412	
313.15	.0394	1006.749	
313.15	.0738	1007.518	
313.15	.0984	1008.057	
313.15	.1181	1008.483	
323.15	0	1001.34	
323.15	.0098	1001.567	
323.15	.0246	1001.907	
323.15	.0394	1002.241	
323.15	.0738	1003	
323.15	.0984	1003.526	
323.15	.1181	1003.938	
333.15	0	996.262	
333.15	.0098	996.484	
333.15	.0246	996.816	
333.15	.0394	997.145	
333.15	.0738	997.894	
333.15	.0984	998.417	
333.15	.1181	998.829	

System: L-leucine + 1,2-ethanediol, butyl ether + water; phases: Liquid
Fixed: Pressure, kPa = 101
Fixed: Solvent: Mass fraction of 1,2-ethanediol, butyl ether = .05
Property: Mass density, kg/m3 (Liquid); method: Vibrating tube method
Temperature, K	Amount concentration (molarity), mol/dm3 of 1,2-ethanediol, butyl ether	Mass density, kg/m3	uncertainty
283.15	0	998.344	
283.15	.0098	998.6	
283.15	.0246	998.986	
283.15	.0394	999.37	
283.15	.0738	1000.256	
283.15	.0984	1000.884	
283.15	.1181	1001.384	
293.15	0	995.517	
293.15	.0098	995.769	
293.15	.0246	996.148	
293.15	.0394	996.525	
293.15	.0738	997.394	
293.15	.0984	998.01	
293.15	.1181	998.498	
303.15	0	991.663	
303.15	.0098	991.907	
303.15	.0246	992.275	
303.15	.0394	992.64	
303.15	.0738	993.482	
303.15	.0984	994.078	
303.15	.1181	994.551	
313.15	0	987.019	
313.15	.0098	987.258	
313.15	.0246	987.618	
313.15	.0394	987.976	
313.15	.0738	988.799	
313.15	.0984	989.382	
313.15	.1181	989.844	

System: L-leucine + 2,3-butanediol + water; phases: Liquid
Fixed: Pressure, kPa = 101
Fixed: Solvent: Mass fraction of 2,3-butanediol = .05
Property: Viscosity, Pa*s (Liquid); method: Capillary tube (Ostwald; Ubbelohde) method
Temperature, K	Amount concentration (molarity), mol/dm3 of L-leucine	Viscosity, Pa*s	uncertainty
283.15	.0099	.001416	.000001
283.15	.0248	.00143	.000001
283.15	.0398	.001443	.000001
283.15	.0745	.001475	.000001
283.15	.0994	.001498	.000001
283.15	.1193	.001516	.000001
293.15	.0099	.001082	.000001
293.15	.0248	.001093	.000001
293.15	.0397	.001104	.000001
293.15	.0744	.001128	.000001
293.15	.0992	.001146	.000001
293.15	.1191	.00116	.000001
303.15	.0099	.000939	.000001
303.15	.0247	.000949	.000001
303.15	.0396	.000958	.000001
303.15	.0742	.000981	.000001
303.15	.099	.000997	.000001
303.15	.1188	.001009	.000001
313.15	.0098	.000763	.000001
313.15	.0247	.00077	.000001
313.15	.0395	.000778	.000001
313.15	.074	.000795	.000001
313.15	.0986	.000808	.000001
313.15	.1184	.000818	.000001
323.15	.0098	.000538	.000001
323.15	.0245	.000543	.000001
323.15	.0393	.000549	.000001
323.15	.0736	.000561	.000001
323.15	.0982	.00057	.000001
323.15	.1179	.000578	.000001
333.15	.0097	.000523	.000001
333.15	.0244	.000528	.000001
333.15	.0391	.000534	.000001
333.15	.0733	.000546	.000001
333.15	.0977	.000555	.000001
333.15	.1173	.000562	.000001

System: L-leucine + 2,3-butanediol + water; phases: Liquid
Fixed: Pressure, kPa = 101
Fixed: Solvent: Mass fraction of 2,3-butanediol = .05
Property: Mass density, kg/m3 (Liquid); method: Vibrating tube method
Temperature, K	Amount concentration (molarity), mol/dm3 of L-leucine	Mass density, kg/m3	uncertainty
283.15	0	998.344	
283.15	.0098	998.6	
283.15	.0246	998.986	
283.15	.0394	999.37	
283.15	.0738	1000.256	
283.15	.0984	1000.884	
283.15	.1181	1001.384	
293.15	0	995.517	
293.15	.0098	995.769	
293.15	.0246	996.148	
293.15	.0394	996.525	
293.15	.0738	997.394	
293.15	.0984	998.01	
293.15	.1181	998.498	
303.15	0	991.663	
303.15	.0098	991.907	
303.15	.0246	992.275	
303.15	.0394	992.64	
303.15	.0738	993.482	
303.15	.0984	994.078	
303.15	.1181	994.551	
313.15	0	987.019	
313.15	.0098	987.258	
313.15	.0246	987.618	
313.15	.0394	987.976	
313.15	.0738	988.799	
313.15	.0984	989.382	
313.15	.1181	989.844	

System: D-(+)-sucrose + L-phenylalanine + water; phases: Liquid
Fixed: Pressure, kPa = 101
Property: Mass density, kg/m3 (Liquid); method: Vibrating tube method
Temperature, K	Solvent: Volume fraction of D-(+)-sucrose	Amount concentration (molarity), mol/dm3 of L-phenylalanine	Mass density, kg/m3	uncertainty
283.15	0	0	999.701	
283.15	0	.0101	1000.144	
283.15	0	.0253	1000.813	
283.15	0	.0405	1001.492	
283.15	0	.0759	1003.087	
283.15	0	.0998	1004.239	
283.15	0	.1298	1005.636	
293.15	0	0	998.203	
293.15	0	.0101	998.64	
293.15	0	.0253	999.3	
293.15	0	.0405	999.966	
293.15	0	.0759	1001.528	
293.15	0	.0998	1002.65	
293.15	0	.1298	1004.006	
303.15	0	0	995.647	
313.15	0	0	992.214	
313.15	0	.0101	992.64	
313.15	0	.0253	993.281	
313.15	0	.0405	993.926	
313.15	0	.0759	995.431	
313.15	0	.0998	996.505	
313.15	0	.1298	997.794	
323.15	0	0	988.032	
323.15	0	.0101	988.453	
323.15	0	.0253	989.086	
323.15	0	.0405	989.723	
323.15	0	.0759	991.207	
323.15	0	.0998	992.264	
323.15	0	.1298	993.533	
333.15	0	0	983.193	
333.15	0	.0101	983.608	
333.15	0	.0253	984.234	
333.15	0	.0405	984.864	
333.15	0	.0759	986.338	
333.15	0	.0998	987.391	
333.15	0	.1298	988.657	
303.15	.05	0	1016.042	
303.15	.05	.0101	1016.487	
303.15	.05	.0253	1017.155	
303.15	.05	.0405	1017.819	
303.15	.05	.0759	1019.357	
303.15	.05	.1012	1020.447	
303.15	.05	.1316	1021.746	
313.15	.05	0	1012.432	
313.15	.05	.0101	1012.871	
313.15	.05	.0253	1013.528	
313.15	.05	.0405	1014.184	
313.15	.05	.0759	1015.699	
313.15	.05	.1012	1016.773	
313.15	.05	.1316	1018.053	
323.15	.05	0	1008.092	
323.15	.05	.0101	1008.532	
323.15	.05	.0253	1009.19	
323.15	.05	.0405	1009.843	
323.15	.05	.0759	1011.344	
323.15	.05	.1012	1012.401	
323.15	.05	.1316	1013.651	
333.15	.05	0	1002.961	
333.15	.05	.0101	1003.385	
333.15	.05	.0253	1004.02	
333.15	.05	.0405	1004.652	
333.15	.05	.0759	1006.112	
333.15	.05	.1012	1007.145	
333.15	.05	.1316	1008.375	
303.15	.1	0	1035.325	
303.15	.1	.01	1035.752	
303.15	.1	.025	1036.389	
303.15	.1	.04	1037.02	
303.15	.1	.075	1038.476	
303.15	.1	.1	1039.501	
303.15	.1	.13	1040.713	
313.15	.1	0	1031.436	
313.15	.1	.01	1031.759	
313.15	.1	.025	1032.376	
313.15	.1	.04	1032.989	
313.15	.1	.075	1034.406	
313.15	.1	.1	1035.406	
313.15	.1	.13	1036.595	
323.15	.1	0	1026.662	
323.15	.1	.01	1027.071	
323.15	.1	.025	1027.681	
323.15	.1	.04	1028.287	
323.15	.1	.075	1029.684	
323.15	.1	.1	1030.669	
323.15	.1	.13	1031.835	
333.15	.1	0	1020.722	
333.15	.1	.01	1021.121	
333.15	.1	.025	1021.716	
333.15	.1	.04	1022.308	
333.15	.1	.075	1023.672	
333.15	.1	.1	1024.634	
333.15	.1	.13	1025.774	
303.15	.2	0	1077.111	
303.15	.2	.01	1077.488	
303.15	.2	.0249	1078.047	
303.15	.2	.0398	1078.603	
303.15	.2	.0747	1079.893	
303.15	.2	.0996	1080.804	
303.15	.2	.1294	1081.883	
313.15	.2	0	1073.742	
313.15	.2	.01	1074.109	
313.15	.2	.0249	1074.652	
313.15	.2	.0398	1075.192	
313.15	.2	.0747	1076.443	
313.15	.2	.0996	1077.325	
313.15	.2	.1294	1078.369	
323.15	.2	0	1070.41	
323.15	.2	.01	1070.765	
323.15	.2	.0249	1071.29	
323.15	.2	.0398	1071.813	
323.15	.2	.0747	1073.025	
323.15	.2	.0996	1073.878	
323.15	.2	.1294	1074.89	
333.15	.2	0	1067.101	
333.15	.2	.01	1067.448	
333.15	.2	.0249	1067.962	
333.15	.2	.0398	1068.473	
333.15	.2	.0747	1069.658	
333.15	.2	.0996	1070.494	
333.15	.2	.1294	1071.483	

System: L-phenylalanine + 2,3-butanediol + water; phases: Liquid
Fixed: Pressure, kPa = 101
Fixed: Solvent: Mass fraction of 2,3-butanediol = .05
Property: Mass density, kg/m3 (Liquid); method: Vibrating tube method
Temperature, K	Amount concentration (molarity), mol/dm3 of L-phenylalanine	Mass density, kg/m3	uncertainty
303.15	0	997.603	
303.15	.01	998.056	
303.15	.0249	998.728	
303.15	.0399	999.401	
303.15	.0748	1000.952	
303.15	.0998	1002.052	
303.15	.1297	1003.353	
313.15	0	994.005	
313.15	.01	994.449	
313.15	.0249	995.107	
313.15	.0399	995.766	
313.15	.0748	997.282	
313.15	.0998	998.356	
313.15	.1297	999.625	
323.15	0	989.66	
323.15	.01	990.097	
323.15	.0249	990.744	
323.15	.0399	991.392	
323.15	.0748	992.885	
323.15	.0998	993.942	
323.15	.1297	995.192	
333.15	0	984.675	

System: D-(+)-sucrose + L-asparagine (anhydrous) + water; phases: Liquid
Fixed: Pressure, kPa = 101
Property: Mass density, kg/m3 (Liquid); method: Vibrating tube method
Temperature, K	Solvent: Mass fraction of D-(+)-sucrose	Amount concentration (molarity), mol/dm3 of L-asparagine (anhydrous)	Mass density, kg/m3	uncertainty
283.15	0	0	999.701	
283.15	0	.0101	1000.283	
283.15	0	.0251	1001.146	
283.15	0	.0402	1002.013	
283.15	0	.0752	1004.01	
283.15	0	.1002	1005.429	
283.15	0	.1252	1006.839	
293.15	0	0	998.203	
293.15	0	.0101	998.759	
293.15	0	.0251	999.582	
293.15	0	.0402	1000.409	
293.15	0	.0752	1002.316	
293.15	0	.1002	1003.67	
293.15	0	.1252	1005.018	
303.15	0	0	995.647	
303.15	0	.0101	996.185	
303.15	0	.0251	996.982	
303.15	0	.0402	997.781	
303.15	0	.0752	999.619	
303.15	0	.1002	1000.921	
303.15	0	.1252	1002.214	
313.15	0	0	992.214	
313.15	0	.0101	992.751	
313.15	0	.0251	993.547	
313.15	0	.0402	994.345	
313.15	0	.0752	996.183	
313.15	0	.1002	997.486	
313.15	0	.1252	998.781	
323.15	0	0	988.032	
323.15	0	.0101	988.564	
323.15	0	.0251	989.351	
323.15	0	.0402	990.139	
323.15	0	.0752	991.951	
323.15	0	.1002	993.233	
323.15	0	.1252	994.503	
333.15	0	0	983.193	
333.15	0	.0101	983.713	
333.15	0	.0251	984.482	
333.15	0	.0402	985.253	
333.15	0	.0752	987.027	
333.15	0	.1002	988.283	
333.15	0	.1252	989.53	
303.15	.05	0	1016.042	
303.15	.05	.0098	1016.549	
303.15	.05	.0244	1017.302	
303.15	.05	.0391	1018.058	
303.15	.05	.0733	1019.81	
303.15	.05	.0978	1021.058	
303.15	.05	.1271	1022.543	
313.15	.05	0	1012.432	
313.15	.05	.0098	1012.933	
313.15	.05	.0244	1013.678	
313.15	.05	.0391	1014.424	
313.15	.05	.0733	1016.147	
313.15	.05	.0978	1017.37	
313.15	.05	.1271	1018.819	
323.15	.05	0	1008.092	
323.15	.05	.0098	1008.586	
323.15	.05	.0244	1009.321	
323.15	.05	.0391	1010.057	
323.15	.05	.0733	1011.759	
323.15	.05	.0978	1012.97	
323.15	.05	.1271	1014.405	
333.15	.05	0	1002.961	
333.15	.05	.0098	1003.443	
333.15	.05	.0244	1004.158	
333.15	.05	.0391	1004.876	
333.15	.05	.0733	1006.537	
333.15	.05	.0978	1007.72	
333.15	.05	.1271	1009.125	
303.15	.1	0	1035.325	
303.15	.1	.01	1035.83	
303.15	.1	.025	1036.586	
303.15	.1	.04	1037.338	
303.15	.1	.075	1039.08	
303.15	.1	.1	1040.314	
303.15	.1	.13	1041.784	
313.15	.1	0	1031.436	
313.15	.1	.01	1031.842	
313.15	.1	.025	1032.583	
313.15	.1	.04	1033.321	
313.15	.1	.075	1035.032	
313.15	.1	.1	1036.244	
313.15	.1	.13	1037.688	
323.15	.1	0	1026.662	
323.15	.1	.01	1027.149	
323.15	.1	.025	1027.876	
323.15	.1	.04	1028.6	
323.15	.1	.075	1030.275	
323.15	.1	.1	1031.458	
323.15	.1	.13	1032.865	
333.15	.1	0	1020.722	
333.15	.1	.01	1021.203	
333.15	.1	.025	1021.921	
333.15	.1	.04	1022.636	
333.15	.1	.075	1024.293	
333.15	.1	.1	1025.466	
333.15	.1	.13	1026.862	
303.15	.2	0	1077.111	
303.15	.2	.01	1077.585	
303.15	.2	.025	1078.293	
303.15	.2	.04	1078.998	
303.15	.2	.075	1080.633	
303.15	.2	.1	1081.791	
303.15	.2	.13	1083.17	
313.15	.2	0	1073.742	
313.15	.2	.01	1074.206	
313.15	.2	.025	1074.899	
313.15	.2	.04	1075.589	
313.15	.2	.075	1077.184	
313.15	.2	.1	1078.312	
313.15	.2	.13	1079.65	
323.15	.2	0	1070.41	
323.15	.2	.01	1070.864	
323.15	.2	.025	1071.542	
323.15	.2	.04	1072.216	
323.15	.2	.075	1073.777	
323.15	.2	.1	1074.881	
323.15	.2	.13	1076.193	
333.15	.2	0	1067.101	
333.15	.2	.01	1067.548	
333.15	.2	.025	1068.217	
333.15	.2	.04	1068.882	
333.15	.2	.075	1070.42	
333.15	.2	.1	1071.507	
333.15	.2	.13	1072.799	

System: L-asparagine (anhydrous) + 2,3-butanediol + water; phases: Liquid
Fixed: Pressure, kPa = 101
Property: Mass density, kg/m3 (Liquid); method: Vibrating tube method
Temperature, K	Solvent: Mass fraction of 2,3-butanediol	Amount concentration (molarity), mol/dm3 of L-asparagine (anhydrous)	Mass density, kg/m3	uncertainty
303.15	.05	0	997.603	
303.15	.05	.01	998.113	
303.15	.05	.025	998.875	
303.15	.05	.04	999.632	
303.15	.05	.0749	1001.379	
303.15	.05	.0999	1002.617	
303.15	.05	.1299	1004.087	
313.15	.05	0	994.005	
313.15	.05	.01	994.503	
313.15	.05	.025	995.246	
313.15	.05	.04	995.986	
313.15	.05	.0749	997.687	
313.15	.05	.0999	998.892	
313.15	.05	.1299	1000.322	
323.15	.05	0	989.66	
323.15	.05	.01	990.155	
323.15	.05	.025	990.893	
323.15	.05	.04	991.625	
323.15	.05	.0749	993.305	
323.15	.05	.0999	994.49	
323.15	.05	.1299	995.891	
333.15	.05	0	984.675	

System: L-2-aminoisovaleric acid + 2,3-butanediol + water; phases: Liquid
Fixed: Pressure, kPa = 101
Fixed: Solvent: Mass fraction of 2,3-butanediol = .05
Property: Mass density, kg/m3 (Liquid); method: Vibrating tube method
Temperature, K	Amount concentration (molarity), mol/dm3 of L-2-aminoisovaleric acid	Mass density, kg/m3	uncertainty
283.15	0	1002.001	
283.15	.0102	1002.285	
283.15	.0254	1002.708	
283.15	.0407	1003.132	
283.15	.0763	1004.112	
283.15	.1017	1004.807	
283.15	.2543	1008.893	
283.15	.4273	1013.354	
293.15	0	1000.325	
293.15	.0102	1000.601	
293.15	.0254	1001.012	
293.15	.0407	1001.425	
293.15	.0763	1002.379	
293.15	.1017	1003.056	
293.15	.2543	1007.047	
293.15	.4273	1011.426	
303.15	0	997.603	
303.15	.0102	997.879	
303.15	.0254	998.289	
303.15	.0407	998.699	
303.15	.0763	999.645	
303.15	.1017	1000.313	
303.15	.2543	1004.209	
303.15	.4273	1008.382	
313.15	0	994.005	
313.15	.0102	994.273	
313.15	.0254	994.67	
313.15	.0407	995.068	
313.15	.0763	995.984	
313.15	.1017	996.63	
313.15	.2543	1000.376	
313.15	.4273	1004.351	
323.15	0	989.66	
323.15	.0102	989.921	
323.15	.0254	990.308	
323.15	.0407	990.696	
323.15	.0763	991.59	
323.15	.1017	992.22	
323.15	.2543	995.887	
323.15	.4273	999.796	
333.15	0	984.675	
333.15	.0102	984.924	
333.15	.0254	985.294	
333.15	.0407	985.664	
333.15	.0763	986.52	
333.15	.1017	987.125	
333.15	.2543	990.671	
333.15	.4273	994.511	
