Measured thermophysical data. Activity coefficient at infinite dilution measurements for organic solutes  (polar and non-polar) in fatty compounds: Saturated fatty acids
Source: J. Chem. Thermodyn., 2012, 10.1016/j.jct.2012.06.009
Compound 1: capric acid, C10H20O2, purity 99%
Compound 2: lauric acid, C12H24O2, purity 99%
Compound 3: tetradecanoic acid, C14H28O2, purity 99.5%
Compound 4: hexadecanoic acid, C16H32O2, purity 99%
Compound 5: n-hexane, C6H14, purity 99%
Compound 6: heptane, C7H16, purity 99%
Compound 7: isooctane, C8H18, purity 99%
Compound 8: 1-hexene, C6H12, purity 99%
Compound 9: phenylmethane, C7H8, purity 99%
Compound 10: cyclohexane, C6H12, purity 99%
Compound 11: ethylbenzene, C8H10, purity 99%
Compound 12: methanol, CH4O, purity 99%
Compound 13: ethyl alcohol, C2H6O, purity 99%
Compound 14: propan-1-ol, C3H8O, purity 99%
Compound 15: 1-butanol, C4H10O, purity 99%
Compound 16: 2-propanol, C3H8O, purity 99%
Compound 17: butan-2-ol, C4H10O, purity 99%
Compound 18: methane, trichloro-, CHCl3, purity 99%
Compound 19: ethene, trichloro-, C2HCl3, purity 99%
Compound 20: monochlorobenzene, C6H5Cl, purity 99%
Compound 21: R-150, C2H4Cl2, purity 99%
Compound 22: .alpha.-chlorotoluene, C7H7Cl, purity 99%
Compound 23: ethyl ethanoate, C4H8O2, purity 99%
Compound 24: dimethyl ketone, C3H6O, purity 99%
Compound 25: benzene, methoxy-, C7H8O, purity 99%

System: n-hexane + capric acid; phases: Liquid
Fixed: Pressure, kPa = 101
Fixed: Mole fraction of n-hexane = 0
Property: Activity coefficient of n-hexane (Liquid); method: Chromatography
Temperature, K	Activity coefficient of n-hexane	uncertainty
314.1	1.752	.07008
314.24	1.774	.07096
333.26	1.731	.06924
333.38	1.696	.06784
353.3	1.653	.06612

System: heptane + capric acid; phases: Liquid
Fixed: Pressure, kPa = 101
Fixed: Mole fraction of heptane = 0
Property: Activity coefficient of heptane (Liquid); method: Chromatography
Temperature, K	Activity coefficient of heptane	uncertainty
314.1	1.87	.0748
314.24	1.901	.07604
333.26	1.827	.07308
333.38	1.824	.07296
353.3	1.754	.07016

System: capric acid + isooctane; phases: Liquid
Fixed: Pressure, kPa = 101
Fixed: Mole fraction of isooctane = 0
Property: Activity coefficient of isooctane (Liquid); method: Chromatography
Temperature, K	Activity coefficient of isooctane	uncertainty
314.1	2.018	.08072
314.24	1.983	.07932
333.26	1.914	.07656
353.25	1.858	.07432

System: capric acid + 1-hexene; phases: Liquid
Fixed: Pressure, kPa = 101
Fixed: Mole fraction of 1-hexene = 0
Property: Activity coefficient of 1-hexene (Liquid); method: Chromatography
Temperature, K	Activity coefficient of 1-hexene	uncertainty
314.24	1.559	.06236
333.26	1.496	.05984
333.38	1.494	.05976
353.3	1.428	.05712

System: phenylmethane + capric acid; phases: Liquid
Fixed: Pressure, kPa = 101
Fixed: Mole fraction of phenylmethane = 0
Property: Activity coefficient of phenylmethane (Liquid); method: Chromatography
Temperature, K	Activity coefficient of phenylmethane	uncertainty
314.1	1.151	.04604
314.24	1.174	.04696
333.26	1.122	.04488
333.38	1.116	.04464
353.25	1.144	.04576
353.3	1.156	.04624

System: cyclohexane + capric acid; phases: Liquid
Fixed: Pressure, kPa = 101
Fixed: Mole fraction of cyclohexane = 0
Property: Activity coefficient of cyclohexane (Liquid); method: Chromatography
Temperature, K	Activity coefficient of cyclohexane	uncertainty
314.1	1.436	.05744
314.24	1.461	.05844
333.26	1.386	.05544
333.38	1.391	.05564
353.25	1.352	.05408
353.3	1.309	.05236

System: ethylbenzene + capric acid; phases: Liquid
Fixed: Pressure, kPa = 101
Fixed: Mole fraction of ethylbenzene = 0
Property: Activity coefficient of ethylbenzene (Liquid); method: Chromatography
Temperature, K	Activity coefficient of ethylbenzene	uncertainty
333.26	1.278	.05112
333.35	1.302	.05208
353.3	1.218	.04872

System: methanol + capric acid; phases: Liquid
Fixed: Pressure, kPa = 101
Fixed: Mole fraction of methanol = 0
Property: Activity coefficient of methanol (Liquid); method: Chromatography
Temperature, K	Activity coefficient of methanol	uncertainty
314.24	2.14	.0856
333.38	1.845	.0738
353.08	1.462	.05848
353.3	1.569	.06276

System: ethyl alcohol + capric acid; phases: Liquid
Fixed: Pressure, kPa = 101
Fixed: Mole fraction of ethyl alcohol = 0
Property: Activity coefficient of ethyl alcohol (Liquid); method: Chromatography
Temperature, K	Activity coefficient of ethyl alcohol	uncertainty
314.1	2.115	.0846
314.24	2.067	.08268
333.26	1.728	.06912
333.38	1.783	.07132
353.3	1.478	.05912

System: propan-1-ol + capric acid; phases: Liquid
Fixed: Pressure, kPa = 101
Fixed: Mole fraction of propan-1-ol = 0
Property: Activity coefficient of propan-1-ol (Liquid); method: Chromatography
Temperature, K	Activity coefficient of propan-1-ol	uncertainty
314.1	1.887	.07548
314.24	1.924	.07696
333.26	1.569	.06276
333.38	1.6	.064
353.25	1.407	.05628
353.3	1.354	.05416

System: 1-butanol + capric acid; phases: Liquid
Fixed: Pressure, kPa = 101
Fixed: Mole fraction of 1-butanol = 0
Property: Activity coefficient of 1-butanol (Liquid); method: Chromatography
Temperature, K	Activity coefficient of 1-butanol	uncertainty
333.26	1.482	.05928
333.35	1.53	.0612
353.25	1.342	.05368
353.3	1.321	.05284

System: 2-propanol + capric acid; phases: Liquid
Fixed: Pressure, kPa = 101
Fixed: Mole fraction of 2-propanol = 0
Property: Activity coefficient of 2-propanol (Liquid); method: Chromatography
Temperature, K	Activity coefficient of 2-propanol	uncertainty
314.1	1.56	.0624
314.24	1.581	.06324
333.26	1.347	.05388
333.38	1.357	.05428
353.25	1.198	.04792
353.3	1.151	.04604

System: butan-2-ol + capric acid; phases: Liquid
Fixed: Pressure, kPa = 101
Fixed: Mole fraction of butan-2-ol = 0
Property: Activity coefficient of butan-2-ol (Liquid); method: Chromatography
Temperature, K	Activity coefficient of butan-2-ol	uncertainty
314.1	1.334	.05336
314.24	1.354	.05416
333.26	1.167	.04668
333.38	1.159	.04636
353.25	1.052	.04208
353.3	1.037	.04148

System: methane, trichloro- + capric acid; phases: Liquid
Fixed: Pressure, kPa = 101
Fixed: Mole fraction of methane, trichloro- = 0
Property: Activity coefficient of methane, trichloro- (Liquid); method: Chromatography
Temperature, K	Activity coefficient of methane, trichloro-	uncertainty
314.1	.823	.03292
314.24	.846	.03384
333.26	.85	.034
333.38	.827	.03308
353.3	.825	.033

System: ethene, trichloro- + capric acid; phases: Liquid
Fixed: Pressure, kPa = 101
Fixed: Mole fraction of ethene, trichloro- = 0
Property: Activity coefficient of ethene, trichloro- (Liquid); method: Chromatography
Temperature, K	Activity coefficient of ethene, trichloro-	uncertainty
314.1	1.048	.04192
314.24	1.037	.04148
333.26	1.003	.04012
333.38	1.009	.04036
353.08	.945	.0378
353.3	.969	.03876

System: monochlorobenzene + capric acid; phases: Liquid
Fixed: Pressure, kPa = 101
Fixed: Mole fraction of monochlorobenzene = 0
Property: Activity coefficient of monochlorobenzene (Liquid); method: Chromatography
Temperature, K	Activity coefficient of monochlorobenzene	uncertainty
333.26	1.163	.04652
333.38	1.181	.04724
353.25	1.17	.0468
353.3	1.151	.04604

System: R-150 + capric acid; phases: Liquid
Fixed: Pressure, kPa = 101
Fixed: Mole fraction of R-150 = 0
Property: Activity coefficient of R-150 (Liquid); method: Chromatography
Temperature, K	Activity coefficient of R-150	uncertainty
314.1	1.446	.05784
314.24	1.495	.0598
333.26	1.354	.05416
333.38	1.395	.0558
353.3	1.268	.05072

System: ethyl ethanoate + capric acid; phases: Liquid
Fixed: Pressure, kPa = 101
Fixed: Mole fraction of ethyl ethanoate = 0
Property: Activity coefficient of ethyl ethanoate (Liquid); method: Chromatography
Temperature, K	Activity coefficient of ethyl ethanoate	uncertainty
314.1	1.329	.05316
333.26	1.247	.04988
333.38	1.299	.05196
353.25	1.207	.04828

System: dimethyl ketone + capric acid; phases: Liquid
Fixed: Pressure, kPa = 101
Fixed: Mole fraction of dimethyl ketone = 0
Property: Activity coefficient of dimethyl ketone (Liquid); method: Chromatography
Temperature, K	Activity coefficient of dimethyl ketone	uncertainty
314.1	1.558	.06232
333.26	1.458	.05832
333.38	1.466	.05864
353.25	1.343	.05372

System: benzene, methoxy- + capric acid; phases: Liquid
Fixed: Pressure, kPa = 101
Fixed: Mole fraction of benzene, methoxy- = 0
Property: Activity coefficient of benzene, methoxy- (Liquid); method: Chromatography
Temperature, K	Activity coefficient of benzene, methoxy-	uncertainty
353.25	1.432	.05728
353.3	1.449	.05796

System: n-hexane + lauric acid; phases: Liquid
Fixed: Pressure, kPa = 101
Fixed: Mole fraction of n-hexane = 0
Property: Activity coefficient of n-hexane (Liquid); method: Chromatography
Temperature, K	Activity coefficient of n-hexane	uncertainty
314.24	1.574	.06296
333.26	1.532	.06128
333.38	1.538	.06152
353.25	1.499	.05996

System: heptane + lauric acid; phases: Liquid
Fixed: Pressure, kPa = 101
Fixed: Mole fraction of heptane = 0
Property: Activity coefficient of heptane (Liquid); method: Chromatography
Temperature, K	Activity coefficient of heptane	uncertainty
314.1	1.645	.0658
314.24	1.666	.06664
333.26	1.669	.06676
333.38	1.659	.06636
353.25	1.591	.06364
353.3	1.616	.06464

System: lauric acid + isooctane; phases: Liquid
Fixed: Pressure, kPa = 101
Fixed: Mole fraction of lauric acid = 0
Property: Activity coefficient of lauric acid (Liquid); method: Chromatography
Temperature, K	Activity coefficient of lauric acid	uncertainty
314.1	1.746	.06984
314.24	1.771	.07084
333.26	1.697	.06788
333.38	1.718	.06872
353.25	1.674	.06696
353.3	1.688	.06752

System: lauric acid + isooctane; phases: Liquid
Fixed: Pressure, kPa = 101
Fixed: Mole fraction of isooctane = 0
Property: Activity coefficient of isooctane (Liquid); method: Chromatography
Temperature, K	Activity coefficient of isooctane	uncertainty
314.1	1.746	.06984
314.24	1.771	.07084
333.26	1.697	.06788
333.38	1.718	.06872
353.25	1.674	.06696
353.3	1.688	.06752

System: lauric acid + 1-hexene; phases: Liquid
Fixed: Pressure, kPa = 101
Fixed: Mole fraction of 1-hexene = 0
Property: Activity coefficient of 1-hexene (Liquid); method: Chromatography
Temperature, K	Activity coefficient of 1-hexene	uncertainty
329.2	1.389	.05556
343.39	1.387	.05548
358.06	1.342	.05368

System: phenylmethane + lauric acid; phases: Liquid
Fixed: Pressure, kPa = 101
Fixed: Mole fraction of phenylmethane = 0
Property: Activity coefficient of phenylmethane (Liquid); method: Chromatography
Temperature, K	Activity coefficient of phenylmethane	uncertainty
314.1	1.064	.04256
314.24	1.078	.04312
333.26	1.067	.04268
333.38	1.04	.0416
353.3	1.052	.04208

System: cyclohexane + lauric acid; phases: Liquid
Fixed: Pressure, kPa = 101
Fixed: Mole fraction of cyclohexane = 0
Property: Activity coefficient of cyclohexane (Liquid); method: Chromatography
Temperature, K	Activity coefficient of cyclohexane	uncertainty
314.1	1.287	.05148
314.24	1.281	.05124
333.38	1.253	.05012
353.25	1.201	.04804
353.3	1.204	.04816

System: ethylbenzene + lauric acid; phases: Liquid
Fixed: Pressure, kPa = 101
Fixed: Mole fraction of ethylbenzene = 0
Property: Activity coefficient of ethylbenzene (Liquid); method: Chromatography
Temperature, K	Activity coefficient of ethylbenzene	uncertainty
314.24	1.222	.04888
333.26	1.202	.04808
333.38	1.189	.04756
353.25	1.178	.04712
353.3	1.175	.047

System: methanol + lauric acid; phases: Liquid
Fixed: Pressure, kPa = 101
Fixed: Mole fraction of methanol = 0
Property: Activity coefficient of methanol (Liquid); method: Chromatography
Temperature, K	Activity coefficient of methanol	uncertainty
314.1	1.811	.07244
328.82	1.896	.07584
333.26	1.672	.06688
343.65	1.656	.06624
353.3	1.582	.06328

System: ethyl alcohol + lauric acid; phases: Liquid
Fixed: Pressure, kPa = 101
Fixed: Mole fraction of ethyl alcohol = 0
Property: Activity coefficient of ethyl alcohol (Liquid); method: Chromatography
Temperature, K	Activity coefficient of ethyl alcohol	uncertainty
314.1	1.924	.07696
314.24	2.017	.08068
333.38	1.786	.07144
353.25	1.561	.06244
353.3	1.566	.06264

System: propan-1-ol + lauric acid; phases: Liquid
Fixed: Pressure, kPa = 101
Fixed: Mole fraction of propan-1-ol = 0
Property: Activity coefficient of propan-1-ol (Liquid); method: Chromatography
Temperature, K	Activity coefficient of propan-1-ol	uncertainty
314.1	1.758	.07032
314.24	1.784	.07136
333.26	1.566	.06264
333.38	1.605	.0642
353.25	1.426	.05704
353.3	1.432	.05728

System: 1-butanol + lauric acid; phases: Liquid
Fixed: Pressure, kPa = 101
Fixed: Mole fraction of 1-butanol = 0
Property: Activity coefficient of 1-butanol (Liquid); method: Chromatography
Temperature, K	Activity coefficient of 1-butanol	uncertainty
314.24	1.697	.06788
333.26	1.541	.06164
333.38	1.509	.06036
353.25	1.343	.05372
353.3	1.356	.05424

System: 2-propanol + lauric acid; phases: Liquid
Fixed: Pressure, kPa = 101
Fixed: Mole fraction of 2-propanol = 0
Property: Activity coefficient of 2-propanol (Liquid); method: Chromatography
Temperature, K	Activity coefficient of 2-propanol	uncertainty
314.1	1.5	.06
314.24	1.531	.06124
333.26	1.334	.05336
333.38	1.37	.0548
353.25	1.222	.04888
353.3	1.238	.04952

System: butan-2-ol + lauric acid; phases: Liquid
Fixed: Pressure, kPa = 101
Fixed: Mole fraction of butan-2-ol = 0
Property: Activity coefficient of butan-2-ol (Liquid); method: Chromatography
Temperature, K	Activity coefficient of butan-2-ol	uncertainty
314.1	1.282	.05128
314.24	1.298	.05192
333.38	1.174	.04696
353.25	1.064	.04256
353.3	1.077	.04308

System: methane, trichloro- + lauric acid; phases: Liquid
Fixed: Pressure, kPa = 101
Fixed: Mole fraction of methane, trichloro- = 0
Property: Activity coefficient of methane, trichloro- (Liquid); method: Chromatography
Temperature, K	Activity coefficient of methane, trichloro-	uncertainty
314.1	.81	.0324
314.24	.81	.0324
333.26	.832	.03328
333.38	.818	.03272
353.3	.839	.03356

System: ethene, trichloro- + lauric acid; phases: Liquid
Fixed: Pressure, kPa = 101
Fixed: Mole fraction of ethene, trichloro- = 0
Property: Activity coefficient of ethene, trichloro- (Liquid); method: Chromatography
Temperature, K	Activity coefficient of ethene, trichloro-	uncertainty
314.1	.952	.03808
314.24	.967	.03868
333.26	.944	.03776
333.38	.951	.03804
353.25	.933	.03732

System: monochlorobenzene + lauric acid; phases: Liquid
Fixed: Pressure, kPa = 101
Fixed: Mole fraction of monochlorobenzene = 0
Property: Activity coefficient of monochlorobenzene (Liquid); method: Chromatography
Temperature, K	Activity coefficient of monochlorobenzene	uncertainty
314.1	1.108	.04432
314.24	1.118	.04472
333.26	1.081	.04324
343.65	1.075	.043
353.25	1.066	.04264

System: R-150 + lauric acid; phases: Liquid
Fixed: Pressure, kPa = 101
Fixed: Mole fraction of R-150 = 0
Property: Activity coefficient of R-150 (Liquid); method: Chromatography
Temperature, K	Activity coefficient of R-150	uncertainty
314.1	1.38	.0552
314.24	1.37	.0548
333.26	1.297	.05188
333.38	1.318	.05272
353.25	1.233	.04932

System: .alpha.-chlorotoluene + lauric acid; phases: Liquid
Fixed: Pressure, kPa = 101
Fixed: Mole fraction of .alpha.-chlorotoluene = 0
Property: Activity coefficient of .alpha.-chlorotoluene (Liquid); method: Chromatography
Temperature, K	Activity coefficient of .alpha.-chlorotoluene	uncertainty
358.06	1.711	.06844
358.1	1.713	.06852

System: ethyl ethanoate + lauric acid; phases: Liquid
Fixed: Pressure, kPa = 101
Fixed: Mole fraction of ethyl ethanoate = 0
Property: Activity coefficient of ethyl ethanoate (Liquid); method: Chromatography
Temperature, K	Activity coefficient of ethyl ethanoate	uncertainty
314.1	1.369	.05476
314.24	1.36	.0544
333.38	1.278	.05112
353.25	1.198	.04792
353.3	1.214	.04856

System: dimethyl ketone + lauric acid; phases: Liquid
Fixed: Pressure, kPa = 101
Fixed: Mole fraction of dimethyl ketone = 0
Property: Activity coefficient of dimethyl ketone (Liquid); method: Chromatography
Temperature, K	Activity coefficient of dimethyl ketone	uncertainty
314.1	1.592	.06368
314.24	1.59	.0636
333.26	1.45	.058
333.38	1.466	.05864
353.25	1.335	.0534
353.3	1.365	.0546

System: benzene, methoxy- + lauric acid; phases: Liquid
Fixed: Pressure, kPa = 101
Fixed: Mole fraction of benzene, methoxy- = 0
Property: Activity coefficient of benzene, methoxy- (Liquid); method: Chromatography
Temperature, K	Activity coefficient of benzene, methoxy-	uncertainty
333.26	1.374	.05496
343.65	1.347	.05388
353.25	1.334	.05336
353.3	1.353	.05412

System: n-hexane + tetradecanoic acid; phases: Liquid
Fixed: Pressure, kPa = 101
Fixed: Mole fraction of n-hexane = 0
Property: Activity coefficient of n-hexane (Liquid); method: Chromatography
Temperature, K	Activity coefficient of n-hexane	uncertainty
338.27	1.345	.0538
348.3	1.329	.05316
358.33	1.335	.0534

System: heptane + tetradecanoic acid; phases: Liquid
Fixed: Pressure, kPa = 101
Fixed: Mole fraction of heptane = 0
Property: Activity coefficient of heptane (Liquid); method: Chromatography
Temperature, K	Activity coefficient of heptane	uncertainty
314.1	1.451	.05804
314.24	1.465	.0586
333.38	1.433	.05732
353.25	1.402	.05608
353.3	1.399	.05596

System: isooctane + tetradecanoic acid; phases: Liquid
Fixed: Pressure, kPa = 101
Fixed: Mole fraction of isooctane = 0
Property: Activity coefficient of isooctane (Liquid); method: Chromatography
Temperature, K	Activity coefficient of isooctane	uncertainty
338.27	1.534	.06136
348.3	1.505	.0602
358.33	1.448	.05792

System: tetradecanoic acid + 1-hexene; phases: Liquid
Fixed: Pressure, kPa = 101
Fixed: Mole fraction of tetradecanoic acid = 0
Property: Activity coefficient of tetradecanoic acid (Liquid); method: Chromatography
Temperature, K	Activity coefficient of tetradecanoic acid	uncertainty

System: tetradecanoic acid + 1-hexene; phases: Liquid
Fixed: Pressure, kPa = 101
Fixed: Mole fraction of 1-hexene = 0
Property: Activity coefficient of 1-hexene (Liquid); method: Chromatography
Temperature, K	Activity coefficient of 1-hexene	uncertainty
314.24	1.24	.0496
333.26	1.224	.04896
333.38	1.207	.04828
353.3	1.182	.04728

System: phenylmethane + tetradecanoic acid; phases: Liquid
Fixed: Pressure, kPa = 101
Fixed: Mole fraction of phenylmethane = 0
Property: Activity coefficient of phenylmethane (Liquid); method: Chromatography
Temperature, K	Activity coefficient of phenylmethane	uncertainty
338.27	.926	.03704
338.29	1.01	.0404
348.2	.958	.03832
358.33	.93	.0372

System: cyclohexane + tetradecanoic acid; phases: Liquid
Fixed: Pressure, kPa = 101
Fixed: Mole fraction of cyclohexane = 0
Property: Activity coefficient of cyclohexane (Liquid); method: Chromatography
Temperature, K	Activity coefficient of cyclohexane	uncertainty
314.1	1.091	.04364
314.24	1.089	.04356
333.38	1.066	.04264
353.25	1.047	.04188
353.3	1.024	.04096

System: ethylbenzene + tetradecanoic acid; phases: Liquid
Fixed: Pressure, kPa = 101
Fixed: Mole fraction of ethylbenzene = 0
Property: Activity coefficient of ethylbenzene (Liquid); method: Chromatography
Temperature, K	Activity coefficient of ethylbenzene	uncertainty
338.27	1.061	.04244
348.3	1.059	.04236
358.33	1.037	.04148

System: methanol + tetradecanoic acid; phases: Liquid
Fixed: Pressure, kPa = 101
Fixed: Mole fraction of methanol = 0
Property: Activity coefficient of methanol (Liquid); method: Chromatography
Temperature, K	Activity coefficient of methanol	uncertainty
338.29	1.997	.07988
314.24	1.919	.07676
333.26	1.732	.06928
333.38	1.709	.06836
358.31	1.596	.06384
353.3	1.564	.06256

System: ethyl alcohol + tetradecanoic acid; phases: Liquid
Fixed: Pressure, kPa = 101
Fixed: Mole fraction of ethyl alcohol = 0
Property: Activity coefficient of ethyl alcohol (Liquid); method: Chromatography
Temperature, K	Activity coefficient of ethyl alcohol	uncertainty
314.1	1.82	.0728
314.24	1.786	.07144
333.26	1.666	.06664
333.38	1.667	.06668
353.25	1.533	.06132
353.3	1.519	.06076

System: propan-1-ol + tetradecanoic acid; phases: Liquid
Fixed: Pressure, kPa = 101
Fixed: Mole fraction of propan-1-ol = 0
Property: Activity coefficient of propan-1-ol (Liquid); method: Chromatography
Temperature, K	Activity coefficient of propan-1-ol	uncertainty
314.1	1.614	.06456
314.24	1.651	.06604
333.26	1.522	.06088
333.38	1.511	.06044
353.25	1.373	.05492
353.3	1.369	.05476

System: 1-butanol + tetradecanoic acid; phases: Liquid
Fixed: Pressure, kPa = 101
Fixed: Mole fraction of 1-butanol = 0
Property: Activity coefficient of 1-butanol (Liquid); method: Chromatography
Temperature, K	Activity coefficient of 1-butanol	uncertainty
314.1	1.488	.05952
314.24	1.543	.06172
333.26	1.452	.05808
333.38	1.42	.0568
353.25	1.224	.04896
353.3	1.318	.05272

System: 2-propanol + tetradecanoic acid; phases: Liquid
Fixed: Pressure, kPa = 101
Fixed: Mole fraction of 2-propanol = 0
Property: Activity coefficient of 2-propanol (Liquid); method: Chromatography
Temperature, K	Activity coefficient of 2-propanol	uncertainty
314.1	1.394	.05576
314.24	1.421	.05684
333.26	1.305	.0522
333.38	1.297	.05188
353.25	1.194	.04776
353.3	1.187	.04748

System: butan-2-ol + tetradecanoic acid; phases: Liquid
Fixed: Pressure, kPa = 101
Fixed: Mole fraction of butan-2-ol = 0
Property: Activity coefficient of butan-2-ol (Liquid); method: Chromatography
Temperature, K	Activity coefficient of butan-2-ol	uncertainty
314.1	1.165	.0466
314.24	1.206	.04824
333.26	1.122	.04488
333.38	1.108	.04432
353.25	1.053	.04212
353.3	1.039	.04156

System: methane, trichloro- + tetradecanoic acid; phases: Liquid
Fixed: Pressure, kPa = 101
Fixed: Mole fraction of methane, trichloro- = 0
Property: Activity coefficient of methane, trichloro- (Liquid); method: Chromatography
Temperature, K	Activity coefficient of methane, trichloro-	uncertainty
314.1	.743	.02972
314.24	.743	.02972
333.26	.739	.02956
333.38	.74	.0296
353.25	.746	.02984
353.3	.727	.02908

System: ethene, trichloro- + tetradecanoic acid; phases: Liquid
Fixed: Pressure, kPa = 101
Fixed: Mole fraction of ethene, trichloro- = 0
Property: Activity coefficient of ethene, trichloro- (Liquid); method: Chromatography
Temperature, K	Activity coefficient of ethene, trichloro-	uncertainty
314.1	.847	.03388
314.24	.843	.03372
333.26	.842	.03368
333.38	.838	.03352
353.25	.842	.03368
353.3	.824	.03296

System: monochlorobenzene + tetradecanoic acid; phases: Liquid
Fixed: Pressure, kPa = 101
Fixed: Mole fraction of monochlorobenzene = 0
Property: Activity coefficient of monochlorobenzene (Liquid); method: Chromatography
Temperature, K	Activity coefficient of monochlorobenzene	uncertainty
314.1	.983	.03932
314.24	.998	.03992
333.26	.996	.03984
333.38	.982	.03928
353.25	.979	.03916
353.3	.961	.03844

System: R-150 + tetradecanoic acid; phases: Liquid
Fixed: Pressure, kPa = 101
Fixed: Mole fraction of R-150 = 0
Property: Activity coefficient of R-150 (Liquid); method: Chromatography
Temperature, K	Activity coefficient of R-150	uncertainty
314.1	1.207	.04828
314.24	1.237	.04948
333.26	1.195	.0478
333.38	1.176	.04704
353.25	1.132	.04528
353.3	1.128	.04512

System: .alpha.-chlorotoluene + tetradecanoic acid; phases: Liquid
Fixed: Pressure, kPa = 101
Fixed: Mole fraction of .alpha.-chlorotoluene = 0
Property: Activity coefficient of .alpha.-chlorotoluene (Liquid); method: Chromatography
Temperature, K	Activity coefficient of .alpha.-chlorotoluene	uncertainty
333.26	1.615	.0646
333.38	1.605	.0642
353.25	1.569	.06276
353.3	1.548	.06192

System: ethyl ethanoate + tetradecanoic acid; phases: Liquid
Fixed: Pressure, kPa = 101
Fixed: Mole fraction of ethyl ethanoate = 0
Property: Activity coefficient of ethyl ethanoate (Liquid); method: Chromatography
Temperature, K	Activity coefficient of ethyl ethanoate	uncertainty
314.1	1.24	.0496
314.24	1.205	.0482
333.26	1.193	.04772
333.38	1.188	.04752
353.25	1.13	.0452
353.3	1.121	.04484

System: dimethyl ketone + tetradecanoic acid; phases: Liquid
Fixed: Pressure, kPa = 101
Fixed: Mole fraction of dimethyl ketone = 0
Property: Activity coefficient of dimethyl ketone (Liquid); method: Chromatography
Temperature, K	Activity coefficient of dimethyl ketone	uncertainty
314.1	1.43	.0572
314.24	1.458	.05832
333.26	1.364	.05456
333.38	1.35	.054
353.25	1.296	.05184
353.3	1.267	.05068

System: benzene, methoxy- + tetradecanoic acid; phases: Liquid
Fixed: Pressure, kPa = 101
Fixed: Mole fraction of benzene, methoxy- = 0
Property: Activity coefficient of benzene, methoxy- (Liquid); method: Chromatography
Temperature, K	Activity coefficient of benzene, methoxy-	uncertainty
314.1	1.322	.05288
314.24	1.3	.052
333.26	1.286	.05144
333.38	1.268	.05072
353.25	1.238	.04952
353.3	1.208	.04832

System: hexadecanoic acid + n-hexane; phases: Liquid
Fixed: Pressure, kPa = 101
Fixed: Mole fraction of n-hexane = 0
Property: Activity coefficient of n-hexane (Liquid); method: Chromatography
Temperature, K	Activity coefficient of n-hexane	uncertainty
340.19	1.293	.05172
348.01	1.299	.05196
358.22	1.301	.05204

System: hexadecanoic acid + heptane; phases: Liquid
Fixed: Pressure, kPa = 101
Fixed: Mole fraction of heptane = 0
Property: Activity coefficient of heptane (Liquid); method: Chromatography
Temperature, K	Activity coefficient of heptane	uncertainty
340.19	1.399	.05596
348.01	1.38	.0552
358.22	1.372	.05488

System: hexadecanoic acid + isooctane; phases: Liquid
Fixed: Pressure, kPa = 101
Fixed: Mole fraction of isooctane = 0
Property: Activity coefficient of isooctane (Liquid); method: Chromatography
Temperature, K	Activity coefficient of isooctane	uncertainty
340.19	1.499	.05996
348.01	1.455	.0582
358.32	1.416	.05664

System: hexadecanoic acid + 1-hexene; phases: Liquid
Fixed: Pressure, kPa = 101
Fixed: Mole fraction of 1-hexene = 0
Property: Activity coefficient of 1-hexene (Liquid); method: Chromatography
Temperature, K	Activity coefficient of 1-hexene	uncertainty
340.17	1.17	.0468
348.01	1.178	.04712
358.22	1.2	.048

System: hexadecanoic acid + phenylmethane; phases: Liquid
Fixed: Pressure, kPa = 101
Fixed: Mole fraction of phenylmethane = 0
Property: Activity coefficient of phenylmethane (Liquid); method: Chromatography
Temperature, K	Activity coefficient of phenylmethane	uncertainty
340.19	.934	.03736
348.01	.935	.0374
358.22	.934	.03736

System: hexadecanoic acid + cyclohexane; phases: Liquid
Fixed: Pressure, kPa = 101
Fixed: Mole fraction of cyclohexane = 0
Property: Activity coefficient of cyclohexane (Liquid); method: Chromatography
Temperature, K	Activity coefficient of cyclohexane	uncertainty
340.19	1.031	.04124
348.01	1.022	.04088
358.22	1.011	.04044

System: hexadecanoic acid + ethylbenzene; phases: Liquid
Fixed: Pressure, kPa = 101
Fixed: Mole fraction of ethylbenzene = 0
Property: Activity coefficient of ethylbenzene (Liquid); method: Chromatography
Temperature, K	Activity coefficient of ethylbenzene	uncertainty
340.19	1.039	.04156
348.01	1.048	.04192
358.22	1.057	.04228

System: hexadecanoic acid + methanol; phases: Liquid
Fixed: Pressure, kPa = 101
Fixed: Mole fraction of methanol = 0
Property: Activity coefficient of methanol (Liquid); method: Chromatography
Temperature, K	Activity coefficient of methanol	uncertainty
340.17	2.088	.08352
347.93	1.935	.0774
358.23	1.798	.07192

System: hexadecanoic acid + ethyl alcohol; phases: Liquid
Fixed: Pressure, kPa = 101
Fixed: Mole fraction of ethyl alcohol = 0
Property: Activity coefficient of ethyl alcohol (Liquid); method: Chromatography
Temperature, K	Activity coefficient of ethyl alcohol	uncertainty
340.19	1.927	.07708
348.01	1.802	.07208
358.23	1.624	.06496

System: hexadecanoic acid + propan-1-ol; phases: Liquid
Fixed: Pressure, kPa = 101
Fixed: Mole fraction of propan-1-ol = 0
Property: Activity coefficient of propan-1-ol (Liquid); method: Chromatography
Temperature, K	Activity coefficient of propan-1-ol	uncertainty
340.19	1.735	.0694
348.01	1.627	.06508
358.32	1.5	.06

System: hexadecanoic acid + 1-butanol; phases: Liquid
Fixed: Pressure, kPa = 101
Fixed: Mole fraction of 1-butanol = 0
Property: Activity coefficient of 1-butanol (Liquid); method: Chromatography
Temperature, K	Activity coefficient of 1-butanol	uncertainty
340.19	1.647	.06588
348.01	1.555	.0622
358.32	1.43	.0572

System: hexadecanoic acid + 2-propanol; phases: Liquid
Fixed: Pressure, kPa = 101
Fixed: Mole fraction of 2-propanol = 0
Property: Activity coefficient of 2-propanol (Liquid); method: Chromatography
Temperature, K	Activity coefficient of 2-propanol	uncertainty
340.19	1.468	.05872
348.01	1.408	.05632
358.32	1.291	.05164

System: hexadecanoic acid + butan-2-ol; phases: Liquid
Fixed: Pressure, kPa = 101
Fixed: Mole fraction of butan-2-ol = 0
Property: Activity coefficient of butan-2-ol (Liquid); method: Chromatography
Temperature, K	Activity coefficient of butan-2-ol	uncertainty
340.19	1.258	.05032
348.01	1.199	.04796
358.32	1.116	.04464

System: hexadecanoic acid + methane, trichloro-; phases: Liquid
Fixed: Pressure, kPa = 101
Fixed: Mole fraction of methane, trichloro- = 0
Property: Activity coefficient of methane, trichloro- (Liquid); method: Chromatography
Temperature, K	Activity coefficient of methane, trichloro-	uncertainty
340.19	.748	.02992
348.01	.739	.02956
358.22	.759	.03036

System: hexadecanoic acid + ethene, trichloro-; phases: Liquid
Fixed: Pressure, kPa = 101
Fixed: Mole fraction of ethene, trichloro- = 0
Property: Activity coefficient of ethene, trichloro- (Liquid); method: Chromatography
Temperature, K	Activity coefficient of ethene, trichloro-	uncertainty
340.19	.831	.03324
348.01	.826	.03304
358.22	.831	.03324

System: hexadecanoic acid + monochlorobenzene; phases: Liquid
Fixed: Pressure, kPa = 101
Fixed: Mole fraction of monochlorobenzene = 0
Property: Activity coefficient of monochlorobenzene (Liquid); method: Chromatography
Temperature, K	Activity coefficient of monochlorobenzene	uncertainty
340.19	.974	.03896
348.01	.957	.03828
358.22	.974	.03896

System: hexadecanoic acid + R-150; phases: Liquid
Fixed: Pressure, kPa = 101
Fixed: Mole fraction of R-150 = 0
Property: Activity coefficient of R-150 (Liquid); method: Chromatography
Temperature, K	Activity coefficient of R-150	uncertainty
340.19	1.22	.0488
348.01	1.19	.0476
358.22	1.143	.04572

System: hexadecanoic acid + .alpha.-chlorotoluene; phases: Liquid
Fixed: Pressure, kPa = 101
Fixed: Mole fraction of .alpha.-chlorotoluene = 0
Property: Activity coefficient of .alpha.-chlorotoluene (Liquid); method: Chromatography
Temperature, K	Activity coefficient of .alpha.-chlorotoluene	uncertainty
348.01	1.62	.0648
358.22	1.569	.06276

System: hexadecanoic acid + ethyl ethanoate; phases: Liquid
Fixed: Pressure, kPa = 101
Fixed: Mole fraction of ethyl ethanoate = 0
Property: Activity coefficient of ethyl ethanoate (Liquid); method: Chromatography
Temperature, K	Activity coefficient of ethyl ethanoate	uncertainty
340.19	1.282	.05128
347.93	1.201	.04804
358.22	1.156	.04624

System: hexadecanoic acid + dimethyl ketone; phases: Liquid
Fixed: Pressure, kPa = 101
Fixed: Mole fraction of dimethyl ketone = 0
Property: Activity coefficient of dimethyl ketone (Liquid); method: Chromatography
Temperature, K	Activity coefficient of dimethyl ketone	uncertainty
340.19	1.494	.05976
348.01	1.417	.05668
358.23	1.325	.053
340.17	1.494	.05976
347.93	1.41	.0564
358.32	1.342	.05368

System: hexadecanoic acid + benzene, methoxy-; phases: Liquid
Fixed: Pressure, kPa = 101
Fixed: Mole fraction of benzene, methoxy- = 0
Property: Activity coefficient of benzene, methoxy- (Liquid); method: Chromatography
Temperature, K	Activity coefficient of benzene, methoxy-	uncertainty
340.19	1.303	.05212
348.01	1.278	.05112
358.22	1.253	.05012
