Measured thermophysical data. Electrolytic conductivity and molar heat capacity of two aqueous solutions of ionic liquids at room-temperature: Measurements and correlations
Source: J. Chem. Thermodyn., 2010, 10.1016/j.jct.2010.03.017
Compound 1: 1-ethyl-3-methylimidazolium dicyanamide, C8H11N5, purity 99.9%
Compound 2: 1-ethyll-3-methylimidazolium 2-(2-methoxyethoxy)ethyl sulfate, C11H22N2O6S, purity 98.2%
Compound 3: water, H2O, purity 99.9%

System: water + 1-ethyl-3-methylimidazolium dicyanamide; phases: Liquid
Fixed: Pressure, kPa = 101
Property: Electrical conductivity, S/m (Liquid); method: Alternating current cell with electrodes
Temperature, K	Mole fraction of 1-ethyl-3-methylimidazolium dicyanamide	Electrical conductivity, S/m	uncertainty
293.2	.2	5.69	.0569
298.2	.2	6.41	.0641
303.2	.2	7.2	.072
308.2	.2	8	.08
313.2	.2	8.83	.0883
318.2	.2	9.63	.0963
323.2	.2	10.5	.105
328.2	.2	11.37	.1137
333.2	.2	12.22	.1222
338.2	.2	13.07	.1307
343.2	.2	13.93	.1393
348.2	.2	14.81	.1481
353.2	.2	15.64	.1564
293.2	.4	4.47	.0447
298.2	.4	5.06	.0506
303.2	.4	5.7	.057
308.2	.4	6.36	.0636
313.2	.4	7.03	.0703
318.2	.4	7.73	.0773
323.2	.4	8.42	.0842
328.2	.4	9.14	.0914
333.2	.4	9.85	.0985
338.2	.4	10.57	.1057
343.2	.4	11.27	.1127
348.2	.4	12	.12
353.2	.4	12.74	.1274
293.2	.6	3.47	.0347
298.2	.6	3.91	.0391
303.2	.6	4.4	.044
308.2	.6	4.91	.0491
313.2	.6	5.43	.0543
318.2	.6	5.97	.0597
323.2	.6	6.52	.0652
328.2	.6	7.08	.0708
333.2	.6	7.65	.0765
338.2	.6	8.22	.0822
343.2	.6	8.81	.0881
348.2	.6	9.42	.0942
353.2	.6	10.04	.1004
293.2	.8	2.72	.0272
298.2	.8	3.09	.0309
303.2	.8	3.48	.0348
308.2	.8	3.89	.0389
313.2	.8	4.32	.0432
318.2	.8	4.77	.0477
323.2	.8	5.25	.0525
328.2	.8	5.74	.0574
333.2	.8	6.22	.0622
338.2	.8	6.71	.0671
343.2	.8	7.26	.0726
348.2	.8	7.79	.0779
353.2	.8	8.36	.0836

System: water + 1-ethyl-3-methylimidazolium dicyanamide; phases: Liquid
Fixed: Pressure, kPa = 101
Property: Molar heat capacity at constant pressure, J/K/mol (Liquid); method: Small sample (50 mg) DSC
Mole fraction of 1-ethyl-3-methylimidazolium dicyanamide	Temperature, K	Molar heat capacity at constant pressure, J/K/mol	uncertainty
.2	293.2	5.69	.1138
.2	298.2	6.41	.1282
.2	303.2	7.2	.144
.2	308.2	8	.16
.2	313.2	8.83	.1766
.2	318.2	9.63	.1926
.2	323.2	10.5	.21
.2	328.2	11.37	.2274
.2	333.2	12.22	.2444
.2	338.2	13.07	.2614
.2	343.2	13.93	.2786
.2	348.2	14.81	.2962
.2	353.2	15.64	.3128
.4	293.2	4.47	.0894
.4	298.2	5.06	.1012
.4	303.2	5.7	.114
.4	308.2	6.36	.1272
.4	313.2	7.03	.1406
.4	318.2	7.73	.1546
.4	323.2	8.42	.1684
.4	328.2	9.14	.1828
.4	333.2	9.85	.197
.4	338.2	10.57	.2114
.4	343.2	11.27	.2254
.4	348.2	12	.24
.4	353.2	12.74	.2548
.6	293.2	3.47	.0694
.6	298.2	3.91	.0782
.6	303.2	4.4	.088
.6	308.2	4.91	.0982
.6	313.2	5.43	.1086
.6	318.2	5.97	.1194
.6	323.2	6.52	.1304
.6	328.2	7.08	.1416
.6	333.2	7.65	.153
.6	338.2	8.22	.1644
.6	343.2	8.81	.1762
.6	348.2	9.42	.1884
.6	353.2	10.04	.2008
.8	293.2	2.72	.0544
.8	298.2	3.09	.0618
.8	303.2	3.48	.0696
.8	308.2	3.89	.0778
.8	313.2	4.32	.0864
.8	318.2	4.77	.0954
.8	323.2	5.25	.105
.8	328.2	5.74	.1148
.8	333.2	6.22	.1244
.8	338.2	6.71	.1342
.8	343.2	7.26	.1452
.8	348.2	7.79	.1558
.8	353.2	8.36	.1672

System: water + 1-ethyll-3-methylimidazolium 2-(2-methoxyethoxy)ethyl sulfate; phases: Liquid
Fixed: Pressure, kPa = 101
Property: Electrical conductivity, S/m (Liquid); method: Alternating current cell with electrodes
Temperature, K	Mole fraction of 1-ethyll-3-methylimidazolium 2-(2-methoxyethoxy)ethyl sulfate	Electrical conductivity, S/m	uncertainty
293.2	.2	.82	.0082
298.2	.2	.99	.0099
303.2	.2	1.18	.0118
308.2	.2	1.4	.014
313.2	.2	1.63	.0163
318.2	.2	1.87	.0187
323.2	.2	2.12	.0212
328.2	.2	2.39	.0239
333.2	.2	2.68	.0268
338.2	.2	2.97	.0297
343.2	.2	3.28	.0328
348.2	.2	3.59	.0359
353.2	.2	3.93	.0393
293.2	.4	.42	.0042
298.2	.4	.51	.0051
303.2	.4	.63	.0063
308.2	.4	.76	.0076
313.2	.4	.9	.009
318.2	.4	1.06	.0106
323.2	.4	1.22	.0122
328.2	.4	1.4	.014
333.2	.4	1.58	.0158
338.2	.4	1.77	.0177
343.2	.4	1.96	.0196
348.2	.4	2.17	.0217
353.2	.4	2.39	.0239
293.2	.6	.24	.0024
298.2	.6	.3	.003
303.2	.6	.38	.0038
308.2	.6	.47	.0047
313.2	.6	.57	.0057
318.2	.6	.68	.0068
323.2	.6	.79	.0079
328.2	.6	.92	.0092
333.2	.6	1.06	.0106
338.2	.6	1.2	.012
343.2	.6	1.35	.0135
348.2	.6	1.51	.0151
353.2	.6	1.68	.0168
293.2	.8	.19	.0019
298.2	.8	.23	.0023
303.2	.8	.3	.003
308.2	.8	.38	.0038
313.2	.8	.46	.0046
318.2	.8	.56	.0056
323.2	.8	.67	.0067
328.2	.8	.79	.0079
333.2	.8	.92	.0092
338.2	.8	1.05	.0105
343.2	.8	1.2	.012
348.2	.8	1.36	.0136
353.2	.8	1.51	.0151

System: water + 1-ethyll-3-methylimidazolium 2-(2-methoxyethoxy)ethyl sulfate; phases: Liquid
Fixed: Pressure, kPa = 101
Property: Molar heat capacity at constant pressure, J/K/mol (Liquid); method: Small sample (50 mg) DSC
Mole fraction of 1-ethyll-3-methylimidazolium 2-(2-methoxyethoxy)ethyl sulfate	Temperature, K	Molar heat capacity at constant pressure, J/K/mol	uncertainty
.2	293.2	.82	.0164
.2	298.2	.99	.0198
.2	303.2	1.18	.0236
.2	308.2	1.4	.028
.2	313.2	1.63	.0326
.2	318.2	1.87	.0374
.2	323.2	2.12	.0424
.2	328.2	2.39	.0478
.2	333.2	2.68	.0536
.2	338.2	2.97	.0594
.2	343.2	3.28	.0656
.2	348.2	3.59	.0718
.2	353.2	3.93	.0786
.4	293.2	.42	.0084
.4	298.2	.51	.0102
.4	303.2	.63	.0126
.4	308.2	.76	.0152
.4	313.2	.9	.018
.4	318.2	1.06	.0212
.4	323.2	1.22	.0244
.4	328.2	1.4	.028
.4	333.2	1.58	.0316
.4	338.2	1.77	.0354
.4	343.2	1.96	.0392
.4	348.2	2.17	.0434
.4	353.2	2.39	.0478
.6	293.2	.24	.0048
.6	298.2	.3	.006
.6	303.2	.38	.0076
.6	308.2	.47	.0094
.6	313.2	.57	.0114
.6	318.2	.68	.0136
.6	323.2	.79	.0158
.6	328.2	.92	.0184
.6	333.2	1.06	.0212
.6	338.2	1.2	.024
.6	343.2	1.35	.027
.6	348.2	1.51	.0302
.6	353.2	1.68	.0336
.8	293.2	.24	.0048
.8	298.2	.3	.006
.8	303.2	.38	.0076
.8	308.2	.47	.0094
.8	313.2	.57	.0114
.8	318.2	.68	.0136
.8	323.2	.79	.0158
.8	328.2	.92	.0184
.8	333.2	1.06	.0212
.8	338.2	1.2	.024
.8	343.2	1.35	.027
.8	348.2	1.51	.0302
.8	353.2	1.68	.0336
