Measured thermophysical data. Crystal structure and thermochemical properties of n-octanammonium oxalate (C8H17NH3)2C2O4(s)
Source: J. Chem. Thermodyn., 2012, 10.1016/j.jct.2012.01.006
Compound 1: n-octanaminium oxalate, C18H40N2O4, purity 99.2%
Compound 2: water, H2O, purity 99.8%

System: n-octanaminium oxalate + water; phases: Liquid
Fixed: Pressure, kPa = 101.325
Fixed: Temperature, K = 298.15
Property: Molar enthalpy of solution, kJ/mol (Liquid); method: Isoperibol calorimetry
Molality, mol/kg of n-octanaminium oxalate	Molar enthalpy of solution, kJ/mol	uncertainty
.000152	28.088	.013
.000234	26.938	.013
.000354	25.916	.013
.000471	25.449	.013
.000587	25.186	.013
.000703	25.061	.013
.000823	24.975	.013
.000945	24.904	.013
.001059	24.856	.013
.001173	24.827	.013
.001409	24.762	.013
.001638	24.714	.013
.00188	24.684	.013
.002106	24.673	.013
.002344	24.661	.013
.002926	24.658	.013
