Measured thermophysical data. (Vapour + liquid) equilibrium data for the {1,1-difluoroethane (R152a) + 1,1,1,3,3-pentafluoropropane (R245fa)} system at temperatures from (323.150 to 353.150) K
Source: J. Chem. Thermodyn., 2015, 10.1016/j.jct.2015.08.024
Compound 1: R-152a, C2H4F2, purity 99.9%
Compound 2: R-245fa, C3H3F5, purity 99.0%

System: R-152a; phases: Liquid, Gas
Property: Vapor or sublimation pressure, kPa (Liquid); method: Closed cell (Static) method
Temperature, K	Vapor or sublimation pressure, kPa	uncertainty
323.15	1177.3	.5
333.15	1500.6	.5
343.15	1886.8	.5
353.15	2342.7	.5

System: R-245fa; phases: Liquid, Gas
Property: Vapor or sublimation pressure, kPa (Liquid); method: Closed cell (Static) method
Temperature, K	Vapor or sublimation pressure, kPa	uncertainty
323.15	344.4	.5
333.15	463.2	.5
343.15	609.8	.5
353.15	789.8	.5

System: R-152a + R-245fa; phases: Liquid, Gas
Property: Vapor or sublimation pressure, kPa (Liquid); method: Closed cell (Static) method
Mole fraction of R-152a	Temperature, K	Vapor or sublimation pressure, kPa	uncertainty
0	323.15	344.4	.5
.118	323.15	423	.5
.26	323.15	535.6	.5
.35	323.15	602.8	.5
.52	323.15	733.8	.5
.625	323.15	823.5	.5
.753	323.15	937.9	.5
.867	323.15	1051.6	.5
1	323.15	1177.3	.5
0	333.15	463.2	.5
.117	333.15	557.6	.5
.248	333.15	680	.5
.387	333.15	819.5	.5
.517	333.15	940.4	.5
.62	333.15	1051.6	.5
.75	333.15	1196.5	.5
.868	333.15	1339.4	.5
1	333.15	1500.6	.5
0	343.15	609.8	.5
.115	343.15	722.8	.5
.248	343.15	867.2	.5
.403	343.15	1056.3	.5
.515	343.15	1183.7	.5
.613	343.15	1321.9	.5
.748	343.15	1502.6	.5
.868	343.15	1681.6	.5
1	343.15	1886.8	.5
0	353.15	789.8	.5
.114	353.15	922.3	.5
.241	353.15	1087.7	.5
.395	353.15	1306	.5
.512	353.15	1474.5	.5
.611	353.15	1643.7	.5
.746	353.15	1864.3	.5
.869	353.15	2084.8	.5
1	353.15	2342.7	.5

System: R-152a + R-245fa; phases: Gas, Liquid
Property: Mole fraction of R-152a (Gas); method: Chromatography
Mole fraction of R-152a	Temperature, K	Mole fraction of R-152a	uncertainty
0	323.15	0	.005
.118	323.15	.275	.005
.26	323.15	.489	.005
.35	323.15	.601	.005
.52	323.15	.742	.005
.625	323.15	.826	.005
.753	323.15	.898	.005
.867	323.15	.952	.005
1	323.15	1	.005
0	333.15	0	.005
.117	333.15	.259	.005
.248	333.15	.452	.005
.387	333.15	.616	.005
.517	333.15	.726	.005
.62	333.15	.809	.005
.75	333.15	.89	.005
.868	333.15	.946	.005
1	333.15	1	.005
0	343.15	0	.005
.115	343.15	.245	.005
.248	343.15	.436	.005
.403	343.15	.615	.005
.515	343.15	.709	.005
.613	343.15	.792	.005
.748	343.15	.88	.005
.868	343.15	.939	.005
1	343.15	1	.005
0	353.15	0	.005
.114	353.15	.23	.005
.241	353.15	.412	.005
.395	353.15	.594	.005
.512	353.15	.698	.005
.611	353.15	.771	.005
.746	353.15	.865	.005
.869	353.15	.935	.005
1	353.15	1	.005
