Measured thermophysical data. Experimental and computational thermodynamic study of ortho- meta- and  para-aminobenzamide
Source: J. Chem. Thermodyn., 2013, 10.1016/j.jct.2012.12.006
Compound 1: anthranilamide, C7H8N2O, purity 99.9%
Compound 2: 3-aminobenzamide, C7H8N2O, purity 98%
Compound 3: 4-aminobenzamide, C7H8N2O, purity 99.6%
Compound 4: carbon dioxide, CO2
Compound 5: nitrogen, N2
Compound 6: water, H2O
Compound 7: oxygen, O2

System: anthranilamide; phases: Crystal, Liquid, Air at 1 atmosphere
Property: Triple point temperature, K (Crystal); method: DSC/DTA
Triple point temperature, K	uncertainty
384.4	.2

System: anthranilamide; phases: Crystal, Liquid, Air at 1 atmosphere
Property: Molar enthalpy of transition or fusion, kJ/mol (Crystal); method: DSC/DTA
Molar enthalpy of transition or fusion, kJ/mol	uncertainty
20.9	.2

System: anthranilamide; phases: Crystal, Gas
Property: Vapor or sublimation pressure, kPa (Crystal); method: Knudsen effusion method
Temperature, K	Vapor or sublimation pressure, kPa	uncertainty
335.11	.000095	.00001
337.17	.000121	.00001
339.17	.000152	.00001
341.1	.000187	.00001
343.16	.000236	.00001
345.16	.000298	.00001
347.11	.000359	.00001
349.16	.000441	.00001
351.17	.000545	.00001
353.12	.000667	.00001
355.16	.00082	.00001
357.16	.000993	.00001
335.11	.000096	.00001
337.17	.000121	.00001
339.17	.00015	.00001
341.1	.00019	.00001
343.16	.000237	.00001
345.16	.00029	.00001
347.11	.000359	.00001
349.16	.000445	.00001
351.17	.000539	.00001
353.12	.000667	.00001
355.16	.000826	.00001
357.16	.000994	.00001
335.11	.000095	.00001
337.17	.00012	.00001
339.17	.000149	.00001
341.1	.000188	.00001
343.16	.000232	.00001
345.16	.000285	.00001
347.11	.000357	.00001
349.16	.000435	.00001
351.17	.00053	.00001
353.12	.000663	.00001
355.16	.000806	.00001
357.16	.000993	.00001

System: 3-aminobenzamide; phases: Crystal 2, Crystal 1, Air at 1 atmosphere
Property: Triple point temperature, K (Crystal 2); method: DSC/DTA
Triple point temperature, K	uncertainty
352.4	.1

System: 3-aminobenzamide; phases: Crystal 1, Liquid, Air at 1 atmosphere
Property: Triple point temperature, K (Crystal 1); method: DSC/DTA
Triple point temperature, K	uncertainty
387.5	.2

System: 3-aminobenzamide; phases: Crystal 2, Crystal 1, Air at 1 atmosphere
Property: Molar enthalpy of transition or fusion, kJ/mol (Crystal 2); method: DSC/DTA
Molar enthalpy of transition or fusion, kJ/mol	uncertainty
3.3	.2

System: 3-aminobenzamide; phases: Crystal 1, Liquid, Air at 1 atmosphere
Property: Molar enthalpy of transition or fusion, kJ/mol (Crystal 1); method: DSC/DTA
Molar enthalpy of transition or fusion, kJ/mol	uncertainty
20.3	.3

System: 3-aminobenzamide; phases: Crystal, Gas
Property: Vapor or sublimation pressure, kPa (Crystal); method: Knudsen effusion method
Temperature, K	Vapor or sublimation pressure, kPa	uncertainty
358.14	.000037	.00001
360.19	.000048	.00001
362.14	.00006	.00001
364.14	.000075	.00001
366.17	.000094	.00001
368.15	.000117	.00001
370.15	.000143	.00001
372.19	.000176	.00001
374.13	.000222	.00001
376.15	.000274	.00001
378.18	.000342	.00001
380.14	.00042	.00001
358.14	.000037	.00001
360.19	.000048	.00001
362.14	.000059	.00001
364.14	.000075	.00001
366.17	.000094	.00001
368.15	.000116	.00001
370.15	.000144	.00001
372.19	.000179	.00001
374.13	.000218	.00001
376.15	.000276	.00001
378.18	.000342	.00001
380.14	.000406	.00001
358.14	.000038	.00001
360.19	.000047	.00001
362.14	.000058	.00001
364.14	.000075	.00001
366.17	.000094	.00001
368.15	.000114	.00001
370.15	.000146	.00001
372.19	.000177	.00001
374.13	.000216	.00001
376.15	.000275	.00001
378.18	.000338	.00001
380.14	.000405	.00001

System: 4-aminobenzamide; phases: Crystal, Liquid, Air at 1 atmosphere
Property: Triple point temperature, K (Crystal); method: DSC/DTA
Triple point temperature, K	uncertainty
457.6	.2

System: 4-aminobenzamide; phases: Crystal, Liquid, Air at 1 atmosphere
Property: Molar enthalpy of transition or fusion, kJ/mol (Crystal); method: DSC/DTA
Molar enthalpy of transition or fusion, kJ/mol	uncertainty
30	.2

System: 4-aminobenzamide; phases: Crystal, Gas
Property: Vapor or sublimation pressure, kPa (Crystal); method: Knudsen effusion method
Temperature, K	Vapor or sublimation pressure, kPa	uncertainty
389.14	.000125	.00001
391.15	.000156	.00001
393.14	.000187	.00001
397.15	.000279	.00001
399.14	.000335	.00001
401.16	.000411	.00001
403.15	.000498	.00001
405.14	.000602	.00001
407.19	.000728	.00001
409.2	.000883	.00001
411.15	.001054	.00001
389.14	.000124	.00001
391.15	.000154	.00001
393.14	.000185	.00001
395.15	.000228	.00001
399.14	.00033	.00001
401.16	.000407	.00001
403.15	.000497	.00001
405.14	.000597	.00001
407.19	.000728	.00001
409.2	.000873	.00001
411.15	.001042	.00001
389.14	.000124	.00001
391.15	.000152	.00001
393.14	.000182	.00001
395.15	.000226	.00001
397.15	.000271	.00001
399.14	.000332	.00001
401.16	.000407	.00001
403.15	.000495	.00001
405.14	.000591	.00001
407.19	.000721	.00001
409.2	.000868	.00001
411.15	.001008	.00001

Reaction: -1 anthranilamide + 7 carbon dioxide + 1 nitrogen + 4 water + -8.5 oxygen
Property: Specific internal energy of reaction at constant volume, J/g
-27006.99

Reaction: -1 3-aminobenzamide + 7 carbon dioxide + 1 nitrogen + 4 water + -8.5 oxygen
Property: Specific internal energy of reaction at constant volume, J/g
-26944.79

Reaction: -1 4-aminobenzamide + 7 carbon dioxide + 1 nitrogen + 4 water + -8.5 oxygen
Property: Specific internal energy of reaction at constant volume, J/g
-26923.84
