Measured thermophysical data. Thermodynamic modelling for solubility of 5-chloro-1-methyl-4-nitroimidazole in eleven organic solvents from T = (283.15 to 318.15) K
Source: J. Chem. Thermodyn., 2017, 10.1016/j.jct.2016.10.006
Compound 1: 5-chloro-1-methyl-4-nitroimidazole, C4H4ClN3O2, purity 98.4%
Compound 2: ethanol, C2H6O
Compound 3: methanol, CH4O
Compound 4: n-propanol, C3H8O
Compound 5: isopropanol, C3H8O
Compound 6: ethyl acetate, C4H8O2
Compound 7: acetone, C3H6O
Compound 8: toluene, C7H8
Compound 9: trichloromethane, CHCl3
Compound 10: 1,4-dioxane, C4H8O2
Compound 11: N-methyl-2-pyrrolidone, C5H9NO
Compound 12: 2-butanone, C4H8O

System: 5-chloro-1-methyl-4-nitroimidazole; phases: Crystal, Liquid, Air at 1 atmosphere
Property: Normal melting temperature, K (Crystal); method: DSC/DTA
Normal melting temperature, K	uncertainty
421.35	.5

System: 5-chloro-1-methyl-4-nitroimidazole; phases: Crystal, Liquid, Air at 1 atmosphere
Property: Molar enthalpy of transition or fusion, kJ/mol (Crystal); method: DSC
Molar enthalpy of transition or fusion, kJ/mol	uncertainty
22.42	.4

System: ethanol + 5-chloro-1-methyl-4-nitroimidazole; phases: Liquid, Crystal
Fixed: Pressure, kPa = 101.3
Property: Mole fraction of 5-chloro-1-methyl-4-nitroimidazole (Liquid); method: Chromatography
Temperature, K	Mole fraction of 5-chloro-1-methyl-4-nitroimidazole	uncertainty
283.15	.002184	
285.65	.002354	
288.15	.002588	
290.65	.002827	
293.15	.003131	
295.65	.003473	
298.15	.003813	
300.65	.004173	
303.15	.004559	
305.65	.004972	
308.15	.005388	
310.65	.005874	
313.15	.006431	
315.65	.007048	
318.15	.00784	

System: methanol + 5-chloro-1-methyl-4-nitroimidazole; phases: Liquid, Crystal
Fixed: Pressure, kPa = 101.3
Property: Mole fraction of 5-chloro-1-methyl-4-nitroimidazole (Liquid); method: Chromatography
Temperature, K	Mole fraction of 5-chloro-1-methyl-4-nitroimidazole	uncertainty
283.15	.002799	
285.65	.003157	
288.15	.00349	
290.65	.00385	
293.15	.004201	
295.65	.004601	
298.15	.005064	
300.65	.005543	
303.15	.00603	
305.65	.006515	
308.15	.006993	
310.65	.007558	
313.15	.008113	
315.65	.008699	
318.15	.00936	

System: n-propanol + 5-chloro-1-methyl-4-nitroimidazole; phases: Liquid, Crystal
Fixed: Pressure, kPa = 101.3
Property: Mole fraction of 5-chloro-1-methyl-4-nitroimidazole (Liquid); method: Chromatography
Temperature, K	Mole fraction of 5-chloro-1-methyl-4-nitroimidazole	uncertainty
283.15	.00152	
285.65	.001675	
288.15	.001871	
290.65	.002075	
293.15	.002324	
295.65	.002575	
298.15	.002817	
300.65	.003075	
303.15	.003422	
305.65	.0038	
308.15	.004184	
310.65	.004675	
313.15	.005225	
315.65	.005925	
318.15	.006596	

System: isopropanol + 5-chloro-1-methyl-4-nitroimidazole; phases: Liquid, Crystal
Fixed: Pressure, kPa = 101.3
Property: Mole fraction of 5-chloro-1-methyl-4-nitroimidazole (Liquid); method: Chromatography
Temperature, K	Mole fraction of 5-chloro-1-methyl-4-nitroimidazole	uncertainty
283.15	.001078	
285.65	.001248	
288.15	.001415	
290.65	.001576	
293.15	.001757	
295.65	.00195	
298.15	.002191	
300.65	.00247	
303.15	.002777	
305.65	.003127	
308.15	.00352	
310.65	.004077	
313.15	.004677	
315.65	.005327	
318.15	.005928	

System: ethyl acetate + 5-chloro-1-methyl-4-nitroimidazole; phases: Liquid, Crystal
Fixed: Pressure, kPa = 101.3
Property: Mole fraction of 5-chloro-1-methyl-4-nitroimidazole (Liquid); method: Chromatography
Temperature, K	Mole fraction of 5-chloro-1-methyl-4-nitroimidazole	uncertainty
283.15	.008461	
285.65	.009112	
288.15	.009829	
290.65	.01084	
293.15	.01179	
295.65	.01284	
298.15	.01387	
300.65	.01505	
303.15	.01617	
305.65	.01774	
308.15	.01908	
310.65	.02044	
313.15	.02178	
315.65	.02353	
318.15	.02532	

System: acetone + 5-chloro-1-methyl-4-nitroimidazole; phases: Liquid, Crystal
Fixed: Pressure, kPa = 101.3
Property: Mole fraction of 5-chloro-1-methyl-4-nitroimidazole (Liquid); method: Chromatography
Temperature, K	Mole fraction of 5-chloro-1-methyl-4-nitroimidazole	uncertainty
283.15	.01812	
285.65	.02017	
288.15	.02219	
290.65	.02483	
293.15	.02701	
295.65	.02989	
298.15	.03263	
300.65	.03576	
303.15	.03909	
305.65	.04264	
308.15	.04652	
310.65	.05078	
313.15	.05549	
315.65	.05999	
318.15	.06564	

System: toluene + 5-chloro-1-methyl-4-nitroimidazole; phases: Liquid, Crystal
Fixed: Pressure, kPa = 101.3
Property: Mole fraction of 5-chloro-1-methyl-4-nitroimidazole (Liquid); method: Chromatography
Temperature, K	Mole fraction of 5-chloro-1-methyl-4-nitroimidazole	uncertainty
283.15	.001941	
285.65	.002078	
288.15	.002283	
290.65	.002476	
293.15	.002724	
295.65	.002977	
298.15	.003254	
300.65	.003577	
303.15	.0039	
305.65	.004278	
308.15	.004683	
310.65	.005177	
313.15	.005677	
315.65	.006223	
318.15	.006831	

System: trichloromethane + 5-chloro-1-methyl-4-nitroimidazole; phases: Liquid, Crystal
Fixed: Pressure, kPa = 101.3
Property: Mole fraction of 5-chloro-1-methyl-4-nitroimidazole (Liquid); method: Chromatography
Temperature, K	Mole fraction of 5-chloro-1-methyl-4-nitroimidazole	uncertainty
283.15	.0132	
285.65	.01423	
288.15	.01561	
290.65	.01704	
293.15	.01851	
295.65	.02013	
298.15	.02191	
300.65	.02361	
303.15	.02554	
305.65	.02759	
308.15	.02981	
310.65	.03221	
313.15	.03453	
315.65	.03719	
318.15	.03995	

System: 1,4-dioxane + 5-chloro-1-methyl-4-nitroimidazole; phases: Liquid, Crystal
Fixed: Pressure, kPa = 101.3
Property: Mole fraction of 5-chloro-1-methyl-4-nitroimidazole (Liquid); method: Chromatography
Temperature, K	Mole fraction of 5-chloro-1-methyl-4-nitroimidazole	uncertainty
283.15	.007139	
285.65	.00797	
288.15	.008821	
290.65	.009856	
293.15	.0109	
295.65	.01187	
298.15	.01288	
300.65	.01401	
303.15	.01509	
305.65	.01606	
308.15	.01732	
310.65	.01858	
313.15	.01977	
315.65	.02105	
318.15	.02254	

System: N-methyl-2-pyrrolidone + 5-chloro-1-methyl-4-nitroimidazole; phases: Liquid, Crystal
Fixed: Pressure, kPa = 101.3
Property: Mole fraction of 5-chloro-1-methyl-4-nitroimidazole (Liquid); method: Chromatography
Temperature, K	Mole fraction of 5-chloro-1-methyl-4-nitroimidazole	uncertainty
283.15	.1566	
285.65	.1624	
288.15	.168	
290.65	.1743	
293.15	.1809	
295.65	.1879	
298.15	.1951	
300.65	.2021	
303.15	.2091	
305.65	.2166	
308.15	.2244	
310.65	.2327	
313.15	.2423	
315.65	.2515	
318.15	.2614	

System: 2-butanone + 5-chloro-1-methyl-4-nitroimidazole; phases: Liquid, Crystal
Fixed: Pressure, kPa = 101.3
Property: Mole fraction of 5-chloro-1-methyl-4-nitroimidazole (Liquid); method: Chromatography
Temperature, K	Mole fraction of 5-chloro-1-methyl-4-nitroimidazole	uncertainty
283.15	.01449	
285.65	.01597	
288.15	.01762	
290.65	.01942	
293.15	.02137	
295.65	.02353	
298.15	.02585	
300.65	.02816	
303.15	.03077	
305.65	.0335	
308.15	.03681	
310.65	.04003	
313.15	.04343	
315.65	.04745	
318.15	.05121	
