Measured thermophysical data. Solubility determination and thermodynamic modelling of 2,4-dihydro-5-methyl-2-(4-methylphenyl)-3H-pyrazol-3-one in twelve organic solvents from T = (278.15 to 313.15) K and mixing properties of solutions
Source: J. Chem. Thermodyn., 2016, 10.1016/j.jct.2016.08.007
Compound 1: 2,4-dihydro-5-methyl-2-(4-methylphenyl)-3H-pyrazol-3-one, C11H12N2O, purity 98.5%
Compound 2: methanol, CH4O, purity 99.5%
Compound 3: ethanol, C2H6O, purity 99.7%
Compound 4: n-propanol, C3H8O, purity 99.5%
Compound 5: isopropanol, C3H8O, purity 99.7%
Compound 6: n-butanol, C4H10O, purity 99.5%
Compound 7: isopentanol, C5H12O, purity 99.5%
Compound 8: ethyl acetate, C4H8O2, purity 99.5%
Compound 9: ethylbenzene, C8H10, purity 99.5%
Compound 10: acetonitrile, C2H3N, purity 99.0%
Compound 11: toluene, C7H8, purity 99.5%
Compound 12: cyclohexane, C6H12, purity 99.5%
Compound 13: 1,4-dioxane, C4H8O2, purity 99.5%

System: 2,4-dihydro-5-methyl-2-(4-methylphenyl)-3H-pyrazol-3-one; phases: Crystal, Liquid, Air at 1 atmosphere
Property: Normal melting temperature, K (Crystal); method: DSC/DTA
Normal melting temperature, K	uncertainty
406.65	.5

System: 2,4-dihydro-5-methyl-2-(4-methylphenyl)-3H-pyrazol-3-one; phases: Crystal, Liquid, Air at 1 atmosphere
Property: Molar enthalpy of transition or fusion, kJ/mol (Crystal); method: DSC
Molar enthalpy of transition or fusion, kJ/mol	uncertainty
26.52	.4

System: methanol + 2,4-dihydro-5-methyl-2-(4-methylphenyl)-3H-pyrazol-3-one; phases: Liquid, Crystal
Fixed: Pressure, kPa = 101.3
Property: Mole fraction of 2,4-dihydro-5-methyl-2-(4-methylphenyl)-3H-pyrazol-3-one (Liquid); method: Chromatography
Temperature, K	Mole fraction of 2,4-dihydro-5-methyl-2-(4-methylphenyl)-3H-pyrazol-3-one	uncertainty
278.15	.0152	
280.65	.01676	
283.15	.01827	
285.65	.02005	
288.15	.02206	
290.65	.02397	
293.15	.02616	
295.65	.02867	
298.15	.0312	
300.65	.03399	
303.15	.03675	
305.65	.03979	
308.15	.04319	
310.65	.04683	
313.15	.05064	

System: ethanol + 2,4-dihydro-5-methyl-2-(4-methylphenyl)-3H-pyrazol-3-one; phases: Liquid, Crystal
Fixed: Pressure, kPa = 101.3
Property: Mole fraction of 2,4-dihydro-5-methyl-2-(4-methylphenyl)-3H-pyrazol-3-one (Liquid); method: Chromatography
Temperature, K	Mole fraction of 2,4-dihydro-5-methyl-2-(4-methylphenyl)-3H-pyrazol-3-one	uncertainty
278.15	.01465	
280.65	.01609	
283.15	.01761	
285.65	.01913	
288.15	.02094	
290.65	.02286	
293.15	.0248	
295.65	.02702	
298.15	.02936	
300.65	.03185	
303.15	.03453	
305.65	.03725	
308.15	.04035	
310.65	.0436	
313.15	.04713	

System: n-propanol + 2,4-dihydro-5-methyl-2-(4-methylphenyl)-3H-pyrazol-3-one; phases: Liquid, Crystal
Fixed: Pressure, kPa = 101.3
Property: Mole fraction of 2,4-dihydro-5-methyl-2-(4-methylphenyl)-3H-pyrazol-3-one (Liquid); method: Chromatography
Temperature, K	Mole fraction of 2,4-dihydro-5-methyl-2-(4-methylphenyl)-3H-pyrazol-3-one	uncertainty
278.15	.01773	
280.65	.01943	
283.15	.02127	
285.65	.02319	
288.15	.02538	
290.65	.02757	
293.15	.03008	
295.65	.03259	
298.15	.03526	
300.65	.03838	
303.15	.04142	
305.65	.04481	
308.15	.04828	
310.65	.05215	
313.15	.05613	

System: isopropanol + 2,4-dihydro-5-methyl-2-(4-methylphenyl)-3H-pyrazol-3-one; phases: Liquid, Crystal
Fixed: Pressure, kPa = 101.3
Property: Mole fraction of 2,4-dihydro-5-methyl-2-(4-methylphenyl)-3H-pyrazol-3-one (Liquid); method: Chromatography
Temperature, K	Mole fraction of 2,4-dihydro-5-methyl-2-(4-methylphenyl)-3H-pyrazol-3-one	uncertainty
278.15	.01161	
280.65	.01268	
283.15	.01401	
285.65	.01532	
288.15	.01675	
290.65	.01836	
293.15	.01999	
295.65	.02181	
298.15	.02383	
300.65	.02586	
303.15	.02814	
305.65	.03052	
308.15	.03303	
310.65	.03577	
313.15	.03871	

System: n-butanol + 2,4-dihydro-5-methyl-2-(4-methylphenyl)-3H-pyrazol-3-one; phases: Liquid, Crystal
Fixed: Pressure, kPa = 101.3
Property: Mole fraction of 2,4-dihydro-5-methyl-2-(4-methylphenyl)-3H-pyrazol-3-one (Liquid); method: Chromatography
Temperature, K	Mole fraction of 2,4-dihydro-5-methyl-2-(4-methylphenyl)-3H-pyrazol-3-one	uncertainty
278.15	.01882	
280.65	.02063	
283.15	.02255	
285.65	.02467	
288.15	.02705	
290.65	.02938	
293.15	.03196	
295.65	.03488	
298.15	.03775	
300.65	.041	
303.15	.04438	
305.65	.04795	
308.15	.05179	
310.65	.05599	
313.15	.06029	

System: 2,4-dihydro-5-methyl-2-(4-methylphenyl)-3H-pyrazol-3-one + isopentanol; phases: Liquid, Crystal
Fixed: Pressure, kPa = 101.3
Property: Mole fraction of 2,4-dihydro-5-methyl-2-(4-methylphenyl)-3H-pyrazol-3-one (Liquid); method: Chromatography
Temperature, K	Mole fraction of 2,4-dihydro-5-methyl-2-(4-methylphenyl)-3H-pyrazol-3-one	uncertainty
278.15	.03028	
280.65	.03349	
283.15	.03703	
285.65	.04096	
288.15	.0449	
290.65	.04918	
293.15	.05424	
295.65	.05928	
298.15	.06464	
300.65	.07051	
303.15	.07694	
305.65	.08352	
308.15	.09065	
310.65	.09817	
313.15	.1064	

System: 2,4-dihydro-5-methyl-2-(4-methylphenyl)-3H-pyrazol-3-one + ethyl acetate; phases: Liquid, Crystal
Fixed: Pressure, kPa = 101.3
Property: Mole fraction of 2,4-dihydro-5-methyl-2-(4-methylphenyl)-3H-pyrazol-3-one (Liquid); method: Chromatography
Temperature, K	Mole fraction of 2,4-dihydro-5-methyl-2-(4-methylphenyl)-3H-pyrazol-3-one	uncertainty
278.15	.01709	
280.65	.01883	
283.15	.02069	
285.65	.02265	
288.15	.0247	
290.65	.02706	
293.15	.02937	
295.65	.03198	
298.15	.03491	
300.65	.03778	
303.15	.04098	
305.65	.04444	
308.15	.04814	
310.65	.05195	
313.15	.05617	

System: acetonitrile + 2,4-dihydro-5-methyl-2-(4-methylphenyl)-3H-pyrazol-3-one; phases: Liquid, Crystal
Fixed: Pressure, kPa = 101.3
Property: Mole fraction of 2,4-dihydro-5-methyl-2-(4-methylphenyl)-3H-pyrazol-3-one (Liquid); method: Chromatography
Temperature, K	Mole fraction of 2,4-dihydro-5-methyl-2-(4-methylphenyl)-3H-pyrazol-3-one	uncertainty
278.15	.005339	
280.65	.005963	
283.15	.006675	
285.65	.007461	
288.15	.008296	
290.65	.00927	
293.15	.01038	
295.65	.01152	
298.15	.01279	
300.65	.01417	
303.15	.01567	
305.65	.01734	
308.15	.0192	
310.65	.02127	
313.15	.02352	

System: 2,4-dihydro-5-methyl-2-(4-methylphenyl)-3H-pyrazol-3-one + toluene; phases: Liquid, Crystal
Fixed: Pressure, kPa = 101.3
Property: Mole fraction of 2,4-dihydro-5-methyl-2-(4-methylphenyl)-3H-pyrazol-3-one (Liquid); method: Chromatography
Temperature, K	Mole fraction of 2,4-dihydro-5-methyl-2-(4-methylphenyl)-3H-pyrazol-3-one	uncertainty
278.15	.009851	
280.65	.0109	
283.15	.01198	
285.65	.0133	
288.15	.01467	
290.65	.01606	
293.15	.01756	
295.65	.01929	
298.15	.02099	
300.65	.023	
303.15	.02505	
305.65	.02731	
308.15	.02977	
310.65	.03234	
313.15	.03509	

System: 2,4-dihydro-5-methyl-2-(4-methylphenyl)-3H-pyrazol-3-one + ethylbenzene; phases: Liquid, Crystal
Fixed: Pressure, kPa = 101.3
Property: Mole fraction of 2,4-dihydro-5-methyl-2-(4-methylphenyl)-3H-pyrazol-3-one (Liquid); method: Chromatography
Temperature, K	Mole fraction of 2,4-dihydro-5-methyl-2-(4-methylphenyl)-3H-pyrazol-3-one	uncertainty
278.15	.01089	
280.65	.01201	
283.15	.01319	
285.65	.01459	
288.15	.01601	
290.65	.01755	
293.15	.01934	
295.65	.02114	
298.15	.02313	
300.65	.02533	
303.15	.02762	
305.65	.03007	
308.15	.03273	
310.65	.03564	
313.15	.03868	

System: 2,4-dihydro-5-methyl-2-(4-methylphenyl)-3H-pyrazol-3-one + cyclohexane; phases: Liquid, Crystal
Fixed: Pressure, kPa = 101.3
Property: Mole fraction of 2,4-dihydro-5-methyl-2-(4-methylphenyl)-3H-pyrazol-3-one (Liquid); method: Chromatography
Temperature, K	Mole fraction of 2,4-dihydro-5-methyl-2-(4-methylphenyl)-3H-pyrazol-3-one	uncertainty
283.15	.0004881	
285.65	.0005575	
288.15	.0006264	
290.65	.0007142	
293.15	.000802	
295.65	.0009024	
298.15	.001016	
300.65	.00114	
303.15	.001282	
305.65	.001423	
308.15	.001607	
310.65	.001792	
313.15	.001996	

System: 2,4-dihydro-5-methyl-2-(4-methylphenyl)-3H-pyrazol-3-one + 1,4-dioxane; phases: Liquid, Crystal
Fixed: Pressure, kPa = 101.3
Property: Mole fraction of 2,4-dihydro-5-methyl-2-(4-methylphenyl)-3H-pyrazol-3-one (Liquid); method: Chromatography
Temperature, K	Mole fraction of 2,4-dihydro-5-methyl-2-(4-methylphenyl)-3H-pyrazol-3-one	uncertainty
283.15	.03374	
285.65	.03669	
288.15	.03991	
290.65	.04324	
293.15	.04702	
295.65	.05069	
298.15	.05485	
300.65	.05909	
303.15	.06381	
305.65	.06835	
308.15	.07371	
310.65	.07913	
313.15	.08489	
