Measured thermophysical data. Volumetric and viscometric behaviour of the binary systems of N-methyldiethanolamine and diethanolamine with 1-butyl-3-methylimidazolium acetate at various temperatures
Source: J. Chem. Thermodyn., 2014, 10.1016/j.jct.2013.09.001
Compound 1: N-methyldiethanolamine, C5H13NO2, purity 99%
Compound 2: diethanolamine, C4H11NO2, purity 99%
Compound 3: 1-butyl-3-methylimidazolium acetate, C10H18N2O2, purity 95%

System: N-methyldiethanolamine; phases: Liquid
Property: Mass density, kg/m3 (Liquid); method: Vibrating tube method
Temperature, K	Pressure, kPa	Mass density, kg/m3	uncertainty
293.15	101	1040.6	.2
303.15	101	1032.8	.2
313.15	101	1025.4	.2
323.15	101	1017.8	.2
333.15	101	1010	.2
343.15	101	1002.3	.2

System: N-methyldiethanolamine; phases: Liquid
Property: Viscosity, Pa*s (Liquid); method: Concentric cylinders viscometry
Temperature, K	Pressure, kPa	Viscosity, Pa*s	uncertainty
293.15	101	.1033	.001033
303.15	101	.0573	.000573
313.15	101	.0341	.000341
323.15	101	.0216	.000216
333.15	101	.0143	.000143
343.15	101	.0099	.000099
353.15	101	.0072	.000072

System: diethanolamine; phases: Liquid
Property: Mass density, kg/m3 (Liquid); method: Vibrating tube method
Temperature, K	Pressure, kPa	Mass density, kg/m3	uncertainty
293.15	101	1097.4	.2
303.15	101	1090.5	.2
313.15	101	1083.9	.2
323.15	101	1077.1	.2
333.15	101	1070.3	.2
343.15	101	1063.5	.2

System: diethanolamine; phases: Liquid
Property: Viscosity, Pa*s (Liquid); method: Concentric cylinders viscometry
Temperature, K	Pressure, kPa	Viscosity, Pa*s	uncertainty
303.15	101	.3866	.003866
313.15	101	.1897	.001897
323.15	101	.1012	.001012
333.15	101	.0579	.000579
343.15	101	.0353	.000353
353.15	101	.0227	.000227

System: 1-butyl-3-methylimidazolium acetate; phases: Liquid
Property: Mass density, kg/m3 (Liquid); method: Vibrating tube method
Temperature, K	Pressure, kPa	Mass density, kg/m3	uncertainty
293.15	101	1056.1	.2
303.15	101	1049.6	.2
313.15	101	1043.5	.2
323.15	101	1037.4	.2
333.15	101	1031.3	.2
343.15	101	1025.4	.2

System: 1-butyl-3-methylimidazolium acetate; phases: Liquid
Property: Viscosity, Pa*s (Liquid); method: Concentric cylinders viscometry
Temperature, K	Pressure, kPa	Viscosity, Pa*s	uncertainty
293.15	101	.5499	.005499
303.15	101	.2574	.002574
313.15	101	.1355	.001355
323.15	101	.0784	.000784
333.15	101	.049	.00049
343.15	101	.0325	.000325
353.15	101	.0227	.000227

System: N-methyldiethanolamine + 1-butyl-3-methylimidazolium acetate; phases: Liquid
Fixed: Pressure, kPa = 101
Property: Mass density, kg/m3 (Liquid); method: Vibrating tube method
Temperature, K	Mole fraction of N-methyldiethanolamine	Mass density, kg/m3	uncertainty
293.15	1	1040.6	.2
293.15	.8	1043.4	.2
293.15	.6	1046	.2
293.15	.4	1049.5	.2
293.15	.2	1052.6	.2
293.15	0	1056.1	.2
303.15	1	1032.8	.2
303.15	.8	1036.4	.2
303.15	.6	1039.2	.2
303.15	.4	1043	.2
303.15	.2	1046.1	.2
303.15	0	1049.6	.2
313.15	1	1025.4	.2
313.15	.8	1029.8	.2
313.15	.6	1033.1	.2
313.15	.4	1037	.2
313.15	.2	1040.1	.2
313.15	0	1043.5	.2
323.15	1	1017.8	.2
323.15	.8	1023.1	.2
323.15	.6	1026.8	.2
323.15	.4	1030.9	.2
323.15	.2	1034.1	.2
323.15	0	1037.4	.2
333.15	1	1010	.2
333.15	.8	1016.4	.2
333.15	.6	1020.5	.2
333.15	.4	1024.7	.2
333.15	.2	1028.1	.2
333.15	0	1031.3	.2
343.15	1	1002.3	.2
343.15	.8	1009.8	.2
343.15	.6	1014.4	.2
343.15	.4	1018.8	.2
343.15	.2	1022.3	.2
343.15	0	1025.4	.2

System: N-methyldiethanolamine + 1-butyl-3-methylimidazolium acetate; phases: Liquid
Fixed: Pressure, kPa = 101
Property: Viscosity, Pa*s (Liquid); method: Concentric cylinders viscometry
Temperature, K	Mole fraction of N-methyldiethanolamine	Viscosity, Pa*s	uncertainty
293.15	1	.1033	.001033
293.15	.8	.1179	.001179
293.15	.6	.1644	.001644
293.15	.4	.2543	.002543
293.15	.2	.3696	.003696
293.15	0	.5499	.005499
303.15	1	.0573	.000573
303.15	.8	.0689	.000689
303.15	.6	.0949	.000949
303.15	.4	.1398	.001398
303.15	.2	.1889	.001889
303.15	0	.2574	.002574
313.15	1	.0341	.000341
313.15	.8	.0431	.000431
313.15	.6	.0588	.000588
313.15	.4	.0832	.000832
313.15	.2	.1066	.001066
313.15	0	.1355	.001355
323.15	1	.0216	.000216
323.15	.8	.0284	.000284
323.15	.6	.0387	.000387
323.15	.4	.0529	.000529
323.15	.2	.065	.00065
323.15	0	.0784	.000784
333.15	1	.0143	.000143
333.15	.8	.0197	.000197
333.15	.6	.0267	.000267
333.15	.4	.0356	.000356
333.15	.2	.0423	.000423
333.15	0	.049	.00049
343.15	1	.0099	.000099
343.15	.8	.0142	.000142
343.15	.6	.0193	.000193
343.15	.4	.0251	.000251
343.15	.2	.029	.00029
343.15	0	.0325	.000325
353.15	1	.0072	.000072
353.15	.8	.0106	.000106
353.15	.6	.0144	.000144
353.15	.4	.0183	.000183
353.15	.2	.0207	.000207
353.15	0	.0227	.000227

System: diethanolamine + 1-butyl-3-methylimidazolium acetate; phases: Liquid
Fixed: Pressure, kPa = 101
Property: Mass density, kg/m3 (Liquid); method: Vibrating tube method
Temperature, K	Mole fraction of diethanolamine	Mass density, kg/m3	uncertainty
293.15	1	1097.4	.2
293.15	.8	1079.7	.2
293.15	.6	1068.8	.2
293.15	.4	1062.8	.2
293.15	.2	1058.7	.2
293.15	0	1056.1	.2
303.15	1	1090.5	.2
303.15	.8	1073.1	.2
303.15	.6	1062.3	.2
303.15	.4	1056.3	.2
303.15	.2	1052.2	.2
303.15	0	1049.6	.2
313.15	1	1083.9	.2
313.15	.8	1067	.2
313.15	.6	1056.2	.2
313.15	.4	1050.3	.2
313.15	.2	1046.2	.2
313.15	0	1043.5	.2
323.15	1	1077.1	.2
323.15	.8	1060.7	.2
323.15	.6	1050.2	.2
323.15	.4	1044.2	.2
323.15	.2	1040.1	.2
323.15	0	1037.4	.2
333.15	1	1070.3	.2
333.15	.8	1054.4	.2
333.15	.6	1044.1	.2
333.15	.4	1038.1	.2
333.15	.2	1034.1	.2
333.15	0	1031.3	.2
343.15	1	1063.5	.2
343.15	.8	1048.3	.2
343.15	.6	1038.1	.2
343.15	.4	1032.2	.2
343.15	.2	1028.2	.2
343.15	0	1025.4	.2

System: diethanolamine + 1-butyl-3-methylimidazolium acetate; phases: Liquid
Fixed: Pressure, kPa = 101
Property: Viscosity, Pa*s (Liquid); method: Concentric cylinders viscometry
Temperature, K	Mole fraction of diethanolamine	Viscosity, Pa*s	uncertainty
293.15	.8	.4001	.004001
293.15	.6	.2868	.002868
293.15	.4	.3194	.003194
293.15	.2	.425	.00425
293.15	0	.5499	.005499
303.15	1	.3866	.003866
303.15	.8	.197	.00197
303.15	.6	.1508	.001508
303.15	.4	.1761	.001761
303.15	.2	.2083	.002083
303.15	0	.2574	.002574
313.15	1	.1897	.001897
313.15	.8	.1063	.001063
313.15	.6	.0868	.000868
313.15	.4	.0959	.000959
313.15	.2	.114	.00114
313.15	0	.1355	.001355
323.15	1	.1012	.001012
323.15	.8	.0622	.000622
323.15	.6	.0538	.000538
323.15	.4	.0592	.000592
323.15	.2	.0684	.000684
323.15	0	.0784	.000784
333.15	1	.0579	.000579
333.15	.8	.0389	.000389
333.15	.6	.0354	.000354
333.15	.4	.0389	.000389
333.15	.2	.0439	.000439
333.15	0	.049	.00049
343.15	1	.0353	.000353
343.15	.8	.0258	.000258
343.15	.6	.0246	.000246
343.15	.4	.0269	.000269
343.15	.2	.0298	.000298
343.15	0	.0325	.000325
353.15	1	.0227	.000227
353.15	.8	.0179	.000179
353.15	.6	.0178	.000178
353.15	.4	.0194	.000194
353.15	.2	.0213	.000213
353.15	0	.0227	.000227
