Measured thermophysical data. (Liquid + liquid) equilibria for (water + 1-propanol + diisopropyl ether + octane, or methylbenzene, or heptane) systems at T = 298.15 K
Source: J. Chem. Thermodyn., 2015, 10.1016/j.jct.2015.03.003
Compound 1: water, H2O
Compound 2: diisopropyl ether, C6H14O, purity 99%
Compound 3: octane, C8H18, purity 99.5%

System: diisopropyl ether + octane + water; phases: Liquid mixture 1, Liquid mixture 2
Property: Mole fraction of water (Liquid mixture 1); method: Chromatography
Property: Mole fraction of water (Liquid mixture 2); method: Chromatography
Property: Mole fraction of diisopropyl ether (Liquid mixture 2); method: Chromatography
Temperature, K	Pressure, kPa	Mole fraction of diisopropyl ether	Mole fraction of water	uncertainty	Mole fraction of water	uncertainty	Mole fraction of diisopropyl ether	uncertainty
298.15	100	.8914	.022	.0005	.9992	.0005	.0008	.0005
298.15	100	.4316	.0071	.0005	.9997	.0005	.0003	.0005
298.15	100	.386	.0063	.0005	.9995	.0005	.0005	.0005
298.15	100	.3433	.0057	.0005	.9994	.0005	.0006	.0005
298.15	100	0	.0008	.0005	1	.0005	0	.0005
298.15	100	.9711	.0289	.0005	.998	.0005	.002	.0005
298.15	100	.8307	.0186	.0005	.9995	.0005	.0005	.0005
298.15	100	.7734	.0163	.0005	.9993	.0005	.0007	.0005
298.15	100	.7233	.0151	.0005	.9993	.0005	.0007	.0005
298.15	100	.6814	.0148	.0005	.9994	.0005	.0006	.0005
298.15	100	.6419	.0129	.0005	.9997	.0005	.0003	.0005
298.15	100	.5804	.0112	.0005	.9995	.0005	.0005	.0005
298.15	100	.5294	.0086	.0005	.9995	.0005	.0005	.0005
298.15	100	.4757	.0072	.0005	.9996	.0005	.0004	.0005

System: octane + water; phases: Liquid mixture 1, Liquid mixture 2
Property: Mole fraction of water (Liquid mixture 1); method: Chromatography
Temperature, K	Pressure, kPa	Mole fraction of water	uncertainty
298.15	100	.0008	.0005

System: diisopropyl ether + water; phases: Liquid mixture 1, Liquid mixture 2
Property: Mole fraction of water (Liquid mixture 1); method: Chromatography
Temperature, K	Pressure, kPa	Mole fraction of water	uncertainty
298.15	100	.0289	.0005

System: diisopropyl ether + water; phases: Liquid mixture 2, Liquid mixture 1
Property: Mole fraction of diisopropyl ether (Liquid mixture 2); method: Chromatography
Temperature, K	Pressure, kPa	Mole fraction of diisopropyl ether	uncertainty
298.15	100	.002	.0005
