Measured thermophysical data. Experimental determination of the isothermal (vapour + liquid) equilibria of binary aqueous solutions of sec-butylamine and cyclohexylamine at several temperatures
Source: J. Chem. Thermodyn., 2012, 10.1016/j.jct.2011.08.009
Compound 1: 2-butanamine, C4H11N
Compound 2: water, H2O
Compound 3: cyclohexylamine, C6H13N

System: 2-butanamine; phases: Liquid, Gas
Property: Vapor or sublimation pressure, kPa (Liquid); method: Closed cell (Static) method
Temperature, K	Vapor or sublimation pressure, kPa	uncertainty
274.06	6.8103	.00003
274.09	6.8036	.00003
283.91	11.4634	.00003
293.88	19.2054	.00003
293.88	19.2054	.00003
303.84	30.037	.00003
303.84	30.0337	.00003
313.81	45.4674	.00003
313.81	45.3812	.00003
323.92	66.7672	.00003
333.91	95.0699	.00003
333.91	95.0752	.00003
333.91	95.1018	.00003
343.86	132.0813	.00003
343.86	132.0453	.00003
343.86	132.049	.00003
353.9	179.1585	.00003
353.9	178.9894	.00003

System: cyclohexylamine; phases: Liquid, Gas
Property: Vapor or sublimation pressure, kPa (Liquid); method: Closed cell (Static) method
Temperature, K	Vapor or sublimation pressure, kPa	uncertainty
274.3	.2512	.00003
283.86	.48611	.00003
293.83	.92131	.00001
293.86	.92131	.00001
293.88	.9229	.00001
293.88	.92171	.00001
303.79	1.66129	.00003
303.82	1.65998	.00003
303.84	1.66064	.00003
313.79	2.8523	.00003
313.81	2.85427	.00003
323.92	4.7553	.00003
323.97	4.75715	.00003
323.99	4.75715	.00003
323.99	4.75747	.00003
323.99	4.75815	.00003
334	7.563	.00003
344	12.08234	.00003
354.06	17.65389	.00003
364.1	25.95608	.00003
364.1	25.95739	.00003
364.13	25.94459	.00003
364.13	25.9577	.00003

System: water + 2-butanamine; phases: Gas, Liquid
Property: Vapor or sublimation pressure, kPa (Gas); method: Closed cell (Static) method
Temperature, K	Mole fraction of 2-butanamine	Vapor or sublimation pressure, kPa	uncertainty
293.15	0	2.2814	.002
293.15	.1171	5.428	.002
293.15	.2445	6.6577	.002
293.15	.3714	8.3138	.002
293.15	.4974	10.833	.002
293.15	.6094	13.8071	.002
293.15	.741	15.0666	.002
293.15	.8624	16.748	.002
293.15	1	18.4329	.002
303.15	0	4.1724	.002
303.15	.1171	9.847	.002
303.15	.2445	11.8279	.002
303.15	.3714	14.3441	.002
303.15	.4974	18.0866	.002
303.15	.6094	22.2262	.002
303.15	.741	24.2137	.002
303.15	.8624	26.5096	.002
303.15	1	29.1117	.002
313.15	0	7.2939	.002
313.15	.1171	17.0389	.002
313.15	.2445	20.0597	.002
313.15	.3714	23.7269	.002
313.15	.4974	29.0403	.002
313.15	.6094	34.5741	.002
313.15	.741	37.5336	.002
313.15	.8624	40.7255	.002
313.15	1	44.254	.002
323.15	0	12.2478	.002
323.15	.1171	28.275	.002
323.15	.2445	32.6534	.002
323.15	.3714	37.8044	.002
323.15	.4974	45.0348	.002
323.15	.6094	52.157	.002
323.15	.741	56.3399	.002
323.15	.8624	60.5469	.002
323.15	1	65.05	.002
333.15	0	19.8378	.002
333.15	.1171	45.2056	.002
333.15	.2445	51.2524	.002
333.15	.3714	58.2547	.002
333.15	.4974	67.7022	.002
333.15	.6094	76.5402	.002
333.15	.741	82.1736	.002
333.15	.8624	87.4275	.002
333.15	1	92.8194	.002
343.15	0	31.1064	.002
343.15	.1171	63.9084	.002
343.15	.3714	87.1191	.002
343.15	.4974	98.9802	.002
343.15	.741	116.8013	.002
343.15	.8624	122.9942	.002
343.15	.2445	77.8742	.002
343.15	.6094	109.5595	.002
343.15	1	128.992	.002
353.15	0	47.3695	.002
353.15	.1171	104.9301	.002
353.15	.2445	114.9308	.002
353.15	.3714	126.8224	.002
353.15	.4974	141.1193	.002
353.15	.6094	153.3254	.002
353.15	.741	162.208	.002
353.15	.8624	169.0302	.002
353.15	1	175.0875	.002
363.15	0	70.2494	.002
363.15	.1171	153.3173	.002
363.15	.2445	165.241	.002
363.15	.3714	180.1836	.002
363.15	.4974	196.6818	.002
363.15	.6094	210.2219	.002
363.15	.741	220.584	.002
363.15	.8624	227.8153	.002
363.15	1	232.6875	.002

System: cyclohexylamine + water; phases: Gas, Liquid
Property: Vapor or sublimation pressure, kPa (Gas); method: Closed cell (Static) method
Temperature, K	Mole fraction of water	Vapor or sublimation pressure, kPa	uncertainty
273.15	0	.5817	.005
273.15	.1249	.5975	.005
273.15	.2395	.5767	.005
273.15	.3662	.5186	.005
273.15	.5	.4118	.005
273.15	.6216	.361	.005
273.15	.7388	.3108	.005
273.15	.8722	.2734	.005
273.15	1	.2306	.005
283.15	0	1.1856	.002
283.15	.1249	1.2449	.002
283.15	.2395	1.1873	.002
283.15	.3662	1.0793	.002
283.15	.5	.8787	.005
283.15	.6216	.7671	.005
283.15	.7388	.6673	.005
283.15	.8722	.5772	.005
283.15	1	.4646	.005
293.15	0	2.2814	.002
293.15	.1249	2.4497	.002
293.15	.2395	2.3109	.002
293.15	.3662	2.1205	.002
293.15	.5	1.7631	.002
293.15	.6216	1.5368	.002
293.15	.7388	1.3457	.002
293.15	.8722	1.146	.002
293.15	1	.8833	.005
303.15	0	4.1724	.002
303.15	.1249	4.5815	.002
303.15	.2395	4.2791	.002
303.15	.3662	3.9592	.002
303.15	.5	3.3506	.002
303.15	.6216	2.922	.002
303.15	.7388	2.5677	.002
303.15	.8722	2.1556	.002
303.15	1	1.5959	.002
313.15	0	7.2939	.002
313.15	.1249	8.189	.002
313.15	.2395	7.579	.002
313.15	.3662	7.0637	.002
313.15	.5	6.0681	.002
313.15	.6216	5.3026	.002
313.15	.7388	4.6648	.002
313.15	.8722	3.865	.002
313.15	1	2.7563	.002
323.15	0	12.2478	.002
323.15	.1249	14.0551	.002
323.15	.2395	12.8999	.002
323.15	.3662	12.1006	.002
323.15	.5	10.5271	.002
323.15	.6216	9.2296	.002
323.15	.7388	8.1124	.002
323.15	.8722	6.6405	.002
323.15	1	4.5731	.002
333.15	0	19.8378	.002
333.15	.1249	23.26	.002
333.15	.2395	21.1843	.002
333.15	.3662	19.9859	.002
333.15	.5	17.5737	.002
333.15	.6216	15.4737	.002
333.15	.7388	13.5679	.002
333.15	.8722	10.9823	.002
333.15	1	7.3201	.002
343.15	0	31.1064	.002
343.15	.1249	37.2479	.002
343.15	.2395	33.6834	.002
343.15	.3662	31.9405	.002
343.15	.5	28.3401	.002
343.15	.6216	25.0797	.002
343.15	.7388	21.9103	.002
343.15	.8722	17.5513	.002
343.15	1	11.3458	.002
353.15	0	47.3695	.002
353.15	.1249	57.8987	.002
353.15	.2395	52.0135	.002
353.15	.3662	49.5481	.002
353.15	.5	44.2989	.002
353.15	.6216	39.4244	.002
353.15	.7388	34.2819	.002
353.15	.8722	27.1968	.002
353.15	1	17.9827	.002
363.15	0	70.2494	.002
363.15	.1249	87.5985	.002
363.15	.2395	78.2135	.002
363.15	.3662	74.8112	.002
363.15	.5	67.3166	.002
363.15	.6216	60.2758	.002
363.15	.7388	52.1285	.002
363.15	.8722	40.9828	.002
363.15	1	25.0551	.002
