Measured thermophysical data. Solubility measurement and prediction of clopidogrel hydrogen sulfate polymorphs in isopropanol and ethyl acetate
Source: J. Chem. Thermodyn., 2015, 10.1016/j.jct.2015.06.019
Compound 1: thieno[3,2-c]pyridine-5(4H)-acetic acid, .alpha.-(2-chlorophenyl)-6,7-dihydro-, methyl ester, (.alpha.S)-, sulfate (1:1), C16H18ClNO6S2, purity 99%
Compound 2: ethyl acetate, C4H8O2, purity 99.5%
Compound 3: isopropyl alcohol, C3H8O, purity 99.5%

System: thieno[3,2-c]pyridine-5(4H)-acetic acid, .alpha.-(2-chlorophenyl)-6,7-dihydro-, methyl ester, (.alpha.S)-, sulfate (1:1); phases: Metastable crystal, Liquid, Air at 1 atmosphere
Property: Normal melting temperature, K (Metastable crystal); method: DSC/DTA
Normal melting temperature, K	uncertainty
458.4	

System: thieno[3,2-c]pyridine-5(4H)-acetic acid, .alpha.-(2-chlorophenyl)-6,7-dihydro-, methyl ester, (.alpha.S)-, sulfate (1:1); phases: Crystal, Liquid, Air at 1 atmosphere
Property: Normal melting temperature, K (Crystal); method: DSC/DTA
Normal melting temperature, K	uncertainty
454.7	

System: thieno[3,2-c]pyridine-5(4H)-acetic acid, .alpha.-(2-chlorophenyl)-6,7-dihydro-, methyl ester, (.alpha.S)-, sulfate (1:1); phases: Metastable crystal, Liquid, Air at 1 atmosphere
Property: Molar enthalpy of transition or fusion, kJ/mol (Metastable crystal); method: DSC
Molar enthalpy of transition or fusion, kJ/mol	uncertainty
33.4	.62

System: thieno[3,2-c]pyridine-5(4H)-acetic acid, .alpha.-(2-chlorophenyl)-6,7-dihydro-, methyl ester, (.alpha.S)-, sulfate (1:1); phases: Crystal, Liquid, Air at 1 atmosphere
Property: Molar enthalpy of transition or fusion, kJ/mol (Crystal); method: DSC
Molar enthalpy of transition or fusion, kJ/mol	uncertainty
38.05	.7

System: isopropyl alcohol + ethyl acetate + thieno[3,2-c]pyridine-5(4H)-acetic acid, .alpha.-(2-chlorophenyl)-6,7-dihydro-, methyl ester, (.alpha.S)-, sulfate (1:1); phases: Liquid, Metastable crystal
Fixed: Pressure, kPa = 101.3
Property: Mass ratio of solute to solvent of thieno[3,2-c]pyridine-5(4H)-acetic acid, .alpha.-(2-chlorophenyl)-6,7-dihydro-, methyl ester, (.alpha.S)-, sulfate (1:1) (Liquid); method: gravimetric method
Temperature, K	Solvent: Mass fraction of isopropyl alcohol	Mass ratio of solute to solvent of thieno[3,2-c]pyridine-5(4H)-acetic acid, .alpha.-(2-chlorophenyl)-6,7-dihydro-, methyl ester, (.alpha.S)-, sulfate (1:1)	uncertainty
278.15	0	.0000868	.00000434
283.15	0	.0001393	.000006965
288.15	0	.0002252	.00001126
293.15	0	.0003336	.00001668
298.15	0	.0005143	.000025715
303.15	0	.0007691	.000038455
308.15	0	.0011376	.00005688
313.15	0	.0016779	.000083895
318.15	0	.0024339	.000121695
278.15	.2	.0008025	.000040125
283.15	.2	.0011521	.000057605
288.15	.2	.0012831	.000064155
293.15	.2	.0016863	.000084315
298.15	.2	.0019563	.000097815
303.15	.2	.0025569	.000127845
308.15	.2	.0029171	.000145855
313.15	.2	.0036895	.000184475
318.15	.2	.0044532	.00022266
278.15	.4	.0024995	.000124975
283.15	.4	.0026631	.000133155
288.15	.4	.0031677	.000158385
293.15	.4	.0037983	.000189915
298.15	.4	.0043018	.00021509
303.15	.4	.0048981	.000244905
308.15	.4	.0055754	.00027877
313.15	.4	.0063684	.00031842
318.15	.4	.0075816	.00037908
278.15	.6	.0034971	.000174855
283.15	.6	.0043691	.000218455
288.15	.6	.0047858	.00023929
293.15	.6	.0060013	.000300065
298.15	.6	.0064043	.000320215
303.15	.6	.0073598	.00036799
308.15	.6	.008202	.0004101
313.15	.6	.0093368	.00046684
318.15	.6	.0104477	.000522385
278.15	.8	.0043285	.000216425
283.15	.8	.0053631	.000268155
288.15	.8	.0058772	.00029386
293.15	.8	.0071563	.000357815
298.15	.8	.0079225	.000396125
303.15	.8	.0096696	.00048348
308.15	.8	.0107247	.000536235
313.15	.8	.0126854	.00063427
318.15	.8	.0144365	.000721825
278.15	1	.0046436	.00023218
283.15	1	.0055453	.000277265
288.15	1	.0067813	.000339065
293.15	1	.0080223	.000401115
298.15	1	.0097539	.000487695
303.15	1	.0124419	.000622095
308.15	1	.0140831	.000704155
313.15	1	.0163312	.00081656
318.15	1	.0192761	.000963805

System: isopropyl alcohol + ethyl acetate + thieno[3,2-c]pyridine-5(4H)-acetic acid, .alpha.-(2-chlorophenyl)-6,7-dihydro-, methyl ester, (.alpha.S)-, sulfate (1:1); phases: Liquid, Crystal
Fixed: Pressure, kPa = 101.3
Property: Mass ratio of solute to solvent of thieno[3,2-c]pyridine-5(4H)-acetic acid, .alpha.-(2-chlorophenyl)-6,7-dihydro-, methyl ester, (.alpha.S)-, sulfate (1:1) (Liquid); method: gravimetric method
Temperature, K	Solvent: Mass fraction of isopropyl alcohol	Mass ratio of solute to solvent of thieno[3,2-c]pyridine-5(4H)-acetic acid, .alpha.-(2-chlorophenyl)-6,7-dihydro-, methyl ester, (.alpha.S)-, sulfate (1:1)	uncertainty
278.15	0	.0000578	.00000289
283.15	0	.0000953	.000004765
288.15	0	.0001551	.000007755
293.15	0	.0002356	.00001178
298.15	0	.0003716	.00001858
303.15	0	.0005696	.00002848
308.15	0	.0008716	.00004358
313.15	0	.0013025	.000065125
318.15	0	.0019659	.000098295
278.15	.2	.0005561	.000027805
283.15	.2	.0008063	.000040315
288.15	.2	.0009154	.00004577
293.15	.2	.0012304	.00006152
298.15	.2	.0015034	.00007517
303.15	.2	.0019876	.00009938
308.15	.2	.0024193	.000120965
313.15	.2	.0031025	.000155125
318.15	.2	.0038303	.000191515
278.15	.4	.0017278	.00008639
283.15	.4	.0020156	.00010078
288.15	.4	.0025073	.000125365
293.15	.4	.0030968	.00015484
298.15	.4	.0035639	.000178195
303.15	.4	.0042632	.00021316
308.15	.4	.0049659	.000248295
313.15	.4	.0056987	.000284935
318.15	.4	.0068542	.00034271
278.15	.6	.0028702	.00014351
283.15	.6	.0036984	.00018492
288.15	.6	.0041187	.000205935
293.15	.6	.0052987	.000264935
298.15	.6	.0059039	.000295195
303.15	.6	.0067698	.00033849
308.15	.6	.0079938	.00039969
313.15	.6	.0089875	.000449375
318.15	.6	.0103871	.000519355
278.15	.8	.0036915	.000184575
283.15	.8	.0046589	.000232945
288.15	.8	.0052015	.000260075
293.15	.8	.0062863	.000314315
298.15	.8	.0071075	.000355375
303.15	.8	.0086325	.000431625
308.15	.8	.0099651	.000498255
313.15	.8	.0116367	.000581835
318.15	.8	.0139904	.00069952
278.15	1	.0041209	.000206045
283.15	1	.0049863	.000249315
288.15	1	.0061013	.000305065
293.15	1	.0072369	.000361845
298.15	1	.0089252	.00044626
303.15	1	.0113698	.00056849
308.15	1	.0130811	.000654055
313.15	1	.0152863	.000764315
318.15	1	.0180211	.000901055

System: ethyl acetate + thieno[3,2-c]pyridine-5(4H)-acetic acid, .alpha.-(2-chlorophenyl)-6,7-dihydro-, methyl ester, (.alpha.S)-, sulfate (1:1); phases: Liquid, Metastable crystal
Property: Mass ratio of solute to solvent of thieno[3,2-c]pyridine-5(4H)-acetic acid, .alpha.-(2-chlorophenyl)-6,7-dihydro-, methyl ester, (.alpha.S)-, sulfate (1:1) (Liquid); method: gravimetric method
Temperature, K	Pressure, kPa	Mass ratio of solute to solvent of thieno[3,2-c]pyridine-5(4H)-acetic acid, .alpha.-(2-chlorophenyl)-6,7-dihydro-, methyl ester, (.alpha.S)-, sulfate (1:1)	uncertainty
278.15	101.3	.0000868	.00000434
283.15	101.3	.0001393	.000006965
288.15	101.3	.0002252	.00001126
293.15	101.3	.0003336	.00001668
298.15	101.3	.0005143	.000025715
303.15	101.3	.0007691	.000038455
308.15	101.3	.0011376	.00005688
313.15	101.3	.0016779	.000083895
318.15	101.3	.0024339	.000121695

System: ethyl acetate + thieno[3,2-c]pyridine-5(4H)-acetic acid, .alpha.-(2-chlorophenyl)-6,7-dihydro-, methyl ester, (.alpha.S)-, sulfate (1:1); phases: Liquid, Crystal
Property: Mass ratio of solute to solvent of thieno[3,2-c]pyridine-5(4H)-acetic acid, .alpha.-(2-chlorophenyl)-6,7-dihydro-, methyl ester, (.alpha.S)-, sulfate (1:1) (Liquid); method: gravimetric method
Temperature, K	Pressure, kPa	Mass ratio of solute to solvent of thieno[3,2-c]pyridine-5(4H)-acetic acid, .alpha.-(2-chlorophenyl)-6,7-dihydro-, methyl ester, (.alpha.S)-, sulfate (1:1)	uncertainty
278.15	101.3	.0000578	.00000289
283.15	101.3	.0000953	.000004765
288.15	101.3	.0001551	.000007755
293.15	101.3	.0002356	.00001178
298.15	101.3	.0003716	.00001858
303.15	101.3	.0005696	.00002848
308.15	101.3	.0008716	.00004358
313.15	101.3	.0013025	.000065125
318.15	101.3	.0019659	.000098295

System: isopropyl alcohol + thieno[3,2-c]pyridine-5(4H)-acetic acid, .alpha.-(2-chlorophenyl)-6,7-dihydro-, methyl ester, (.alpha.S)-, sulfate (1:1); phases: Liquid, Metastable crystal
Property: Mass ratio of solute to solvent of thieno[3,2-c]pyridine-5(4H)-acetic acid, .alpha.-(2-chlorophenyl)-6,7-dihydro-, methyl ester, (.alpha.S)-, sulfate (1:1) (Liquid); method: gravimetric method
Temperature, K	Pressure, kPa	Mass ratio of solute to solvent of thieno[3,2-c]pyridine-5(4H)-acetic acid, .alpha.-(2-chlorophenyl)-6,7-dihydro-, methyl ester, (.alpha.S)-, sulfate (1:1)	uncertainty
278.15	101.3	.0046436	.00023218
283.15	101.3	.0055453	.000277265
288.15	101.3	.0067813	.000339065
293.15	101.3	.0080223	.000401115
298.15	101.3	.0097539	.000487695
303.15	101.3	.0124419	.000622095
308.15	101.3	.0140831	.000704155
313.15	101.3	.0163312	.00081656
318.15	101.3	.0192761	.000963805

System: isopropyl alcohol + thieno[3,2-c]pyridine-5(4H)-acetic acid, .alpha.-(2-chlorophenyl)-6,7-dihydro-, methyl ester, (.alpha.S)-, sulfate (1:1); phases: Liquid, Crystal
Property: Mass ratio of solute to solvent of thieno[3,2-c]pyridine-5(4H)-acetic acid, .alpha.-(2-chlorophenyl)-6,7-dihydro-, methyl ester, (.alpha.S)-, sulfate (1:1) (Liquid); method: gravimetric method
Temperature, K	Pressure, kPa	Mass ratio of solute to solvent of thieno[3,2-c]pyridine-5(4H)-acetic acid, .alpha.-(2-chlorophenyl)-6,7-dihydro-, methyl ester, (.alpha.S)-, sulfate (1:1)	uncertainty
278.15	101.3	.0041209	.000206045
283.15	101.3	.0049863	.000249315
288.15	101.3	.0061013	.000305065
293.15	101.3	.0072369	.000361845
298.15	101.3	.0089252	.00044626
303.15	101.3	.0113698	.00056849
308.15	101.3	.0130811	.000654055
313.15	101.3	.0152863	.000764315
318.15	101.3	.0180211	.000901055
