Measured thermophysical data. Henry s constants and activity coefficients of some organic solutes  in 1-butyl,3-methylimidazolium hydrogen sulfate and in 1-methyl,3-trimethylsilylmethylimidazolium chloride
Source: J. Chem. Thermodyn., 2013, 10.1016/j.jct.2012.08.022
Compound 1: benzene, C6H6, purity 99.9%
Compound 2: methylbenzene, C7H8, purity 99.9%
Compound 3: ethyl ethanoate, C4H8O2, purity 99.9%
Compound 4: p-dioxane, C4H8O2, purity 99.9%
Compound 5: 1,2-dimethoxyethane, C4H10O2, purity 99.9%
Compound 6: acetonitrile, C2H3N, purity 99.9%
Compound 7: nitromethane, CH3NO2, purity 99.9%
Compound 8: oxacyclopentane, C4H8O, purity 99.9%
Compound 9: 1-butyl-3-methylimidazolium hydrogen sulfate, C8H16N2O4S, purity 99%
Compound 10: 1-methyl-3-(trimethylsilylmethyl)imidazolium chloride, C8H17ClN2Si
Compound 11: freon 20, CHCl3, purity 99.9%
Compound 12: methyl alcohol, CH4O, purity 99.9%
Compound 13: ethanol, C2H6O, purity 99.9%
Compound 14: n-propyl alcohol, C3H8O, purity 99.9%

System: 1-butyl-3-methylimidazolium hydrogen sulfate; phases: Liquid
Fixed: Pressure, kPa = 101.325
Property: Mass density, kg/m3 (Liquid); method: Vibrating tube method
Temperature, K	Mass density, kg/m3	uncertainty
303	1275.9	.1
308	1272.5	.1
313	1269	.1
318	1266.4	.1
323	1263.4	.1
328	1260.4	.1
333	1257.4	.1
338	1254.5	.1
343	1251.5	.1
348	1248.6	.1
353	1245.7	.1
358	1242.8	.1
363	1240	.1

System: 1-methyl-3-(trimethylsilylmethyl)imidazolium chloride; phases: Liquid
Fixed: Pressure, kPa = 101.325
Property: Mass density, kg/m3 (Liquid); method: Vibrating tube method
Temperature, K	Mass density, kg/m3	uncertainty
313	1055.9	.1
318	1053	.1
323	1050.1	.1
328	1047.2	.1
333	1044.1	.1
338	1040.9	.1
343	1038.1	.1
348	1035.3	.1
353	1032.4	.1
358	1029.6	.1
363	1026.8	.1

System: benzene + 1-butyl-3-methylimidazolium hydrogen sulfate; phases: Liquid, Gas
Fixed: Mole fraction of benzene = 0
Property: Activity coefficient of benzene (Liquid); method: Chromatography
Temperature, K	Activity coefficient of benzene	uncertainty
313	5.11	.1533
333	4.95	.1485
353	5.36	.1608
373	5.28	.1584
393	5.49	.1647
413	5.69	.1707

System: methylbenzene + 1-butyl-3-methylimidazolium hydrogen sulfate; phases: Liquid, Gas
Fixed: Mole fraction of methylbenzene = 0
Property: Activity coefficient of methylbenzene (Liquid); method: Chromatography
Temperature, K	Activity coefficient of methylbenzene	uncertainty
313	8.51	.2553
333	9.22	.2766
353	9.7	.291
373	11.1	.333
393	13	.39
413	13.9	.417

System: ethyl ethanoate + 1-butyl-3-methylimidazolium hydrogen sulfate; phases: Liquid, Gas
Fixed: Mole fraction of ethyl ethanoate = 0
Property: Activity coefficient of ethyl ethanoate (Liquid); method: Chromatography
Temperature, K	Activity coefficient of ethyl ethanoate	uncertainty
313	9.02	.2706
333	9.95	.2985
353	11.7	.351
373	12.8	.384
393	13.8	.414

System: p-dioxane + 1-butyl-3-methylimidazolium hydrogen sulfate; phases: Liquid, Gas
Fixed: Mole fraction of p-dioxane = 0
Property: Activity coefficient of p-dioxane (Liquid); method: Chromatography
Temperature, K	Activity coefficient of p-dioxane	uncertainty
313	2.72	.0816
333	2.78	.0834
353	2.99	.0897
373	3.36	.1008
393	3.8	.114
413	4.41	.1323

System: 1,2-dimethoxyethane + 1-butyl-3-methylimidazolium hydrogen sulfate; phases: Liquid, Gas
Fixed: Mole fraction of 1,2-dimethoxyethane = 0
Property: Activity coefficient of 1,2-dimethoxyethane (Liquid); method: Chromatography
Temperature, K	Activity coefficient of 1,2-dimethoxyethane	uncertainty
313	4.76	.1428
333	5.61	.1683
353	7.03	.2109
373	8.44	.2532
393	10	.3
413	11.6	.348

System: acetonitrile + 1-butyl-3-methylimidazolium hydrogen sulfate; phases: Liquid, Gas
Fixed: Mole fraction of acetonitrile = 0
Property: Activity coefficient of acetonitrile (Liquid); method: Chromatography
Temperature, K	Activity coefficient of acetonitrile	uncertainty
313	1.23	.0369
333	1.31	.0393
353	1.28	.0384
373	1.26	.0378
393	1.24	.0372
413	1.19	.0357

System: nitromethane + 1-butyl-3-methylimidazolium hydrogen sulfate; phases: Liquid, Gas
Fixed: Mole fraction of nitromethane = 0
Property: Activity coefficient of nitromethane (Liquid); method: Chromatography
Temperature, K	Activity coefficient of nitromethane	uncertainty
313	.826	.02478
333	.771	.02313
353	.83	.0249
373	.939	.02817
393	1.08	.0324
413	1.18	.0354

System: oxacyclopentane + 1-butyl-3-methylimidazolium hydrogen sulfate; phases: Liquid, Gas
Fixed: Mole fraction of oxacyclopentane = 0
Property: Activity coefficient of oxacyclopentane (Liquid); method: Chromatography
Temperature, K	Activity coefficient of oxacyclopentane	uncertainty
313	5.1	.153
333	5.61	.1683
353	6.6	.198
373	7.34	.2202
393	8.55	.2565

System: benzene + 1-methyl-3-(trimethylsilylmethyl)imidazolium chloride; phases: Liquid, Gas
Fixed: Mole fraction of 1-methyl-3-(trimethylsilylmethyl)imidazolium chloride = 0
Property: Activity coefficient of 1-methyl-3-(trimethylsilylmethyl)imidazolium chloride (Liquid); method: Chromatography
Temperature, K	Activity coefficient of 1-methyl-3-(trimethylsilylmethyl)imidazolium chloride	uncertainty
313	2.44	.0732
333	2.3	.069
353	2.6	.078
373	2.94	.0882
393	3.85	.1155
413	4.36	.1308

System: methylbenzene + 1-methyl-3-(trimethylsilylmethyl)imidazolium chloride; phases: Liquid, Gas
Fixed: Mole fraction of 1-methyl-3-(trimethylsilylmethyl)imidazolium chloride = 0
Property: Activity coefficient of 1-methyl-3-(trimethylsilylmethyl)imidazolium chloride (Liquid); method: Chromatography
Temperature, K	Activity coefficient of 1-methyl-3-(trimethylsilylmethyl)imidazolium chloride	uncertainty
313	4.1	.123
333	3.8	.114
353	4.07	.1221
373	4.67	.1401
393	5.46	.1638
413	6.21	.1863

System: ethyl ethanoate + 1-methyl-3-(trimethylsilylmethyl)imidazolium chloride; phases: Liquid, Gas
Fixed: Mole fraction of 1-methyl-3-(trimethylsilylmethyl)imidazolium chloride = 0
Property: Activity coefficient of 1-methyl-3-(trimethylsilylmethyl)imidazolium chloride (Liquid); method: Chromatography
Temperature, K	Activity coefficient of 1-methyl-3-(trimethylsilylmethyl)imidazolium chloride	uncertainty
313	4.4	.132
333	4.27	.1281
353	5.14	.1542
373	6.96	.2088
393	8.26	.2478

System: p-dioxane + 1-methyl-3-(trimethylsilylmethyl)imidazolium chloride; phases: Liquid, Gas
Fixed: Mole fraction of 1-methyl-3-(trimethylsilylmethyl)imidazolium chloride = 0
Property: Activity coefficient of 1-methyl-3-(trimethylsilylmethyl)imidazolium chloride (Liquid); method: Chromatography
Temperature, K	Activity coefficient of 1-methyl-3-(trimethylsilylmethyl)imidazolium chloride	uncertainty
313	2.14	.0642
333	1.95	.0585
353	2.07	.0621
373	2.13	.0639
393	2.16	.0648
413	2.28	.0684

System: 1,2-dimethoxyethane + 1-methyl-3-(trimethylsilylmethyl)imidazolium chloride; phases: Liquid, Gas
Fixed: Mole fraction of 1-methyl-3-(trimethylsilylmethyl)imidazolium chloride = 0
Property: Activity coefficient of 1-methyl-3-(trimethylsilylmethyl)imidazolium chloride (Liquid); method: Chromatography
Temperature, K	Activity coefficient of 1-methyl-3-(trimethylsilylmethyl)imidazolium chloride	uncertainty
313	3.42	.1026
333	3.49	.1047
353	3.56	.1068
373	3.89	.1167
393	3.89	.1167
413	3.77	.1131

System: acetonitrile + 1-methyl-3-(trimethylsilylmethyl)imidazolium chloride; phases: Liquid, Gas
Fixed: Mole fraction of 1-methyl-3-(trimethylsilylmethyl)imidazolium chloride = 0
Property: Activity coefficient of 1-methyl-3-(trimethylsilylmethyl)imidazolium chloride (Liquid); method: Chromatography
Temperature, K	Activity coefficient of 1-methyl-3-(trimethylsilylmethyl)imidazolium chloride	uncertainty
313	.629	.01887
333	.659	.01977
353	.695	.02085
373	.712	.02136
393	.73	.0219
413	.756	.02268

System: nitromethane + 1-methyl-3-(trimethylsilylmethyl)imidazolium chloride; phases: Liquid, Gas
Fixed: Mole fraction of 1-methyl-3-(trimethylsilylmethyl)imidazolium chloride = 0
Property: Activity coefficient of 1-methyl-3-(trimethylsilylmethyl)imidazolium chloride (Liquid); method: Chromatography
Temperature, K	Activity coefficient of 1-methyl-3-(trimethylsilylmethyl)imidazolium chloride	uncertainty
313	.449	.01347
333	.442	.01326
353	.477	.01431
373	.527	.01581
393	.559	.01677
413	.599	.01797

System: oxacyclopentane + 1-methyl-3-(trimethylsilylmethyl)imidazolium chloride; phases: Liquid, Gas
Fixed: Mole fraction of 1-methyl-3-(trimethylsilylmethyl)imidazolium chloride = 0
Property: Activity coefficient of 1-methyl-3-(trimethylsilylmethyl)imidazolium chloride (Liquid); method: Chromatography
Temperature, K	Activity coefficient of 1-methyl-3-(trimethylsilylmethyl)imidazolium chloride	uncertainty
313	3.09	.0927
333	2.93	.0879
353	3.7	.111
373	4.31	.1293
393	4.79	.1437

System: freon 20 + 1-methyl-3-(trimethylsilylmethyl)imidazolium chloride; phases: Liquid, Gas
Fixed: Mole fraction of 1-methyl-3-(trimethylsilylmethyl)imidazolium chloride = 0
Property: Activity coefficient of 1-methyl-3-(trimethylsilylmethyl)imidazolium chloride (Liquid); method: Chromatography
Temperature, K	Activity coefficient of 1-methyl-3-(trimethylsilylmethyl)imidazolium chloride	uncertainty
313	.112	.00336
333	.153	.00459
353	.2	.006
373	.253	.00759
393	.301	.00903
413	.338	.01014

System: methyl alcohol + 1-methyl-3-(trimethylsilylmethyl)imidazolium chloride; phases: Liquid, Gas
Fixed: Mole fraction of 1-methyl-3-(trimethylsilylmethyl)imidazolium chloride = 0
Property: Activity coefficient of 1-methyl-3-(trimethylsilylmethyl)imidazolium chloride (Liquid); method: Chromatography
Temperature, K	Activity coefficient of 1-methyl-3-(trimethylsilylmethyl)imidazolium chloride	uncertainty
333	.0373	.001119
353	.0421	.001263
373	.0472	.001416

System: ethanol + 1-methyl-3-(trimethylsilylmethyl)imidazolium chloride; phases: Liquid, Gas
Fixed: Mole fraction of 1-methyl-3-(trimethylsilylmethyl)imidazolium chloride = 0
Property: Activity coefficient of 1-methyl-3-(trimethylsilylmethyl)imidazolium chloride (Liquid); method: Chromatography
Temperature, K	Activity coefficient of 1-methyl-3-(trimethylsilylmethyl)imidazolium chloride	uncertainty
333	.153	.00459
353	.158	.00474
373	.163	.00489

System: n-propyl alcohol + 1-methyl-3-(trimethylsilylmethyl)imidazolium chloride; phases: Liquid, Gas
Fixed: Mole fraction of 1-methyl-3-(trimethylsilylmethyl)imidazolium chloride = 0
Property: Activity coefficient of 1-methyl-3-(trimethylsilylmethyl)imidazolium chloride (Liquid); method: Chromatography
Temperature, K	Activity coefficient of 1-methyl-3-(trimethylsilylmethyl)imidazolium chloride	uncertainty
333	.0747	.002241
353	.0878	.002634
373	.1015	.003045
