Measured thermophysical data. Partial molar volume of tertiary amines in methanol at T = 298.15 K. Solvation, shape and specific interactions
Source: J. Chem. Thermodyn., 2013, 10.1016/j.jct.2012.07.012
Compound 1: triethylamine, C6H15N, purity 99%
Compound 2: N,N-dipropyl-1-propanamine, C9H21N, purity 98%
Compound 3: tributylamine, C12H27N, purity 99.5%
Compound 4: N,N-dipentyl-1-pentanamine, C15H33N, purity 97%
Compound 5: N,N-dihexyl-1-hexanamine, C18H39N, purity 96%
Compound 6: N,N-dioctyl-1-octanamine, C24H51N, purity 97%
Compound 7: methanol, CH4O, purity 99.9%

System: triethylamine; phases: Liquid
Property: Mass density, kg/m3 (Liquid); method: Vibrating tube method
Temperature, K	Pressure, kPa	Mass density, kg/m3	uncertainty
298.15	101.325	723.01	

System: N,N-dipropyl-1-propanamine; phases: Liquid
Property: Mass density, kg/m3 (Liquid); method: Vibrating tube method
Temperature, K	Pressure, kPa	Mass density, kg/m3	uncertainty
298.15	101.325	752.1	

System: tributylamine; phases: Liquid
Property: Mass density, kg/m3 (Liquid); method: Vibrating tube method
Temperature, K	Pressure, kPa	Mass density, kg/m3	uncertainty
298.15	101.325	773.3	

System: N,N-dipentyl-1-pentanamine; phases: Liquid
Property: Mass density, kg/m3 (Liquid); method: Vibrating tube method
Temperature, K	Pressure, kPa	Mass density, kg/m3	uncertainty
298.15	101.325	786.41	

System: N,N-dihexyl-1-hexanamine; phases: Liquid
Property: Mass density, kg/m3 (Liquid); method: Vibrating tube method
Temperature, K	Pressure, kPa	Mass density, kg/m3	uncertainty
298.15	101.325	796.22	

System: N,N-dioctyl-1-octanamine; phases: Liquid
Property: Mass density, kg/m3 (Liquid); method: Vibrating tube method
Temperature, K	Pressure, kPa	Mass density, kg/m3	uncertainty
298.15	101.325	810.03	

System: methanol; phases: Liquid
Property: Mass density, kg/m3 (Liquid); method: Vibrating tube method
Temperature, K	Pressure, kPa	Mass density, kg/m3	uncertainty
298.15	101.325	786.63	

System: methanol + triethylamine; phases: Liquid
Fixed: Pressure, kPa = 101
Fixed: Temperature, K = 298.15
Property: Mass density, kg/m3 (Liquid); method: Vibrating tube method
Molality, mol/kg of triethylamine	Mass density, kg/m3	uncertainty
.166469	786.62	
.220141	786.484	
.350307	786.454	
.388535	786.356	
.48639	786.323	
.509241	786.248	
.635451	786.22	
.828928	786.124	
.905894	785.962	
1.031922	785.895	
1.23653	785.798	

System: methanol + N,N-dipropyl-1-propanamine; phases: Liquid
Fixed: Pressure, kPa = 101
Fixed: Temperature, K = 298.15
Property: Mass density, kg/m3 (Liquid); method: Vibrating tube method
Molality, mol/kg of N,N-dipropyl-1-propanamine	Mass density, kg/m3	uncertainty
.461528	786.631	
.569378	785.925	
.825013	785.759	
.840893	785.355	
.883386	785.322	
1.391502	785.264	
1.393443	784.473	
1.689175	784.502	
1.729456	784.017	

System: methanol + tributylamine; phases: Liquid
Fixed: Pressure, kPa = 101
Fixed: Temperature, K = 298.15
Property: Mass density, kg/m3 (Liquid); method: Vibrating tube method
Molality, mol/kg of tributylamine	Mass density, kg/m3	uncertainty
.18228	786.603	
.197206	786.595	
.307918	786.597	
.391527	786.584	
.497611	786.575	
.598095	786.578	
.728322	786.546	
1.33679	786.534	

System: methanol + N,N-dipentyl-1-pentanamine; phases: Liquid
Fixed: Pressure, kPa = 101
Fixed: Temperature, K = 298.15
Property: Mass density, kg/m3 (Liquid); method: Vibrating tube method
Molality, mol/kg of N,N-dipentyl-1-pentanamine	Mass density, kg/m3	uncertainty
.204245	786.695	
.301021	786.962	
.440098	787.08	
.458539	787.261	
.49261	787.294	
.585574	787.323	
.645203	787.442	
.749772	787.52	
.868777	787.647	
.969316	787.78	

System: methanol + N,N-dihexyl-1-hexanamine; phases: Liquid
Fixed: Pressure, kPa = 101
Fixed: Temperature, K = 298.15
Property: Mass density, kg/m3 (Liquid); method: Vibrating tube method
Molality, mol/kg of N,N-dihexyl-1-hexanamine	Mass density, kg/m3	uncertainty
.06487	786.631	
.130941	786.807	
.227019	786.995	
.334765	787.274	
.398248	787.539	
.401517	787.713	
.500031	787.754	
.635814	787.976	
.713371	788.355	
.825871	788.553	

System: methanol + N,N-dioctyl-1-octanamine; phases: Liquid
Fixed: Pressure, kPa = 101
Fixed: Temperature, K = 298.15
Property: Mass density, kg/m3 (Liquid); method: Vibrating tube method
Molality, mol/kg of N,N-dioctyl-1-octanamine	Mass density, kg/m3	uncertainty
.03296	786.6	
.045388	786.8	
.050956	786.87	
.056193	786.9	
.063475	786.96	
.065095	786.97	
.084693	786.99	
.094442	787.1	
.099836	787.11	
.100712	787.16	
