Measured thermophysical data. Thermophysical property characterization of ternary system containing {glycol (DEG/TEG/T4EG) + 2-amino-2-hydroxymethyl-1,3-propanediol + water}
Source: J. Chem. Thermodyn., 2013, 10.1016/j.jct.2012.12.011
Compound 1: diethylene glycol, C4H10O3, purity 99.9%
Compound 2: tetraethylene glycol, C8H18O5, purity 99.5%
Compound 3: 2,2'-(ethylenedioxy)diethanol, C6H14O4, purity 99.96%
Compound 4: water, H2O, purity 99.9%
Compound 5: 2-amino-2-(hydroxymethyl)-1,3-propanediol, C4H11NO3, purity 99.95%

System: 2-amino-2-(hydroxymethyl)-1,3-propanediol + diethylene glycol + water; phases: Liquid
Fixed: Pressure, kPa = 101
Property: Refractive index (Na D-line) (Liquid); method: Standard Abbe refractometry
Temperature, K	Mole fraction of 2-amino-2-(hydroxymethyl)-1,3-propanediol	Mole fraction of diethylene glycol	Refractive index (Na D-line)	uncertainty
298.15	.0094	.1071	1.388292	.00005
303.15	.0094	.1071	1.387112	.00005
308.15	.0094	.1071	1.38598	.00005
313.15	.0094	.1071	1.384811	.00005
318.15	.0094	.1071	1.383602	.00005
323.15	.0094	.1071	1.382402	.00005
328.15	.0094	.1071	1.381163	.00005
333.15	.0094	.1071	1.37982	.00005
338.15	.0094	.1071	1.378585	.00005
343.15	.0094	.1071	1.377377	.00005
298.15	.0226	.1148	1.394971	.00005
303.15	.0226	.1148	1.393792	.00005
308.15	.0226	.1148	1.392615	.00005
313.15	.0226	.1148	1.391406	.00005
318.15	.0226	.1148	1.390222	.00005
323.15	.0226	.1148	1.388998	.00005
328.15	.0226	.1148	1.38774	.00005
333.15	.0226	.1148	1.386539	.00005
338.15	.0226	.1148	1.385281	.00005
343.15	.0226	.1148	1.38408	.00005
298.15	.0447	.1276	1.408488	.00005
303.15	.0447	.1276	1.407339	.00005
308.15	.0447	.1276	1.406086	.00005
313.15	.0447	.1276	1.40486	.00005
318.15	.0447	.1276	1.403579	.00005
323.15	.0447	.1276	1.402296	.00005
328.15	.0447	.1276	1.400999	.00005
333.15	.0447	.1276	1.399727	.00005
338.15	.0447	.1276	1.398457	.00005
343.15	.0447	.1276	1.397197	.00005

System: 2-amino-2-(hydroxymethyl)-1,3-propanediol + diethylene glycol + water; phases: Liquid
Fixed: Pressure, kPa = 101
Property: Mass density, kg/m3 (Liquid); method: Vibrating tube method
Temperature, K	Mole fraction of diethylene glycol	Mole fraction of 2-amino-2-(hydroxymethyl)-1,3-propanediol	Mass density, kg/m3	uncertainty
298.15	.1071	.0094	1066	.5
303.15	.1071	.0094	1063.3	.5
308.15	.1071	.0094	1060.5	.5
313.15	.1071	.0094	1057.6	.5
318.15	.1071	.0094	1054.6	.5
323.15	.1071	.0094	1051.5	.5
328.15	.1071	.0094	1048.3	.5
333.15	.1071	.0094	1045.1	.5
338.15	.1071	.0094	1041.7	.5
343.15	.1071	.0094	1038.3	.5
298.15	.1148	.0226	1078.9	.5
303.15	.1148	.0226	1076.1	.5
308.15	.1148	.0226	1073.2	.5
313.15	.1148	.0226	1070.2	.5
318.15	.1148	.0226	1067.2	.5
323.15	.1148	.0226	1064	.5
328.15	.1148	.0226	1060.8	.5
333.15	.1148	.0226	1057.5	.5
338.15	.1148	.0226	1054.1	.5
343.15	.1148	.0226	1050.6	.5
298.15	.1276	.0447	1099.3	.5
303.15	.1276	.0447	1096.3	.5
308.15	.1276	.0447	1093.3	.5
313.15	.1276	.0447	1090.2	.5
318.15	.1276	.0447	1087	.5
323.15	.1276	.0447	1083.8	.5
328.15	.1276	.0447	1080.5	.5
333.15	.1276	.0447	1077.1	.5
338.15	.1276	.0447	1073.6	.5
343.15	.1276	.0447	1070.1	.5

System: 2-amino-2-(hydroxymethyl)-1,3-propanediol + diethylene glycol + water; phases: Liquid
Fixed: Pressure, kPa = 101
Property: Electrical conductivity, S/m (Liquid); method: Alternating current cell with electrodes
Temperature, K	Mole fraction of diethylene glycol	Mole fraction of 2-amino-2-(hydroxymethyl)-1,3-propanediol	Electrical conductivity, S/m	uncertainty
298.15	.1071	.0094	.00682	.0000682
303.15	.1071	.0094	.00786	.0000786
308.15	.1071	.0094	.00911	.0000911
313.15	.1071	.0094	.01044	.0001044
318.15	.1071	.0094	.01181	.0001181
323.15	.1071	.0094	.01331	.0001331
328.15	.1071	.0094	.01491	.0001491
333.15	.1071	.0094	.01664	.0001664
338.15	.1071	.0094	.01842	.0001842
343.15	.1071	.0094	.02	.0002
298.15	.1148	.0226	.00623	.0000623
303.15	.1148	.0226	.00721	.0000721
308.15	.1148	.0226	.00831	.0000831
313.15	.1148	.0226	.00952	.0000952
318.15	.1148	.0226	.0108	.000108
323.15	.1148	.0226	.01219	.0001219
328.15	.1148	.0226	.01376	.0001376
333.15	.1148	.0226	.01525	.0001525
338.15	.1148	.0226	.01689	.0001689
343.15	.1148	.0226	.01872	.0001872
298.15	.1276	.0447	.00549	.0000549
303.15	.1276	.0447	.00631	.0000631
308.15	.1276	.0447	.00741	.0000741
313.15	.1276	.0447	.00852	.0000852
318.15	.1276	.0447	.00974	.0000974
323.15	.1276	.0447	.01098	.0001098
328.15	.1276	.0447	.01238	.0001238
333.15	.1276	.0447	.01384	.0001384
338.15	.1276	.0447	.01538	.0001538
343.15	.1276	.0447	.01706	.0001706

System: 2-amino-2-(hydroxymethyl)-1,3-propanediol + 2,2'-(ethylenedioxy)diethanol + water; phases: Liquid
Fixed: Pressure, kPa = 101
Property: Refractive index (Na D-line) (Liquid); method: Standard Abbe refractometry
Temperature, K	Mole fraction of 2-amino-2-(hydroxymethyl)-1,3-propanediol	Mole fraction of 2,2'-(ethylenedioxy)diethanol	Refractive index (Na D-line)	uncertainty
298.15	.0097	.0781	1.388882	.00005
303.15	.0097	.0781	1.387741	.00005
308.15	.0097	.0781	1.386624	.00005
313.15	.0097	.0781	1.385458	.00005
318.15	.0097	.0781	1.384301	.00005
323.15	.0097	.0781	1.383093	.00005
328.15	.0097	.0781	1.381901	.00005
333.15	.0097	.0781	1.380639	.00005
338.15	.0097	.0781	1.379256	.00005
343.15	.0097	.0781	1.377877	.00005
298.15	.0234	.0839	1.396071	.00005
303.15	.0234	.0839	1.39489	.00005
308.15	.0234	.0839	1.39369	.00005
313.15	.0234	.0839	1.39251	.00005
318.15	.0234	.0839	1.391277	.00005
323.15	.0234	.0839	1.390097	.00005
328.15	.0234	.0839	1.388902	.00005
333.15	.0234	.0839	1.387737	.00005
338.15	.0234	.0839	1.386575	.00005
343.15	.0234	.0839	1.385459	.00005
298.15	.0465	.0937	1.40784	.00005
303.15	.0465	.0937	1.406765	.00005
308.15	.0465	.0937	1.405427	.00005
313.15	.0465	.0937	1.404212	.00005
318.15	.0465	.0937	1.402938	.00005
323.15	.0465	.0937	1.401693	.00005
328.15	.0465	.0937	1.400467	.00005
333.15	.0465	.0937	1.39925	.00005
338.15	.0465	.0937	1.398041	.00005
343.15	.0465	.0937	1.39687	.00005

System: 2-amino-2-(hydroxymethyl)-1,3-propanediol + 2,2'-(ethylenedioxy)diethanol + water; phases: Liquid
Fixed: Pressure, kPa = 101
Property: Mass density, kg/m3 (Liquid); method: Vibrating tube method
Temperature, K	Mole fraction of 2,2'-(ethylenedioxy)diethanol	Mole fraction of 2-amino-2-(hydroxymethyl)-1,3-propanediol	Mass density, kg/m3	uncertainty
298.15	.0781	.0097	1071.7	.5
303.15	.0781	.0097	1068.9	.5
308.15	.0781	.0097	1066	.5
313.15	.0781	.0097	1063	.5
318.15	.0781	.0097	1059.9	.5
323.15	.0781	.0097	1056.7	.5
328.15	.0781	.0097	1053.4	.5
333.15	.0781	.0097	1050.1	.5
338.15	.0781	.0097	1046.6	.5
343.15	.0781	.0097	1043.1	.5
298.15	.0839	.0234	1084	.5
303.15	.0839	.0234	1081.1	.5
308.15	.0839	.0234	1078.1	.5
313.15	.0839	.0234	1075	.5
318.15	.0839	.0234	1071.8	.5
323.15	.0839	.0234	1068.6	.5
328.15	.0839	.0234	1065.2	.5
333.15	.0839	.0234	1061.8	.5
338.15	.0839	.0234	1058.4	.5
343.15	.0839	.0234	1054.8	.5
298.15	.0937	.0465	1104.4	.5
303.15	.0937	.0465	1101.2	.5
308.15	.0937	.0465	1098.1	.5
313.15	.0937	.0465	1094.8	.5
318.15	.0937	.0465	1091.6	.5
323.15	.0937	.0465	1088.2	.5
328.15	.0937	.0465	1084.8	.5
333.15	.0937	.0465	1081.3	.5
338.15	.0937	.0465	1077.7	.5
343.15	.0937	.0465	1074.1	.5

System: 2-amino-2-(hydroxymethyl)-1,3-propanediol + 2,2'-(ethylenedioxy)diethanol + water; phases: Liquid
Fixed: Pressure, kPa = 101
Property: Electrical conductivity, S/m (Liquid); method: Alternating current cell with electrodes
Temperature, K	Mole fraction of 2,2'-(ethylenedioxy)diethanol	Mole fraction of 2-amino-2-(hydroxymethyl)-1,3-propanediol	Electrical conductivity, S/m	uncertainty
298.15	.0781	.0097	.0393	.000393
303.15	.0781	.0097	.0456	.000456
308.15	.0781	.0097	.0525	.000525
313.15	.0781	.0097	.0601	.000601
318.15	.0781	.0097	.06803	.0006803
323.15	.0781	.0097	.0768	.000768
328.15	.0781	.0097	.08587	.0008587
333.15	.0781	.0097	.09537	.0009537
338.15	.0781	.0097	.10557	.0010557
343.15	.0781	.0097	.11683	.0011683
298.15	.0839	.0234	.02595	.0002595
303.15	.0839	.0234	.0305	.000305
308.15	.0839	.0234	.0358	.000358
313.15	.0839	.0234	.0415	.000415
318.15	.0839	.0234	.04735	.0004735
323.15	.0839	.0234	.05385	.0005385
328.15	.0839	.0234	.0609	.000609
333.15	.0839	.0234	.0685	.000685
338.15	.0839	.0234	.077	.00077
343.15	.0839	.0234	.08635	.0008635
298.15	.0937	.0465	.01983	.0001983
303.15	.0937	.0465	.0237	.000237
308.15	.0937	.0465	.028	.00028
313.15	.0937	.0465	.03293	.0003293
318.15	.0937	.0465	.03797	.0003797
323.15	.0937	.0465	.04407	.0004407
328.15	.0937	.0465	.0503	.000503
333.15	.0937	.0465	.0571	.000571
338.15	.0937	.0465	.06487	.0006487
343.15	.0937	.0465	.07373	.0007373

System: 2-amino-2-(hydroxymethyl)-1,3-propanediol + tetraethylene glycol + water; phases: Liquid
Fixed: Pressure, kPa = 101
Property: Refractive index (Na D-line) (Liquid); method: Standard Abbe refractometry
Temperature, K	Mole fraction of 2-amino-2-(hydroxymethyl)-1,3-propanediol	Mole fraction of tetraethylene glycol	Refractive index (Na D-line)	uncertainty
298.15	.0099	.0615	1.394291	.00005
303.15	.0099	.0615	1.393174	.00005
308.15	.0099	.0615	1.391978	.00005
313.15	.0099	.0615	1.390656	.00005
318.15	.0099	.0615	1.389412	.00005
323.15	.0099	.0615	1.388178	.00005
328.15	.0099	.0615	1.387273	.00005
333.15	.0099	.0615	1.386015	.00005
338.15	.0099	.0615	1.384431	.00005
343.15	.0099	.0615	1.38333	.00005
298.15	.0239	.0661	1.39873	.00005
303.15	.0239	.0661	1.397546	.00005
308.15	.0239	.0661	1.396291	.00005
313.15	.0239	.0661	1.395097	.00005
318.15	.0239	.0661	1.39387	.00005
323.15	.0239	.0661	1.392661	.00005
328.15	.0239	.0661	1.391433	.00005
333.15	.0239	.0661	1.39028	.00005
338.15	.0239	.0661	1.389091	.00005
343.15	.0239	.0661	1.38797	.00005
298.15	.0475	.074	1.411232	.00005
303.15	.0475	.074	1.410021	.00005
308.15	.0475	.074	1.408735	.00005
313.15	.0475	.074	1.407474	.00005
318.15	.0475	.074	1.406144	.00005
323.15	.0475	.074	1.404838	.00005
328.15	.0475	.074	1.403559	.00005
333.15	.0475	.074	1.402284	.00005
338.15	.0475	.074	1.401088	.00005
343.15	.0475	.074	1.399888	.00005

System: 2-amino-2-(hydroxymethyl)-1,3-propanediol + tetraethylene glycol + water; phases: Liquid
Fixed: Pressure, kPa = 101
Property: Mass density, kg/m3 (Liquid); method: Vibrating tube method
Temperature, K	Mole fraction of tetraethylene glycol	Mole fraction of 2-amino-2-(hydroxymethyl)-1,3-propanediol	Mass density, kg/m3	uncertainty
303.15	.0615	.0099	1066.6	.5
308.15	.0615	.0099	1063.7	.5
313.15	.0615	.0099	1060.7	.5
318.15	.0615	.0099	1057.6	.5
323.15	.0615	.0099	1054.4	.5
328.15	.0615	.0099	1051.2	.5
333.15	.0615	.0099	1047.8	.5
338.15	.0615	.0099	1044.4	.5
343.15	.0615	.0099	1040.8	.5
303.15	.0661	.0239	1082.5	.5
308.15	.0661	.0239	1079.4	.5
313.15	.0661	.0239	1076.3	.5
318.15	.0661	.0239	1073.1	.5
323.15	.0661	.0239	1069.8	.5
328.15	.0661	.0239	1066.4	.5
333.15	.0661	.0239	1062.9	.5
338.15	.0661	.0239	1059.4	.5
343.15	.0661	.0239	1055.8	.5
303.15	.074	.0475	1101.5	.5
308.15	.074	.0475	1098.3	.5
313.15	.074	.0475	1095	.5
318.15	.074	.0475	1091.7	.5
323.15	.074	.0475	1088.2	.5
328.15	.074	.0475	1084.8	.5
333.15	.074	.0475	1081.3	.5
338.15	.074	.0475	1077.7	.5
343.15	.074	.0475	1074	.5
298.15	.0615	.0099	1069.4	.5
298.15	.0661	.0239	1085.5	.5
298.15	.074	.0475	1104.6	.5

System: 2-amino-2-(hydroxymethyl)-1,3-propanediol + tetraethylene glycol + water; phases: Liquid
Fixed: Pressure, kPa = 101
Property: Electrical conductivity, S/m (Liquid); method: Alternating current cell with electrodes
Temperature, K	Mole fraction of tetraethylene glycol	Mole fraction of 2-amino-2-(hydroxymethyl)-1,3-propanediol	Electrical conductivity, S/m	uncertainty
303.15	.0615	.0099	.01937	.0001937
308.15	.0615	.0099	.02247	.0002247
313.15	.0615	.0099	.02613	.0002613
318.15	.0615	.0099	.02973	.0002973
323.15	.0615	.0099	.0339	.000339
328.15	.0615	.0099	.03823	.0003823
333.15	.0615	.0099	.04287	.0004287
338.15	.0615	.0099	.04797	.0004797
343.15	.0615	.0099	.05367	.0005367
303.15	.0661	.0239	.01606	.0001606
308.15	.0661	.0239	.01873	.0001873
313.15	.0661	.0239	.0214	.000214
318.15	.0661	.0239	.0246	.000246
323.15	.0661	.0239	.02807	.0002807
328.15	.0661	.0239	.03187	.0003187
333.15	.0661	.0239	.03607	.0003607
338.15	.0661	.0239	.04057	.0004057
343.15	.0661	.0239	.04583	.0004583
303.15	.074	.0475	.01134	.0001134
308.15	.074	.0475	.01351	.0001351
313.15	.074	.0475	.016	.00016
318.15	.074	.0475	.01852	.0001852
323.15	.074	.0475	.0211	.000211
328.15	.074	.0475	.02433	.0002433
333.15	.074	.0475	.028	.00028
338.15	.074	.0475	.03207	.0003207
343.15	.074	.0475	.03673	.0003673
298.15	.0615	.0099	.01709	.0001709
298.15	.0661	.0239	.01361	.0001361
298.15	.074	.0475	.00943	.0000943
