Measured thermophysical data. Measurement and correlation of solubility of carbon dioxide in triglycerides
Source: J. Chem. Thermodyn., 2017, 10.1016/j.jct.2016.09.035
Compound 1: carbon dioxide, CO2, purity 99.9%
Compound 2: water, H2O, purity 99.9%
Compound 3: tetradecane, C14H30, purity 99.9%

System: carbon dioxide + water; phases: Liquid, Gas
Property: Mole fraction of carbon dioxide (Liquid); method: Volumetric method
Pressure, kPa	Temperature, K	Mole fraction of carbon dioxide	uncertainty
371	288.2	.003	
409	288.2	.00328	
469	288.2	.00376	
336	293.2	.00238	
493	288.2	.00399	
1108	288.2	.00852	
383	298.2	.00249	
506	298.2	.0033	
616	298.2	.00361	
697	288.2	.00541	
1056	288.2	.00799	
1251	288.2	.00953	
502	293.2	.00349	
749	293.2	.0051	
1002	293.2	.00675	
755	298.2	.00443	

System: carbon dioxide + tetradecane; phases: Liquid, Gas
Property: Mole fraction of carbon dioxide (Liquid); method: Volumetric method
Pressure, kPa	Temperature, K	Mole fraction of carbon dioxide	uncertainty
986	323.2	.0957	
1304	323.2	.1201	
1565	323.2	.1396	
2061	323.2	.1812	
