Measured thermophysical data. Semifluorinated alkanes and alkanes: A phase study of the perfluorohexyloctane - Tetradecane system
Source: J. Chem. Thermodyn., 2017, 10.1016/j.jct.2016.10.032
Compound 1: 1,1,1,2,2,3,3,4,4,5,5,6,6-tridecafluorotetradecane, C14H17F13, purity 99.88%
Compound 2: tetradecane, C14H30, purity 99%

System: 1,1,1,2,2,3,3,4,4,5,5,6,6-tridecafluorotetradecane; phases: Crystal 2, Crystal 1, Air at 1 atmosphere
Property: Triple point temperature, K (Crystal 2); method: DSC
Triple point temperature, K	uncertainty
230.85	.800000000000011

System: 1,1,1,2,2,3,3,4,4,5,5,6,6-tridecafluorotetradecane; phases: Crystal 1, Liquid, Air at 1 atmosphere
Property: Normal melting temperature, K (Crystal 1); method: DSC/DTA
Normal melting temperature, K	uncertainty
267.25	.600000000000023

System: 1,1,1,2,2,3,3,4,4,5,5,6,6-tridecafluorotetradecane; phases: Crystal 2, Crystal 1, Air at 1 atmosphere
Property: Molar enthalpy of transition or fusion, kJ/mol (Crystal 2); method: DSC
Molar enthalpy of transition or fusion, kJ/mol	uncertainty
1.16711285832	.30258481512

System: 1,1,1,2,2,3,3,4,4,5,5,6,6-tridecafluorotetradecane; phases: Crystal 1, Liquid, Air at 1 atmosphere
Property: Molar enthalpy of transition or fusion, kJ/mol (Crystal 1); method: DSC
Molar enthalpy of transition or fusion, kJ/mol	uncertainty
16.6421648316	.12967920648

System: 1,1,1,2,2,3,3,4,4,5,5,6,6-tridecafluorotetradecane; phases: Crystal 1
Fixed: Pressure, kPa = 101.325
Property: Mass density, kg/m3 (Crystal 1); method: X-ray diffraction
Temperature, K	Mass density, kg/m3	uncertainty
259.15	1558	54

System: 1,1,1,2,2,3,3,4,4,5,5,6,6-tridecafluorotetradecane; phases: Crystal 2
Fixed: Pressure, kPa = 101.325
Property: Mass density, kg/m3 (Crystal 2); method: X-ray diffraction
Temperature, K	Mass density, kg/m3	uncertainty
227.15	1587	54

System: tetradecane; phases: Crystal, Liquid, Air at 1 atmosphere
Property: Normal melting temperature, K (Crystal); method: DSC/DTA
Normal melting temperature, K	uncertainty
279.05	.600000000000023

System: tetradecane; phases: Crystal, Liquid, Air at 1 atmosphere
Property: Molar enthalpy of transition or fusion, kJ/mol (Crystal); method: DSC
Molar enthalpy of transition or fusion, kJ/mol	uncertainty
48.009896	.793552

System: tetradecane; phases: Crystal
Fixed: Pressure, kPa = 101.325
Property: Mass density, kg/m3 (Crystal); method: X-ray diffraction
Temperature, K	Mass density, kg/m3	uncertainty
259.15	915	52

System: tetradecane + 1,1,1,2,2,3,3,4,4,5,5,6,6-tridecafluorotetradecane; phases: Crystal, Crystal, Liquid, Air at 1 atmosphere
Fixed: Pressure, kPa = 101.325
Property: Eutectic temperature, K (Crystal); method: DSC/DTA
Eutectic temperature, K	uncertainty
264.35	

System: tetradecane + 1,1,1,2,2,3,3,4,4,5,5,6,6-tridecafluorotetradecane; phases: Liquid
Fixed: Pressure, kPa = 100
Fixed: Temperature, K = 298.15
Property: Molar enthalpy of solution, kJ/mol (Liquid); method: Titration calorimetry
Mole fraction of tetradecane	Molar enthalpy of solution, kJ/mol	uncertainty
0	4.5	

System: tetradecane + 1,1,1,2,2,3,3,4,4,5,5,6,6-tridecafluorotetradecane; phases: Liquid
Fixed: Pressure, kPa = 100
Fixed: Temperature, K = 298.15
Property: Molar enthalpy of solution, kJ/mol (Liquid); method: Titration calorimetry
Mole fraction of 1,1,1,2,2,3,3,4,4,5,5,6,6-tridecafluorotetradecane	Molar enthalpy of solution, kJ/mol	uncertainty
0	6.5	

System: tetradecane + 1,1,1,2,2,3,3,4,4,5,5,6,6-tridecafluorotetradecane; phases: Liquid, Crystal
Fixed: Pressure, kPa = 100
Property: Solid-liquid equilibrium temperature, K (Liquid); method: DSC/DTA
Mole fraction of tetradecane	Solid-liquid equilibrium temperature, K	uncertainty
0	267.25	
.022	267.05	
.045	266.35	
.064	265.95	
.083	265.05	

System: tetradecane + 1,1,1,2,2,3,3,4,4,5,5,6,6-tridecafluorotetradecane; phases: Liquid, Crystal
Fixed: Pressure, kPa = 100
Property: Solid-liquid equilibrium temperature, K (Liquid); method: DSC/DTA
Mole fraction of tetradecane	Solid-liquid equilibrium temperature, K	uncertainty
.102	265.15	
.128	267.85	
.165	269.75	
.195	271.15	
.353	274.55	
.483	276.25	
.685	277.25	
.815	277.95	
.952	279.25	
1	279.05	

System: tetradecane + 1,1,1,2,2,3,3,4,4,5,5,6,6-tridecafluorotetradecane; phases: Liquid
Fixed: Pressure, kPa = 100
Fixed: Temperature, K = 298.15
Property: Partial molar enthalpy, kJ/mol of 1,1,1,2,2,3,3,4,4,5,5,6,6-tridecafluorotetradecane (Liquid); method: Isothermal titration calorimeter
Molality, mol/kg of 1,1,1,2,2,3,3,4,4,5,5,6,6-tridecafluorotetradecane	Partial molar enthalpy, kJ/mol of 1,1,1,2,2,3,3,4,4,5,5,6,6-tridecafluorotetradecane	uncertainty
.012	6.49	
.024	6.42	
.037	6.4	
.049	6.45	
.062	6.35	
.073	6.37	
.085	6.29	
.098	6.25	

System: tetradecane + 1,1,1,2,2,3,3,4,4,5,5,6,6-tridecafluorotetradecane; phases: Liquid
Fixed: Pressure, kPa = 100
Fixed: Temperature, K = 298.15
Property: Partial molar enthalpy, kJ/mol of tetradecane (Liquid); method: Isothermal titration calorimeter
Molality, mol/kg of tetradecane	Partial molar enthalpy, kJ/mol of tetradecane	uncertainty
.009	4.22	
.019	3.92	
.028	3.58	
.037	3.31	
.047	3.17	
.056	3	
.065	2.84	
.074	2.74	
