Measured thermophysical data. Development of a special single-sinker densimeter for cryogenic liquid mixtures and first results for a liquefied natural gas (LNG)
Source: J. Chem. Thermodyn., 2016, 10.1016/j.jct.2015.09.034
Compound 1: methane, CH4, purity 99.9995%

System: methane; phases: Liquid
Property: Mass density, kg/m3 (Liquid); method: Buoyancy - hydrostatic balance with magnetic suspension - one sinker
Pressure, kPa	Temperature, K	Mass density, kg/m3	uncertainty
185.5	105	432.098	.15555528
478.95	105	432.339	.15564204
973.88	105	432.743	.15578748
1970.76	105	433.554	.15607944
5044.56	105	435.981	.15695316
479.33	115	417.827	.15041772
973.28	115	418.319	.15059484
1969.98	115	419.298	.15094728
477.88	125	402.38	.1448568
972.71	125	402.99	.1450764
1970.4	125	404.194	.14550984
5112.4	125	407.803	.14680908
783.75	135	386.1	.138996
1001.19	135	386.441	.13911876
2014.28	135	387.992	.13967712
5208.85	135	392.557	.14132052
