Measured thermophysical data. Thermodynamic study of selected monoterpenes II
Source: J. Chem. Thermodyn., 2014, 10.1016/j.jct.2013.12.012
Compound 1: (-)-borneol, C10H18O, purity 99.2%
Compound 2: (-)-camphor, C10H16O, purity 99.7%
Compound 3: (+)-fenchone, C10H16O, purity 99.5%
Compound 4: (.+-.)-camphene, C10H16, purity 97.5%

System: (-)-borneol; phases: Crystal 1, Liquid, Air at 1 atmosphere
Property: Normal melting temperature, K (Crystal 1); method: DSC/DTA
Normal melting temperature, K	uncertainty
480.3	.3

System: (-)-borneol; phases: Crystal 1, Liquid, Air at 1 atmosphere
Property: Molar enthalpy of transition or fusion, kJ/mol (Crystal 1); method: DSC
Molar enthalpy of transition or fusion, kJ/mol	uncertainty
7.3	.3

System: (-)-borneol; phases: Crystal 2, Crystal 1, Air at 1 atmosphere
Property: Triple point temperature, K (Crystal 2); method: DSC/DTA
Triple point temperature, K	uncertainty
347.9	.3

System: (-)-borneol; phases: Crystal 2, Crystal 1, Air at 1 atmosphere
Property: Molar enthalpy of transition or fusion, kJ/mol (Crystal 2); method: DSC
Molar enthalpy of transition or fusion, kJ/mol	uncertainty
3.2	.3

System: (-)-borneol; phases: Crystal 2, Gas
Property: Vapor or sublimation pressure, kPa (Crystal 2); method: Closed cell (Static) method
Temperature, K	Vapor or sublimation pressure, kPa	uncertainty
273.65	.000211	.000001055
273.65	.000212	.00000106
273.65	.000212	.00000106
278.15	.00036	.0000018
278.15	.000361	.000001805
278.15	.000361	.000001805
283.15	.000638	.00000319
283.15	.000639	.000003195
283.15	.000639	.000003195
288.15	.001104	.00000552
288.15	.001105	.000005525
288.15	.001106	.00000553
293.15	.001882	.00000941
293.15	.001882	.00000941
293.15	.001883	.000009415
298.15	.003159	.000015795
298.15	.003161	.000015805
298.15	.003162	.00001581
303.15	.005213	.000026065
303.15	.005214	.00002607
303.15	.005215	.000026075
308.15	.008461	.000042305
308.15	.008464	.00004232
308.15	.008465	.000042325

System: (-)-borneol; phases: Crystal 2
Fixed: Pressure, kPa = 101.325
Property: Molar heat capacity at constant pressure, J/K/mol (Crystal 2); method: Large sample (1 g) scanning calorimetry
Temperature, K	Molar heat capacity at constant pressure, J/K/mol	uncertainty
273.4	237.87675782	2.3787675782
278.5	241.86769958	2.4186769958
283.6	246.35750906	2.4635750906
288.7	250.51474006	2.5051474006
293.8	255.42027264	2.5542027264
298.9	261.15725142	2.6115725142
304	266.72794096	2.6672794096
309.1	272.46491974	2.7246491974
314.2	278.9502001	2.789502001
319.4	286.10063742	2.8610063742
324.5	293.58365322	2.9358365322
329.6	301.98125984	3.0198125984
334.7	310.9608788	3.109608788

System: (-)-camphor; phases: Crystal 1, Liquid, Air at 1 atmosphere
Property: Normal melting temperature, K (Crystal 1); method: DSC/DTA
Normal melting temperature, K	uncertainty
448.5	.3

System: (-)-camphor; phases: Crystal 1, Liquid, Air at 1 atmosphere
Property: Molar enthalpy of transition or fusion, kJ/mol (Crystal 1); method: DSC
Molar enthalpy of transition or fusion, kJ/mol	uncertainty
4.9	.3

System: (-)-camphor; phases: Crystal 3, Crystal 2, Air at 1 atmosphere
Property: Triple point temperature, K (Crystal 3); method: DSC/DTA
Triple point temperature, K	uncertainty
243.9	.3

System: (-)-camphor; phases: Crystal 3, Crystal 2, Air at 1 atmosphere
Property: Molar enthalpy of transition or fusion, kJ/mol (Crystal 3); method: DSC
Molar enthalpy of transition or fusion, kJ/mol	uncertainty
11	.3

System: (-)-camphor; phases: Crystal 2, Crystal 1, Air at 1 atmosphere
Property: Triple point temperature, K (Crystal 2); method: DSC/DTA
Triple point temperature, K	uncertainty
373.4	1

System: (-)-camphor; phases: Crystal 2, Crystal 1, Air at 1 atmosphere
Property: Molar enthalpy of transition or fusion, kJ/mol (Crystal 2); method: DSC
Molar enthalpy of transition or fusion, kJ/mol	uncertainty
.2	.1

System: (-)-camphor; phases: Crystal 2, Gas
Property: Vapor or sublimation pressure, kPa (Crystal 2); method: Closed cell (Static) method
Temperature, K	Vapor or sublimation pressure, kPa	uncertainty
273.65	.00359	.00001795
273.65	.003604	.00001802
273.65	.003606	.00001803
278.15	.005406	.00002703
278.15	.005414	.00002707
278.15	.00542	.0000271
283.15	.008302	.00004151
283.15	.008322	.00004161
283.15	.008324	.00004162
288.15	.0126	.000063
288.15	.01261	.00006305
288.15	.01262	.0000631
293.15	.01883	.00009415
293.15	.01885	.00009425
293.15	.01888	.0000944
298.15	.02802	.0001401
298.15	.02806	.0001403
298.15	.02812	.0001406
303.15	.04122	.0002061
303.15	.04122	.0002061
303.15	.04127	.00020635
308.15	.05983	.00029915
308.15	.05985	.00029925
308.15	.05989	.00029945

System: (-)-camphor; phases: Crystal 2
Fixed: Pressure, kPa = 101.325
Property: Molar heat capacity at constant pressure, J/K/mol (Crystal 2); method: Large sample (1 g) scanning calorimetry
Temperature, K	Molar heat capacity at constant pressure, J/K/mol	uncertainty
273.4	240.95310876	2.4095310876
278.5	242.03398882	2.4203398882
283.6	243.03172426	2.4303172426
288.7	244.94405052	2.4494405052
293.8	246.60694292	2.4660694292
298.9	248.93499228	2.4893499228
304	251.01360778	2.5101360778
309.1	253.1753679	2.531753679
314.2	255.50341726	2.5550341726
319.4	256.9168758	2.569168758
324.5	259.74379288	2.5974379288
329.6	262.48756534	2.6248756534
334.7	264.8156147	2.648156147
339.8	267.22680868	2.6722680868
344.9	270.46944886	2.7046944886
350	273.62894442	2.7362894442
355.1	276.70529536	2.7670529536

System: (+)-fenchone; phases: Crystal 1, Liquid, Air at 1 atmosphere
Property: Normal melting temperature, K (Crystal 1); method: DSC/DTA
Normal melting temperature, K	uncertainty
278.6	.3

System: (+)-fenchone; phases: Crystal 2, Liquid, Air at 1 atmosphere
Property: Molar enthalpy of transition or fusion, kJ/mol (Crystal 2); method: DSC
Molar enthalpy of transition or fusion, kJ/mol	uncertainty
17.4	.3

System: (+)-fenchone; phases: Crystal 2, Crystal 1, Air at 1 atmosphere
Property: Triple point temperature, K (Crystal 2); method: DSC/DTA
Triple point temperature, K	uncertainty
278	.3

System: (+)-fenchone; phases: Crystal 2, Gas
Property: Vapor or sublimation pressure, kPa (Crystal 2); method: Closed cell (Static) method
Temperature, K	Vapor or sublimation pressure, kPa	uncertainty
238.15	.00014	.0000007
238.15	.000141	.000000705
238.15	.000142	.00000071
243.15	.000277	.000001385
243.15	.000278	.00000139
243.15	.000278	.00000139
248.15	.000547	.000002735
248.15	.000548	.00000274
248.15	.000548	.00000274
253.15	.001053	.000005265
253.15	.001053	.000005265
253.15	.001054	.00000527
258.15	.001988	.00000994
258.15	.001991	.000009955
258.15	.001993	.000009965
263.15	.0037	.0000185
263.15	.003705	.000018525
263.15	.003705	.000018525
268.15	.006751	.000033755
268.15	.006753	.000033765
268.15	.006753	.000033765
273.15	.01206	.0000603
273.15	.01206	.0000603
273.15	.01206	.0000603

System: (+)-fenchone; phases: Liquid, Gas
Property: Vapor or sublimation pressure, kPa (Liquid); method: Closed cell (Static) method
Temperature, K	Vapor or sublimation pressure, kPa	uncertainty
243.15	.000763	.000003815
243.15	.000764	.00000382
243.15	.000764	.00000382
248.15	.001307	.000006535
248.15	.001308	.00000654
248.15	.001308	.00000654
253.15	.002188	.00001094
253.15	.002189	.000010945
253.15	.002189	.000010945
258.15	.003604	.00001802
258.15	.003604	.00001802
258.15	.003605	.000018025
263.15	.005827	.000029135
263.15	.005828	.00002914
263.15	.005829	.000029145
268.15	.009242	.00004621
268.15	.009244	.00004622
268.15	.009246	.00004623
273.15	.01436	.0000718
273.15	.01436	.0000718
273.15	.01436	.0000718
278.15	.02193	.00010965
278.15	.02193	.00010965
278.15	.02194	.0001097
283.15	.03289	.00016445
283.15	.0329	.0001645
283.15	.03291	.00016455
288.15	.04842	.0002421
288.15	.04845	.00024225
288.15	.04845	.00024225
293.15	.07036	.0003518
293.15	.07036	.0003518
293.15	.07037	.00035185
298.15	.10074	.0005037
298.15	.10075	.00050375
298.15	.10075	.00050375
303.15	.14206	.0007103
303.15	.14209	.00071045
303.15	.14209	.00071045
308.15	.19767	.00098835
308.15	.19767	.00098835
308.15	.19775	.00098875

System: (+)-fenchone; phases: Liquid
Fixed: Pressure, kPa = 101.325
Property: Molar heat capacity at constant pressure, J/K/mol (Liquid); method: Large sample (1 g) scanning calorimetry
Temperature, K	Molar heat capacity at constant pressure, J/K/mol	uncertainty
273.4	259.57750364	2.5957750364
278.5	260.74152832	2.6074152832
283.6	263.5684454	2.635684454
288.7	264.64932546	2.6464932546
293.8	266.56165172	2.6656165172
298.9	269.8042919	2.698042919
304	271.79976278	2.7179976278
309.1	274.377246	2.74377246
314.2	277.03787384	2.7703787384
319.4	278.86705548	2.7886705548
324.5	281.69397256	2.8169397256
329.6	284.68717888	2.8468717888
334.7	287.2646621	2.872646621
339.8	289.92528994	2.8992528994
344.9	292.6690624	2.926690624
350	295.5791241	2.955791241
355.1	298.82176428	2.9882176428

System: (+)-fenchone; phases: Crystal 1, Gas
Property: Vapor or sublimation pressure, kPa (Crystal 1); method: Closed cell (Static) method
Temperature, K	Vapor or sublimation pressure, kPa	uncertainty
278.15	.02111	.00010555
278.15	.02112	.0001056
278.15	.02112	.0001056

System: (.+-.)-camphene; phases: Crystal, Liquid, Air at 1 atmosphere
Property: Normal melting temperature, K (Crystal); method: DSC/DTA
Normal melting temperature, K	uncertainty
317.6	.3

System: (.+-.)-camphene; phases: Crystal, Liquid, Air at 1 atmosphere
Property: Molar enthalpy of transition or fusion, kJ/mol (Crystal); method: DSC
Molar enthalpy of transition or fusion, kJ/mol	uncertainty
2.7	.3

System: (.+-.)-camphene; phases: Crystal, Gas
Property: Vapor or sublimation pressure, kPa (Crystal); method: Closed cell (Static) method
Temperature, K	Vapor or sublimation pressure, kPa	uncertainty
238.15	.003435	.00003435
238.15	.003436	.00003436
238.15	.003436	.00003436
243.15	.005761	.00005761
243.15	.005765	.00005765
243.15	.005768	.00005768
248.15	.00946	.0000946
248.15	.009464	.00009464
248.15	.009473	.00009473
253.15	.01527	.0001527
253.15	.01527	.0001527
253.15	.01527	.0001527
258.15	.0241	.000241
258.15	.0241	.000241
258.15	.02413	.0002413
263.15	.03746	.0003746
263.15	.03746	.0003746
263.15	.03747	.0003747
268.15	.05698	.0005698
268.15	.05699	.0005699
268.15	.05699	.0005699
273.15	.08514	.0008514
273.15	.08515	.0008515
273.15	.08516	.0008516
273.65	.0885	.000885
273.65	.08853	.0008853
273.65	.08854	.0008854
278.15	.12518	.0012518
278.15	.12521	.0012521
278.15	.12521	.0012521
283.15	.18107	.0018107
283.15	.18108	.0018108
283.15	.18111	.0018111
288.15	.25851	.0025851
288.15	.25863	.0025863
288.15	.25873	.0025873
293.15	.36283	.0036283
293.15	.36303	.0036303
293.15	.36309	.0036309
298.15	.50372	.0050372
298.15	.50378	.0050378
298.15	.50393	.0050393
303.15	.68913	.0068913
303.15	.6896	.006896
303.15	.69004	.0069004
308.15	.93396	.0093396
308.15	.93433	.0093433
308.15	.93455	.0093455

System: (.+-.)-camphene; phases: Crystal
Fixed: Pressure, kPa = 101.325
Property: Molar heat capacity at constant pressure, J/K/mol (Crystal); method: Large sample (1 g) scanning calorimetry
Temperature, K	Molar heat capacity at constant pressure, J/K/mol	uncertainty
258.1	211.10419018	2.1110419018
263.2	213.93110726	2.1393110726
268.3	216.84116896	2.1684116896
273.4	219.75123066	2.1975123066
278.5	222.74443698	2.2274443698
283.6	225.7376433	2.257376433
288.7	228.81399424	2.2881399424
293.8	231.89034518	2.3189034518
298.9	235.13298536	2.3513298536

System: (.+-.)-camphene; phases: Liquid
Fixed: Pressure, kPa = 101.325
Property: Molar heat capacity at constant pressure, J/K/mol (Liquid); method: Large sample (1 g) scanning calorimetry
Temperature, K	Molar heat capacity at constant pressure, J/K/mol	uncertainty
324.5	251.5124755	2.515124755
329.6	254.50568182	2.5450568182
334.7	257.41574352	2.5741574352
339.8	259.8269375	2.598269375
344.9	262.3212761	2.623212761
350	265.6470609	2.656470609
355.1	269.30542418	2.6930542418
