Measured thermophysical data. (Liquid + liquid) extraction of methanol from alkanes using dialkylphosphate-based ionic liquids as solvents
Source: J. Chem. Thermodyn., 2015, 10.1016/j.jct.2015.04.002
Compound 1: methanol, CH4O, purity 99.5%
Compound 2: hexane, C6H14, purity 99%
Compound 3: heptane, C7H16, purity 99%
Compound 4: 1,3-dimethylimidazolium dimethylphosphate, C7H15N2O4P
Compound 5: 1-ethyl-3-methylimidazolium diethylphosphate, C10H21N2O4P
Compound 6: 1-butyl-3-methylimidazolium dibutylphosphate, C16H33N2O4P

System: methanol + hexane + 1,3-dimethylimidazolium dimethylphosphate; phases: Liquid mixture 2, Liquid mixture 1
Fixed: Pressure, kPa = 101.3
Fixed: Temperature, K = 298.2
Property: Mole fraction of hexane (Liquid mixture 2); method: Chromatography
Property: Mole fraction of methanol (Liquid mixture 1); method: Chromatography
Property: Mole fraction of hexane (Liquid mixture 1); method: Chromatography
Mole fraction of methanol	Mole fraction of hexane	uncertainty	Mole fraction of methanol	uncertainty	Mole fraction of hexane	uncertainty
0	.04	.001	0	.001	1	.001
.129	.041	.001	.002	.001	.998	.001
.199	.045	.001	.003	.001	.997	.001
.288	.046	.001	.005	.001	.995	.001
.384	.047	.001	.008	.001	.992	.001
.553	.049	.001	.014	.001	.986	.001
.678	.051	.001	.019	.001	.981	.001
.751	.053	.001	.023	.001	.977	.001
.824	.054	.001	.03	.001	.97	.001

System: methanol + hexane + 1-ethyl-3-methylimidazolium diethylphosphate; phases: Liquid mixture 2, Liquid mixture 1
Fixed: Pressure, kPa = 101.3
Fixed: Temperature, K = 298.2
Property: Mole fraction of hexane (Liquid mixture 2); method: Chromatography
Property: Mole fraction of methanol (Liquid mixture 1); method: Chromatography
Property: Mole fraction of hexane (Liquid mixture 1); method: Chromatography
Mole fraction of methanol	Mole fraction of hexane	uncertainty	Mole fraction of methanol	uncertainty	Mole fraction of hexane	uncertainty
0	.061	.001	0	.001	1	.001
.116	.062	.001	.003	.001	.997	.001
.237	.067	.001	.006	.001	.994	.001
.348	.068	.001	.01	.001	.99	.001
.455	.07	.001	.014	.001	.986	.001
.551	.073	.001	.022	.001	.978	.001
.643	.075	.001	.029	.001	.971	.001
.698	.077	.001	.033	.001	.967	.001
.781	.08	.001	.042	.001	.958	.001

System: methanol + hexane + 1-butyl-3-methylimidazolium dibutylphosphate; phases: Liquid mixture 2, Liquid mixture 1
Fixed: Pressure, kPa = 101.3
Fixed: Temperature, K = 298.2
Property: Mole fraction of hexane (Liquid mixture 2); method: Chromatography
Property: Mole fraction of methanol (Liquid mixture 1); method: Chromatography
Property: Mole fraction of hexane (Liquid mixture 1); method: Chromatography
Mole fraction of methanol	Mole fraction of hexane	uncertainty	Mole fraction of methanol	uncertainty	Mole fraction of hexane	uncertainty
0	.083	.001	0	.001	1	.001
.104	.085	.001	.003	.001	.997	.001
.248	.099	.001	.007	.001	.993	.001
.316	.103	.001	.01	.001	.99	.001
.44	.109	.001	.015	.001	.985	.001
.551	.117	.001	.025	.001	.975	.001
.629	.125	.001	.033	.001	.967	.001
.694	.132	.001	.041	.001	.959	.001
.747	.143	.001	.05	.001	.95	.001

System: methanol + heptane + 1,3-dimethylimidazolium dimethylphosphate; phases: Liquid mixture 2, Liquid mixture 1
Fixed: Temperature, K = 298.2
Fixed: Pressure, kPa = 101.3
Property: Mole fraction of heptane (Liquid mixture 2); method: Chromatography
Property: Mole fraction of methanol (Liquid mixture 1); method: Chromatography
Property: Mole fraction of heptane (Liquid mixture 1); method: Chromatography
Mole fraction of methanol	Mole fraction of heptane	uncertainty	Mole fraction of methanol	uncertainty	Mole fraction of heptane	uncertainty
0	.006	.001	0	.001	1	.001
.108	.009	.001	.002	.001	.998	.001
.175	.011	.001	.003	.001	.997	.001
.257	.012	.001	.005	.001	.995	.001
.369	.014	.001	.008	.001	.992	.001
.455	.015	.001	.011	.001	.989	.001
.584	.016	.001	.016	.001	.984	.001
.692	.017	.001	.022	.001	.978	.001
.815	.019	.001	.027	.001	.973	.001

System: methanol + heptane + 1-ethyl-3-methylimidazolium diethylphosphate; phases: Liquid mixture 2, Liquid mixture 1
Fixed: Temperature, K = 298.2
Fixed: Pressure, kPa = 101.3
Property: Mole fraction of heptane (Liquid mixture 2); method: Chromatography
Property: Mole fraction of methanol (Liquid mixture 1); method: Chromatography
Property: Mole fraction of heptane (Liquid mixture 1); method: Chromatography
Mole fraction of methanol	Mole fraction of heptane	uncertainty	Mole fraction of methanol	uncertainty	Mole fraction of heptane	uncertainty
0	.009	.001	0	.001	1	.001
.094	.011	.001	.003	.001	.997	.001
.183	.015	.001	.005	.001	.995	.001
.269	.018	.001	.008	.001	.992	.001
.342	.021	.001	.011	.001	.989	.001
.466	.023	.001	.017	.001	.983	.001
.606	.027	.001	.024	.001	.976	.001
.704	.031	.001	.029	.001	.971	.001
.792	.036	.001	.035	.001	.965	.001

System: methanol + heptane + 1-butyl-3-methylimidazolium dibutylphosphate; phases: Liquid mixture 2, Liquid mixture 1
Fixed: Temperature, K = 298.2
Fixed: Pressure, kPa = 101.3
Property: Mole fraction of heptane (Liquid mixture 2); method: Chromatography
Property: Mole fraction of methanol (Liquid mixture 1); method: Chromatography
Property: Mole fraction of heptane (Liquid mixture 1); method: Chromatography
Mole fraction of methanol	Mole fraction of heptane	uncertainty	Mole fraction of methanol	uncertainty	Mole fraction of heptane	uncertainty
0	.025	.001	0	.001	1	.001
.089	.033	.001	.003	.001	.997	.001
.199	.043	.001	.006	.001	.994	.001
.288	.05	.001	.01	.001	.99	.001
.377	.059	.001	.014	.001	.986	.001
.517	.066	.001	.022	.001	.978	.001
.636	.075	.001	.029	.001	.971	.001
.718	.084	.001	.037	.001	.963	.001
.756	.098	.001	.046	.001	.954	.001

System: hexane + 1,3-dimethylimidazolium dimethylphosphate; phases: Liquid mixture 2, Liquid mixture 1
Property: Mole fraction of hexane (Liquid mixture 2); method: Chromatography
Pressure, kPa	Temperature, K	Mole fraction of hexane	uncertainty
101.3	298.2	.04	.001

System: hexane + 1-ethyl-3-methylimidazolium diethylphosphate; phases: Liquid mixture 2, Liquid mixture 1
Property: Mole fraction of hexane (Liquid mixture 2); method: Chromatography
Pressure, kPa	Temperature, K	Mole fraction of hexane	uncertainty
101.3	298.2	.061	.001

System: hexane + 1-butyl-3-methylimidazolium dibutylphosphate; phases: Liquid mixture 2, Liquid mixture 1
Property: Mole fraction of hexane (Liquid mixture 2); method: Chromatography
Pressure, kPa	Temperature, K	Mole fraction of hexane	uncertainty
101.3	298.2	.083	.001

System: heptane + 1,3-dimethylimidazolium dimethylphosphate; phases: Liquid mixture 2, Liquid mixture 1
Property: Mole fraction of heptane (Liquid mixture 2); method: Chromatography
Pressure, kPa	Temperature, K	Mole fraction of heptane	uncertainty
101.3	298.2	.006	.001

System: heptane + 1-ethyl-3-methylimidazolium diethylphosphate; phases: Liquid mixture 2, Liquid mixture 1
Property: Mole fraction of heptane (Liquid mixture 2); method: Chromatography
Pressure, kPa	Temperature, K	Mole fraction of heptane	uncertainty
101.3	298.2	.009	.001

System: heptane + 1-butyl-3-methylimidazolium dibutylphosphate; phases: Liquid mixture 2, Liquid mixture 1
Property: Mole fraction of heptane (Liquid mixture 2); method: Chromatography
Pressure, kPa	Temperature, K	Mole fraction of heptane	uncertainty
101.3	298.2	.025	.001
