Measured thermophysical data. Solvation behaviour and partial molar properties of monosaccharides in aqueous protic ionic liquid solutions
Source: J. Chem. Thermodyn., 2014, 10.1016/j.jct.2013.11.021
Compound 1: 3-hydroxypropylammonium formate, C4H11NO3
Compound 2: D-(-)-ribose, C5H10O5, purity 98%
Compound 3: D(+)-glucose, C6H12O6, purity 98%
Compound 4: water, H2O

System: water; phases: Liquid
Property: Mass density, kg/m3 (Liquid); method: Vibrating tube method
Temperature, K	Pressure, kPa	Mass density, kg/m3	uncertainty
298.15	101	997.049	.05
303.15	101	995.66	.05
308.15	101	994.045	.05
313.15	101	992.228	.05
318.15	101	990.223	.05

System: water; phases: Liquid
Property: Speed of sound, m/s (Liquid); method: Sing-around technique in a fixed-path interferometer
Temperature, K	Pressure, kPa	Speed of sound, m/s	uncertainty
298.15	101	1497	.5
303.15	101	1509.16	.5
308.15	101	1519.76	.5
313.15	101	1528.86	.5
318.15	101	1536.42	.5

System: D-(-)-ribose + water + 3-hydroxypropylammonium formate; phases: Liquid
Fixed: Pressure, kPa = 101
Property: Mass density, kg/m3 (Liquid); method: Vibrating tube method
Temperature, K	Solvent: Molality, mol/kg of 3-hydroxypropylammonium formate	Molality, mol/kg of D-(-)-ribose	Mass density, kg/m3	uncertainty
298.15	0	0	997.049	.05
298.15	0	.0504	999.789	.05
298.15	0	.06883	1000.778	.05
298.15	0	.08626	1001.704	.05
298.15	0	.11073	1003.001	.05
298.15	0	.13603	1004.325	.05
298.15	0	.15661	1005.39	.05
303.15	0	0	995.66	.05
303.15	0	.0504	998.382	.05
303.15	0	.06883	999.363	.05
303.15	0	.08626	1000.287	.05
303.15	0	.11073	1001.577	.05
303.15	0	.13603	1002.894	.05
303.15	0	.15661	1003.955	.05
308.15	0	0	994.045	.05
308.15	0	.0504	996.751	.05
308.15	0	.06883	997.73	.05
308.15	0	.08626	998.651	.05
308.15	0	.11073	999.932	.05
308.15	0	.13603	1001.247	.05
308.15	0	.15661	1002.311	.05
313.15	0	0	992.228	.05
313.15	0	.0504	994.911	.05
313.15	0	.06883	995.882	.05
313.15	0	.08626	996.793	.05
313.15	0	.11073	998.065	.05
313.15	0	.13603	999.37	.05
313.15	0	.15661	1000.414	.05
318.15	0	0	990.223	.05
318.15	0	.0504	992.887	.05
318.15	0	.06883	993.852	.05
318.15	0	.08626	994.758	.05
318.15	0	.11073	996.017	.05
318.15	0	.13603	997.311	.05
318.15	0	.15661	998.355	.05
298.15	.1	0	998.637	.05
298.15	.1	.04994	1001.353	.05
298.15	.1	.07513	1002.708	.05
298.15	.1	.09307	1003.667	.05
298.15	.1	.0983	1003.944	.05
298.15	.1	.1273	1005.48	.05
298.15	.1	.1599	1007.191	.05
303.15	.1	0	997.222	.05
303.15	.1	.04994	999.919	.05
303.15	.1	.07513	1001.264	.05
303.15	.1	.09307	1002.217	.05
303.15	.1	.0983	1002.492	.05
303.15	.1	.1273	1004.022	.05
303.15	.1	.1599	1005.726	.05
308.15	.1	0	995.623	.05
308.15	.1	.04994	998.296	.05
308.15	.1	.07513	999.628	.05
308.15	.1	.09307	1000.571	.05
308.15	.1	.0983	1000.84	.05
308.15	.1	.1273	1002.347	.05
308.15	.1	.1599	1004.024	.05
313.15	.1	0	993.757	.05
313.15	.1	.04994	996.408	.05
313.15	.1	.07513	997.73	.05
313.15	.1	.09307	998.666	.05
313.15	.1	.0983	998.935	.05
313.15	.1	.1273	1000.432	.05
313.15	.1	.1599	1002.099	.05
318.15	.1	0	991.751	.05
318.15	.1	.04994	994.383	.05
318.15	.1	.07513	995.696	.05
318.15	.1	.09307	996.625	.05
318.15	.1	.0983	996.892	.05
318.15	.1	.1273	998.38	.05
318.15	.1	.1599	1000.033	.05
298.15	.2	0	1000.198	.05
298.15	.2	.05826	1003.355	.05
298.15	.2	.06851	1003.905	.05
298.15	.2	.09139	1005.127	.05
298.15	.2	.11188	1006.21	.05
298.15	.2	.15778	1008.619	.05
298.15	.2	.18848	1010.214	.05
303.15	.2	0	998.76	.05
303.15	.2	.05826	1001.894	.05
303.15	.2	.06851	1002.438	.05
303.15	.2	.09139	1003.65	.05
303.15	.2	.11188	1004.73	.05
303.15	.2	.15778	1007.124	.05
303.15	.2	.18848	1008.705	.05
308.15	.2	0	997.068	.05
308.15	.2	.05826	1000.182	.05
308.15	.2	.06851	1000.724	.05
308.15	.2	.09139	1001.931	.05
308.15	.2	.11188	1003.003	.05
308.15	.2	.15778	1005.385	.05
308.15	.2	.18848	1006.963	.05
313.15	.2	0	995.252	.05
313.15	.2	.05826	998.337	.05
313.15	.2	.06851	998.873	.05
313.15	.2	.09139	1000.067	.05
313.15	.2	.11188	1001.129	.05
313.15	.2	.15778	1003.487	.05
313.15	.2	.18848	1005.046	.05
318.15	.2	0	993.147	.05
318.15	.2	.05826	996.211	.05
318.15	.2	.06851	996.744	.05
318.15	.2	.09139	997.93	.05
318.15	.2	.11188	998.988	.05
318.15	.2	.15778	1001.334	.05
318.15	.2	.18848	1002.891	.05
298.15	.3	0	1001.761	.05
298.15	.3	.062	1005.107	.05
298.15	.3	.06761	1005.405	.05
298.15	.3	.09067	1006.632	.05
298.15	.3	.11447	1007.887	.05
298.15	.3	.12533	1008.456	.05
298.15	.3	.17485	1011.024	.05
303.15	.3	0	1000.299	.05
303.15	.3	.062	1003.623	.05
303.15	.3	.06761	1003.919	.05
303.15	.3	.09067	1005.137	.05
303.15	.3	.11447	1006.388	.05
303.15	.3	.12533	1006.953	.05
303.15	.3	.17485	1009.52	.05
308.15	.3	0	998.625	.05
308.15	.3	.062	1001.922	.05
308.15	.3	.06761	1002.217	.05
308.15	.3	.09067	1003.426	.05
308.15	.3	.11447	1004.665	.05
308.15	.3	.12533	1005.226	.05
308.15	.3	.17485	1007.769	.05
313.15	.3	0	996.753	.05
313.15	.3	.062	1000.021	.05
313.15	.3	.06761	1000.314	.05
313.15	.3	.09067	1001.513	.05
313.15	.3	.11447	1002.739	.05
313.15	.3	.12533	1003.296	.05
313.15	.3	.17485	1005.82	.05
318.15	.3	0	994.624	.05
318.15	.3	.062	997.867	.05
318.15	.3	.06761	998.156	.05
318.15	.3	.09067	999.345	.05
318.15	.3	.11447	1000.564	.05
318.15	.3	.12533	1001.116	.05
318.15	.3	.17485	1003.612	.05
298.15	.4	0	1003.326	.05
298.15	.4	.05233	1006.15	.05
298.15	.4	.07305	1007.256	.05
298.15	.4	.09663	1008.508	.05
298.15	.4	.10709	1009.061	.05
298.15	.4	.13932	1010.751	.05
298.15	.4	.14869	1011.242	.05
303.15	.4	0	1001.839	.05
303.15	.4	.05233	1004.638	.05
303.15	.4	.07305	1005.733	.05
303.15	.4	.09663	1006.973	.05
303.15	.4	.10709	1007.52	.05
303.15	.4	.13932	1009.192	.05
303.15	.4	.14869	1009.674	.05
308.15	.4	0	999.944	.05
308.15	.4	.05233	1002.722	.05
308.15	.4	.07305	1003.809	.05
308.15	.4	.09663	1005.038	.05
308.15	.4	.10709	1005.581	.05
308.15	.4	.13932	1007.242	.05
308.15	.4	.14869	1007.717	.05
313.15	.4	0	998.26	.05
313.15	.4	.05233	1001.009	.05
313.15	.4	.07305	1002.086	.05
313.15	.4	.09663	1003.3	.05
313.15	.4	.10709	1003.835	.05
313.15	.4	.13932	1005.475	.05
313.15	.4	.14869	1005.944	.05
318.15	.4	0	996.183	.05
318.15	.4	.05233	998.914	.05
318.15	.4	.07305	999.983	.05
318.15	.4	.09663	1001.191	.05
318.15	.4	.10709	1001.724	.05
318.15	.4	.13932	1003.356	.05
318.15	.4	.14869	1003.826	.05

System: D-(-)-ribose + water + 3-hydroxypropylammonium formate; phases: Liquid
Fixed: Pressure, kPa = 101
Property: Speed of sound, m/s (Liquid); method: Sing-around technique in a fixed-path interferometer
Temperature, K	Solvent: Molality, mol/kg of 3-hydroxypropylammonium formate	Molality, mol/kg of D-(-)-ribose	Speed of sound, m/s	uncertainty
298.15	0	0	1497	.5
298.15	0	.0504	1498.84	.5
298.15	0	.06883	1499.79	.5
298.15	0	.08626	1500.71	.5
298.15	0	.11073	1501.99	.5
298.15	0	.13603	1503.33	.5
298.15	0	.15661	1504.43	.5
303.15	0	0	1509.16	.5
303.15	0	.0504	1511.46	.5
303.15	0	.06883	1512.32	.5
303.15	0	.08626	1513.14	.5
303.15	0	.11073	1514.28	.5
303.15	0	.13603	1515.48	.5
303.15	0	.15661	1516.46	.5
308.15	0	0	1519.76	.5
308.15	0	.0504	1521.32	.5
308.15	0	.06883	1522.18	.5
308.15	0	.08626	1522.99	.5
308.15	0	.11073	1524.14	.5
308.15	0	.13603	1525.33	.5
308.15	0	.15661	1526.3	.5
313.15	0	0	1528.86	.5
313.15	0	.0504	1531.35	.5
313.15	0	.06883	1532.14	.5
313.15	0	.08626	1532.9	.5
313.15	0	.11073	1533.97	.5
313.15	0	.13603	1535.08	.5
313.15	0	.15661	1536	.5
318.15	0	0	1536.42	.5
318.15	0	.0504	1538.18	.5
318.15	0	.06883	1538.95	.5
318.15	0	.08626	1539.68	.5
318.15	0	.11073	1540.72	.5
318.15	0	.13603	1541.79	.5
318.15	0	.15661	1542.66	.5
298.15	.1	0	1501.73	.5
298.15	.1	.04994	1504.29	.5
298.15	.1	.07513	1505.56	.5
298.15	.1	.09307	1506.47	.5
298.15	.1	.0983	1506.74	.5
298.15	.1	.1273	1508.21	.5
298.15	.1	.1599	1509.88	.5
303.15	.1	0	1513.44	.5
303.15	.1	.04994	1515.34	.5
303.15	.1	.07513	1516.48	.5
303.15	.1	.09307	1517.28	.5
303.15	.1	.0983	1517.52	.5
303.15	.1	.1273	1518.83	.5
303.15	.1	.1599	1520.3	.5
308.15	.1	0	1523.67	.5
308.15	.1	.04994	1525.26	.5
308.15	.1	.07513	1526.39	.5
308.15	.1	.09307	1527.19	.5
308.15	.1	.0983	1527.43	.5
308.15	.1	.1273	1528.74	.5
308.15	.1	.1599	1530.22	.5
313.15	.1	0	1532.37	.5
313.15	.1	.04994	1533.59	.5
313.15	.1	.07513	1534.63	.5
313.15	.1	.09307	1535.36	.5
313.15	.1	.0983	1535.58	.5
313.15	.1	.1273	1536.78	.5
313.15	.1	.1599	1538.13	.5
318.15	.1	0	1539.65	.5
318.15	.1	.04994	1542.25	.5
318.15	.1	.07513	1543.24	.5
318.15	.1	.09307	1543.94	.5
318.15	.1	.0983	1544.15	.5
318.15	.1	.1273	1545.28	.5
318.15	.1	.1599	1546.57	.5
298.15	.2	0	1507.73	.5
298.15	.2	.05826	1510.36	.5
298.15	.2	.06851	1510.88	.5
298.15	.2	.09139	1512.04	.5
298.15	.2	.11188	1513.1	.5
298.15	.2	.15778	1515.46	.5
298.15	.2	.18848	1517.03	.5
303.15	.2	0	1519.05	.5
303.15	.2	.05826	1521.51	.5
303.15	.2	.06851	1521.97	.5
303.15	.2	.09139	1523.01	.5
303.15	.2	.11188	1523.94	.5
303.15	.2	.15778	1526.03	.5
303.15	.2	.18848	1527.44	.5
308.15	.2	0	1528.91	.5
308.15	.2	.05826	1531.62	.5
308.15	.2	.06851	1532.08	.5
308.15	.2	.09139	1533.1	.5
308.15	.2	.11188	1534.03	.5
308.15	.2	.15778	1536.11	.5
308.15	.2	.18848	1537.5	.5
313.15	.2	0	1538.2	.5
313.15	.2	.05826	1539.98	.5
313.15	.2	.06851	1540.4	.5
313.15	.2	.09139	1541.34	.5
313.15	.2	.11188	1542.19	.5
313.15	.2	.15778	1544.09	.5
313.15	.2	.18848	1545.37	.5
318.15	.2	0	1545.2	.5
318.15	.2	.05826	1546.96	.5
318.15	.2	.06851	1547.37	.5
318.15	.2	.09139	1548.27	.5
318.15	.2	.11188	1549.07	.5
318.15	.2	.15778	1550.89	.5
318.15	.2	.18848	1552.1	.5
298.15	.3	0	1513.45	.5
298.15	.3	.062	1516.29	.5
298.15	.3	.06761	1516.58	.5
298.15	.3	.09067	1517.77	.5
298.15	.3	.11447	1518.99	.5
298.15	.3	.12533	1519.55	.5
298.15	.3	.17485	1522.13	.5
303.15	.3	0	1524.39	.5
303.15	.3	.062	1527.56	.5
303.15	.3	.06761	1527.82	.5
303.15	.3	.09067	1528.87	.5
303.15	.3	.11447	1529.94	.5
303.15	.3	.12533	1530.44	.5
303.15	.3	.17485	1532.7	.5
308.15	.3	0	1533.89	.5
308.15	.3	.062	1535.96	.5
308.15	.3	.06761	1536.21	.5
308.15	.3	.09067	1537.24	.5
308.15	.3	.11447	1538.32	.5
308.15	.3	.12533	1538.8	.5
308.15	.3	.17485	1541.03	.5
313.15	.3	0	1541.96	.5
313.15	.3	.062	1544.4	.5
313.15	.3	.06761	1544.62	.5
313.15	.3	.09067	1545.56	.5
313.15	.3	.11447	1546.53	.5
313.15	.3	.12533	1546.98	.5
313.15	.3	.17485	1549	.5
318.15	.3	0	1548.64	.5
318.15	.3	.062	1551.44	.5
318.15	.3	.06761	1551.66	.5
318.15	.3	.09067	1552.56	.5
318.15	.3	.11447	1553.48	.5
318.15	.3	.12533	1553.9	.5
318.15	.3	.17485	1555.83	.5
298.15	.4	0	1519.67	.5
298.15	.4	.05233	1521.22	.5
298.15	.4	.07305	1523.2	.5
298.15	.4	.09663	1524.51	.5
298.15	.4	.10709	1524.9	.5
298.15	.4	.13932	1528.12	.5
298.15	.4	.14869	1530.89	.5
303.15	.4	0	1530.32	.5
303.15	.4	.05233	1536.75	.5
303.15	.4	.07305	1537.3	.5
303.15	.4	.09663	1538.8	.5
303.15	.4	.10709	1539.68	.5
303.15	.4	.13932	1541.36	.5
303.15	.4	.14869	1539.89	.5
308.15	.4	0	1539.57	.5
308.15	.4	.05233	1545.22	.5
308.15	.4	.07305	1545.75	.5
308.15	.4	.09663	1547.24	.5
308.15	.4	.10709	1548.13	.5
308.15	.4	.13932	1549.79	.5
308.15	.4	.14869	1548.35	.5
313.15	.4	0	1547.38	.5
313.15	.4	.05233	1553.83	.5
313.15	.4	.07305	1554.28	.5
313.15	.4	.09663	1555.67	.5
313.15	.4	.10709	1556.51	.5
313.15	.4	.13932	1558.04	.5
313.15	.4	.14869	1556.55	.5
318.15	.4	0	1553.79	.5
318.15	.4	.05233	1559.02	.5
318.15	.4	.07305	1559.44	.5
318.15	.4	.09663	1560.78	.5
318.15	.4	.10709	1561.59	.5
318.15	.4	.13932	1563.06	.5
318.15	.4	.14869	1561.56	.5

System: D(+)-glucose + water + 3-hydroxypropylammonium formate; phases: Liquid
Fixed: Pressure, kPa = 101
Property: Mass density, kg/m3 (Liquid); method: Vibrating tube method
Temperature, K	Solvent: Molality, mol/kg of 3-hydroxypropylammonium formate	Molality, mol/kg of D(+)-glucose	Mass density, kg/m3	uncertainty
298.15	0	.04842	1000.334	.05
298.15	0	.06669	1001.56	.05
298.15	0	.0976	1003.617	.05
298.15	0	.10665	1004.216	.05
298.15	0	.1235	1005.321	.05
298.15	0	.14621	1006.805	.05
303.15	0	.04842	998.923	.05
303.15	0	.06669	1000.14	.05
303.15	0	.0976	1002.181	.05
303.15	0	.10665	1002.774	.05
303.15	0	.1235	1003.869	.05
303.15	0	.14621	1005.339	.05
308.15	0	.04842	997.289	.05
308.15	0	.06669	998.498	.05
308.15	0	.0976	1000.527	.05
308.15	0	.10665	1001.118	.05
308.15	0	.1235	1002.211	.05
308.15	0	.14621	1003.674	.05
313.15	0	.04842	995.463	.05
313.15	0	.06669	996.672	.05
313.15	0	.0976	998.7	.05
313.15	0	.10665	999.285	.05
313.15	0	.1235	1000.38	.05
313.15	0	.14621	1001.839	.05
318.15	0	.04842	993.441	.05
318.15	0	.06669	994.638	.05
318.15	0	.0976	996.647	.05
318.15	0	.10665	997.23	.05
318.15	0	.1235	998.311	.05
318.15	0	.14621	999.761	.05
298.15	.1	.03699	1001.141	.05
298.15	.1	.06832	1003.239	.05
298.15	.1	.07961	1003.988	.05
298.15	.1	.10623	1005.745	.05
298.15	.1	.12636	1007.062	.05
298.15	.1	.15824	1009.13	.05
303.15	.1	.03699	999.708	.05
303.15	.1	.06832	1001.791	.05
303.15	.1	.07961	1002.533	.05
303.15	.1	.10623	1004.28	.05
303.15	.1	.12636	1005.59	.05
303.15	.1	.15824	1007.647	.05
308.15	.1	.03699	998.089	.05
308.15	.1	.06832	1000.155	.05
308.15	.1	.07961	1000.893	.05
308.15	.1	.10623	1002.623	.05
308.15	.1	.12636	1003.923	.05
308.15	.1	.15824	1005.963	.05
313.15	.1	.03699	996.218	.05
313.15	.1	.06832	998.281	.05
313.15	.1	.07961	999.017	.05
313.15	.1	.10623	1000.749	.05
313.15	.1	.12636	1002.047	.05
313.15	.1	.15824	1004.097	.05
318.15	.1	.03699	994.199	.05
318.15	.1	.06832	996.251	.05
318.15	.1	.07961	996.985	.05
318.15	.1	.10623	998.711	.05
318.15	.1	.12636	1000.004	.05
318.15	.1	.15824	1002.035	.05
298.15	.2	.04036	1002.923	.05
298.15	.2	.0573	1004.058	.05
298.15	.2	.07497	1005.234	.05
298.15	.2	.10773	1007.396	.05
298.15	.2	.128	1008.727	.05
298.15	.2	.14669	1009.943	.05
303.15	.2	.04036	1001.467	.05
303.15	.2	.0573	1002.591	.05
303.15	.2	.07497	1003.758	.05
303.15	.2	.10773	1005.908	.05
303.15	.2	.128	1007.225	.05
303.15	.2	.14669	1008.429	.05
308.15	.2	.04036	999.756	.05
308.15	.2	.0573	1000.876	.05
308.15	.2	.07497	1002.037	.05
308.15	.2	.10773	1004.179	.05
308.15	.2	.128	1005.493	.05
308.15	.2	.14669	1006.696	.05
313.15	.2	.04036	997.928	.05
313.15	.2	.0573	999.04	.05
313.15	.2	.07497	1000.194	.05
313.15	.2	.10773	1002.318	.05
313.15	.2	.128	1003.615	.05
313.15	.2	.14669	1004.801	.05
318.15	.2	.04036	995.811	.05
318.15	.2	.0573	996.918	.05
318.15	.2	.07497	998.067	.05
318.15	.2	.10773	1000.184	.05
318.15	.2	.128	1001.479	.05
318.15	.2	.14669	1002.664	.05
298.15	.3	.05301	1005.322	.05
298.15	.3	.0758	1006.834	.05
298.15	.3	.0775	1006.945	.05
298.15	.3	.10061	1008.467	.05
298.15	.3	.10777	1008.935	.05
298.15	.3	.16493	1012.638	.05
303.15	.3	.05301	1003.835	.05
303.15	.3	.0758	1005.336	.05
303.15	.3	.0775	1005.446	.05
303.15	.3	.10061	1006.959	.05
303.15	.3	.10777	1007.424	.05
303.15	.3	.16493	1011.106	.05
308.15	.3	.05301	1002.135	.05
308.15	.3	.0758	1003.628	.05
308.15	.3	.0775	1003.737	.05
308.15	.3	.10061	1005.236	.05
308.15	.3	.10777	1005.697	.05
308.15	.3	.16493	1009.357	.05
313.15	.3	.05301	1000.246	.05
313.15	.3	.0758	1001.729	.05
313.15	.3	.0775	1001.837	.05
313.15	.3	.10061	1003.331	.05
313.15	.3	.10777	1003.788	.05
313.15	.3	.16493	1007.413	.05
318.15	.3	.05301	998.093	.05
318.15	.3	.0758	999.567	.05
318.15	.3	.0775	999.675	.05
318.15	.3	.10061	1001.155	.05
318.15	.3	.10777	1001.608	.05
318.15	.3	.16493	1005.208	.05
298.15	.4	.03624	1005.742	.05
298.15	.4	.06735	1007.797	.05
298.15	.4	.08784	1009.139	.05
298.15	.4	.09378	1009.524	.05
298.15	.4	.14377	1012.759	.05
298.15	.4	.18657	1015.499	.05
303.15	.4	.03624	1004.235	.05
303.15	.4	.06735	1006.272	.05
303.15	.4	.08784	1007.603	.05
303.15	.4	.09378	1007.985	.05
303.15	.4	.14377	1011.196	.05
303.15	.4	.18657	1013.91	.05
308.15	.4	.03624	1002.323	.05
308.15	.4	.06735	1004.345	.05
308.15	.4	.08784	1005.668	.05
308.15	.4	.09378	1006.049	.05
308.15	.4	.14377	1009.239	.05
308.15	.4	.18657	1011.937	.05
313.15	.4	.03624	1000.63	.05
313.15	.4	.06735	1002.642	.05
313.15	.4	.08784	1003.957	.05
313.15	.4	.09378	1004.335	.05
313.15	.4	.14377	1007.507	.05
313.15	.4	.18657	1010.183	.05
318.15	.4	.03624	998.541	.05
318.15	.4	.06735	1000.544	.05
318.15	.4	.08784	1001.852	.05
318.15	.4	.09378	1002.229	.05
318.15	.4	.14377	1005.388	.05
318.15	.4	.18657	1008.054	.05
298.15	0	0	997.049	.05
303.15	0	0	995.66	.05
308.15	0	0	994.045	.05
313.15	0	0	992.228	.05
318.15	0	0	990.223	.05
298.15	.1	0	998.637	.05
303.15	.1	0	997.222	.05
308.15	.1	0	995.623	.05
313.15	.1	0	993.757	.05
318.15	.1	0	991.751	.05
298.15	.2	0	1000.198	.05
303.15	.2	0	998.76	.05
308.15	.2	0	997.068	.05
313.15	.2	0	995.252	.05
318.15	.2	0	993.147	.05
298.15	.3	0	1001.761	.05
303.15	.3	0	1000.299	.05
308.15	.3	0	998.625	.05
313.15	.3	0	996.753	.05
318.15	.3	0	994.624	.05
298.15	.4	0	1003.326	.05
303.15	.4	0	1001.839	.05
308.15	.4	0	999.944	.05
313.15	.4	0	998.26	.05
318.15	.4	0	996.183	.05

System: D(+)-glucose + water + 3-hydroxypropylammonium formate; phases: Liquid
Fixed: Pressure, kPa = 101
Property: Speed of sound, m/s (Liquid); method: Sing-around technique in a fixed-path interferometer
Temperature, K	Solvent: Molality, mol/kg of 3-hydroxypropylammonium formate	Molality, mol/kg of D(+)-glucose	Speed of sound, m/s	uncertainty
298.15	0	.04842	1499.26	.5
298.15	0	.06669	1500.4	.5
298.15	0	.0976	1502.34	.5
298.15	0	.10665	1502.91	.5
298.15	0	.1235	1503.98	.5
298.15	0	.14621	1505.42	.5
303.15	0	.04842	1512.07	.5
303.15	0	.06669	1513.18	.5
303.15	0	.0976	1515.09	.5
303.15	0	.10665	1515.64	.5
303.15	0	.1235	1516.69	.5
303.15	0	.14621	1518.1	.5
308.15	0	.04842	1521.94	.5
308.15	0	.06669	1523.06	.5
308.15	0	.0976	1524.97	.5
308.15	0	.10665	1525.52	.5
308.15	0	.1235	1526.56	.5
308.15	0	.14621	1527.99	.5
313.15	0	.04842	1531.85	.5
313.15	0	.06669	1532.87	.5
313.15	0	.0976	1534.6	.5
313.15	0	.10665	1535.12	.5
313.15	0	.1235	1536.06	.5
313.15	0	.14621	1537.35	.5
318.15	0	.04842	1538.69	.5
318.15	0	.06669	1539.69	.5
318.15	0	.0976	1541.38	.5
318.15	0	.10665	1541.88	.5
318.15	0	.1235	1542.81	.5
318.15	0	.14621	1544.08	.5
298.15	.1	.03699	1504.05	.5
298.15	.1	.06832	1505.99	.5
298.15	.1	.07961	1506.69	.5
298.15	.1	.10623	1508.35	.5
298.15	.1	.12636	1509.62	.5
298.15	.1	.15824	1511.64	.5
303.15	.1	.03699	1515.29	.5
303.15	.1	.06832	1517.15	.5
303.15	.1	.07961	1517.83	.5
303.15	.1	.10623	1519.43	.5
303.15	.1	.12636	1520.65	.5
303.15	.1	.15824	1522.58	.5
308.15	.1	.03699	1525.22	.5
308.15	.1	.06832	1527.08	.5
308.15	.1	.07961	1527.76	.5
308.15	.1	.10623	1529.35	.5
308.15	.1	.12636	1530.57	.5
308.15	.1	.15824	1532.49	.5
313.15	.1	.03699	1533.51	.5
313.15	.1	.06832	1535.17	.5
313.15	.1	.07961	1535.77	.5
313.15	.1	.10623	1537.19	.5
313.15	.1	.12636	1538.28	.5
313.15	.1	.15824	1539.99	.5
318.15	.1	.03699	1542.18	.5
318.15	.1	.06832	1543.78	.5
318.15	.1	.07961	1544.36	.5
318.15	.1	.10623	1545.73	.5
318.15	.1	.12636	1546.77	.5
318.15	.1	.15824	1548.42	.5
298.15	.2	.04036	1509.9	.5
298.15	.2	.0573	1510.95	.5
298.15	.2	.07497	1512.05	.5
298.15	.2	.10773	1514.11	.5
298.15	.2	.128	1515.38	.5
298.15	.2	.14669	1516.56	.5
303.15	.2	.04036	1521.28	.5
303.15	.2	.0573	1522.29	.5
303.15	.2	.07497	1523.34	.5
303.15	.2	.10773	1525.31	.5
303.15	.2	.128	1526.52	.5
303.15	.2	.14669	1527.65	.5
308.15	.2	.04036	1531.38	.5
308.15	.2	.0573	1532.37	.5
308.15	.2	.07497	1533.41	.5
308.15	.2	.10773	1535.35	.5
308.15	.2	.128	1536.54	.5
308.15	.2	.14669	1537.65	.5
313.15	.2	.04036	1539.69	.5
313.15	.2	.0573	1540.58	.5
313.15	.2	.07497	1541.51	.5
313.15	.2	.10773	1543.23	.5
313.15	.2	.128	1544.32	.5
313.15	.2	.14669	1545.32	.5
318.15	.2	.04036	1546.7	.5
318.15	.2	.0573	1547.56	.5
318.15	.2	.07497	1548.45	.5
318.15	.2	.10773	1550.11	.5
318.15	.2	.128	1551.15	.5
318.15	.2	.14669	1552.11	.5
298.15	.3	.05301	1516.43	.5
298.15	.3	.0758	1517.86	.5
298.15	.3	.0775	1517.97	.5
298.15	.3	.10061	1519.42	.5
298.15	.3	.10777	1519.87	.5
298.15	.3	.16493	1523.49	.5
303.15	.3	.05301	1527.93	.5
303.15	.3	.0758	1529.3	.5
303.15	.3	.0775	1529.4	.5
303.15	.3	.10061	1530.78	.5
303.15	.3	.10777	1531.21	.5
303.15	.3	.16493	1534.67	.5
308.15	.3	.05301	1536.28	.5
308.15	.3	.0758	1537.62	.5
308.15	.3	.0775	1537.72	.5
308.15	.3	.10061	1539.07	.5
308.15	.3	.10777	1539.49	.5
308.15	.3	.16493	1542.84	.5
313.15	.3	.05301	1544.62	.5
313.15	.3	.0758	1545.81	.5
313.15	.3	.0775	1545.9	.5
313.15	.3	.10061	1547.11	.5
313.15	.3	.10777	1547.49	.5
313.15	.3	.16493	1550.51	.5
318.15	.3	.05301	1551.69	.5
318.15	.3	.0758	1552.84	.5
318.15	.3	.0775	1552.93	.5
318.15	.3	.10061	1554.09	.5
318.15	.3	.10777	1554.46	.5
318.15	.3	.16493	1557.36	.5
298.15	.4	.03624	1521.23	.5
298.15	.4	.06735	1523.22	.5
298.15	.4	.08784	1524.53	.5
298.15	.4	.09378	1524.91	.5
298.15	.4	.14377	1528.15	.5
298.15	.4	.18657	1530.92	.5
303.15	.4	.03624	1532.9	.5
303.15	.4	.06735	1534.78	.5
303.15	.4	.08784	1536.02	.5
303.15	.4	.09378	1536.38	.5
303.15	.4	.14377	1539.42	.5
303.15	.4	.18657	1542.04	.5
308.15	.4	.03624	1541.56	.5
308.15	.4	.06735	1543.4	.5
308.15	.4	.08784	1544.62	.5
308.15	.4	.09378	1544.97	.5
308.15	.4	.14377	1547.96	.5
308.15	.4	.18657	1550.53	.5
313.15	.4	.03624	1549.95	.5
313.15	.4	.06735	1551.57	.5
313.15	.4	.08784	1552.64	.5
313.15	.4	.09378	1552.95	.5
313.15	.4	.14377	1555.58	.5
313.15	.4	.18657	1557.85	.5
318.15	.4	.03624	1555.19	.5
318.15	.4	.06735	1556.74	.5
318.15	.4	.08784	1557.76	.5
318.15	.4	.09378	1558.06	.5
318.15	.4	.14377	1560.56	.5
318.15	.4	.18657	1562.72	.5
298.15	0	0	1497	.5
303.15	0	0	1509.16	.5
308.15	0	0	1519.76	.5
313.15	0	0	1528.86	.5
318.15	0	0	1536.42	.5
298.15	.1	0	1501.73	.5
303.15	.1	0	1513.44	.5
308.15	.1	0	1523.67	.5
313.15	.1	0	1532.37	.5
318.15	.1	0	1539.65	.5
298.15	.2	0	1507.73	.5
303.15	.2	0	1519.05	.5
308.15	.2	0	1528.91	.5
313.15	.2	0	1538.2	.5
318.15	.2	0	1545.2	.5
298.15	.3	0	1513.45	.5
303.15	.3	0	1524.39	.5
308.15	.3	0	1533.89	.5
313.15	.3	0	1541.96	.5
318.15	.3	0	1548.64	.5
298.15	.4	0	1519.67	.5
303.15	.4	0	1530.32	.5
308.15	.4	0	1539.57	.5
313.15	.4	0	1547.38	.5
318.15	.4	0	1553.79	.5

System: D-(-)-ribose + water; phases: Liquid
Property: Mass density, kg/m3 (Liquid); method: Vibrating tube method
Temperature, K	Molality, mol/kg of D-(-)-ribose	Pressure, kPa	Mass density, kg/m3	uncertainty
298.15	.0504	101	999.789	.05
298.15	.06883	101	1000.778	.05
298.15	.08626	101	1001.704	.05
298.15	.11073	101	1003.001	.05
298.15	.13603	101	1004.325	.05
298.15	.15661	101	1005.39	.05
303.15	.0504	101	998.382	.05
303.15	.06883	101	999.363	.05
303.15	.08626	101	1000.287	.05
303.15	.11073	101	1001.577	.05
303.15	.13603	101	1002.894	.05
303.15	.15661	101	1003.955	.05
308.15	.0504	101	996.751	.05
308.15	.06883	101	997.73	.05
308.15	.08626	101	998.651	.05
308.15	.11073	101	999.932	.05
308.15	.13603	101	1001.247	.05
308.15	.15661	101	1002.311	.05
313.15	.0504	101	994.911	.05
313.15	.06883	101	995.882	.05
313.15	.08626	101	996.793	.05
313.15	.11073	101	998.065	.05
313.15	.13603	101	999.37	.05
313.15	.15661	101	1000.414	.05
318.15	.0504	101	992.887	.05
318.15	.06883	101	993.852	.05
318.15	.08626	101	994.758	.05
318.15	.11073	101	996.017	.05
318.15	.13603	101	997.311	.05
318.15	.15661	101	998.355	.05

System: D-(-)-ribose + water; phases: Liquid
Property: Speed of sound, m/s (Liquid); method: Sing-around technique in a fixed-path interferometer
Temperature, K	Molality, mol/kg of D-(-)-ribose	Pressure, kPa	Speed of sound, m/s	uncertainty
298.15	.0504	101	1498.84	.5
298.15	.06883	101	1499.79	.5
298.15	.08626	101	1500.71	.5
298.15	.11073	101	1501.99	.5
298.15	.13603	101	1503.33	.5
298.15	.15661	101	1504.43	.5
303.15	.0504	101	1511.46	.5
303.15	.06883	101	1512.32	.5
303.15	.08626	101	1513.14	.5
303.15	.11073	101	1514.28	.5
303.15	.13603	101	1515.48	.5
303.15	.15661	101	1516.46	.5
308.15	.0504	101	1521.32	.5
308.15	.06883	101	1522.18	.5
308.15	.08626	101	1522.99	.5
308.15	.11073	101	1524.14	.5
308.15	.13603	101	1525.33	.5
308.15	.15661	101	1526.3	.5
313.15	.0504	101	1531.35	.5
313.15	.06883	101	1532.14	.5
313.15	.08626	101	1532.9	.5
313.15	.11073	101	1533.97	.5
313.15	.13603	101	1535.08	.5
313.15	.15661	101	1536	.5
318.15	.0504	101	1538.18	.5
318.15	.06883	101	1538.95	.5
318.15	.08626	101	1539.68	.5
318.15	.11073	101	1540.72	.5
318.15	.13603	101	1541.79	.5
318.15	.15661	101	1542.66	.5

System: water + 3-hydroxypropylammonium formate; phases: Liquid
Property: Mass density, kg/m3 (Liquid); method: Vibrating tube method
Temperature, K	Molality, mol/kg of 3-hydroxypropylammonium formate	Pressure, kPa	Mass density, kg/m3	uncertainty
298.15	.1	101	998.637	.05
303.15	.1	101	997.222	.05
308.15	.1	101	995.623	.05
313.15	.1	101	993.757	.05
318.15	.1	101	991.751	.05
298.15	.2	101	1000.198	.05
303.15	.2	101	998.76	.05
308.15	.2	101	997.068	.05
313.15	.2	101	995.252	.05
318.15	.2	101	993.147	.05
298.15	.3	101	1001.761	.05
303.15	.3	101	1000.299	.05
308.15	.3	101	998.625	.05
313.15	.3	101	996.753	.05
318.15	.3	101	994.624	.05
298.15	.4	101	1003.326	.05
303.15	.4	101	1001.839	.05
308.15	.4	101	999.944	.05
313.15	.4	101	998.26	.05
318.15	.4	101	996.183	.05

System: water + 3-hydroxypropylammonium formate; phases: Liquid
Property: Speed of sound, m/s (Liquid); method: Sing-around technique in a fixed-path interferometer
Temperature, K	Molality, mol/kg of 3-hydroxypropylammonium formate	Pressure, kPa	Speed of sound, m/s	uncertainty
298.15	.1	101	1501.73	.5
303.15	.1	101	1513.44	.5
308.15	.1	101	1523.67	.5
313.15	.1	101	1532.37	.5
318.15	.1	101	1539.65	.5
298.15	.2	101	1507.73	.5
303.15	.2	101	1519.05	.5
308.15	.2	101	1528.91	.5
313.15	.2	101	1538.2	.5
318.15	.2	101	1545.2	.5
298.15	.3	101	1513.45	.5
303.15	.3	101	1524.39	.5
308.15	.3	101	1533.89	.5
313.15	.3	101	1541.96	.5
318.15	.3	101	1548.64	.5
298.15	.4	101	1519.67	.5
303.15	.4	101	1530.32	.5
308.15	.4	101	1539.57	.5
313.15	.4	101	1547.38	.5
318.15	.4	101	1553.79	.5

System: D(+)-glucose + water; phases: Liquid
Property: Mass density, kg/m3 (Liquid); method: Vibrating tube method
Temperature, K	Molality, mol/kg of D(+)-glucose	Pressure, kPa	Mass density, kg/m3	uncertainty
298.15	.04842	101	1000.334	.05
298.15	.06669	101	1001.56	.05
298.15	.0976	101	1003.617	.05
298.15	.10665	101	1004.216	.05
298.15	.1235	101	1005.321	.05
298.15	.14621	101	1006.805	.05
303.15	.04842	101	998.923	.05
303.15	.06669	101	1000.14	.05
303.15	.0976	101	1002.181	.05
303.15	.10665	101	1002.774	.05
303.15	.1235	101	1003.869	.05
303.15	.14621	101	1005.339	.05
308.15	.04842	101	997.289	.05
308.15	.06669	101	998.498	.05
308.15	.0976	101	1000.527	.05
308.15	.10665	101	1001.118	.05
308.15	.1235	101	1002.211	.05
308.15	.14621	101	1003.674	.05
313.15	.04842	101	995.463	.05
313.15	.06669	101	996.672	.05
313.15	.0976	101	998.7	.05
313.15	.10665	101	999.285	.05
313.15	.1235	101	1000.38	.05
313.15	.14621	101	1001.839	.05
318.15	.04842	101	993.441	.05
318.15	.06669	101	994.638	.05
318.15	.0976	101	996.647	.05
318.15	.10665	101	997.23	.05
318.15	.1235	101	998.311	.05
318.15	.14621	101	999.761	.05

System: D(+)-glucose + water; phases: Liquid
Property: Speed of sound, m/s (Liquid); method: Sing-around technique in a fixed-path interferometer
Temperature, K	Molality, mol/kg of D(+)-glucose	Pressure, kPa	Speed of sound, m/s	uncertainty
298.15	.04842	101	1499.26	.5
298.15	.06669	101	1500.4	.5
298.15	.0976	101	1502.34	.5
298.15	.10665	101	1502.91	.5
298.15	.1235	101	1503.98	.5
298.15	.14621	101	1505.42	.5
303.15	.04842	101	1512.07	.5
303.15	.06669	101	1513.18	.5
303.15	.0976	101	1515.09	.5
303.15	.10665	101	1515.64	.5
303.15	.1235	101	1516.69	.5
303.15	.14621	101	1518.1	.5
308.15	.04842	101	1521.94	.5
308.15	.06669	101	1523.06	.5
308.15	.0976	101	1524.97	.5
308.15	.10665	101	1525.52	.5
308.15	.1235	101	1526.56	.5
308.15	.14621	101	1527.99	.5
313.15	.04842	101	1531.85	.5
313.15	.06669	101	1532.87	.5
313.15	.0976	101	1534.6	.5
313.15	.10665	101	1535.12	.5
313.15	.1235	101	1536.06	.5
313.15	.14621	101	1537.35	.5
318.15	.04842	101	1538.69	.5
318.15	.06669	101	1539.69	.5
318.15	.0976	101	1541.38	.5
318.15	.10665	101	1541.88	.5
318.15	.1235	101	1542.81	.5
318.15	.14621	101	1544.08	.5
