Measured thermophysical data. Properties of pure 1,1,3,3-tetramethylguanidine imidazole ionic liquid and its binary mixtures with alcohols at T = (293.15 to 313.15) K
Source: J. Chem. Thermodyn., 2015, 10.1016/j.jct.2015.04.027
Compound 1: methanol, CH4O, purity 99.5%
Compound 2: ethanol, C2H6O, purity 99.5%
Compound 3: 1-propanol, C3H8O, purity 99.5%
Compound 4: 1-butanol, C4H10O, purity 99.5%
Compound 5: 1,1,3,3-tetramethylguanidinium imidazol-1-ide, C8H17N5, purity 99%

System: methanol; phases: Liquid
Property: Mass density, kg/m3 (Liquid); method: Vibrating tube method
Temperature, K	Pressure, kPa	Mass density, kg/m3	uncertainty
293.15	100	791.35	.05
298.15	100	786.67	.05
303.15	100	781.94	.05
308.15	100	777.2	.05
313.15	100	772.42	.05

System: methanol; phases: Liquid
Property: Viscosity, Pa*s (Liquid); method: Falling or rolling sphere viscometry
Temperature, K	Pressure, kPa	Viscosity, Pa*s	uncertainty
293.15	100	.000597	.00000597
298.15	100	.000559	.00000559
303.15	100	.000518	.00000518
308.15	100	.000493	.00000493
313.15	100	.000466	.00000466

System: ethanol; phases: Liquid
Property: Mass density, kg/m3 (Liquid); method: Vibrating tube method
Temperature, K	Pressure, kPa	Mass density, kg/m3	uncertainty
293.15	100	789.51	.05
298.15	100	785.4	.05
303.15	100	780.83	.05
308.15	100	776.48	.05
313.15	100	772.15	.05

System: ethanol; phases: Liquid
Property: Viscosity, Pa*s (Liquid); method: Falling or rolling sphere viscometry
Temperature, K	Pressure, kPa	Viscosity, Pa*s	uncertainty
293.15	100	.001186	.00001186
298.15	100	.001083	.00001083
303.15	100	.000987	.00000987
308.15	100	.000903	.00000903
313.15	100	.000829	.00000829

System: 1-propanol; phases: Liquid
Property: Mass density, kg/m3 (Liquid); method: Vibrating tube method
Temperature, K	Pressure, kPa	Mass density, kg/m3	uncertainty
293.15	100	803.75	.05
298.15	100	799.71	.05
303.15	100	795.65	.05
308.15	100	791.56	.05
313.15	100	787.42	.05

System: 1-propanol; phases: Liquid
Property: Viscosity, Pa*s (Liquid); method: Falling or rolling sphere viscometry
Temperature, K	Pressure, kPa	Viscosity, Pa*s	uncertainty
293.15	100	.002217	.00002217
298.15	100	.001955	.00001955
303.15	100	.001736	.00001736
308.15	100	.00155	.0000155
313.15	100	.001389	.00001389

System: 1-butanol; phases: Liquid
Property: Mass density, kg/m3 (Liquid); method: Vibrating tube method
Temperature, K	Pressure, kPa	Mass density, kg/m3	uncertainty
293.15	100	809.72	.05
298.15	100	805.92	.05
303.15	100	802.08	.05
308.15	100	798.21	.05
313.15	100	794.3	.05

System: 1-butanol; phases: Liquid
Property: Viscosity, Pa*s (Liquid); method: Falling or rolling sphere viscometry
Temperature, K	Pressure, kPa	Viscosity, Pa*s	uncertainty
293.15	100	.002918	.00002918
298.15	100	.002566	.00002566
303.15	100	.002272	.00002272
308.15	100	.002024	.00002024
313.15	100	.00181	.0000181

System: 1,1,3,3-tetramethylguanidinium imidazol-1-ide; phases: Liquid
Property: Mass density, kg/m3 (Liquid); method: Vibrating tube method
Temperature, K	Pressure, kPa	Mass density, kg/m3	uncertainty
293.15	100	997.25	.05
298.15	100	992.8	.05
303.15	100	988.35	.05
308.15	100	983.9	.05
313.15	100	979.46	.05

System: 1,1,3,3-tetramethylguanidinium imidazol-1-ide; phases: Liquid
Property: Viscosity, Pa*s (Liquid); method: Falling or rolling sphere viscometry
Temperature, K	Pressure, kPa	Viscosity, Pa*s	uncertainty
293.15	100	.008952	.00008952
298.15	100	.007287	.00007287
303.15	100	.006044	.00006044
308.15	100	.005097	.00005097
313.15	100	.004358	.00004358

System: methanol + 1,1,3,3-tetramethylguanidinium imidazol-1-ide; phases: Liquid
Fixed: Pressure, kPa = 100
Property: Mass density, kg/m3 (Liquid); method: Vibrating tube method
Temperature, K	Mole fraction of 1,1,3,3-tetramethylguanidinium imidazol-1-ide	Mass density, kg/m3	uncertainty
293.15	0	791.35	.05
293.15	.0501	840.28	.05
293.15	.1005	872.86	.05
293.15	.1957	912.69	.05
293.15	.2953	938.06	.05
293.15	.393	954.84	.05
293.15	.5005	968.24	.05
293.15	.6431	980.21	.05
293.15	.7815	988.47	.05
293.15	.8994	993.77	.05
293.15	1	997.25	.05
298.15	0	786.67	.05
298.15	.0501	835.36	.05
298.15	.1005	868.04	.05
298.15	.1957	907.98	.05
298.15	.2953	933.41	.05
298.15	.393	950.24	.05
298.15	.5005	963.68	.05
298.15	.6431	975.69	.05
298.15	.7815	983.99	.05
298.15	.8994	989.31	.05
298.15	1	992.8	.05
303.15	0	781.94	.05
303.15	.0501	830.44	.05
303.15	.1005	863.19	.05
303.15	.1957	903.25	.05
303.15	.2953	928.74	.05
303.15	.393	945.62	.05
303.15	.5005	959.1	.05
303.15	.6431	971.16	.05
303.15	.7815	979.49	.05
303.15	.8994	984.84	.05
303.15	1	988.35	.05
308.15	0	777.2	.05
308.15	.0501	825.51	.05
308.15	.1005	858.35	.05
308.15	.1957	898.51	.05
308.15	.2953	924.08	.05
308.15	.393	941	.05
308.15	.5005	954.53	.05
308.15	.6431	966.63	.05
308.15	.7815	975	.05
308.15	.8994	980.37	.05
308.15	1	983.9	.05
313.15	0	772.42	.05
313.15	.0501	820.57	.05
313.15	.1005	853.49	.05
313.15	.1957	893.76	.05
313.15	.2953	919.38	.05
313.15	.393	936.36	.05
313.15	.5005	949.94	.05
313.15	.6431	962.09	.05
313.15	.7815	970.51	.05
313.15	.8994	975.91	.05
313.15	1	979.46	.05

System: methanol + 1,1,3,3-tetramethylguanidinium imidazol-1-ide; phases: Liquid
Fixed: Pressure, kPa = 100
Property: Viscosity, Pa*s (Liquid); method: Falling or rolling sphere viscometry
Temperature, K	Mole fraction of 1,1,3,3-tetramethylguanidinium imidazol-1-ide	Viscosity, Pa*s	uncertainty
293.15	0	.000597	.00000597
293.15	.0501	.000905	.00000905
293.15	.1005	.001272	.00001272
293.15	.1957	.001979	.00001979
293.15	.2953	.002761	.00002761
293.15	.393	.003723	.00003723
293.15	.5005	.004794	.00004794
293.15	.6431	.00621	.0000621
293.15	.7815	.007421	.00007421
293.15	.8994	.008342	.00008342
293.15	1	.008952	.00008952
298.15	0	.000559	.00000559
298.15	.0501	.000829	.00000829
298.15	.1005	.001108	.00001108
298.15	.1957	.001768	.00001768
298.15	.2953	.002423	.00002423
298.15	.393	.003212	.00003212
298.15	.5005	.004098	.00004098
298.15	.6431	.005186	.00005186
298.15	.7815	.006122	.00006122
298.15	.8994	.006826	.00006826
298.15	1	.007287	.00007287
303.15	0	.000518	.00000518
303.15	.0501	.000765	.00000765
303.15	.1005	.001014	.00001014
303.15	.1957	.001592	.00001592
303.15	.2953	.002148	.00002148
303.15	.393	.002804	.00002804
303.15	.5005	.00353	.0000353
303.15	.6431	.004369	.00004369
303.15	.7815	.005141	.00005141
303.15	.8994	.005692	.00005692
303.15	1	.006044	.00006044
308.15	0	.000493	.00000493
308.15	.0501	.000709	.00000709
308.15	.1005	.000931	.00000931
308.15	.1957	.001442	.00001442
308.15	.2953	.001918	.00001918
308.15	.393	.002468	.00002468
308.15	.5005	.003077	.00003077
308.15	.6431	.003783	.00003783
308.15	.7815	.00438	.0000438
308.15	.8994	.004819	.00004819
308.15	1	.005097	.00005097
313.15	0	.000466	.00000466
313.15	.0501	.000659	.00000659
313.15	.1005	.000859	.00000859
313.15	.1957	.001314	.00001314
313.15	.2953	.001724	.00001724
313.15	.393	.002192	.00002192
313.15	.5005	.002702	.00002702
313.15	.6431	.003274	.00003274
313.15	.7815	.003777	.00003777
313.15	.8994	.004134	.00004134
313.15	1	.004358	.00004358

System: ethanol + 1,1,3,3-tetramethylguanidinium imidazol-1-ide; phases: Liquid
Fixed: Pressure, kPa = 100
Property: Mass density, kg/m3 (Liquid); method: Vibrating tube method
Temperature, K	Mole fraction of 1,1,3,3-tetramethylguanidinium imidazol-1-ide	Mass density, kg/m3	uncertainty
293.15	0	789.51	.05
293.15	.0483	821.2	.05
293.15	.0999	848.92	.05
293.15	.2003	888.15	.05
293.15	.3001	916.24	.05
293.15	.3999	937.23	.05
293.15	.5	953.33	.05
293.15	.643	970.7	.05
293.15	.7966	984.34	.05
293.15	.8987	991.38	.05
298.15	0	785.4	.05
298.15	.0483	816.85	.05
298.15	.0999	844.52	.05
298.15	.2003	883.71	.05
298.15	.3001	911.78	.05
298.15	.3999	932.77	.05
298.15	.5	948.83	.05
298.15	.643	966.31	.05
298.15	.7966	979.99	.05
298.15	.8987	986.93	.05
303.15	0	780.83	.05
303.15	.0483	812.47	.05
303.15	.0999	840.1	.05
303.15	.2003	879.24	.05
303.15	.3001	907.3	.05
303.15	.3999	928.29	.05
303.15	.5	944.31	.05
303.15	.643	961.81	.05
303.15	.7966	975.53	.05
303.15	.8987	982.47	.05
308.15	0	776.48	.05
308.15	.0483	808.06	.05
308.15	.0999	835.66	.05
308.15	.2003	874.77	.05
308.15	.3001	902.82	.05
308.15	.3999	923.8	.05
308.15	.5	939.83	.05
308.15	.643	957.39	.05
308.15	.7966	971.06	.05
308.15	.8987	978.02	.05
313.15	0	772.15	.05
313.15	.0483	803.63	.05
313.15	.0999	831.19	.05
313.15	.2003	870.28	.05
313.15	.3001	898.33	.05
313.15	.3999	919.31	.05
313.15	.5	935.34	.05
313.15	.643	952.91	.05
313.15	.7966	966.6	.05
313.15	.8987	973.57	.05
308.15	1	983.9	.05
303.15	1	988.35	.05
293.15	1	997.25	.05
298.15	1	992.8	.05
313.15	1	979.46	.05

System: ethanol + 1,1,3,3-tetramethylguanidinium imidazol-1-ide; phases: Liquid
Fixed: Pressure, kPa = 100
Property: Viscosity, Pa*s (Liquid); method: Falling or rolling sphere viscometry
Temperature, K	Mole fraction of 1,1,3,3-tetramethylguanidinium imidazol-1-ide	Viscosity, Pa*s	uncertainty
293.15	0	.001186	.00001186
293.15	.0483	.001422	.00001422
293.15	.0999	.001714	.00001714
293.15	.2003	.002371	.00002371
293.15	.3001	.003145	.00003145
293.15	.3999	.004057	.00004057
293.15	.5	.005057	.00005057
293.15	.643	.006351	.00006351
293.15	.7966	.007695	.00007695
293.15	.8987	.00846	.0000846
298.15	0	.001083	.00001083
298.15	.0483	.001289	.00001289
298.15	.0999	.001548	.00001548
298.15	.2003	.002114	.00002114
298.15	.3001	.002755	.00002755
298.15	.3999	.003498	.00003498
298.15	.5	.004296	.00004296
298.15	.643	.005318	.00005318
298.15	.7966	.006345	.00006345
298.15	.8987	.006936	.00006936
303.15	0	.000987	.00000987
303.15	.0483	.001174	.00001174
303.15	.0999	.001405	.00001405
303.15	.2003	.001897	.00001897
303.15	.3001	.002438	.00002438
303.15	.3999	.003054	.00003054
303.15	.5	.003643	.00003643
303.15	.643	.004452	.00004452
303.15	.7966	.005333	.00005333
303.15	.8987	.005786	.00005786
308.15	0	.000903	.00000903
308.15	.0483	.001072	.00001072
308.15	.0999	.00128	.0000128
308.15	.2003	.001711	.00001711
308.15	.3001	.002173	.00002173
308.15	.3999	.00269	.0000269
308.15	.5	.003174	.00003174
308.15	.643	.003891	.00003891
308.15	.7966	.004539	.00004539
308.15	.8987	.004909	.00004909
313.15	0	.000829	.00000829
313.15	.0483	.000982	.00000982
313.15	.0999	.00117	.0000117
313.15	.2003	.001549	.00001549
313.15	.3001	.001949	.00001949
313.15	.3999	.002388	.00002388
313.15	.5	.002822	.00002822
313.15	.643	.003384	.00003384
313.15	.7966	.003911	.00003911
313.15	.8987	.004229	.00004229
308.15	1	.005097	.00005097
303.15	1	.006044	.00006044
293.15	1	.008952	.00008952
298.15	1	.007287	.00007287
313.15	1	.004358	.00004358

System: 1-propanol + 1,1,3,3-tetramethylguanidinium imidazol-1-ide; phases: Liquid
Fixed: Pressure, kPa = 100
Property: Mass density, kg/m3 (Liquid); method: Vibrating tube method
Temperature, K	Mole fraction of 1,1,3,3-tetramethylguanidinium imidazol-1-ide	Mass density, kg/m3	uncertainty
293.15	0	803.75	.05
293.15	.0499	828.16	.05
293.15	.0999	849.03	.05
293.15	.2002	882.18	.05
293.15	.2996	907.96	.05
293.15	.4002	928.67	.05
293.15	.4988	945.34	.05
293.15	.6264	962.87	.05
293.15	.8001	981.42	.05
293.15	.9006	990.16	.05
298.15	0	799.71	.05
298.15	.0499	824.06	.05
298.15	.0999	844.89	.05
298.15	.2002	877.95	.05
298.15	.2996	903.66	.05
298.15	.4002	924.33	.05
298.15	.4988	940.97	.05
298.15	.6264	958.47	.05
298.15	.8001	976.99	.05
298.15	.9006	985.73	.05
303.15	0	795.65	.05
303.15	.0499	819.94	.05
303.15	.0999	840.71	.05
303.15	.2002	873.7	.05
303.15	.2996	899.35	.05
303.15	.4002	919.98	.05
303.15	.4988	936.59	.05
303.15	.6264	954.06	.05
303.15	.8001	972.55	.05
303.15	.9006	981.29	.05
308.15	0	791.56	.05
308.15	.0499	815.79	.05
308.15	.0999	836.52	.05
308.15	.2002	869.43	.05
308.15	.2996	895.03	.05
308.15	.4002	915.62	.05
308.15	.4988	932.2	.05
308.15	.6264	949.65	.05
308.15	.8001	968.12	.05
308.15	.9006	976.85	.05
313.15	0	787.42	.05
313.15	.0499	811.6	.05
313.15	.0999	832.3	.05
313.15	.2002	865.15	.05
313.15	.2996	890.71	.05
313.15	.4002	911.26	.05
313.15	.4988	927.81	.05
313.15	.6264	945.24	.05
313.15	.8001	963.7	.05
313.15	.9006	972.41	.05
308.15	1	983.9	.05
303.15	1	988.35	.05
293.15	1	997.25	.05
298.15	1	992.8	.05
313.15	1	979.46	.05

System: 1-propanol + 1,1,3,3-tetramethylguanidinium imidazol-1-ide; phases: Liquid
Fixed: Pressure, kPa = 100
Property: Viscosity, Pa*s (Liquid); method: Falling or rolling sphere viscometry
Temperature, K	Mole fraction of 1,1,3,3-tetramethylguanidinium imidazol-1-ide	Viscosity, Pa*s	uncertainty
293.15	0	.002217	.00002217
293.15	.0499	.002428	.00002428
293.15	.0999	.002667	.00002667
293.15	.2002	.003294	.00003294
293.15	.2996	.004062	.00004062
293.15	.4002	.004872	.00004872
293.15	.4988	.005686	.00005686
293.15	.6264	.006646	.00006646
293.15	.8001	.007842	.00007842
293.15	.9006	.008401	.00008401
298.15	0	.001955	.00001955
298.15	.0499	.002146	.00002146
298.15	.0999	.002354	.00002354
298.15	.2002	.002886	.00002886
298.15	.2996	.003516	.00003516
298.15	.4002	.004168	.00004168
298.15	.4988	.004798	.00004798
298.15	.6264	.005548	.00005548
298.15	.8001	.00646	.0000646
298.15	.9006	.006898	.00006898
303.15	0	.001736	.00001736
303.15	.0499	.00191	.0000191
303.15	.0999	.002095	.00002095
303.15	.2002	.00255	.0000255
303.15	.2996	.003078	.00003078
303.15	.4002	.003606	.00003606
303.15	.4988	.004126	.00004126
303.15	.6264	.004716	.00004716
303.15	.8001	.005443	.00005443
303.15	.9006	.005825	.00005825
308.15	0	.00155	.0000155
308.15	.0499	.001707	.00001707
308.15	.0999	.001873	.00001873
308.15	.2002	.002268	.00002268
308.15	.2996	.002712	.00002712
308.15	.4002	.003154	.00003154
308.15	.4988	.003577	.00003577
308.15	.6264	.004052	.00004052
308.15	.8001	.004625	.00004625
308.15	.9006	.004927	.00004927
313.15	0	.001389	.00001389
313.15	.0499	.001532	.00001532
313.15	.0999	.001682	.00001682
313.15	.2002	.002029	.00002029
313.15	.2996	.002406	.00002406
313.15	.4002	.002778	.00002778
313.15	.4988	.003129	.00003129
313.15	.6264	.003512	.00003512
313.15	.8001	.003991	.00003991
313.15	.9006	.004225	.00004225
308.15	1	.005097	.00005097
303.15	1	.006044	.00006044
293.15	1	.008952	.00008952
298.15	1	.007287	.00007287
313.15	1	.004358	.00004358

System: 1-butanol + 1,1,3,3-tetramethylguanidinium imidazol-1-ide; phases: Liquid
Fixed: Pressure, kPa = 100
Property: Mass density, kg/m3 (Liquid); method: Vibrating tube method
Temperature, K	Mole fraction of 1,1,3,3-tetramethylguanidinium imidazol-1-ide	Mass density, kg/m3	uncertainty
293.15	0	809.72	.05
293.15	.0499	828.74	.05
293.15	.1004	845.73	.05
293.15	.1999	875.01	.05
293.15	.2997	899.57	.05
293.15	.3985	920.24	.05
293.15	.4997	938.26	.05
293.15	.6499	960.31	.05
293.15	.8002	978.39	.05
293.15	.9004	988.56	.05
298.15	0	805.92	.05
298.15	.0499	824.87	.05
298.15	.1004	841.79	.05
298.15	.1999	870.95	.05
298.15	.2997	895.41	.05
298.15	.3985	916.05	.05
298.15	.4997	933.99	.05
298.15	.6499	955.97	.05
298.15	.8002	974	.05
298.15	.9004	984.14	.05
303.15	0	802.08	.05
303.15	.0499	820.97	.05
303.15	.1004	837.82	.05
303.15	.1999	866.87	.05
303.15	.2997	891.24	.05
303.15	.3985	911.78	.05
303.15	.4997	929.7	.05
303.15	.6499	951.62	.05
303.15	.8002	969.59	.05
303.15	.9004	979.72	.05
308.15	0	798.21	.05
308.15	.0499	817.04	.05
308.15	.1004	833.83	.05
308.15	.1999	862.77	.05
308.15	.2997	887.07	.05
308.15	.3985	907.55	.05
308.15	.4997	925.4	.05
308.15	.6499	947.27	.05
308.15	.8002	965.19	.05
308.15	.9004	975.28	.05
313.15	0	794.3	.05
313.15	.0499	813.07	.05
313.15	.1004	829.83	.05
313.15	.1999	858.67	.05
313.15	.2997	882.9	.05
313.15	.3985	903.31	.05
313.15	.4997	921.09	.05
313.15	.6499	942.92	.05
313.15	.8002	960.8	.05
313.15	.9004	970.84	.05
308.15	1	983.9	.05
303.15	1	988.35	.05
293.15	1	997.25	.05
298.15	1	992.8	.05
313.15	1	979.46	.05

System: 1-butanol + 1,1,3,3-tetramethylguanidinium imidazol-1-ide; phases: Liquid
Fixed: Pressure, kPa = 100
Property: Viscosity, Pa*s (Liquid); method: Falling or rolling sphere viscometry
Temperature, K	Mole fraction of 1,1,3,3-tetramethylguanidinium imidazol-1-ide	Viscosity, Pa*s	uncertainty
293.15	0	.002918	.00002918
293.15	.0499	.003053	.00003053
293.15	.1004	.003248	.00003248
293.15	.1999	.003727	.00003727
293.15	.2997	.00441	.0000441
293.15	.3985	.005155	.00005155
293.15	.4997	.006003	.00006003
293.15	.6499	.007076	.00007076
293.15	.8002	.00802	.0000802
293.15	.9004	.0086	.000086
298.15	0	.002566	.00002566
298.15	.0499	.0027	.000027
298.15	.1004	.002868	.00002868
298.15	.1999	.003272	.00003272
298.15	.2997	.003801	.00003801
298.15	.3985	.004414	.00004414
298.15	.4997	.005029	.00005029
298.15	.6499	.005887	.00005887
298.15	.8002	.006617	.00006617
298.15	.9004	.007032	.00007032
303.15	0	.002272	.00002272
303.15	.0499	.002399	.00002399
303.15	.1004	.002549	.00002549
303.15	.1999	.00289	.0000289
303.15	.2997	.003323	.00003323
303.15	.3985	.003823	.00003823
303.15	.4997	.004322	.00004322
303.15	.6499	.005	.00005
303.15	.8002	.005547	.00005547
303.15	.9004	.005877	.00005877
308.15	0	.002024	.00002024
308.15	.0499	.002141	.00002141
308.15	.1004	.002276	.00002276
308.15	.1999	.002569	.00002569
308.15	.2997	.002931	.00002931
308.15	.3985	.003343	.00003343
308.15	.4997	.003751	.00003751
308.15	.6499	.004267	.00004267
308.15	.8002	.004739	.00004739
308.15	.9004	.005021	.00005021
313.15	0	.00181	.0000181
313.15	.0499	.00192	.0000192
313.15	.1004	.00204	.0000204
313.15	.1999	.002298	.00002298
313.15	.2997	.002604	.00002604
313.15	.3985	.002948	.00002948
313.15	.4997	.003286	.00003286
313.15	.6499	.003737	.00003737
313.15	.8002	.004097	.00004097
313.15	.9004	.004299	.00004299
308.15	1	.005097	.00005097
303.15	1	.006044	.00006044
293.15	1	.008952	.00008952
298.15	1	.007287	.00007287
313.15	1	.004358	.00004358
