Measured thermophysical data. Absorption capacity and viscosity for CO2 capture process using [N1111][Gly] promoted K2CO3 aqueous solution
Source: J. Chem. Thermodyn., 2016, 10.1016/j.jct.2016.07.026
Compound 1: tetramethylammonium glycinate, C6H16N2O2, purity 99%
Compound 2: potassium carbonate, CK2O3, purity 99%
Compound 3: carbon dioxide, CO2, purity 99.99%
Compound 4: water, H2O, purity 99.9%

System: carbon dioxide + potassium carbonate + water; phases: Liquid, Gas
Fixed: Pressure, kPa = 101
Property: Mass ratio of solute to solvent of carbon dioxide (Liquid); method: volumetric method
Solvent: Mass fraction of potassium carbonate	Temperature, K	Mass ratio of solute to solvent of carbon dioxide	uncertainty
.15	303.2	.0413	
.15	313.2	.0403	
.15	323.2	.0389	
.2001	303.2	.0529	
.2001	313.2	.0517	
.2001	323.2	.0509	
.25	303.2	.0655	
.25	313.2	.0646	
.25	323.2	.0631	

System: potassium carbonate + water + tetramethylammonium glycinate; phases: Liquid
Fixed: Pressure, kPa = 101
Property: Viscosity, Pa*s (Liquid); method: Concentric cylinders viscometry
Mass fraction of potassium carbonate	Mass fraction of tetramethylammonium glycinate	Temperature, K	Viscosity, Pa*s	uncertainty
.15	0	303.2	.00127	
.15	0	313.2	.00108	
.15	0	323.2	.00092	
.15	.025	303.2	.0014	
.15	.025	313.2	.00116	
.15	.025	323.2	.00098	
.15	.0501	303.2	.00152	
.15	.0501	313.2	.00129	
.15	.0501	323.2	.00103	
.15	.075	303.2	.00165	
.15	.075	313.2	.0014	
.15	.075	323.2	.00108	
.2	0	303.2	.00143	
.2	0	313.2	.00122	
.2	0	323.2	.00105	
.2	.025	303.2	.00156	
.2	.025	313.2	.00135	
.2	.025	323.2	.00111	
.2	.0501	303.2	.00175	
.2	.0501	313.2	.00148	
.2	.0501	323.2	.00122	
.2	.075	303.2	.00191	
.2	.075	313.2	.00159	
.2	.075	323.2	.00132	
.2501	0	303.2	.00164	
.2501	0	313.2	.00139	
.2501	0	323.2	.0012	
.2501	.025	303.2	.00181	
.2501	.025	313.2	.0015	
.2501	.025	323.2	.00131	
.2501	.0501	303.2	.00197	
.2501	.0501	313.2	.00165	
.2501	.0501	323.2	.00143	
.2501	.075	303.2	.00218	
.2501	.075	313.2	.00182	
.2501	.075	323.2	.00153	

System: potassium carbonate + water; phases: Liquid
Property: Viscosity, Pa*s (Liquid); method: Concentric cylinders viscometry
Mass fraction of potassium carbonate	Temperature, K	Pressure, kPa	Viscosity, Pa*s	uncertainty
.15	303.2	101	.00127	
.15	313.2	101	.00108	
.15	323.2	101	.00092	
.2	303.2	101	.00143	
.2	313.2	101	.00122	
.2	323.2	101	.00105	
.2501	303.2	101	.00164	
.2501	313.2	101	.00139	
.2501	323.2	101	.0012	
