Measured thermophysical data. Thermodynamics of organic mixtures containing amines. X. Phase equilibria  for binary systems formed by imidazoles and hydrocarbons: Experimental data  and modelling using DISQUAC
Source: J. Chem. Thermodyn., 2010, 10.1016/j.jct.2009.11.016
Compound 1: 1H-imidazole, C3H4N2, purity 99%
Compound 2: 1-methylimidazole, C4H6N2, purity 99%
Compound 3: 2-methylimidazole, C4H6N2, purity 99%
Compound 4: benzimidazole, C7H6N2, purity 98%
Compound 5: n-hexane, C6H14, purity 99%
Compound 6: cyclohexane, C6H12, purity 99.5%
Compound 7: benzene, C6H6, purity 99.5%
Compound 8: toluene, C7H8, purity 99.7%

System: n-hexane + 1H-imidazole; phases: Liquid, Crystal
Fixed: Pressure, kPa = 101
Property: Solid-liquid equilibrium temperature, K (Liquid); method: Visual observation
Mole fraction of 1H-imidazole	Solid-liquid equilibrium temperature, K	uncertainty
.4725	357.17	.1
.5546	356.97	.1
.6355	356.78	.1
.7425	358.7	.1
.9429	361.13	.1
.9798	361.51	.1
.8532	360.57	.1

System: n-hexane + 1H-imidazole; phases: Liquid mixture 1, Liquid mixture 2
Fixed: Pressure, kPa = 101
Property: Liquid-liquid equilibrium temperature, K (Liquid mixture 1); method: Visual observation
Mole fraction of 1H-imidazole	Liquid-liquid equilibrium temperature, K	uncertainty
.4725	389.86	.1
.5546	375.31	.1

System: cyclohexane + 1H-imidazole; phases: Liquid, Crystal
Fixed: Pressure, kPa = 101
Property: Solid-liquid equilibrium temperature, K (Liquid); method: Visual observation
Mole fraction of 1H-imidazole	Solid-liquid equilibrium temperature, K	uncertainty
.0391	350.7	.1
.0613	350.73	.1
.0855	350.72	.1
.1339	350.69	.1
.1986	350.63	.1
.2686	350.69	.1
.2935	350.71	.1
.4245	350.91	.1
.483	350.67	.1
.5382	350.52	.1
.5884	350.35	.1
.6349	351.1	.1
.6726	352.25	.1
.7274	352.32	.1
.7853	353.07	.1
.8575	355.23	.1
.9401	359.07	.1
.9896	360.64	.1

System: cyclohexane + 1H-imidazole; phases: Liquid mixture 1, Liquid mixture 2
Fixed: Pressure, kPa = 101
Property: Liquid-liquid equilibrium temperature, K (Liquid mixture 1); method: Visual observation
Mole fraction of 1H-imidazole	Liquid-liquid equilibrium temperature, K	uncertainty
.483	416.35	.1
.5382	403.67	.1
.5884	388.95	.1
.6349	373.57	.1

System: benzene + 1H-imidazole; phases: Liquid, Crystal
Fixed: Pressure, kPa = 101
Property: Solid-liquid equilibrium temperature, K (Liquid); method: Visual observation
Mole fraction of 1H-imidazole	Solid-liquid equilibrium temperature, K	uncertainty
.0622	315.57	.1
.0897	316.79	.1
.0977	317.83	.1
.1222	317.57	.1
.1293	317.86	.1
.1601	318.64	.1
.1764	319.47	.1
.2027	320.26	.1
.2247	320.91	.1
.2284	320.48	.1
.2578	321.77	.1
.3009	323.06	.1
.3298	323.75	.1
.3342	324.62	.1
.3678	324.73	.1
.4083	326.05	.1
.4131	327.33	.1
.4525	328.89	.1
.4811	330.14	.1
.5167	331.78	.1
.5376	332.77	.1
.5675	333.83	.1
.595	335.49	.1
.6264	337.1	.1
.6497	338.21	.1
.6836	340.19	.1
.7275	342.64	.1
.7637	344.45	.1
.8042	346.96	.1
.8516	350.11	.1
.8943	352.92	.1
.938	355.93	.1
.9729	359.92	.1

System: toluene + 1H-imidazole; phases: Liquid, Crystal
Fixed: Pressure, kPa = 101
Property: Solid-liquid equilibrium temperature, K (Liquid); method: Visual observation
Mole fraction of 1H-imidazole	Solid-liquid equilibrium temperature, K	uncertainty
.0522	325.19	.1
.0665	325.68	.1
.0807	327.22	.1
.0815	326.7	.1
.1052	327.96	.1
.1282	328.38	.1
.1518	328.9	.1
.1763	329.54	.1
.2029	330.57	.1
.2263	331.18	.1
.2361	331.31	.1
.3369	332.27	.1
.3816	333.04	.1
.4163	333.63	.1
.4558	334.79	.1
.5012	335.89	.1
.5521	337.49	.1
.6038	339.2	.1
.67	342.11	.1
.7212	344.4	.1
.7551	346.42	.1
.7894	348.39	.1
.8291	350.71	.1
.8615	352.6	.1
.9072	355.27	.1
.9531	359.6	.1

System: benzene + 1-methylimidazole; phases: Crystal, Crystal, Liquid, Air at 1 atmosphere
Fixed: Pressure, kPa = 101.325
Property: Eutectic temperature, K (Crystal); method: Derived from phase diagram analysis
Eutectic temperature, K	uncertainty
250.1	.1

System: benzene + 1-methylimidazole; phases: Crystal, Crystal, Liquid, Air at 1 atmosphere
Fixed: Pressure, kPa = 101.325
Property: Eutectic composition: mole fraction of 1-methylimidazole (Crystal); method: Derived from phase diagram analysis
Eutectic composition: mole fraction of 1-methylimidazole	uncertainty
.65	.0005

System: benzene + 1-methylimidazole; phases: Liquid, Crystal
Fixed: Pressure, kPa = 101
Property: Solid-liquid equilibrium temperature, K (Liquid); method: Visual observation
Mole fraction of 1-methylimidazole	Solid-liquid equilibrium temperature, K	uncertainty
.0289	278.15	.1
.0415	276.72	.1
.0547	275.68	.1
.0691	274.93	.1
.0925	274.02	.1
.1178	273.02	.1
.1778	271.22	.1
.2307	269.57	.1
.2507	268.87	.1
.2784	267.96	.1
.3098	266.84	.1
.3411	265.82	.1
.3746	264.56	.1
.4142	263.45	.1
.4154	263.26	.1
.4414	262.44	.1
.4672	261.11	.1
.4967	259.81	.1
.576	255.34	.1
.6003	253.59	.1
.6228	251.86	.1
.6587	251.04	.1
.6768	251.21	.1
.6961	252.02	.1
.7151	252.73	.1
.7406	253.77	.1
.7648	254.99	.1
.7844	256.39	.1
.8325	258.76	.1
.8673	260.6	.1
.8946	262.27	.1
.9377	264.9	.1

System: toluene + 1-methylimidazole; phases: Liquid, Crystal
Fixed: Pressure, kPa = 101
Property: Solid-liquid equilibrium temperature, K (Liquid); method: Visual observation
Mole fraction of 1-methylimidazole	Solid-liquid equilibrium temperature, K	uncertainty
.1434	234.23	.1
.1621	234.98	.1
.1807	234.97	.1
.182	235.23	.1
.2102	236.06	.1
.2464	237	.1
.2768	238.17	.1
.3085	238.94	.1
.3446	240.23	.1
.3884	241.63	.1
.425	243.94	.1
.4651	245.13	.1
.5071	246.65	.1
.5503	247.61	.1
.6013	249.53	.1
.6351	250.7	.1
.6918	252.54	.1
.7195	253.87	.1
.7791	255.63	.1
.824	257.46	.1
.8503	258.86	.1
.8968	261.07	.1
.933	262.6	.1
.9483	263.81	.1
.97	264.73	.1

System: toluene + 1-methylimidazole; phases: Liquid mixture 1, Liquid mixture 2
Fixed: Pressure, kPa = 101
Property: Liquid-liquid equilibrium temperature, K (Liquid mixture 1); method: Visual observation
Mole fraction of 1-methylimidazole	Liquid-liquid equilibrium temperature, K	uncertainty
.013	233.73	.1
.0144	239.57	.1
.0162	239.98	.1
.0211	241.95	.1
.0255	245.35	.1
.0309	247.25	.1
.0368	249.35	.1
.0428	250.95	.1
.0481	252.63	.1
.0556	253.83	.1
.064	255.33	.1
.0698	256.55	.1
.0774	256.93	.1
.0852	256.18	.1
.0947	254.63	.1
.1015	252.22	.1
.1063	250.48	.1

System: cyclohexane + 2-methylimidazole; phases: Liquid, Crystal
Fixed: Pressure, kPa = 101
Property: Solid-liquid equilibrium temperature, K (Liquid); method: Visual observation
Mole fraction of 2-methylimidazole	Solid-liquid equilibrium temperature, K	uncertainty
.0048	382.5	.1
.0057	385.76	.1
.0064	386.3	.1
.0068	386.47	.1
.0074	388.38	.1
.0083	390.34	.1
.0095	392.3	.1
.0119	393.71	.1
.0138	395.55	.1
.0151	396.45	.1
.4467	402.6	.1
.4764	406.38	.1

System: cyclohexane + 2-methylimidazole; phases: Liquid mixture 1, Liquid mixture 2
Fixed: Pressure, kPa = 101
Property: Liquid-liquid equilibrium temperature, K (Liquid mixture 1); method: Visual observation
Mole fraction of 2-methylimidazole	Liquid-liquid equilibrium temperature, K	uncertainty
.0227	402.5	.1
.0253	406.46	.1
.0273	413.15	.1
.0351	430.15	.1
.0425	431.15	.1
.3355	432.95	.1
.3879	412.75	.1
.4229	401.29	.1

System: benzene + 2-methylimidazole; phases: Liquid, Crystal
Fixed: Pressure, kPa = 101
Property: Solid-liquid equilibrium temperature, K (Liquid); method: Visual observation
Mole fraction of 2-methylimidazole	Solid-liquid equilibrium temperature, K	uncertainty
.012	329.36	.1
.018	335.02	.1
.0342	341.07	.1
.0664	346.43	.1
.0941	348.97	.1
.1167	350.51	.1
.1415	352.1	.1
.1608	353.33	.1
.1836	355.29	.1
.2114	357.1	.1
.2393	359.31	.1
.2559	361.32	.1
.352	368.46	.1
.4063	372.35	.1

System: benzimidazole + benzene; phases: Liquid, Crystal
Fixed: Pressure, kPa = 101
Property: Solid-liquid equilibrium temperature, K (Liquid); method: Visual observation
Mole fraction of benzene	Solid-liquid equilibrium temperature, K	uncertainty
.01	358.47	.1
.0178	367.68	.1
.0226	374.48	.1
.0311	378	.1
.0389	380.63	.1
.047	382.37	.1
.0554	384.34	.1
.0644	385.97	.1
.0734	388.16	.1
.0857	389.88	.1
.1028	390.8	.1
.1231	391.91	.1
.1433	394.11	.1
.1617	396.76	.1
.1811	398.88	.1
.2056	401.53	.1
.2274	404.02	.1
.2547	408.9	.1
