Measured thermophysical data. Measurements of activity coefficients at infinite dilution for organic solutes and water in the ionic liquid 1-butyl-1-methylpyrrolidinium tricyanomethanide
Source: J. Chem. Thermodyn., 2013, 10.1016/j.jct.2013.07.004
Compound 1: 1-butyl-1-methylpyrrolidinium tricyanomethanide, C13H20N4, purity 98%
Compound 2: pentane, C5H12, purity 99%
Compound 3: hexane, C6H14, purity 99%
Compound 4: 3-methylpentane, C6H14, purity 99%
Compound 5: 2,2-dimethylbutane, C6H14, purity 99%
Compound 6: heptane, C7H16, purity 99.5%
Compound 7: octane, C8H18, purity 99%
Compound 8: 2,2,4-trimethylpentane, C8H18, purity 99%
Compound 9: nonane, C9H20, purity 99%
Compound 10: decane, C10H22, purity 99%
Compound 11: cyclopentane, C5H10, purity 99%
Compound 12: cyclohexane, C6H12, purity 99%
Compound 13: methylcyclohexane, C7H14, purity 99%
Compound 14: cycloheptane, C7H14, purity 98%
Compound 15: cyclooctane, C8H16, purity 99%
Compound 16: 1-pentene, C5H10, purity 98%
Compound 17: 1-hexene, C6H12, purity 99%
Compound 18: cyclohexene, C6H10, purity 99%
Compound 19: 1-heptene, C7H14, purity 99%
Compound 20: 1-octene, C8H16, purity 98%
Compound 21: 1-decene, C10H20, purity 97%
Compound 22: 1-pentyne, C5H8, purity 97%
Compound 23: 1-hexyne, C6H10, purity 97%
Compound 24: 1-heptyne, C7H12, purity 98%
Compound 25: 1-octyne, C8H14, purity 97%
Compound 26: benzene, C6H6, purity 99.8%
Compound 27: toluene, C7H8, purity 99.8%
Compound 28: ethylbenzene, C8H10, purity 99.8%
Compound 29: o-xylene, C8H10, purity 99%
Compound 30: m-xylene, C8H10, purity 99%
Compound 31: p-xylene, C8H10, purity 99%
Compound 32: styrene, C8H8, purity 99.9%
Compound 33: .alpha.-methylstyrene, C9H10, purity 99%
Compound 34: methanol, CH4O, purity 99.9%
Compound 35: ethanol, C2H6O, purity 99.8%
Compound 36: 1-propanol, C3H8O, purity 99.9%
Compound 37: 2-propanol, C3H8O, purity 99.9%
Compound 38: 1-butanol, C4H10O, purity 99.8%
Compound 39: 2-butanol, C4H10O, purity 99.5%
Compound 40: 1-propanol, 2-methyl-, C4H10O, purity 99.5%
Compound 41: tert-butanol, C4H10O, purity 99.7%
Compound 42: water, H2O
Compound 43: thiophene, C4H4S, purity 99%
Compound 44: oxolane, C4H8O, purity 99.9%
Compound 45: 1,4-dioxane, C4H8O2, purity 99.8%
Compound 46: methyl tert-butyl ether, C5H12O, purity 99.8%
Compound 47: methyl tert-pentyl ether, C6H14O, purity 99%
Compound 48: tert-butyl ethyl ether, C6H14O, purity 99%
Compound 49: diethyl ether, C4H10O, purity 99.9%
Compound 50: dipropyl ether, C6H14O, purity 99%
Compound 51: diisopropyl ether, C6H14O, purity 99%
Compound 52: dibutyl ether, C8H18O, purity 99.3%
Compound 53: acetone, C3H6O, purity 99.9%
Compound 54: 2-pentanone, C5H10O, purity 99%
Compound 55: 3-pentanone, C5H10O, purity 99%
Compound 56: methyl acetate, C3H6O2, purity 99.8%
Compound 57: ethyl acetate, C4H8O2, purity 99.8%
Compound 58: methyl propanoate, C4H8O2, purity 99%
Compound 59: methyl butanoate, C5H10O2, purity 99%
Compound 60: butanal, C4H8O, purity 99%
Compound 61: acetonitrile, C2H3N, purity 99.9%
Compound 62: pyridine, C5H5N, purity 99.8%
Compound 63: 1-nitropropane, C3H7NO2, purity 98.5%

System: 1-butyl-1-methylpyrrolidinium tricyanomethanide; phases: Liquid
Fixed: Pressure, kPa = 101.325
Property: Mass density, kg/m3 (Liquid); method: Vibrating tube method
Temperature, K	Mass density, kg/m3	uncertainty
318.15	994.68	.5
328.15	988.67	.5
338.15	982.7	.5
348.15	976.8	.5
358.15	970.94	.5
368.15	964.9	.5

System: pentane + 1-butyl-1-methylpyrrolidinium tricyanomethanide; phases: Liquid
Fixed: Pressure, kPa = 101
Fixed: Mole fraction of pentane = 0
Property: Activity coefficient of pentane (Liquid); method: Chromatography
Temperature, K	Activity coefficient of pentane	uncertainty
318.15	16.7	.501
328.15	16	.48
338.15	15.3	.459
348.15	14.5	.435
358.15	13.9	.417
368.15	13.4	.402

System: hexane + 1-butyl-1-methylpyrrolidinium tricyanomethanide; phases: Liquid
Fixed: Pressure, kPa = 101
Fixed: Mole fraction of hexane = 0
Property: Activity coefficient of hexane (Liquid); method: Chromatography
Temperature, K	Activity coefficient of hexane	uncertainty
318.15	23.4	.702
328.15	22.3	.669
338.15	21.1	.633
348.15	20.1	.603
358.15	19.2	.576
368.15	18.3	.549

System: 3-methylpentane + 1-butyl-1-methylpyrrolidinium tricyanomethanide; phases: Liquid
Fixed: Pressure, kPa = 101
Fixed: Mole fraction of 3-methylpentane = 0
Property: Activity coefficient of 3-methylpentane (Liquid); method: Chromatography
Temperature, K	Activity coefficient of 3-methylpentane	uncertainty
318.15	21	.63
328.15	20.1	.603
338.15	19.1	.573
348.15	18.1	.543
358.15	17.3	.519
368.15	16.6	.498

System: 2,2-dimethylbutane + 1-butyl-1-methylpyrrolidinium tricyanomethanide; phases: Liquid
Fixed: Pressure, kPa = 101
Fixed: Mole fraction of 2,2-dimethylbutane = 0
Property: Activity coefficient of 2,2-dimethylbutane (Liquid); method: Chromatography
Temperature, K	Activity coefficient of 2,2-dimethylbutane	uncertainty
318.15	21.1	.633
328.15	20.3	.609
338.15	19.2	.576
348.15	18.4	.552
358.15	17.8	.534
368.15	17	.51

System: heptane + 1-butyl-1-methylpyrrolidinium tricyanomethanide; phases: Liquid
Fixed: Pressure, kPa = 101
Fixed: Mole fraction of heptane = 0
Property: Activity coefficient of heptane (Liquid); method: Chromatography
Temperature, K	Activity coefficient of heptane	uncertainty
318.15	33.7	1.011
328.15	31.8	.954
338.15	29.9	.897
348.15	27.9	.837
358.15	26.3	.789
368.15	24.9	.747

System: octane + 1-butyl-1-methylpyrrolidinium tricyanomethanide; phases: Liquid
Fixed: Pressure, kPa = 101
Fixed: Mole fraction of octane = 0
Property: Activity coefficient of octane (Liquid); method: Chromatography
Temperature, K	Activity coefficient of octane	uncertainty
318.15	48.1	1.443
328.15	45.3	1.359
338.15	41.6	1.248
348.15	39.1	1.173
358.15	36.9	1.107
368.15	34.5	1.035

System: 2,2,4-trimethylpentane + 1-butyl-1-methylpyrrolidinium tricyanomethanide; phases: Liquid
Fixed: Pressure, kPa = 101
Fixed: Mole fraction of 2,2,4-trimethylpentane = 0
Property: Activity coefficient of 2,2,4-trimethylpentane (Liquid); method: Chromatography
Temperature, K	Activity coefficient of 2,2,4-trimethylpentane	uncertainty
318.15	39.1	1.173
328.15	36.9	1.107
338.15	35	1.05
348.15	32.8	.984
358.15	31.1	.933
368.15	29.4	.882

System: nonane + 1-butyl-1-methylpyrrolidinium tricyanomethanide; phases: Liquid
Fixed: Pressure, kPa = 101
Fixed: Mole fraction of nonane = 0
Property: Activity coefficient of nonane (Liquid); method: Chromatography
Temperature, K	Activity coefficient of nonane	uncertainty
318.15	68.8	2.064
328.15	63.9	1.917
338.15	58.2	1.746
348.15	54.3	1.629
358.15	50.8	1.524
368.15	47.1	1.413

System: decane + 1-butyl-1-methylpyrrolidinium tricyanomethanide; phases: Liquid
Fixed: Pressure, kPa = 101
Fixed: Mole fraction of decane = 0
Property: Activity coefficient of decane (Liquid); method: Chromatography
Temperature, K	Activity coefficient of decane	uncertainty
318.15	99.2	2.976
328.15	91.3	2.739
338.15	82.4	2.472
348.15	76.4	2.292
358.15	70.9	2.127
368.15	65.2	1.956

System: cyclopentane + 1-butyl-1-methylpyrrolidinium tricyanomethanide; phases: Liquid
Fixed: Pressure, kPa = 101
Fixed: Mole fraction of cyclopentane = 0
Property: Activity coefficient of cyclopentane (Liquid); method: Chromatography
Temperature, K	Activity coefficient of cyclopentane	uncertainty
318.15	7.53	.2259
328.15	7.29	.2187
338.15	7	.21
348.15	6.71	.2013
358.15	6.48	.1944
368.15	6.27	.1881

System: cyclohexane + 1-butyl-1-methylpyrrolidinium tricyanomethanide; phases: Liquid
Fixed: Pressure, kPa = 101
Fixed: Mole fraction of cyclohexane = 0
Property: Activity coefficient of cyclohexane (Liquid); method: Chromatography
Temperature, K	Activity coefficient of cyclohexane	uncertainty
318.15	11.1	.333
328.15	10.6	.318
338.15	10	.3
348.15	9.49	.2847
358.15	9.1	.273
368.15	8.74	.2622

System: methylcyclohexane + 1-butyl-1-methylpyrrolidinium tricyanomethanide; phases: Liquid
Fixed: Pressure, kPa = 101
Fixed: Mole fraction of methylcyclohexane = 0
Property: Activity coefficient of methylcyclohexane (Liquid); method: Chromatography
Temperature, K	Activity coefficient of methylcyclohexane	uncertainty
318.15	15.9	.477
328.15	15.3	.459
338.15	14.4	.432
348.15	13.6	.408
358.15	13	.39
368.15	12.4	.372

System: cycloheptane + 1-butyl-1-methylpyrrolidinium tricyanomethanide; phases: Liquid
Fixed: Pressure, kPa = 101
Fixed: Mole fraction of cycloheptane = 0
Property: Activity coefficient of cycloheptane (Liquid); method: Chromatography
Temperature, K	Activity coefficient of cycloheptane	uncertainty
318.15	13.5	.405
328.15	12.9	.387
338.15	12.2	.366
348.15	11.5	.345
358.15	10.9	.327
368.15	10.4	.312

System: cyclooctane + 1-butyl-1-methylpyrrolidinium tricyanomethanide; phases: Liquid
Fixed: Pressure, kPa = 101
Fixed: Mole fraction of cyclooctane = 0
Property: Activity coefficient of cyclooctane (Liquid); method: Chromatography
Temperature, K	Activity coefficient of cyclooctane	uncertainty
318.15	17.2	.516
328.15	16.3	.489
338.15	15.3	.459
348.15	14.3	.429
358.15	13.6	.408
368.15	12.9	.387

System: 1-pentene + 1-butyl-1-methylpyrrolidinium tricyanomethanide; phases: Liquid
Fixed: Pressure, kPa = 101
Fixed: Mole fraction of 1-pentene = 0
Property: Activity coefficient of 1-pentene (Liquid); method: Chromatography
Temperature, K	Activity coefficient of 1-pentene	uncertainty
318.15	7.51	.2253
328.15	7.4	.222
338.15	7.29	.2187
348.15	7.14	.2142
358.15	7	.21
368.15	6.92	.2076

System: 1-hexene + 1-butyl-1-methylpyrrolidinium tricyanomethanide; phases: Liquid
Fixed: Pressure, kPa = 101
Fixed: Mole fraction of 1-hexene = 0
Property: Activity coefficient of 1-hexene (Liquid); method: Chromatography
Temperature, K	Activity coefficient of 1-hexene	uncertainty
318.15	10.6	.318
328.15	10.3	.309
338.15	10	.3
348.15	9.68	.2904
358.15	9.42	.2826
368.15	9.15	.2745

System: cyclohexene + 1-butyl-1-methylpyrrolidinium tricyanomethanide; phases: Liquid
Fixed: Pressure, kPa = 101
Fixed: Mole fraction of cyclohexene = 0
Property: Activity coefficient of cyclohexene (Liquid); method: Chromatography
Temperature, K	Activity coefficient of cyclohexene	uncertainty
318.15	5.16	.1548
328.15	5.1	.153
338.15	4.99	.1497
348.15	4.86	.1458
358.15	4.77	.1431
368.15	4.68	.1404

System: 1-heptene + 1-butyl-1-methylpyrrolidinium tricyanomethanide; phases: Liquid
Fixed: Pressure, kPa = 101
Fixed: Mole fraction of 1-heptene = 0
Property: Activity coefficient of 1-heptene (Liquid); method: Chromatography
Temperature, K	Activity coefficient of 1-heptene	uncertainty
318.15	15	.45
328.15	14.7	.441
338.15	14.2	.426
348.15	13.7	.411
358.15	13.3	.399
368.15	12.9	.387

System: 1-octene + 1-butyl-1-methylpyrrolidinium tricyanomethanide; phases: Liquid
Fixed: Pressure, kPa = 101
Fixed: Mole fraction of 1-octene = 0
Property: Activity coefficient of 1-octene (Liquid); method: Chromatography
Temperature, K	Activity coefficient of 1-octene	uncertainty
318.15	21.8	.654
328.15	21	.63
338.15	20.1	.603
348.15	19.2	.576
358.15	18.5	.555
368.15	17.8	.534

System: 1-decene + 1-butyl-1-methylpyrrolidinium tricyanomethanide; phases: Liquid
Fixed: Pressure, kPa = 101
Fixed: Mole fraction of 1-decene = 0
Property: Activity coefficient of 1-decene (Liquid); method: Chromatography
Temperature, K	Activity coefficient of 1-decene	uncertainty
318.15	43.2	1.296
328.15	41.4	1.242
338.15	39.4	1.182
348.15	37.4	1.122
358.15	35.6	1.068
368.15	33.8	1.014

System: 1-pentyne + 1-butyl-1-methylpyrrolidinium tricyanomethanide; phases: Liquid
Fixed: Pressure, kPa = 101
Fixed: Mole fraction of 1-pentyne = 0
Property: Activity coefficient of 1-pentyne (Liquid); method: Chromatography
Temperature, K	Activity coefficient of 1-pentyne	uncertainty
318.15	2.1	.063
328.15	2.17	.0651
338.15	2.23	.0669
348.15	2.27	.0681
358.15	2.3	.069
368.15	2.35	.0705

System: 1-hexyne + 1-butyl-1-methylpyrrolidinium tricyanomethanide; phases: Liquid
Fixed: Pressure, kPa = 101
Fixed: Mole fraction of 1-hexyne = 0
Property: Activity coefficient of 1-hexyne (Liquid); method: Chromatography
Temperature, K	Activity coefficient of 1-hexyne	uncertainty
318.15	2.87	.0861
328.15	2.97	.0891
338.15	3.03	.0909
348.15	3.07	.0921
358.15	3.11	.0933
368.15	3.16	.0948

System: 1-heptyne + 1-butyl-1-methylpyrrolidinium tricyanomethanide; phases: Liquid
Fixed: Pressure, kPa = 101
Fixed: Mole fraction of 1-heptyne = 0
Property: Activity coefficient of 1-heptyne (Liquid); method: Chromatography
Temperature, K	Activity coefficient of 1-heptyne	uncertainty
318.15	4.03	.1209
328.15	4.15	.1245
338.15	4.21	.1263
348.15	4.24	.1272
358.15	4.28	.1284
368.15	4.32	.1296

System: 1-octyne + 1-butyl-1-methylpyrrolidinium tricyanomethanide; phases: Liquid
Fixed: Pressure, kPa = 101
Fixed: Mole fraction of 1-octyne = 0
Property: Activity coefficient of 1-octyne (Liquid); method: Chromatography
Temperature, K	Activity coefficient of 1-octyne	uncertainty
318.15	5.73	.1719
328.15	5.85	.1755
338.15	5.89	.1767
348.15	5.9	.177
358.15	5.91	.1773
368.15	5.93	.1779

System: benzene + 1-butyl-1-methylpyrrolidinium tricyanomethanide; phases: Liquid
Fixed: Pressure, kPa = 101
Fixed: Mole fraction of benzene = 0
Property: Activity coefficient of benzene (Liquid); method: Chromatography
Temperature, K	Activity coefficient of benzene	uncertainty
318.15	1.02	.0306
328.15	1.04	.0312
338.15	1.07	.0321
348.15	1.09	.0327
358.15	1.11	.0333
368.15	1.13	.0339

System: toluene + 1-butyl-1-methylpyrrolidinium tricyanomethanide; phases: Liquid
Fixed: Pressure, kPa = 101
Fixed: Mole fraction of toluene = 0
Property: Activity coefficient of toluene (Liquid); method: Chromatography
Temperature, K	Activity coefficient of toluene	uncertainty
318.15	1.43	.0429
328.15	1.47	.0441
338.15	1.51	.0453
348.15	1.55	.0465
358.15	1.57	.0471
368.15	1.6	.048

System: ethylbenzene + 1-butyl-1-methylpyrrolidinium tricyanomethanide; phases: Liquid
Fixed: Pressure, kPa = 101
Fixed: Mole fraction of ethylbenzene = 0
Property: Activity coefficient of ethylbenzene (Liquid); method: Chromatography
Temperature, K	Activity coefficient of ethylbenzene	uncertainty
318.15	2.11	.0633
328.15	2.15	.0645
338.15	2.19	.0657
348.15	2.23	.0669
358.15	2.25	.0675
368.15	2.29	.0687

System: o-xylene + 1-butyl-1-methylpyrrolidinium tricyanomethanide; phases: Liquid
Fixed: Pressure, kPa = 101
Fixed: Mole fraction of o-xylene = 0
Property: Activity coefficient of o-xylene (Liquid); method: Chromatography
Temperature, K	Activity coefficient of o-xylene	uncertainty
318.15	1.76	.0528
328.15	1.81	.0543
338.15	1.85	.0555
348.15	1.9	.057
358.15	1.93	.0579
368.15	1.97	.0591

System: m-xylene + 1-butyl-1-methylpyrrolidinium tricyanomethanide; phases: Liquid
Fixed: Pressure, kPa = 101
Fixed: Mole fraction of m-xylene = 0
Property: Activity coefficient of m-xylene (Liquid); method: Chromatography
Temperature, K	Activity coefficient of m-xylene	uncertainty
318.15	2.06	.0618
328.15	2.12	.0636
338.15	2.17	.0651
348.15	2.21	.0663
358.15	2.25	.0675
368.15	2.3	.069

System: p-xylene + 1-butyl-1-methylpyrrolidinium tricyanomethanide; phases: Liquid
Fixed: Pressure, kPa = 101
Fixed: Mole fraction of p-xylene = 0
Property: Activity coefficient of p-xylene (Liquid); method: Chromatography
Temperature, K	Activity coefficient of p-xylene	uncertainty
318.15	2.01	.0603
328.15	2.06	.0618
338.15	2.12	.0636
348.15	2.16	.0648
358.15	2.21	.0663
368.15	2.25	.0675

System: styrene + 1-butyl-1-methylpyrrolidinium tricyanomethanide; phases: Liquid
Fixed: Pressure, kPa = 101
Fixed: Mole fraction of styrene = 0
Property: Activity coefficient of styrene (Liquid); method: Chromatography
Temperature, K	Activity coefficient of styrene	uncertainty
318.15	1.12	.0336
328.15	1.16	.0348
338.15	1.2	.036
348.15	1.24	.0372
358.15	1.27	.0381
368.15	1.31	.0393

System: .alpha.-methylstyrene + 1-butyl-1-methylpyrrolidinium tricyanomethanide; phases: Liquid
Fixed: Pressure, kPa = 101
Fixed: Mole fraction of .alpha.-methylstyrene = 0
Property: Activity coefficient of .alpha.-methylstyrene (Liquid); method: Chromatography
Temperature, K	Activity coefficient of .alpha.-methylstyrene	uncertainty
328.15	1.67	.0501
338.15	1.76	.0528
348.15	1.84	.0552
358.15	1.9	.057
368.15	1.97	.0591

System: methanol + 1-butyl-1-methylpyrrolidinium tricyanomethanide; phases: Liquid
Fixed: Pressure, kPa = 101
Fixed: Mole fraction of methanol = 0
Property: Activity coefficient of methanol (Liquid); method: Chromatography
Temperature, K	Activity coefficient of methanol	uncertainty
318.15	.699	.02097
328.15	.67	.0201
338.15	.646	.01938
348.15	.625	.01875
358.15	.607	.01821
368.15	.59	.0177

System: ethanol + 1-butyl-1-methylpyrrolidinium tricyanomethanide; phases: Liquid
Fixed: Pressure, kPa = 101
Fixed: Mole fraction of ethanol = 0
Property: Activity coefficient of ethanol (Liquid); method: Chromatography
Temperature, K	Activity coefficient of ethanol	uncertainty
318.15	.967	.02901
328.15	.918	.02754
338.15	.876	.02628
348.15	.836	.02508
358.15	.801	.02403
368.15	.77	.0231

System: 1-propanol + 1-butyl-1-methylpyrrolidinium tricyanomethanide; phases: Liquid
Fixed: Pressure, kPa = 101
Fixed: Mole fraction of 1-propanol = 0
Property: Activity coefficient of 1-propanol (Liquid); method: Chromatography
Temperature, K	Activity coefficient of 1-propanol	uncertainty
318.15	1.14	.0342
328.15	1.08	.0324
338.15	1.03	.0309
348.15	.983	.02949
358.15	.945	.02835
368.15	.913	.02739

System: 2-propanol + 1-butyl-1-methylpyrrolidinium tricyanomethanide; phases: Liquid
Fixed: Pressure, kPa = 101
Fixed: Mole fraction of 2-propanol = 0
Property: Activity coefficient of 2-propanol (Liquid); method: Chromatography
Temperature, K	Activity coefficient of 2-propanol	uncertainty
318.15	1.2	.036
328.15	1.13	.0339
338.15	1.08	.0324
348.15	1.02	.0306
358.15	.984	.02952
368.15	.95	.0285

System: 1-butanol + 1-butyl-1-methylpyrrolidinium tricyanomethanide; phases: Liquid
Fixed: Pressure, kPa = 101
Fixed: Mole fraction of 1-butanol = 0
Property: Activity coefficient of 1-butanol (Liquid); method: Chromatography
Temperature, K	Activity coefficient of 1-butanol	uncertainty
318.15	1.43	.0429
328.15	1.34	.0402
338.15	1.27	.0381
348.15	1.22	.0366
358.15	1.16	.0348
368.15	1.11	.0333

System: 2-butanol + 1-butyl-1-methylpyrrolidinium tricyanomethanide; phases: Liquid
Fixed: Pressure, kPa = 101
Fixed: Mole fraction of 2-butanol = 0
Property: Activity coefficient of 2-butanol (Liquid); method: Chromatography
Temperature, K	Activity coefficient of 2-butanol	uncertainty
318.15	1.34	.0402
328.15	1.27	.0381
338.15	1.21	.0363
348.15	1.16	.0348
358.15	1.12	.0336
368.15	1.09	.0327

System: 1-propanol, 2-methyl- + 1-butyl-1-methylpyrrolidinium tricyanomethanide; phases: Liquid
Fixed: Pressure, kPa = 101
Fixed: Mole fraction of 1-propanol, 2-methyl- = 0
Property: Activity coefficient of 1-propanol, 2-methyl- (Liquid); method: Chromatography
Temperature, K	Activity coefficient of 1-propanol, 2-methyl-	uncertainty
318.15	1.42	.0426
328.15	1.32	.0396
338.15	1.24	.0372
348.15	1.17	.0351
358.15	1.12	.0336
368.15	1.07	.0321

System: tert-butanol + 1-butyl-1-methylpyrrolidinium tricyanomethanide; phases: Liquid
Fixed: Pressure, kPa = 101
Fixed: Mole fraction of tert-butanol = 0
Property: Activity coefficient of tert-butanol (Liquid); method: Chromatography
Temperature, K	Activity coefficient of tert-butanol	uncertainty
318.15	1.3	.039
328.15	1.23	.0369
338.15	1.18	.0354
348.15	1.14	.0342
358.15	1.11	.0333
368.15	1.09	.0327

System: water + 1-butyl-1-methylpyrrolidinium tricyanomethanide; phases: Liquid
Fixed: Pressure, kPa = 101
Fixed: Mole fraction of water = 0
Property: Activity coefficient of water (Liquid); method: Chromatography
Temperature, K	Activity coefficient of water	uncertainty
318.15	.973	.02919
328.15	.922	.02766
338.15	.884	.02652
348.15	.833	.02499
358.15	.801	.02403
368.15	.77	.0231

System: thiophene + 1-butyl-1-methylpyrrolidinium tricyanomethanide; phases: Liquid
Fixed: Pressure, kPa = 101
Fixed: Mole fraction of thiophene = 0
Property: Activity coefficient of thiophene (Liquid); method: Chromatography
Temperature, K	Activity coefficient of thiophene	uncertainty
318.15	.709	.02127
328.15	.73	.0219
338.15	.752	.02256
348.15	.773	.02319
358.15	.794	.02382
368.15	.821	.02463

System: oxolane + 1-butyl-1-methylpyrrolidinium tricyanomethanide; phases: Liquid
Fixed: Pressure, kPa = 101
Fixed: Mole fraction of oxolane = 0
Property: Activity coefficient of oxolane (Liquid); method: Chromatography
Temperature, K	Activity coefficient of oxolane	uncertainty
318.15	.848	.02544
328.15	.868	.02604
338.15	.89	.0267
348.15	.911	.02733
358.15	.934	.02802
368.15	.952	.02856

System: 1,4-dioxane + 1-butyl-1-methylpyrrolidinium tricyanomethanide; phases: Liquid
Fixed: Pressure, kPa = 101
Fixed: Mole fraction of 1,4-dioxane = 0
Property: Activity coefficient of 1,4-dioxane (Liquid); method: Chromatography
Temperature, K	Activity coefficient of 1,4-dioxane	uncertainty
318.15	.642	.01926
328.15	.669	.02007
338.15	.697	.02091
348.15	.721	.02163
358.15	.745	.02235
368.15	.768	.02304

System: methyl tert-butyl ether + 1-butyl-1-methylpyrrolidinium tricyanomethanide; phases: Liquid
Fixed: Pressure, kPa = 101
Fixed: Mole fraction of methyl tert-butyl ether = 0
Property: Activity coefficient of methyl tert-butyl ether (Liquid); method: Chromatography
Temperature, K	Activity coefficient of methyl tert-butyl ether	uncertainty
318.15	3.45	.1035
328.15	3.52	.1056
338.15	3.56	.1068
348.15	3.58	.1074
358.15	3.62	.1086
368.15	3.69	.1107

System: methyl tert-pentyl ether + 1-butyl-1-methylpyrrolidinium tricyanomethanide; phases: Liquid
Fixed: Pressure, kPa = 101
Fixed: Mole fraction of methyl tert-pentyl ether = 0
Property: Activity coefficient of methyl tert-pentyl ether (Liquid); method: Chromatography
Temperature, K	Activity coefficient of methyl tert-pentyl ether	uncertainty
318.15	4.83	.1449
328.15	4.89	.1467
338.15	4.9	.147
348.15	4.88	.1464
358.15	4.89	.1467
368.15	4.91	.1473

System: tert-butyl ethyl ether + 1-butyl-1-methylpyrrolidinium tricyanomethanide; phases: Liquid
Fixed: Pressure, kPa = 101
Fixed: Mole fraction of tert-butyl ethyl ether = 0
Property: Activity coefficient of tert-butyl ethyl ether (Liquid); method: Chromatography
Temperature, K	Activity coefficient of tert-butyl ethyl ether	uncertainty
318.15	8.44	.2532
328.15	8.39	.2517
338.15	8.31	.2493
348.15	8.16	.2448
358.15	8.09	.2427
368.15	8.02	.2406

System: diethyl ether + 1-butyl-1-methylpyrrolidinium tricyanomethanide; phases: Liquid
Fixed: Pressure, kPa = 101
Fixed: Mole fraction of diethyl ether = 0
Property: Activity coefficient of diethyl ether (Liquid); method: Chromatography
Temperature, K	Activity coefficient of diethyl ether	uncertainty
318.15	3.34	.1002
328.15	3.37	.1011
338.15	3.38	.1014
348.15	3.37	.1011
358.15	3.39	.1017
368.15	3.4	.102

System: dipropyl ether + 1-butyl-1-methylpyrrolidinium tricyanomethanide; phases: Liquid
Fixed: Pressure, kPa = 101
Fixed: Mole fraction of dipropyl ether = 0
Property: Activity coefficient of dipropyl ether (Liquid); method: Chromatography
Temperature, K	Activity coefficient of dipropyl ether	uncertainty
318.15	8.43	.2529
328.15	8.33	.2499
338.15	8.16	.2448
348.15	7.97	.2391
358.15	7.82	.2346
368.15	7.73	.2319

System: diisopropyl ether + 1-butyl-1-methylpyrrolidinium tricyanomethanide; phases: Liquid
Fixed: Pressure, kPa = 101
Fixed: Mole fraction of diisopropyl ether = 0
Property: Activity coefficient of diisopropyl ether (Liquid); method: Chromatography
Temperature, K	Activity coefficient of diisopropyl ether	uncertainty
318.15	8.99	.2697
328.15	9.02	.2706
338.15	8.91	.2673
348.15	8.79	.2637
358.15	8.63	.2589
368.15	8.57	.2571

System: dibutyl ether + 1-butyl-1-methylpyrrolidinium tricyanomethanide; phases: Liquid
Fixed: Pressure, kPa = 101
Fixed: Mole fraction of dibutyl ether = 0
Property: Activity coefficient of dibutyl ether (Liquid); method: Chromatography
Temperature, K	Activity coefficient of dibutyl ether	uncertainty
318.15	17.3	.519
328.15	16.7	.501
338.15	16.1	.483
348.15	15.5	.465
358.15	14.9	.447
368.15	14.4	.432

System: acetone + 1-butyl-1-methylpyrrolidinium tricyanomethanide; phases: Liquid
Fixed: Pressure, kPa = 101
Fixed: Mole fraction of acetone = 0
Property: Activity coefficient of acetone (Liquid); method: Chromatography
Temperature, K	Activity coefficient of acetone	uncertainty
318.15	.624	.01872
328.15	.639	.01917
338.15	.65	.0195
348.15	.662	.01986
358.15	.675	.02025
368.15	.687	.02061

System: 2-pentanone + 1-butyl-1-methylpyrrolidinium tricyanomethanide; phases: Liquid
Fixed: Pressure, kPa = 101
Fixed: Mole fraction of 2-pentanone = 0
Property: Activity coefficient of 2-pentanone (Liquid); method: Chromatography
Temperature, K	Activity coefficient of 2-pentanone	uncertainty
318.15	1.03	.0309
328.15	1.05	.0315
338.15	1.08	.0324
348.15	1.1	.033
358.15	1.12	.0336
368.15	1.14	.0342

System: 3-pentanone + 1-butyl-1-methylpyrrolidinium tricyanomethanide; phases: Liquid
Fixed: Pressure, kPa = 101
Fixed: Mole fraction of 3-pentanone = 0
Property: Activity coefficient of 3-pentanone (Liquid); method: Chromatography
Temperature, K	Activity coefficient of 3-pentanone	uncertainty
318.15	1	.03
328.15	1.03	.0309
338.15	1.06	.0318
348.15	1.08	.0324
358.15	1.11	.0333
368.15	1.13	.0339

System: methyl acetate + 1-butyl-1-methylpyrrolidinium tricyanomethanide; phases: Liquid
Fixed: Pressure, kPa = 101
Fixed: Mole fraction of methyl acetate = 0
Property: Activity coefficient of methyl acetate (Liquid); method: Chromatography
Temperature, K	Activity coefficient of methyl acetate	uncertainty
318.15	1	.03
328.15	1.02	.0306
338.15	1.04	.0312
348.15	1.06	.0318
358.15	1.08	.0324
368.15	1.09	.0327

System: ethyl acetate + 1-butyl-1-methylpyrrolidinium tricyanomethanide; phases: Liquid
Fixed: Pressure, kPa = 101
Fixed: Mole fraction of ethyl acetate = 0
Property: Activity coefficient of ethyl acetate (Liquid); method: Chromatography
Temperature, K	Activity coefficient of ethyl acetate	uncertainty
318.15	1.41	.0423
328.15	1.43	.0429
338.15	1.46	.0438
348.15	1.47	.0441
358.15	1.5	.045
368.15	1.53	.0459

System: methyl propanoate + 1-butyl-1-methylpyrrolidinium tricyanomethanide; phases: Liquid
Fixed: Pressure, kPa = 101
Fixed: Mole fraction of methyl propanoate = 0
Property: Activity coefficient of methyl propanoate (Liquid); method: Chromatography
Temperature, K	Activity coefficient of methyl propanoate	uncertainty
318.15	1.24	.0372
328.15	1.27	.0381
338.15	1.3	.039
348.15	1.32	.0396
358.15	1.35	.0405
368.15	1.38	.0414

System: methyl butanoate + 1-butyl-1-methylpyrrolidinium tricyanomethanide; phases: Liquid
Fixed: Pressure, kPa = 101
Fixed: Mole fraction of methyl butanoate = 0
Property: Activity coefficient of methyl butanoate (Liquid); method: Chromatography
Temperature, K	Activity coefficient of methyl butanoate	uncertainty
318.15	1.69	.0507
328.15	1.72	.0516
338.15	1.76	.0528
348.15	1.79	.0537
358.15	1.82	.0546
368.15	1.85	.0555

System: butanal + 1-butyl-1-methylpyrrolidinium tricyanomethanide; phases: Liquid
Fixed: Pressure, kPa = 101
Fixed: Mole fraction of butanal = 0
Property: Activity coefficient of butanal (Liquid); method: Chromatography
Temperature, K	Activity coefficient of butanal	uncertainty
318.15	.907	.02721
328.15	.93	.0279
338.15	.949	.02847
348.15	.968	.02904
358.15	.986	.02958
368.15	1.01	.0303

System: acetonitrile + 1-butyl-1-methylpyrrolidinium tricyanomethanide; phases: Liquid
Fixed: Pressure, kPa = 101
Fixed: Mole fraction of acetonitrile = 0
Property: Activity coefficient of acetonitrile (Liquid); method: Chromatography
Temperature, K	Activity coefficient of acetonitrile	uncertainty
318.15	.558	.01674
328.15	.563	.01689
338.15	.566	.01698
348.15	.569	.01707
358.15	.572	.01716
368.15	.576	.01728

System: pyridine + 1-butyl-1-methylpyrrolidinium tricyanomethanide; phases: Liquid
Fixed: Pressure, kPa = 101
Fixed: Mole fraction of pyridine = 0
Property: Activity coefficient of pyridine (Liquid); method: Chromatography
Temperature, K	Activity coefficient of pyridine	uncertainty
318.15	.567	.01701
328.15	.58	.0174
338.15	.592	.01776
348.15	.603	.01809
358.15	.617	.01851
368.15	.627	.01881

System: 1-nitropropane + 1-butyl-1-methylpyrrolidinium tricyanomethanide; phases: Liquid
Fixed: Pressure, kPa = 101
Fixed: Mole fraction of 1-nitropropane = 0
Property: Activity coefficient of 1-nitropropane (Liquid); method: Chromatography
Temperature, K	Activity coefficient of 1-nitropropane	uncertainty
328.15	.742	.02226
338.15	.752	.02256
348.15	.762	.02286
358.15	.772	.02316
368.15	.782	.02346
