Measured thermophysical data. Thermodynamics of mixtures containing amines. XI. Liquid + liquid equilibria and molar excess enthalpies at 298.15 K for N-methylaniline + hydrocarbon systems. Characterization in terms of DISQUAC and ERAS models
Source: J. Chem. Thermodyn., 2013, 10.1016/j.jct.2012.07.006
Compound 1: N-phenylmethylamine, C7H9N, purity 98%
Compound 2: heptane, C7H16, purity 99.5%
Compound 3: n-octane, C8H18, purity 99%
Compound 4: n-decane, C10H22, purity 98%
Compound 5: tetradecane, C14H30, purity 99.5%
Compound 6: cetane, C16H34, purity 99%
Compound 7: cyclohexane, C6H12, purity 99.5%
Compound 8: phenylmethane, C7H8, purity 90.7%

System: N-phenylmethylamine; phases: Liquid
Fixed: Pressure, kPa = 101.325
Property: Mass density, kg/m3 (Liquid); method: Pycnometric method
Temperature, K	Mass density, kg/m3	uncertainty
298.15	982.237	10

System: heptane; phases: Liquid
Fixed: Pressure, kPa = 101.325
Property: Mass density, kg/m3 (Liquid); method: Pycnometric method
Temperature, K	Mass density, kg/m3	uncertainty
298.15	679.71	10

System: n-octane; phases: Liquid
Fixed: Pressure, kPa = 101.325
Property: Mass density, kg/m3 (Liquid); method: Pycnometric method
Temperature, K	Mass density, kg/m3	uncertainty
298.15	698.75	10

System: n-decane; phases: Liquid
Fixed: Pressure, kPa = 101.325
Property: Mass density, kg/m3 (Liquid); method: Pycnometric method
Temperature, K	Mass density, kg/m3	uncertainty
298.15	726.47	10

System: tetradecane; phases: Liquid
Fixed: Pressure, kPa = 101.325
Property: Mass density, kg/m3 (Liquid); method: Pycnometric method
Temperature, K	Mass density, kg/m3	uncertainty
298.15	759.19	10

System: cetane; phases: Liquid
Fixed: Pressure, kPa = 101.325
Property: Mass density, kg/m3 (Liquid); method: Pycnometric method
Temperature, K	Mass density, kg/m3	uncertainty
298.15	769.91	10

System: cyclohexane; phases: Liquid
Fixed: Pressure, kPa = 101.325
Property: Mass density, kg/m3 (Liquid); method: Pycnometric method
Temperature, K	Mass density, kg/m3	uncertainty
298.15	773.96	10

System: phenylmethane; phases: Liquid
Fixed: Pressure, kPa = 101.325
Property: Mass density, kg/m3 (Liquid); method: Pycnometric method
Temperature, K	Mass density, kg/m3	uncertainty
298.15	862.346	10

System: N-phenylmethylamine + tetradecane; phases: Liquid mixture 1, Liquid mixture 2
Fixed: Pressure, kPa = 101
Property: Liquid-liquid equilibrium temperature, K (Liquid mixture 1); method: Visual observation
Mole fraction of N-phenylmethylamine	Liquid-liquid equilibrium temperature, K	uncertainty
.5071	283.85	.05
.5276	284.56	.05
.5365	284.86	.05
.5492	285.21	.05
.5616	285.5	.05
.5787	285.84	.05
.5873	286.12	.05
.6041	286.3	.05
.6298	286.56	.05
.6415	286.68	.05
.6596	286.77	.05
.6739	286.82	.05
.6991	286.89	.05
.7096	286.9	.05
.7231	286.93	.05
.7327	286.92	.05
.7434	286.86	.05
.756	286.8	.05
.7663	286.72	.05
.7772	286.67	.05
.7871	286.59	.05
.8035	286.35	.05
.8168	286.11	.05
.8325	285.62	.05
.8437	285.15	.05
.8636	283.97	.05
.8756	282.99	.05
.8935	280.9	.05

System: N-phenylmethylamine + cetane; phases: Liquid mixture 1, Liquid mixture 2
Fixed: Pressure, kPa = 101
Property: Liquid-liquid equilibrium temperature, K (Liquid mixture 1); method: Visual observation
Mole fraction of N-phenylmethylamine	Liquid-liquid equilibrium temperature, K	uncertainty
.561	289.54	.05
.566	289.67	.05
.5806	290.16	.05
.5913	290.51	.05
.5932	290.52	.05
.5993	290.69	.05
.6119	291.04	.05
.6206	291.27	.05
.6323	291.57	.05
.6392	291.71	.05
.6663	292.03	.05
.6786	292.16	.05
.707	292.35	.05
.7124	292.35	.05
.7137	292.37	.05
.7213	292.38	.05
.738	292.46	.05
.7524	292.48	.05
.7731	292.44	.05
.7835	292.41	.05
.7986	292.3	.05
.8126	292.21	.05
.821	292.1	.05
.8328	291.88	.05
.8481	291.53	.05
.8486	291.45	.05
.8519	291.35	.05
.8551	291.22	.05
.8712	290.48	.05
.8844	289.57	.05

System: N-phenylmethylamine + heptane; phases: Liquid
Fixed: Temperature, K = 298.15
Fixed: Pressure, kPa = 101
Property: Excess molar enthalpy (molar enthalpy of mixing), kJ/mol (Liquid); method: Calvet calorimetry
Mole fraction of N-phenylmethylamine	Excess molar enthalpy (molar enthalpy of mixing), kJ/mol	uncertainty
.102	.818	.00818
.1982	1.292	.01292
.2968	1.539	.01539
.3935	1.654	.01654
.4983	1.676	.01676
.5982	1.6	.016
.6934	1.439	.01439
.7941	1.126	.01126
.8939	.679	.00679

System: N-phenylmethylamine + n-octane; phases: Liquid
Fixed: Temperature, K = 298.15
Fixed: Pressure, kPa = 101
Property: Excess molar enthalpy (molar enthalpy of mixing), kJ/mol (Liquid); method: Calvet calorimetry
Mole fraction of N-phenylmethylamine	Excess molar enthalpy (molar enthalpy of mixing), kJ/mol	uncertainty
.1045	.853	.00853
.2002	1.346	.01346
.303	1.624	.01624
.4117	1.755	.01755
.4956	1.774	.01774
.5965	1.694	.01694
.6933	1.51	.0151
.791	1.192	.01192
.889	.769	.00769

System: N-phenylmethylamine + n-decane; phases: Liquid
Fixed: Temperature, K = 298.15
Fixed: Pressure, kPa = 101
Property: Excess molar enthalpy (molar enthalpy of mixing), kJ/mol (Liquid); method: Calvet calorimetry
Mole fraction of N-phenylmethylamine	Excess molar enthalpy (molar enthalpy of mixing), kJ/mol	uncertainty
.1015	.881	.00881
.201	1.422	.01422
.2993	1.73	.0173
.3848	1.875	.01875
.487	1.918	.01918
.5963	1.84	.0184
.6951	1.651	.01651
.7934	1.321	.01321
.8899	.857	.00857

System: N-phenylmethylamine + cyclohexane; phases: Liquid
Fixed: Temperature, K = 298.15
Fixed: Pressure, kPa = 101
Property: Excess molar enthalpy (molar enthalpy of mixing), kJ/mol (Liquid); method: Calvet calorimetry
Mole fraction of N-phenylmethylamine	Excess molar enthalpy (molar enthalpy of mixing), kJ/mol	uncertainty
.0978	.826	.00826
.1987	1.296	.01296
.2934	1.521	.01521
.4002	1.611	.01611
.4937	1.628	.01628
.5934	1.538	.01538
.6935	1.308	.01308
.7953	.972	.00972
.8938	.568	.00568

System: N-phenylmethylamine + phenylmethane; phases: Liquid
Fixed: Temperature, K = 298.15
Fixed: Pressure, kPa = 101
Property: Excess molar enthalpy (molar enthalpy of mixing), kJ/mol (Liquid); method: Calvet calorimetry
Mole fraction of N-phenylmethylamine	Excess molar enthalpy (molar enthalpy of mixing), kJ/mol	uncertainty
.0991	.224	.00224
.1956	.368	.00368
.2952	.459	.00459
.399	.5	.005
.4973	.497	.00497
.5922	.465	.00465
.6882	.387	.00387
.7892	.287	.00287
.8851	.166	.00166
