Measured thermophysical data. (Vapour + liquid) equilibria for binary and ternary mixtures of 2-propanol,  tetrahydropyran, and 2,2,4-trimethylpentane at P = 101.3 kPa
Source: J. Chem. Thermodyn., 2012, 10.1016/j.jct.2011.10.025
Compound 1: 2-propanol, C3H8O, purity 99.5%
Compound 2: oxane, C5H10O, purity 99%
Compound 3: isooctane, C8H18, purity 99%

System: 2-propanol; phases: Liquid
Fixed: Pressure, kPa = 101.325
Property: Mass density, kg/m3 (Liquid); method: Vibrating tube method
Temperature, K	Mass density, kg/m3	uncertainty
298.15	781.04	.01

System: 2-propanol; phases: Liquid
Fixed: Pressure, kPa = 101.325
Property: Refractive index (Na D-line) (Liquid); method: Standard Abbe refractometry
Temperature, K	Refractive index (Na D-line)	uncertainty
298.15	1.37518	.00002

System: oxane; phases: Liquid
Fixed: Pressure, kPa = 101.325
Property: Mass density, kg/m3 (Liquid); method: Vibrating tube method
Temperature, K	Mass density, kg/m3	uncertainty
298.15	878.84	.01

System: oxane; phases: Liquid
Fixed: Pressure, kPa = 101.325
Property: Refractive index (Na D-line) (Liquid); method: Standard Abbe refractometry
Temperature, K	Refractive index (Na D-line)	uncertainty
298.15	1.41864	.00002

System: isooctane; phases: Liquid
Fixed: Pressure, kPa = 101.325
Property: Mass density, kg/m3 (Liquid); method: Vibrating tube method
Temperature, K	Mass density, kg/m3	uncertainty
298.15	687.75	.01

System: isooctane; phases: Liquid
Fixed: Pressure, kPa = 101.325
Property: Refractive index (Na D-line) (Liquid); method: Standard Abbe refractometry
Temperature, K	Refractive index (Na D-line)	uncertainty
298.15	1.38904	.00002

System: 2-propanol + oxane; phases: Liquid, Gas
Property: Boiling temperature at pressure P, K (Liquid); method: Ebulliometric method (Recirculating still)
Mole fraction of 2-propanol	Pressure, kPa	Boiling temperature at pressure P, K	uncertainty
0	101.3	361.09	.05
.082	101.3	358.71	.05
.162	101.3	357.3	.05
.235	101.3	356.49	.05
.301	101.3	355.94	.05
.373	101.3	355.5	.05
.428	101.3	355.25	.05
.487	101.3	355.04	.05
.549	101.3	354.89	.05
.613	101.3	354.8	.05
.656	101.3	354.78	.05
.709	101.3	354.79	.05
.747	101.3	354.8	.05
.792	101.3	354.86	.05
.827	101.3	354.91	.05
.861	101.3	354.98	.05
.891	101.3	355.05	.05
.916	101.3	355.11	.05
.946	101.3	355.17	.05
.977	101.3	355.3	.05
1	101.3	355.39	.05

System: 2-propanol + oxane; phases: Gas, Liquid
Property: Mole fraction of 2-propanol (Gas); method: Chromatography
Mole fraction of 2-propanol	Pressure, kPa	Mole fraction of 2-propanol	uncertainty
0	101.3	0	.003
.082	101.3	.135	.003
.162	101.3	.234	.003
.235	101.3	.306	.003
.301	101.3	.367	.003
.373	101.3	.425	.003
.428	101.3	.471	.003
.487	101.3	.518	.003
.549	101.3	.569	.003
.613	101.3	.622	.003
.656	101.3	.658	.003
.709	101.3	.704	.003
.747	101.3	.739	.003
.792	101.3	.782	.003
.827	101.3	.815	.003
.861	101.3	.85	.003
.891	101.3	.883	.003
.916	101.3	.91	.003
.946	101.3	.942	.003
.977	101.3	.976	.003
1	101.3	1	.003

System: 2-propanol + oxane; phases: Liquid, Gas
Property: Azeotropic temperature, K (Liquid); method: By X=Y
Pressure, kPa	Azeotropic temperature, K	uncertainty
101.3	354.78	.05

System: 2-propanol + oxane; phases: Liquid, Gas
Property: Azeotropic composition: mole fraction of 2-propanol (Liquid); method: By X=Y
Pressure, kPa	Azeotropic composition: mole fraction of 2-propanol	uncertainty
101.3	.668	.003

System: 2-propanol + isooctane; phases: Liquid, Gas
Property: Boiling temperature at pressure P, K (Liquid); method: Ebulliometric method (Recirculating still)
Mole fraction of 2-propanol	Pressure, kPa	Boiling temperature at pressure P, K	uncertainty
0	101.3	372.37	.05
.053	101.3	361.23	.05
.073	101.3	358.96	.05
.098	101.3	356.86	.05
.138	101.3	354.77	.05
.175	101.3	353.35	.05
.246	101.3	351.8	.05
.366	101.3	350.57	.05
.432	101.3	350.23	.05
.521	101.3	349.99	.05
.533	101.3	349.96	.05
.549	101.3	349.93	.05
.608	101.3	349.65	.05
.64	101.3	349.69	.05
.693	101.3	349.85	.05
.735	101.3	349.95	.05
.787	101.3	350.17	.05
.805	101.3	350.39	.05
.911	101.3	351.74	.05
.953	101.3	353.17	.05
1	101.3	355.39	.05

System: 2-propanol + isooctane; phases: Gas, Liquid
Property: Mole fraction of 2-propanol (Gas); method: Chromatography
Mole fraction of 2-propanol	Pressure, kPa	Mole fraction of 2-propanol	uncertainty
0	101.3	0	.003
.053	101.3	.31	.003
.073	101.3	.36	.003
.098	101.3	.416	.003
.138	101.3	.468	.003
.175	101.3	.499	.003
.246	101.3	.549	.003
.366	101.3	.581	.003
.432	101.3	.597	.003
.521	101.3	.609	.003
.533	101.3	.613	.003
.549	101.3	.617	.003
.608	101.3	.627	.003
.64	101.3	.634	.003
.693	101.3	.648	.003
.735	101.3	.668	.003
.787	101.3	.692	.003
.805	101.3	.715	.003
.911	101.3	.793	.003
.953	101.3	.875	.003
1	101.3	1	.003

System: 2-propanol + isooctane; phases: Liquid, Gas
Property: Azeotropic temperature, K (Liquid); method: By X=Y
Pressure, kPa	Azeotropic temperature, K	uncertainty
101.3	349.66	.05

System: 2-propanol + isooctane; phases: Liquid, Gas
Property: Azeotropic composition: mole fraction of 2-propanol (Liquid); method: By X=Y
Pressure, kPa	Azeotropic composition: mole fraction of 2-propanol	uncertainty
101.3	.632	.003

System: oxane + isooctane; phases: Liquid, Gas
Property: Boiling temperature at pressure P, K (Liquid); method: Ebulliometric method (Recirculating still)
Mole fraction of oxane	Pressure, kPa	Boiling temperature at pressure P, K	uncertainty
0	101.3	372.37	.05
.078	101.3	371.17	.05
.112	101.3	370.7	.05
.144	101.3	370.27	.05
.192	101.3	369.62	.05
.268	101.3	368.68	.05
.299	101.3	368.31	.05
.376	101.3	367.4	.05
.427	101.3	366.82	.05
.463	101.3	366.41	.05
.499	101.3	366.02	.05
.576	101.3	365.2	.05
.617	101.3	364.78	.05
.662	101.3	364.33	.05
.72	101.3	363.75	.05
.748	101.3	363.47	.05
.805	101.3	362.91	.05
.855	101.3	362.42	.05
.897	101.3	362.02	.05
.951	101.3	361.45	.05
1	101.3	361.09	.05

System: oxane + isooctane; phases: Gas, Liquid
Property: Mole fraction of oxane (Gas); method: Chromatography
Mole fraction of oxane	Pressure, kPa	Mole fraction of oxane	uncertainty
0	101.3	0	.003
.078	101.3	.11	.003
.112	101.3	.151	.003
.144	101.3	.188	.003
.192	101.3	.247	.003
.268	101.3	.333	.003
.299	101.3	.365	.003
.376	101.3	.447	.003
.427	101.3	.498	.003
.463	101.3	.535	.003
.499	101.3	.569	.003
.576	101.3	.652	.003
.617	101.3	.69	.003
.662	101.3	.73	.003
.72	101.3	.777	.003
.748	101.3	.8	.003
.805	101.3	.847	.003
.855	101.3	.886	.003
.897	101.3	.916	.003
.951	101.3	.962	.003
1	101.3	1	.003

System: 2-propanol + oxane + isooctane; phases: Liquid, Gas
Property: Mole fraction of oxane (Liquid); method: Chromatography
Property: Mole fraction of 2-propanol (Gas); method: Chromatography
Property: Mole fraction of oxane (Gas); method: Chromatography
Temperature, K	Pressure, kPa	Mole fraction of 2-propanol	Mole fraction of oxane	uncertainty	Mole fraction of 2-propanol	uncertainty	Mole fraction of oxane	uncertainty
350.93	101.3	.613	.053	.003	.634	.003	.03	.003
351.03	101.3	.487	.048	.003	.601	.003	.025	.003
351.26	101.3	.723	.055	.003	.68	.003	.037	.003
351.67	101.3	.276	.046	.003	.541	.003	.025	.003
352.1	101.3	.506	.154	.003	.604	.003	.096	.003
352.2	101.3	.818	.056	.003	.747	.003	.046	.003
352.25	101.3	.621	.157	.003	.652	.003	.108	.003
352.47	101.3	.369	.144	.003	.556	.003	.086	.003
353.07	101.3	.72	.156	.003	.712	.003	.125	.003
353.1	101.3	.493	.251	.003	.592	.003	.175	.003
353.22	101.3	.289	.148	.003	.52	.003	.091	.003
353.27	101.3	.903	.054	.003	.852	.003	.057	.003
353.28	101.3	.381	.244	.003	.542	.003	.162	.003
353.52	101.3	.618	.252	.003	.658	.003	.199	.003
354.1	101.3	.391	.357	.003	.524	.003	.266	.003
354.13	101.3	.503	.357	.003	.585	.003	.283	.003
354.29	101.3	.804	.153	.003	.786	.003	.147	.003
354.33	101.3	.281	.25	.003	.488	.003	.171	.003
354.44	101.3	.7	.251	.003	.715	.003	.225	.003
354.83	101.3	.293	.34	.003	.471	.003	.25	.003
354.88	101.3	.6	.349	.003	.644	.003	.303	.003
354.99	101.3	.187	.164	.003	.449	.003	.113	.003
355.03	101.3	.386	.463	.003	.496	.003	.376	.003
355.45	101.3	.513	.435	.003	.577	.003	.374	.003
355.96	101.3	.29	.452	.003	.439	.003	.36	.003
355.97	101.3	.169	.15	.003	.437	.003	.105	.003
356.33	101.3	.286	.559	.003	.405	.003	.473	.003
356.37	101.3	.393	.557	.003	.475	.003	.484	.003
356.38	101.3	.295	.656	.003	.38	.003	.583	.003
356.56	101.3	.187	.347	.003	.388	.003	.273	.003
356.64	101.3	.16	.25	.003	.392	.003	.192	.003
357.32	101.3	.18	.456	.003	.348	.003	.382	.003
357.41	101.3	.186	.541	.003	.329	.003	.465	.003
357.52	101.3	.197	.636	.003	.311	.003	.563	.003
357.65	101.3	.207	.743	.003	.285	.003	.678	.003
358.86	101.3	.102	.848	.003	.156	.003	.807	.003
358.87	101.3	.096	.745	.003	.175	.003	.706	.003
359.15	101.3	.099	.644	.003	.203	.003	.606	.003
359.56	101.3	.087	.352	.003	.255	.003	.323	.003
359.78	101.3	.091	.443	.003	.237	.003	.412	.003
359.84	101.3	.092	.276	.003	.287	.003	.245	.003
359.88	101.3	.042	.898	.003	.074	.003	.882	.003
360	101.3	.093	.548	.003	.216	.003	.514	.003
360.29	101.3	.044	.784	.003	.094	.003	.778	.003
360.7	101.3	.044	.696	.003	.105	.003	.698	.003
360.95	101.3	.046	.619	.003	.119	.003	.624	.003
361.75	101.3	.048	.53	.003	.138	.003	.535	.003
362.67	101.3	.052	.113	.003	.25	.003	.108	.003
363.08	101.3	.042	.22	.003	.186	.003	.225	.003
364.02	101.3	.039	.194	.003	.18	.003	.201	.003
364.19	101.3	.035	.047	.003	.216	.003	.049	.003
