Measured thermophysical data. Thermodynamic modelling of high salinary phosphate solutions.  I. Binary systems
Source: J. Chem. Thermodyn., 2013, 10.1016/j.jct.2013.05.013
Compound 1: disodium hydrogen phosphate, HNa2O4P, purity 99.99%
Compound 2: sodium dihydrogen phosphate anhydrous, H2NaO4P, purity 99.99%
Compound 3: conclyte P, HK2O4P, purity 99.99%
Compound 4: KDP, H2KO4P, purity 99.995%
Compound 5: water, H2O, purity 99.8%

System: disodium hydrogen phosphate + water; phases: Liquid
Fixed: Pressure, kPa = 101
Fixed: Temperature, K = 298.15
Property: (Relative) activity of water (Liquid); method: Isopiestic method
Molality, mol/kg of disodium hydrogen phosphate	(Relative) activity of water	uncertainty
.7901	.97368	.00014
.5729	.97993	.00011
.3649	.98627	.00007
.1726	.99308	.00004
.7867	.97377	.00014
.6057	.97881	.00011
.4247	.9843	.00008
.2487	.99031	.00005
.7867	.97385	.00014
.4855	.98252	.00009
.2156	.99156	.00004
.7382	.97501	.00013
.5787	.97955	.00011
.4226	.98438	.00008
.2655	.9896	.00006

System: sodium dihydrogen phosphate anhydrous + water; phases: Liquid
Fixed: Pressure, kPa = 101
Fixed: Temperature, K = 298.15
Property: (Relative) activity of water (Liquid); method: Isopiestic method
Molality, mol/kg of sodium dihydrogen phosphate anhydrous	(Relative) activity of water	uncertainty
2.3706	.94104	.00029
1.3237	.96462	.00018
.8172	.97684	.00012
.5225	.98452	.00008
.8907	.97501	.00013
.7116	.97955	.00011
.5256	.98438	.00008
.336	.9896	.00006
1.4037	.96281	.00019
1.1335	.96914	.00016
.7281	.97912	.00011

System: water + conclyte P; phases: Liquid
Fixed: Pressure, kPa = 101
Fixed: Temperature, K = 298.15
Property: (Relative) activity of water (Liquid); method: Isopiestic method
Molality, mol/kg of conclyte P	(Relative) activity of water	uncertainty
.6275	.97616	.00013
.4845	.98122	.0001
.3421	.98641	.00007
.1964	.99188	.00004
.9712	.96419	.00019
.6933	.97385	.00014
.4486	.98252	.00009
.2053	.99156	.00004
1.073	.96056	.0002
.7939	.97032	.00015
.4969	.98074	.0001
.175	.99263	.00004
1.3381	.95129	.00025
1.1346	.95872	.00021
.9071	.96642	.00017
.7363	.97273	.00014
4.0917	.82746	.00072
3.4162	.86332	.0006
2.6903	.89747	.00048
1.8493	.93247	.00033
2.1967	.91855	.00048
1.6788	.93883	.00037
1.0565	.9612	.00024
.6007	.97719	.00014
.2353	.99038	.00006

System: water + KDP; phases: Liquid
Fixed: Pressure, kPa = 101
Fixed: Temperature, K = 298.15
Property: (Relative) activity of water (Liquid); method: Isopiestic method
Molality, mol/kg of KDP	(Relative) activity of water	uncertainty
.8777	.97653	.0001
.6515	.98183	.00008
.4336	.98729	.00006
.2147	.99333	.00003
1.6385	.96056	.00017
1.1612	.97032	.00013
.6975	.98074	.00008
.2398	.99263	.00003
1.7969	.95748	.00018
1.3525	.96629	.00015
.9262	.97451	.00011
.5218	.985	.00007
1.8522	.95643	.00019
1.6745	.95984	.00017
1.0919	.97174	.00012
.4537	.98672	.00006
1.5254	.96281	.00016
1.2153	.96914	.00013
.7637	.97912	.00009
