Measured thermophysical data. Surface and bulk behavior of (dialkylsulfoxides + carbon tetrachloride) mixtures
Source: J. Chem. Thermodyn., 2009, 10.1016/j.jct.2009.06.021
Compound 1: methyl sulfoxide, C2H6OS, purity 99%
Compound 2: carbon tetrachloride, CCl4, purity 99%
Compound 3: diethyl sulfoxide, C4H10OS, purity 99%
Compound 4: dipropyl sulfoxide, C6H14OS, purity 99%
Compound 5: dibutyl sulfoxide, C8H18OS, purity 99%

System: methyl sulfoxide; phases: Liquid
Fixed: Pressure, kPa = 101.325
Property: Mass density, kg/m3 (Liquid); method: Vibrating tube method
Temperature, K	Mass density, kg/m3	uncertainty
298.15	1095.35	.05
303.15	1090.33	.05
308.15	1085.32	.05
313.15	1080.29	.05

System: methyl sulfoxide; phases: Liquid, Air at 1 atmosphere
Property: Surface tension liquid-gas, N/m (Liquid); method: Maximal bubble pressure
Temperature, K	Surface tension liquid-gas, N/m	uncertainty
298.15	.0425	
303.15	.042	
308.15	.0415	
313.15	.041	

System: carbon tetrachloride; phases: Liquid
Fixed: Pressure, kPa = 101.325
Property: Mass density, kg/m3 (Liquid); method: Vibrating tube method
Temperature, K	Mass density, kg/m3	uncertainty
298.15	1584.36	.05
303.15	1574.61	.05
308.15	1564.83	.05
313.15	1554.96	.05

System: carbon tetrachloride; phases: Liquid, Air at 1 atmosphere
Property: Surface tension liquid-gas, N/m (Liquid); method: Maximal bubble pressure
Temperature, K	Surface tension liquid-gas, N/m	uncertainty
298.15	.0242	
303.15	.0237	
308.15	.023	
313.15	.0223	

System: diethyl sulfoxide; phases: Liquid
Fixed: Pressure, kPa = 101.325
Property: Mass density, kg/m3 (Liquid); method: Vibrating tube method
Temperature, K	Mass density, kg/m3	uncertainty
298.15	1009.51	.05
303.15	1005.14	.05
308.15	1000.77	.05
313.15	996.4	.05

System: diethyl sulfoxide; phases: Liquid, Air at 1 atmosphere
Property: Surface tension liquid-gas, N/m (Liquid); method: Maximal bubble pressure
Temperature, K	Surface tension liquid-gas, N/m	uncertainty
298.15	.0346	
303.15	.0343	
308.15	.034	
313.15	.0337	

System: dipropyl sulfoxide; phases: Liquid
Fixed: Pressure, kPa = 101.325
Property: Mass density, kg/m3 (Liquid); method: Vibrating tube method
Temperature, K	Mass density, kg/m3	uncertainty
298.15	957.77	.05
303.15	953.67	.05
308.15	949.58	.05
313.15	945.5	.05

System: dipropyl sulfoxide; phases: Liquid, Air at 1 atmosphere
Property: Surface tension liquid-gas, N/m (Liquid); method: Maximal bubble pressure
Temperature, K	Surface tension liquid-gas, N/m	uncertainty
298.15	.0326	
303.15	.032	
308.15	.0315	
313.15	.031	

System: dibutyl sulfoxide; phases: Liquid
Fixed: Pressure, kPa = 101.325
Property: Mass density, kg/m3 (Liquid); method: Vibrating tube method
Temperature, K	Mass density, kg/m3	uncertainty
313.15	922.34	.05

System: dibutyl sulfoxide; phases: Liquid, Air at 1 atmosphere
Property: Surface tension liquid-gas, N/m (Liquid); method: Maximal bubble pressure
Temperature, K	Surface tension liquid-gas, N/m	uncertainty
313.15	.0285	

System: carbon tetrachloride + methyl sulfoxide; phases: Liquid, Air at 1 atmosphere
Property: Surface tension liquid-gas, N/m (Liquid); method: Maximal bubble pressure
Temperature, K	Mole fraction of carbon tetrachloride	Surface tension liquid-gas, N/m	uncertainty
298.15	.0994	.0386	
298.15	.1969	.0346	
298.15	.2513	.0329	
298.15	.3299	.0308	
298.15	.383	.0297	
298.15	.5159	.0278	
298.15	.6043	.0268	
298.15	.6909	.0259	
298.15	.7493	.0258	
298.15	.8663	.0254	
303.15	.0994	.038	
303.15	.1969	.0342	
303.15	.2513	.0326	
303.15	.3299	.0304	
303.15	.383	.0292	
303.15	.5159	.0271	
303.15	.6043	.0262	
303.15	.6909	.0253	
303.15	.7493	.0251	
303.15	.8663	.0246	
308.15	.0994	.0374	
308.15	.1969	.0334	
308.15	.2513	.0318	
308.15	.3299	.0298	
308.15	.383	.0287	
308.15	.5159	.0266	
308.15	.6043	.0256	
308.15	.6909	.0247	
308.15	.7493	.0245	
308.15	.8663	.0242	
313.15	.0994	.0368	
313.15	.1969	.033	
313.15	.2513	.0314	
313.15	.3299	.0292	
313.15	.383	.0281	
313.15	.5159	.026	
313.15	.6043	.025	
313.15	.6909	.0243	
313.15	.7493	.0239	
313.15	.8663	.0237	

System: carbon tetrachloride + methyl sulfoxide; phases: Liquid
Fixed: Pressure, kPa = 101
Property: Mass density, kg/m3 (Liquid); method: Vibrating tube method
Temperature, K	Mole fraction of carbon tetrachloride	Mass density, kg/m3	uncertainty
298.15	.0674	1141.26	.05
298.15	.101	1163.32	.05
298.15	.1349	1185.11	.05
298.15	.1643	1203.27	.05
298.15	.2133	1232.98	.05
298.15	.3045	1287.19	.05
298.15	.4641	1370.58	.05
298.15	.6022	1433.93	.05
298.15	.7132	1481.07	.05
298.15	.7604	1499.6	.05
298.15	.8683	1539.93	.05
298.15	.913	1555.64	.05
303.15	.0674	1135.93	.05
303.15	.101	1157.83	.05
303.15	.1349	1179.45	.05
303.15	.1643	1197.47	.05
303.15	.2133	1226.93	.05
303.15	.3045	1280.68	.05
303.15	.4641	1363.35	.05
303.15	.6022	1425.99	.05
303.15	.7132	1472.61	.05
303.15	.7604	1490.94	.05
303.15	.8683	1530.74	.05
303.15	.913	1546.21	.05
308.15	.0674	1127.96	.05
308.15	.101	1150.79	.05
308.15	.1349	1172.11	.05
308.15	.1643	1192.66	.05
308.15	.2133	1222.1	.05
308.15	.3045	1273.53	.05
308.15	.4641	1355.26	.05
308.15	.6022	1418.04	.05
308.15	.7132	1464.13	.05
308.15	.7604	1482.25	.05
308.15	.8683	1521.44	.05
308.15	.913	1536.79	.05
313.15	.0499	1116.12	.05
313.15	.101	1146.87	.05
313.15	.1349	1168.13	.05
313.15	.1643	1185.85	.05
313.15	.2133	1214.87	.05
313.15	.3045	1267.49	.05
313.15	.4641	1348.78	.05
313.15	.6022	1410.05	.05
313.15	.7132	1455.61	.05
313.15	.7604	1473.5	.05
313.15	.8683	1512.23	.05
313.15	.913	1527.34	.05

System: carbon tetrachloride + diethyl sulfoxide; phases: Liquid, Air at 1 atmosphere
Property: Surface tension liquid-gas, N/m (Liquid); method: Maximal bubble pressure
Temperature, K	Mole fraction of carbon tetrachloride	Surface tension liquid-gas, N/m	uncertainty
298.15	.1016	.035	
298.15	.218	.0339	
298.15	.3172	.032	
298.15	.4093	.0303	
298.15	.4782	.0291	
298.15	.5102	.0285	
298.15	.6562	.027	
298.15	.7512	.0262	
298.15	.8701	.0253	
298.15	.9419	.0246	
303.15	.1016	.0347	
303.15	.218	.0334	
303.15	.3172	.0315	
303.15	.4093	.0298	
303.15	.4782	.0286	
303.15	.5102	.028	
303.15	.6562	.0265	
303.15	.7512	.0257	
303.15	.8701	.0247	
303.15	.9419	.024	
308.15	.1016	.0341	
308.15	.218	.0327	
308.15	.3172	.0309	
308.15	.4093	.0292	
308.15	.4782	.0281	
308.15	.5102	.0276	
308.15	.6562	.0259	
308.15	.7512	.0251	
308.15	.8701	.0241	
308.15	.9419	.0235	
313.15	.1016	.0336	
313.15	.218	.0321	
313.15	.3172	.0303	
313.15	.4093	.0286	
313.15	.4782	.0276	
313.15	.5102	.0271	
313.15	.6562	.0253	
313.15	.7512	.0245	
313.15	.8701	.0235	
313.15	.9419	.0229	

System: carbon tetrachloride + diethyl sulfoxide; phases: Liquid
Fixed: Pressure, kPa = 101
Property: Mass density, kg/m3 (Liquid); method: Vibrating tube method
Temperature, K	Mole fraction of carbon tetrachloride	Mass density, kg/m3	uncertainty
298.15	.0408	1036.23	.05
298.15	.1065	1074.77	.05
298.15	.2249	1142.65	.05
298.15	.3231	1198.5	.05
298.15	.4567	1273.33	.05
298.15	.7363	1433.49	.05
298.15	.8985	1527.46	.05
298.15	.9533	1558.34	.05
303.15	.0408	1031.26	.05
303.15	.1065	1069.42	.05
303.15	.2249	1137.29	.05
303.15	.3231	1192.67	.05
303.15	.4567	1266.87	.05
303.15	.7363	1425.5	.05
303.15	.8985	1519.07	.05
303.15	.9533	1548.91	.05
308.15	.0408	1024.88	.05
308.15	.1065	1064.04	.05
308.15	.2249	1131.92	.05
308.15	.3231	1186.82	.05
308.15	.4567	1260.4	.05
308.15	.7363	1417.48	.05
308.15	.8985	1509.96	.05
308.15	.9533	1539.42	.05
313.15	.0408	1020.51	.05
313.15	.1065	1058.67	.05
313.15	.2249	1126.55	.05
313.15	.3231	1180.98	.05
313.15	.4567	1253.92	.05
313.15	.7363	1409.44	.05
313.15	.8985	1500.84	.05
313.15	.9533	1529.92	.05

System: carbon tetrachloride + dipropyl sulfoxide; phases: Liquid, Air at 1 atmosphere
Property: Surface tension liquid-gas, N/m (Liquid); method: Maximal bubble pressure
Temperature, K	Mole fraction of carbon tetrachloride	Surface tension liquid-gas, N/m	uncertainty
298.15	.2049	.0312	
298.15	.2998	.0308	
298.15	.4165	.0304	
298.15	.5304	.0296	
298.15	.6109	.0288	
298.15	.7078	.0276	
298.15	.8055	.0263	
298.15	.8995	.0253	
303.15	.2049	.0308	
303.15	.2998	.0304	
303.15	.4165	.0298	
303.15	.5304	.0289	
303.15	.6109	.0281	
303.15	.7078	.0269	
303.15	.8055	.0257	
303.15	.8995	.0247	
308.15	.2049	.0304	
308.15	.2998	.0299	
308.15	.4165	.0293	
308.15	.5304	.0282	
308.15	.6109	.0275	
308.15	.7078	.0262	
308.15	.8055	.0251	
308.15	.8995	.0241	
313.15	.2049	.0299	
313.15	.2998	.0295	
313.15	.4165	.0287	
313.15	.5304	.0277	
313.15	.6109	.0269	
313.15	.7078	.0257	
313.15	.8055	.0245	
313.15	.8995	.0235	

System: carbon tetrachloride + dipropyl sulfoxide; phases: Liquid
Fixed: Pressure, kPa = 101
Property: Mass density, kg/m3 (Liquid); method: Vibrating tube method
Temperature, K	Mole fraction of carbon tetrachloride	Mass density, kg/m3	uncertainty
298.15	.0837	997.89	.05
298.15	.2132	1061.92	.05
298.15	.2784	1097.07	.05
298.15	.4545	1197.46	.05
298.15	.6285	1305.93	.05
298.15	.704	1356.22	.05
298.15	.8468	1461.39	.05
298.15	.8547	1466.95	.05
298.15	.9178	1516.99	.05
298.15	.9588	1550.62	.05
303.15	.0837	993.53	.05
303.15	.2132	1057.03	.05
303.15	.2784	1091.98	.05
303.15	.4545	1191.59	.05
303.15	.6285	1299.22	.05
303.15	.704	1348.94	.05
303.15	.8468	1453.03	.05
303.15	.8547	1458.55	.05
303.15	.9178	1508.02	.05
303.15	.9588	1541.21	.05
308.15	.0837	989.15	.05
308.15	.2132	1052.27	.05
308.15	.2784	1086.9	.05
308.15	.4545	1185.73	.05
308.15	.6285	1292.38	.05
308.15	.704	1341.67	.05
308.15	.8468	1444.65	.05
308.15	.8547	1450.15	.05
308.15	.9178	1499.04	.05
308.15	.9588	1531.83	.05
313.15	.0837	984.79	.05
313.15	.2132	1047.44	.05
313.15	.2784	1081.81	.05
313.15	.4545	1179.84	.05
313.15	.6285	1285.53	.05
313.15	.704	1334.38	.05
313.15	.8468	1436.24	.05
313.15	.8547	1441.7	.05
313.15	.9178	1490.03	.05
313.15	.9588	1522.41	.05

System: carbon tetrachloride + dibutyl sulfoxide; phases: Liquid, Air at 1 atmosphere
Property: Surface tension liquid-gas, N/m (Liquid); method: Maximal bubble pressure
Temperature, K	Mole fraction of carbon tetrachloride	Surface tension liquid-gas, N/m	uncertainty
313.15	.2232	.028	
313.15	.4457	.0273	
313.15	.51	.027	
313.15	.5476	.0267	
313.15	.6539	.0259	
313.15	.7038	.0254	
313.15	.7998	.0245	
313.15	.8962	.0235	

System: carbon tetrachloride + dibutyl sulfoxide; phases: Liquid
Fixed: Pressure, kPa = 101
Property: Mass density, kg/m3 (Liquid); method: Vibrating tube method
Temperature, K	Mole fraction of carbon tetrachloride	Mass density, kg/m3	uncertainty
313.15	.1074	963.82	.05
313.15	.2288	1017.38	.05
313.15	.303	1052.44	.05
313.15	.4057	1106.17	.05
313.15	.4984	1157.99	.05
313.15	.601	1222.74	.05
313.15	.7009	1292.11	.05
313.15	.8019	1370.59	.05
313.15	.8019	1370.59	.05
