Measured thermophysical data. (Liquid + liquid) phase equilibria of binary mixtures 1-butyl-3-methylimidazolium tetrafluoroborate and tert-butanol or 1,2-butanediol
Source: J. Chem. Thermodyn., 2016, 10.1016/j.jct.2015.11.022
Compound 1: 1-butyl-3-methylimidazolium tetrafluoroborate, C8H15BF4N2, purity 99%
Compound 2: tert-butanol, C4H10O, purity 99%
Compound 3: 1,2-butanediol, C4H10O2, purity 99%

System: 1-butyl-3-methylimidazolium tetrafluoroborate; phases: Liquid
Fixed: Wavelength, nm = 632.8
Property: Refractive index (other wavelength) (Liquid); method: Standard Abbe refractometry
Temperature, K	Pressure, kPa	Refractive index (other wavelength)	uncertainty
331.935	116	1.4124	.0001
327.797	116	1.4135	.0001
323.294	116	1.4146	.0001
330.866	116	1.4127	.0001
326.237	116	1.4139	.0001
321.733	116	1.415	.0001
329.297	116	1.4131	.0001
324.943	116	1.4142	.0001
318.776	87	1.4155	.0001
309.839	87	1.4176	.0001
300.909	87	1.4197	.0001
296.237	87	1.4209	.0001
315.782	87	1.4161	.0001
306.875	87	1.4183	.0001
299.364	87	1.4201	.0001
294.732	87	1.4213	.0001
312.822	87	1.4168	.0001
303.85	87	1.4189	.0001
297.809	87	1.4205	.0001
293.183	87	1.4217	.0001

System: tert-butanol; phases: Liquid
Fixed: Wavelength, nm = 632.8
Property: Refractive index (other wavelength) (Liquid); method: Standard Abbe refractometry
Temperature, K	Pressure, kPa	Refractive index (other wavelength)	uncertainty
331.974	116	1.3647	.0001
327.427	116	1.3674	.0001
322.239	116	1.3704	.0001
308.372	116	1.3781	.0001
330.446	116	1.3656	.0001
325.859	116	1.3682	.0001
319.44	116	1.3719	.0001
328.978	116	1.3664	.0001
324.446	116	1.3691	.0001
314.104	116	1.3749	.0001

System: 1,2-butanediol; phases: Liquid
Fixed: Wavelength, nm = 632.8
Property: Refractive index (other wavelength) (Liquid); method: Standard Abbe refractometry
Temperature, K	Pressure, kPa	Refractive index (other wavelength)	uncertainty
305.01	87	1.4331	.0001
295.873	87	1.4361	.0001
291.213	87	1.4377	.0001
285.545	87	1.4397	.0001
302.076	87	1.4341	.0001
294.317	87	1.4366	.0001
289.678	87	1.4382	.0001
284.014	87	1.4401	.0001
298.897	87	1.4351	.0001
292.763	87	1.4371	.0001
288.094	87	1.4388	.0001
281.859	87	1.4409	.0001

System: tert-butanol + 1-butyl-3-methylimidazolium tetrafluoroborate; phases: Liquid mixture 1, Liquid mixture 2, Air at 1 atmosphere
Property: Upper consolute temperature, K (Liquid mixture 1); method: Visual observation
Upper consolute temperature, K	uncertainty
330.543	.05

System: tert-butanol + 1-butyl-3-methylimidazolium tetrafluoroborate; phases: Liquid mixture 1, Liquid mixture 2, Air at 1 atmosphere
Property: Upper consolute composition: mole fraction of 1-butyl-3-methylimidazolium tetrafluoroborate (Liquid mixture 1); method: equal volume method
Upper consolute composition: mole fraction of 1-butyl-3-methylimidazolium tetrafluoroborate	uncertainty
.095	.001

System: tert-butanol + 1-butyl-3-methylimidazolium tetrafluoroborate; phases: Liquid mixture 1, Liquid mixture 2
Fixed: Pressure, kPa = 114
Fixed: Wavelength, nm = 6328
Property: Refractive index (other wavelength) (Liquid mixture 1); method: Standard Abbe refractometry
Temperature, K	Refractive index (other wavelength)	uncertainty
330.541	1.3764	.0001
330.537	1.3761	.0001
330.53	1.3759	.0001
330.525	1.3759	.0001
330.519	1.3758	.0001
330.514	1.3757	.0001
330.51	1.3757	.0001
330.502	1.3756	.0001
330.493	1.3754	.0001
330.485	1.3753	.0001
330.476	1.3752	.0001
330.464	1.3751	.0001
330.444	1.375	.0001
330.428	1.3749	.0001
330.413	1.3748	.0001
330.382	1.3747	.0001
330.338	1.3745	.0001
330.286	1.3744	.0001
330.25	1.3744	.0001
330.186	1.3741	.0001
330.115	1.3739	.0001
330.011	1.3737	.0001
329.916	1.3737	.0001
329.798	1.3734	.0001
329.672	1.3733	.0001
329.558	1.3731	.0001
329.424	1.373	.0001
329.222	1.3729	.0001
328.989	1.3728	.0001
328.754	1.3728	.0001
328.499	1.3728	.0001
328.221	1.3727	.0001
327.904	1.3727	.0001
327.468	1.3727	.0001
327.158	1.3727	.0001
326.847	1.3727	.0001
326.379	1.3728	.0001
326.272	1.3727	.0001
325.652	1.3728	.0001
324.831	1.3731	.0001
323.985	1.3732	.0001
323.142	1.3735	.0001
321.986	1.374	.0001
320.859	1.3744	.0001
319.697	1.3749	.0001

System: tert-butanol + 1-butyl-3-methylimidazolium tetrafluoroborate; phases: Liquid mixture 2, Liquid mixture 1
Fixed: Pressure, kPa = 114
Fixed: Wavelength, nm = 6328
Property: Refractive index (other wavelength) (Liquid mixture 2); method: Standard Abbe refractometry
Temperature, K	Refractive index (other wavelength)	uncertainty
330.541	1.3776	.0001
330.537	1.3777	.0001
330.53	1.378	.0001
330.525	1.3781	.0001
330.519	1.3782	.0001
330.514	1.3782	.0001
330.51	1.3783	.0001
330.502	1.3785	.0001
330.493	1.3788	.0001
330.485	1.3788	.0001
330.476	1.3789	.0001
330.464	1.3789	.0001
330.444	1.3792	.0001
330.428	1.3793	.0001
330.413	1.3794	.0001
330.382	1.3796	.0001
330.338	1.3799	.0001
330.286	1.3801	.0001
330.25	1.3804	.0001
330.186	1.3806	.0001
330.115	1.3809	.0001
330.011	1.3812	.0001
329.916	1.3814	.0001
329.798	1.3817	.0001
329.672	1.3821	.0001
329.558	1.3824	.0001
329.424	1.3825	.0001
329.222	1.3831	.0001
328.989	1.3835	.0001
328.754	1.3839	.0001
328.499	1.3844	.0001
328.221	1.3849	.0001
327.904	1.3854	.0001
327.468	1.3859	.0001
327.158	1.3864	.0001
326.847	1.3869	.0001
326.379	1.3874	.0001
326.272	1.3875	.0001
325.652	1.3881	.0001
324.831	1.3892	.0001
323.985	1.3901	.0001
323.142	1.3911	.0001
321.986	1.3922	.0001
320.859	1.3933	.0001
319.697	1.3944	.0001

System: tert-butanol + 1-butyl-3-methylimidazolium tetrafluoroborate; phases: Liquid mixture 1, Liquid mixture 2
Fixed: Pressure, kPa = 114
Property: Mole fraction of 1-butyl-3-methylimidazolium tetrafluoroborate (Liquid mixture 1); method: Index of refraction calibration data
Temperature, K	Mole fraction of 1-butyl-3-methylimidazolium tetrafluoroborate	uncertainty
330.541	.09	.002
330.537	.087	.002
330.53	.085	.002
330.525	.085	.002
330.519	.084	.002
330.514	.083	.002
330.51	.083	.002
330.502	.082	.002
330.493	.08	.002
330.485	.079	.002
330.476	.078	.002
330.464	.077	.002
330.444	.076	.002
330.428	.075	.002
330.413	.074	.002
330.382	.073	.002
330.338	.071	.002
330.286	.069	.002
330.25	.069	.002
330.186	.066	.002
330.115	.064	.002
330.011	.062	.002
329.916	.061	.002
329.798	.058	.002
329.672	.057	.002
329.558	.054	.002
329.424	.053	.002
329.222	.051	.002
328.989	.049	.002
328.754	.048	.002
328.499	.047	.002
328.221	.045	.002
327.904	.043	.002
327.468	.041	.002
327.158	.04	.002
326.847	.038	.002
326.379	.037	.002
326.272	.036	.002
325.652	.034	.002
324.831	.032	.002
323.985	.029	.002
323.142	.028	.002
321.986	.027	.002
320.859	.025	.002
319.697	.023	.002

System: tert-butanol + 1-butyl-3-methylimidazolium tetrafluoroborate; phases: Liquid mixture 2, Liquid mixture 1
Fixed: Pressure, kPa = 114
Property: Mole fraction of 1-butyl-3-methylimidazolium tetrafluoroborate (Liquid mixture 2); method: Index of refraction calibration data
Temperature, K	Mole fraction of 1-butyl-3-methylimidazolium tetrafluoroborate	uncertainty
330.541	.101	.002
330.537	.102	.002
330.53	.106	.002
330.525	.107	.002
330.519	.108	.002
330.514	.108	.002
330.51	.109	.002
330.502	.111	.002
330.493	.114	.002
330.485	.114	.002
330.476	.115	.002
330.464	.115	.002
330.444	.118	.002
330.428	.119	.002
330.413	.12	.002
330.382	.122	.002
330.338	.125	.002
330.286	.127	.002
330.25	.13	.002
330.186	.132	.002
330.115	.135	.002
330.011	.138	.002
329.916	.139	.002
329.798	.142	.002
329.672	.146	.002
329.558	.149	.002
329.424	.149	.002
329.222	.155	.002
328.989	.159	.002
328.754	.162	.002
328.499	.167	.002
328.221	.172	.002
327.904	.176	.002
327.468	.18	.002
327.158	.184	.002
326.847	.189	.002
326.379	.193	.002
326.272	.193	.002
325.652	.197	.002
324.831	.207	.002
323.985	.215	.002
323.142	.224	.002
321.986	.232	.002
320.859	.241	.002
319.697	.25	.002

System: tert-butanol + 1-butyl-3-methylimidazolium tetrafluoroborate; phases: Liquid
Fixed: Pressure, kPa = 116
Fixed: Wavelength, nm = 6328
Property: Refractive index (other wavelength) (Liquid); method: Standard Abbe refractometry
Mole fraction of 1-butyl-3-methylimidazolium tetrafluoroborate	Temperature, K	Refractive index (other wavelength)	uncertainty
0	331.974	1.3647	.0001
0	327.427	1.3674	.0001
0	322.239	1.3704	.0001
0	308.372	1.3781	.0001
0	330.446	1.3656	.0001
0	325.859	1.3682	.0001
0	319.44	1.3719	.0001
0	328.978	1.3664	.0001
0	324.446	1.3691	.0001
0	314.104	1.3749	.0001
.103	338.651	1.3734	.0001
.103	334.043	1.3756	.0001
.103	337.025	1.3742	.0001
.103	332.746	1.3763	.0001
.103	335.402	1.375	.0001
.103	331.175	1.377	.0001
.2	338.752	1.3821	.0001
.2	335.119	1.3835	.0001
.2	337.728	1.3825	.0001
.2	333.919	1.3839	.0001
.2	336.517	1.383	.0001
.2	332.477	1.3844	.0001
.302	335.617	1.3901	.0001
.302	332.234	1.3913	.0001
.302	334.449	1.3905	.0001
.302	330.998	1.3917	.0001
.302	333.63	1.3908	.0001
.302	329.323	1.3922	.0001
.393	329.503	1.3969	.0001
.393	324.721	1.3985	.0001
.393	327.854	1.3975	.0001
.393	323.153	1.399	.0001
.393	326.305	1.398	.0001
.393	321.613	1.3995	.0001
.499	329.469	1.4014	.0001
.499	324.823	1.4028	.0001
.499	327.984	1.4019	.0001
.499	323.36	1.4032	.0001
.499	326.443	1.4023	.0001
.499	321.736	1.4037	.0001
.599	329.709	1.4046	.0001
.599	325.171	1.4057	.0001
.599	328.124	1.405	.0001
.599	323.646	1.4061	.0001
.599	326.608	1.4054	.0001
.599	322.063	1.4065	.0001
.708	330.531	1.4073	.0001
.708	325.879	1.4086	.0001
.708	328.936	1.4078	.0001
.708	324.491	1.409	.0001
.708	327.321	1.4082	.0001
.708	322.748	1.4094	.0001
.8	328.422	1.41	.0001
.8	324.173	1.4111	.0001
.8	326.979	1.4104	.0001
.8	322.111	1.4116	.0001
.8	325.68	1.4107	.0001
.8	320.422	1.412	.0001
.891	328.396	1.4115	.0001
.891	324.142	1.4127	.0001
.891	326.673	1.412	.0001
.891	322.301	1.4133	.0001
.891	325.374	1.4123	.0001
.891	320.542	1.4138	.0001
1	331.935	1.4124	.0001
1	327.797	1.4135	.0001
1	323.294	1.4146	.0001
1	330.866	1.4127	.0001
1	326.237	1.4139	.0001
1	321.733	1.415	.0001
1	329.297	1.4131	.0001
1	324.943	1.4142	.0001

System: 1,2-butanediol + 1-butyl-3-methylimidazolium tetrafluoroborate; phases: Liquid mixture 1, Liquid mixture 2, Air at 1 atmosphere
Property: Upper consolute temperature, K (Liquid mixture 1); method: Visual observation
Upper consolute temperature, K	uncertainty
298.795	.05

System: 1,2-butanediol + 1-butyl-3-methylimidazolium tetrafluoroborate; phases: Liquid mixture 1, Liquid mixture 2, Air at 1 atmosphere
Property: Upper consolute composition: mole fraction of 1-butyl-3-methylimidazolium tetrafluoroborate (Liquid mixture 1); method: equal volume method
Upper consolute composition: mole fraction of 1-butyl-3-methylimidazolium tetrafluoroborate	uncertainty
.197	.001

System: 1,2-butanediol + 1-butyl-3-methylimidazolium tetrafluoroborate; phases: Liquid mixture 1, Liquid mixture 2
Fixed: Pressure, kPa = 85
Fixed: Wavelength, nm = 6328
Property: Refractive index (other wavelength) (Liquid mixture 1); method: Standard Abbe refractometry
Temperature, K	Refractive index (other wavelength)	uncertainty
298.792	1.43	.0001
298.785	1.4301	.0001
298.766	1.4303	.0001
298.745	1.4305	.0001
298.727	1.4307	.0001
298.707	1.4308	.0001
298.67	1.4309	.0001
298.631	1.431	.0001
298.578	1.4311	.0001
298.5	1.4313	.0001
298.42	1.4315	.0001
298.333	1.4316	.0001
298.258	1.4317	.0001
298.155	1.4318	.0001
298.057	1.4319	.0001
297.959	1.4321	.0001
297.843	1.4322	.0001
297.651	1.4324	.0001
297.444	1.4326	.0001
297.14	1.4329	.0001
296.841	1.4331	.0001
296.439	1.4334	.0001
295.965	1.4338	.0001
295.583	1.4341	.0001
295.159	1.4344	.0001
294.703	1.4347	.0001
294.195	1.4349	.0001
293.652	1.4352	.0001
292.98	1.4356	.0001
292.209	1.436	.0001
291.226	1.4365	.0001
290.071	1.4369	.0001
288.502	1.4376	.0001

System: 1,2-butanediol + 1-butyl-3-methylimidazolium tetrafluoroborate; phases: Liquid mixture 2, Liquid mixture 1
Fixed: Pressure, kPa = 85
Fixed: Wavelength, nm = 6328
Property: Refractive index (other wavelength) (Liquid mixture 2); method: Standard Abbe refractometry
Temperature, K	Refractive index (other wavelength)	uncertainty
298.792	1.4293	.0001
298.785	1.4291	.0001
298.766	1.4289	.0001
298.745	1.4288	.0001
298.727	1.4286	.0001
298.707	1.4285	.0001
298.67	1.4284	.0001
298.631	1.4282	.0001
298.578	1.4281	.0001
298.5	1.4279	.0001
298.42	1.4278	.0001
298.333	1.4277	.0001
298.258	1.4276	.0001
298.155	1.4275	.0001
298.057	1.4274	.0001
297.959	1.4273	.0001
297.843	1.4272	.0001
297.651	1.427	.0001
297.444	1.4269	.0001
297.14	1.4268	.0001
296.841	1.4267	.0001
296.439	1.4266	.0001
295.965	1.4265	.0001
295.583	1.4264	.0001
295.159	1.4264	.0001
294.703	1.4264	.0001
294.195	1.4264	.0001
293.652	1.4264	.0001
292.98	1.4264	.0001
292.209	1.4264	.0001
291.226	1.4265	.0001
290.071	1.4266	.0001
288.502	1.4268	.0001

System: 1,2-butanediol + 1-butyl-3-methylimidazolium tetrafluoroborate; phases: Liquid mixture 1, Liquid mixture 2
Fixed: Pressure, kPa = 85
Property: Mole fraction of 1-butyl-3-methylimidazolium tetrafluoroborate (Liquid mixture 1); method: Index of refraction calibration data
Temperature, K	Mole fraction of 1-butyl-3-methylimidazolium tetrafluoroborate	uncertainty
298.792	.188	.002
298.785	.184	.002
298.766	.176	.002
298.745	.168	.002
298.727	.16	.002
298.707	.156	.002
298.67	.152	.002
298.631	.149	.002
298.578	.146	.002
298.5	.139	.002
298.42	.132	.002
298.333	.129	.002
298.258	.126	.002
298.155	.124	.002
298.057	.121	.002
297.959	.114	.002
297.843	.112	.002
297.651	.107	.002
297.444	.102	.002
297.14	.095	.002
296.841	.091	.002
296.439	.085	.002
295.965	.076	.002
295.583	.07	.002
295.159	.065	.002
294.703	.059	.002
294.195	.058	.002
293.652	.054	.002
292.98	.049	.002
292.209	.044	.002
291.226	.038	.002
290.071	.038	.002
288.502	.033	.002

System: 1,2-butanediol + 1-butyl-3-methylimidazolium tetrafluoroborate; phases: Liquid mixture 2, Liquid mixture 1
Fixed: Pressure, kPa = 85
Property: Mole fraction of 1-butyl-3-methylimidazolium tetrafluoroborate (Liquid mixture 2); method: Index of refraction calibration data
Temperature, K	Mole fraction of 1-butyl-3-methylimidazolium tetrafluoroborate	uncertainty
298.792	.218	.002
298.785	.227	.002
298.766	.237	.002
298.745	.242	.002
298.727	.251	.002
298.707	.256	.002
298.67	.261	.002
298.631	.271	.002
298.578	.277	.002
298.5	.288	.002
298.42	.294	.002
298.333	.301	.002
298.258	.307	.002
298.155	.313	.002
298.057	.32	.002
297.959	.327	.002
297.843	.334	.002
297.651	.348	.002
297.444	.357	.002
297.14	.368	.002
296.841	.379	.002
296.439	.391	.002
295.965	.406	.002
295.583	.419	.002
295.159	.427	.002
294.703	.435	.002
294.195	.445	.002
293.652	.456	.002
292.98	.469	.002
292.209	.484	.002
291.226	.498	.002
290.071	.515	.002
288.502	.534	.002

System: 1,2-butanediol + 1-butyl-3-methylimidazolium tetrafluoroborate; phases: Liquid
Fixed: Pressure, kPa = 87
Fixed: Wavelength, nm = 6328
Property: Refractive index (other wavelength) (Liquid); method: Standard Abbe refractometry
Mole fraction of 1-butyl-3-methylimidazolium tetrafluoroborate	Temperature, K	Refractive index (other wavelength)	uncertainty
0	305.01	1.4331	.0001
0	295.873	1.4361	.0001
0	291.213	1.4377	.0001
0	285.545	1.4397	.0001
0	302.076	1.4341	.0001
0	294.317	1.4366	.0001
0	289.678	1.4382	.0001
0	284.014	1.4401	.0001
0	298.897	1.4351	.0001
0	292.763	1.4371	.0001
0	288.094	1.4388	.0001
0	281.859	1.4409	.0001
.1	307.609	1.4293	.0001
.1	303.027	1.4308	.0001
.1	306.072	1.4298	.0001
.1	301.42	1.4314	.0001
.1	304.551	1.4303	.0001
.1	299.89	1.4319	.0001
.2	307.61	1.4267	.0001
.2	303.067	1.4283	.0001
.2	306.029	1.4273	.0001
.2	301.542	1.4288	.0001
.2	304.505	1.4278	.0001
.2	299.918	1.4293	.0001
.3	308.743	1.4244	.0001
.3	304.039	1.4258	.0001
.3	307.206	1.4249	.0001
.3	302.323	1.4264	.0001
.3	305.665	1.4253	.0001
.3	300.818	1.4268	.0001
.4	304.039	1.4241	.0001
.4	299.36	1.4255	.0001
.4	302.427	1.4246	.0001
.4	297.81	1.426	.0001
.4	300.904	1.4251	.0001
.4	296.262	1.4264	.0001
.496	302.627	1.4231	.0001
.496	301.168	1.4235	.0001
.496	299.673	1.424	.0001
.496	298.073	1.4245	.0001
.496	296.482	1.425	.0001
.496	295.02	1.4254	.0001
.601	301.168	1.4223	.0001
.601	296.469	1.4235	.0001
.601	299.526	1.4227	.0001
.601	294.966	1.4239	.0001
.601	297.917	1.4231	.0001
.601	293.374	1.4244	.0001
.699	302.231	1.4209	.0001
.699	297.542	1.4222	.0001
.699	300.68	1.4213	.0001
.699	295.977	1.4226	.0001
.699	299.112	1.4218	.0001
.699	294.529	1.423	.0001
.799	300.909	1.4206	.0001
.799	296.308	1.4218	.0001
.799	299.386	1.421	.0001
.799	294.76	1.4222	.0001
.799	297.876	1.4214	.0001
.799	293.729	1.4225	.0001
.901	300.681	1.4201	.0001
.901	295.988	1.4213	.0001
.901	299.095	1.4205	.0001
.901	294.469	1.4217	.0001
.901	297.54	1.4209	.0001
.901	292.837	1.4221	.0001
1	318.776	1.4155	.0001
1	309.839	1.4176	.0001
1	300.909	1.4197	.0001
1	296.237	1.4209	.0001
1	315.782	1.4161	.0001
1	306.875	1.4183	.0001
1	299.364	1.4201	.0001
1	294.732	1.4213	.0001
1	312.822	1.4168	.0001
1	303.85	1.4189	.0001
1	297.809	1.4205	.0001
1	293.183	1.4217	.0001
