Measured thermophysical data. An anion effect on the separation of AgI-containing melts using sound waves
Source: J. Chem. Thermodyn., 2015, 10.1016/j.jct.2015.03.022
Compound 1: silver iodide, AgI, purity .99%
Compound 2: lithium bromide, BrLi, purity 99.5%
Compound 3: lithium fluoride, FLi, purity 99.5%

System: silver iodide; phases: Crystal, Liquid, Air at 1 atmosphere
Property: Normal melting temperature, K (Crystal); method: DSC/DTA
Normal melting temperature, K	uncertainty
832	.5

System: lithium bromide; phases: Crystal, Liquid, Air at 1 atmosphere
Property: Normal melting temperature, K (Crystal); method: DSC/DTA
Normal melting temperature, K	uncertainty
824	.5

System: lithium fluoride; phases: Crystal, Liquid, Air at 1 atmosphere
Property: Normal melting temperature, K (Crystal); method: DSC/DTA
Normal melting temperature, K	uncertainty
1117	.5

System: lithium bromide + silver iodide; phases: Liquid mixture 1, Liquid mixture 2
Fixed: Pressure, kPa = 98.9
Fixed: Frequency, MHz = 5
Property: Speed of sound, m/s (Liquid mixture 1); method: Pulse-echo method
Temperature, K	Speed of sound, m/s	uncertainty
850	1137	2
867	1140	2
891	1148	2
912	1158	2
931	1171	2
948	1181	2
950	1187	2
959	1191	2
967	1201	2
968	1205	2
973	1208	2
979	1218	2
982	1221	2
987	1223	2

System: lithium bromide + silver iodide; phases: Liquid mixture 2, Liquid mixture 1
Fixed: Pressure, kPa = 98.9
Fixed: Frequency, MHz = 5
Property: Speed of sound, m/s (Liquid mixture 2); method: Pulse-echo method
Temperature, K	Speed of sound, m/s	uncertainty
850	1450	2
867	1440	2
891	1428	2
912	1414	2
931	1397	2
948	1376	2
950	1360	2
959	1346	2
967	1307	2
968	1294	2
973	1273	2
979	1250	2
982	1234	2
987	1223	2

System: silver iodide + lithium fluoride; phases: Liquid mixture 1, Liquid mixture 2
Fixed: Pressure, kPa = 98.9
Fixed: Frequency, MHz = 5
Property: Speed of sound, m/s (Liquid mixture 1); method: Pulse-echo method
Temperature, K	Speed of sound, m/s	uncertainty
1130	1021	2
1139	1017	2
1146	1015	2
1158	1010	2
1170	1006	2
1182	1001	2
1193	997	2
1205	992	2
1218	988	2

System: silver iodide + lithium fluoride; phases: Liquid mixture 2, Liquid mixture 1
Fixed: Pressure, kPa = 98.9
Fixed: Frequency, MHz = 5
Property: Speed of sound, m/s (Liquid mixture 2); method: Pulse-echo method
Temperature, K	Speed of sound, m/s	uncertainty
1130	2553	2
1139	2542	2
1146	2536	2
1158	2520	2
1170	2507	2
1182	2490	2
1193	2478	2
1205	2465	2
1218	2447	2
