Measured thermophysical data. Excess parameters of binary mixtures of anisaldehyde with o-cresol, m-cresol and p-cresol at T = (303.15, 308.15, 313.15, and 318.15) K
Source: J. Chem. Thermodyn., 2011, 10.1016/j.jct.2011.05.018
Compound 1: phenol, 2-methyl-, C7H8O, purity 99%
Compound 2: phenol, 3-methyl-, C7H8O, purity 99%
Compound 3: 1-hydroxy-4-methylbenzene, C7H8O, purity 98%
Compound 4: 4-methoxybenzaldehyde, C8H8O2, purity 99%

System: phenol, 2-methyl- + 4-methoxybenzaldehyde; phases: Liquid
Fixed: Pressure, kPa = 101
Property: Mass density, kg/m3 (Liquid); method: Pycnometric method
Temperature, K	Mole fraction of 4-methoxybenzaldehyde	Mass density, kg/m3	uncertainty
303.15	0	1036.2	5.181
303.15	.0875	1039.2	5.196
303.15	.1774	1044.2	5.221
303.15	.2699	1050.1	5.2505
303.15	.3651	1058.5	5.2925
303.15	.4631	1067.1	5.3355
303.15	.564	1074.3	5.3715
303.15	.668	1081.3	5.4065
303.15	.7753	1093.2	5.466
303.15	.8859	1106.6	5.533
303.15	1	1125.2	5.626
308.15	0	1031	5.155
308.15	.0875	1033.8	5.169
308.15	.1774	1038.2	5.191
308.15	.2699	1043.4	5.217
308.15	.3651	1050.6	5.253
308.15	.4631	1058.4	5.292
308.15	.564	1065	5.325
308.15	.668	1071.5	5.3575
308.15	.7753	1082.8	5.414
308.15	.8859	1095.3	5.4765
308.15	1	1111.6	5.558
313.15	0	1026	5.13
313.15	.0875	1030.2	5.151
313.15	.1774	1034.7	5.1735
313.15	.2699	1040.9	5.2045
313.15	.3651	1047.3	5.2365
313.15	.4631	1055.4	5.277
313.15	.564	1062.1	5.3105
313.15	.668	1070	5.35
313.15	.7753	1082.1	5.4105
313.15	.8859	1094.9	5.4745
313.15	1	1109.5	5.5475
318.15	0	1021.1	5.1055
318.15	.0875	1026.3	5.1315
318.15	.1774	1031.9	5.1595
318.15	.2699	1038.3	5.1915
318.15	.3651	1044.3	5.2215
318.15	.4631	1052.8	5.264
318.15	.564	1059.5	5.2975
318.15	.668	1067.7	5.3385
318.15	.7753	1078.8	5.394
318.15	.8859	1090.1	5.4505
318.15	1	1104.7	5.5235

System: phenol, 2-methyl- + 4-methoxybenzaldehyde; phases: Liquid
Fixed: Pressure, kPa = 101
Property: Speed of sound, m/s (Liquid); method: Pulse-echo method
Temperature, K	Mole fraction of 4-methoxybenzaldehyde	Speed of sound, m/s	uncertainty
303.15	0	1485.26	.5
303.15	.0875	1507.73	.5
303.15	.1774	1526.31	.5
303.15	.2699	1545.47	.5
303.15	.3651	1564.95	.5
303.15	.4631	1585.18	.5
303.15	.564	1611.2	.5
303.15	.668	1636.95	.5
303.15	.7753	1658.89	.5
303.15	.8859	1681.53	.5
303.15	1	1694.33	.5
308.15	0	1466.84	.5
308.15	.0875	1488.32	.5
308.15	.1774	1506.25	.5
308.15	.2699	1524.86	.5
308.15	.3651	1544.16	.5
308.15	.4631	1564	.5
308.15	.564	1589.36	.5
308.15	.668	1613.75	.5
308.15	.7753	1635.18	.5
308.15	.8859	1657.24	.5
308.15	1	1670.67	.5
313.15	0	1452.11	.5
313.15	.0875	1470.66	.5
313.15	.1774	1486.31	.5
313.15	.2699	1502.61	.5
313.15	.3651	1519.57	.5
313.15	.4631	1536.91	.5
313.15	.564	1560.32	.5
313.15	.668	1580.05	.5
313.15	.7753	1598.08	.5
313.15	.8859	1617.57	.5
313.15	1	1631.33	.5
318.15	0	1437.06	.5
318.15	.0875	1449.57	.5
318.15	.1774	1460.09	.5
318.15	.2699	1470.9	.5
318.15	.3651	1482.2	.5
318.15	.4631	1493.86	.5
318.15	.564	1511.27	.5
318.15	.668	1524.32	.5
318.15	.7753	1536.56	.5
318.15	.8859	1549.5	.5
318.15	1	1557	.5

System: phenol, 2-methyl- + 4-methoxybenzaldehyde; phases: Liquid
Fixed: Pressure, kPa = 101
Property: Viscosity, Pa*s (Liquid); method: Capillary tube (Ostwald; Ubbelohde) method
Temperature, K	Mole fraction of 4-methoxybenzaldehyde	Viscosity, Pa*s	uncertainty
303.15	0	.0074791	.000001
303.15	.0875	.0071628	.000001
303.15	.1774	.0068243	.000001
303.15	.2699	.0065188	.000001
303.15	.3651	.0062016	.000001
303.15	.4631	.005778	.000001
303.15	.564	.0053187	.000001
303.15	.668	.0048115	.000001
303.15	.7753	.0042607	.000001
303.15	.8859	.0037576	.000001
303.15	1	.0032512	.000001
308.15	0	.0059629	.000001
308.15	.0875	.005762	.000001
308.15	.1774	.0055404	.000001
308.15	.2699	.0053613	.000001
308.15	.3651	.0051677	.000001
308.15	.4631	.0048739	.000001
308.15	.564	.0045597	.000001
308.15	.668	.0041963	.000001
308.15	.7753	.0038152	.000001
308.15	.8859	.0034751	.000001
308.15	1	.0031306	.000001
313.15	0	.004238	.000001
313.15	.0875	.0041621	.000001
313.15	.1774	.0040725	.000001
313.15	.2699	.0040075	.000001
313.15	.3651	.0039364	.000001
313.15	.4631	.003806	.000001
313.15	.564	.0036728	.000001
313.15	.668	.003494	.000001
313.15	.7753	.0032908	.000001
313.15	.8859	.003126	.000001
313.15	1	.0029614	.000001
318.15	0	.002215	.000001
318.15	.0875	.0022689	.000001
318.15	.1774	.002313	.000001
318.15	.2699	.0023633	.000001
318.15	.3651	.0024141	.000001
318.15	.4631	.0024506	.000001
318.15	.564	.002496	.000001
318.15	.668	.0025427	.000001
318.15	.7753	.0025892	.000001
318.15	.8859	.0026308	.000001
318.15	1	.0026822	.000001

System: phenol, 3-methyl- + 4-methoxybenzaldehyde; phases: Liquid
Fixed: Pressure, kPa = 101
Property: Mass density, kg/m3 (Liquid); method: Pycnometric method
Temperature, K	Mole fraction of 4-methoxybenzaldehyde	Mass density, kg/m3	uncertainty
303.15	0	1025.8	5.129
303.15	.0883	1031.6	5.158
303.15	.1789	1037.8	5.189
303.15	.2719	1044	5.22
303.15	.3674	1052.6	5.263
303.15	.4656	1060.7	5.3035
303.15	.5665	1068	5.34
303.15	.6703	1076.4	5.382
303.15	.777	1088	5.44
303.15	.8869	1104.5	5.5225
303.15	1	1125.2	5.626
308.15	0	1021.5	5.1075
308.15	.0883	1026.7	5.1335
308.15	.1789	1032.4	5.162
308.15	.2719	1038	5.19
308.15	.3674	1045.4	5.227
308.15	.4656	1052.3	5.2615
308.15	.5665	1060	5.3
308.15	.6703	1066.1	5.3305
308.15	.777	1077.2	5.386
308.15	.8869	1092.6	5.463
308.15	1	1111.6	5.558
313.15	0	1017	5.085
313.15	.0883	1022.8	5.114
313.15	.1789	1028.4	5.142
313.15	.2719	1034.8	5.174
313.15	.3674	1042.8	5.214
313.15	.4656	1049.1	5.2455
313.15	.5665	1056.8	5.284
313.15	.6703	1064.4	5.322
313.15	.777	1075.1	5.3755
313.15	.8869	1090.9	5.4545
313.15	1	1109.5	5.5475
318.15	0	1013.5	5.0675
318.15	.0883	1019.2	5.096
318.15	.1789	1026.5	5.1325
318.15	.2719	1033.4	5.167
318.15	.3674	1041.6	5.208
318.15	.4656	1048.2	5.241
318.15	.5665	1055.2	5.276
318.15	.6703	1062.5	5.3125
318.15	.777	1073.3	5.3665
318.15	.8869	1088.4	5.442
318.15	1	1104.7	5.5235

System: phenol, 3-methyl- + 4-methoxybenzaldehyde; phases: Liquid
Fixed: Pressure, kPa = 101
Property: Speed of sound, m/s (Liquid); method: Pulse-echo method
Temperature, K	Mole fraction of 4-methoxybenzaldehyde	Speed of sound, m/s	uncertainty
303.15	0	1464.21	.5
303.15	.0883	1487.6	.5
303.15	.1789	1507.84	.5
303.15	.2719	1528.56	.5
303.15	.3674	1550.32	.5
303.15	.4656	1572.47	.5
303.15	.5665	1595.63	.5
303.15	.6703	1619.11	.5
303.15	.777	1643.42	.5
303.15	.8869	1668.4	.5
303.15	1	1694.33	.5
308.15	0	1449.27	.5
308.15	.0883	1471.42	.5
308.15	.1789	1490.89	.5
308.15	.2719	1511.05	.5
308.15	.3674	1532.07	.5
308.15	.4656	1553.38	.5
308.15	.5665	1575.64	.5
308.15	.6703	1598.16	.5
308.15	.777	1621.63	.5
308.15	.8869	1645.72	.5
308.15	1	1670.67	.5
313.15	0	1436.32	.5
313.15	.0883	1455.67	.5
313.15	.1789	1473.11	.5
313.15	.2719	1490.72	.5
313.15	.3674	1509.24	.5
313.15	.4656	1528.1	.5
313.15	.5665	1547.61	.5
313.15	.6703	1567.37	.5
313.15	.777	1588.12	.5
313.15	.8869	1609.34	.5
313.15	1	1631.33	.5
318.15	0	1424.21	.5
318.15	.0883	1437.73	.5
318.15	.1789	1449.58	.5
318.15	.2719	1461.47	.5
318.15	.3674	1474.08	.5
318.15	.4656	1486.95	.5
318.15	.5665	1500.11	.5
318.15	.6703	1513.48	.5
318.15	.777	1527.53	.5
318.15	.8869	1542.02	.5
318.15	1	1557	.5

System: phenol, 3-methyl- + 4-methoxybenzaldehyde; phases: Liquid
Fixed: Pressure, kPa = 101
Property: Viscosity, Pa*s (Liquid); method: Capillary tube (Ostwald; Ubbelohde) method
Temperature, K	Mole fraction of 4-methoxybenzaldehyde	Viscosity, Pa*s	uncertainty
303.15	0	.008929	.000001
303.15	.0883	.0085127	.000001
303.15	.1789	.0080284	.000001
303.15	.2719	.0075687	.000001
303.15	.3674	.0070515	.000001
303.15	.4656	.0065279	.000001
303.15	.5665	.0059686	.000001
303.15	.6703	.0053314	.000001
303.15	.777	.0045926	.000001
303.15	.8869	.00393	.000001
303.15	1	.0032512	.000001
308.15	0	.0074121	.000001
308.15	.0883	.0071076	.000001
308.15	.1789	.0067474	.000001
308.15	.2719	.006421	.000001
308.15	.3674	.0060458	.000001
308.15	.4656	.0056585	.000001
308.15	.5665	.0052373	.000001
308.15	.6703	.0047414	.000001
308.15	.777	.0041515	.000001
308.15	.8869	.0036476	.000001
308.15	1	.0031306	.000001
313.15	0	.006116	.000001
313.15	.0883	.0058936	.000001
313.15	.1789	.0056289	.000001
313.15	.2719	.005393	.000001
313.15	.3674	.0051298	.000001
313.15	.4656	.004858	.000001
313.15	.5665	.0045554	.000001
313.15	.6703	.0041814	.000001
313.15	.777	.003724	.000001
313.15	.8869	.00334	.000001
313.15	1	.0029614	.000001
318.15	0	.0050185	.000001
318.15	.0883	.0048489	.000001
318.15	.1789	.0046554	.000001
318.15	.2719	.0044695	.000001
318.15	.3674	.0042725	.000001
318.15	.4656	.0040849	.000001
318.15	.5665	.0038683	.000001
318.15	.6703	.0035863	.000001
318.15	.777	.0032362	.000001
318.15	.8869	.0029489	.000001
318.15	1	.0026822	.000001

System: 1-hydroxy-4-methylbenzene + 4-methoxybenzaldehyde; phases: Liquid
Fixed: Pressure, kPa = 101
Property: Mass density, kg/m3 (Liquid); method: Pycnometric method
Temperature, K	Mole fraction of 4-methoxybenzaldehyde	Mass density, kg/m3	uncertainty
303.15	0	1026.5	5.1325
303.15	.0882	1032.1	5.1605
303.15	.1788	1038.5	5.1925
303.15	.2717	1044.6	5.223
303.15	.3673	1053	5.265
303.15	.4654	1061.2	5.306
303.15	.5663	1068.4	5.342
303.15	.6701	1076.7	5.3835
303.15	.7769	1089.3	5.4465
303.15	.8868	1105.6	5.528
303.15	1	1125.2	5.626
308.15	0	1022	5.11
308.15	.0882	1027.7	5.1385
308.15	.1788	1033	5.165
308.15	.2717	1038.6	5.193
308.15	.3673	1045.9	5.2295
308.15	.4654	1053	5.265
308.15	.5663	1060.5	5.3025
308.15	.6701	1066.8	5.334
308.15	.7769	1077.5	5.3875
308.15	.8868	1093	5.465
308.15	1	1111.6	5.558
313.15	0	1018.1	5.0905
313.15	.0882	1024.2	5.121
313.15	.1788	1029.7	5.1485
313.15	.2717	1035.9	5.1795
313.15	.3673	1044	5.22
313.15	.4654	1050.3	5.2515
313.15	.5663	1057.6	5.288
313.15	.6701	1065.6	5.328
313.15	.7769	1076.5	5.3825
313.15	.8868	1091.7	5.4585
313.15	1	1109.5	5.5475
318.15	0	1013.9	5.0695
318.15	.0882	1020	5.1
318.15	.1788	1027.2	5.136
318.15	.2717	1033.9	5.1695
318.15	.3673	1042.1	5.2105
318.15	.4654	1048.9	5.2445
318.15	.5663	1055.4	5.277
318.15	.6701	1063	5.315
318.15	.7769	1073.7	5.3685
318.15	.8868	1088.9	5.4445
318.15	1	1104.7	5.5235

System: 1-hydroxy-4-methylbenzene + 4-methoxybenzaldehyde; phases: Liquid
Fixed: Pressure, kPa = 101
Property: Speed of sound, m/s (Liquid); method: Pulse-echo method
Temperature, K	Mole fraction of 4-methoxybenzaldehyde	Speed of sound, m/s	uncertainty
308.15	0	1455.79	.5
308.15	.0882	1477.05	.5
308.15	.1788	1496.36	.5
308.15	.2717	1516.25	.5
308.15	.3673	1536.63	.5
308.15	.4654	1558	.5
308.15	.5663	1580.06	.5
308.15	.6701	1602.55	.5
308.15	.7769	1625.17	.5
308.15	.8868	1648.63	.5
308.15	1	1670.67	.5
303.15	0	1468.43	.5
303.15	.0882	1492.05	.5
303.15	.1788	1511.16	.5
303.15	.2717	1532.08	.5
303.15	.3673	1553.52	.5
303.15	.4654	1575.86	.5
303.15	.5663	1599.1	.5
303.15	.6701	1622.74	.5
303.15	.7769	1646.58	.5
303.15	.8868	1671.27	.5
303.15	1	1694.33	.5
313.15	0	1443.68	.5
313.15	.0882	1462.15	.5
313.15	.1788	1479.06	.5
313.15	.2717	1496.38	.5
313.15	.3673	1514.21	.5
313.15	.4654	1533	.5
313.15	.5663	1552.37	.5
313.15	.6701	1572.03	.5
313.15	.7769	1591.68	.5
313.15	.8868	1612	.5
313.15	1	1631.33	.5
318.15	0	1432.73	.5
318.15	.0882	1445.1	.5
318.15	.1788	1456.47	.5
318.15	.2717	1467.9	.5
318.15	.3673	1479.63	.5
318.15	.4654	1492.26	.5
318.15	.5663	1505.42	.5
318.15	.6701	1518.48	.5
318.15	.7769	1531.2	.5
318.15	.8868	1544.69	.5
318.15	1	1557	.5

System: 1-hydroxy-4-methylbenzene + 4-methoxybenzaldehyde; phases: Liquid
Fixed: Pressure, kPa = 101
Property: Viscosity, Pa*s (Liquid); method: Capillary tube (Ostwald; Ubbelohde) method
Temperature, K	Mole fraction of 4-methoxybenzaldehyde	Viscosity, Pa*s	uncertainty
303.15	0	.0095398	.000001
303.15	.0882	.009142	.000001
303.15	.1788	.008618	.000001
303.15	.2717	.0080859	.000001
303.15	.3673	.0075237	.000001
303.15	.4654	.0070638	.000001
303.15	.5663	.0065426	.000001
303.15	.6701	.0057532	.000001
303.15	.7769	.00504	.000001
303.15	.8868	.0042647	.000001
303.15	1	.0032512	.000001
308.15	0	.008119	.000001
308.15	.0882	.0078243	.000001
308.15	.1788	.0074188	.000001
308.15	.2717	.0070015	.000001
308.15	.3673	.006568	.000001
308.15	.4654	.0062185	.000001
308.15	.5663	.0058261	.000001
308.15	.6701	.0051576	.000001
308.15	.7769	.0046038	.000001
308.15	.8868	.0039654	.000001
308.15	1	.0031306	.000001
313.15	0	.006741	.000001
313.15	.0882	.0065293	.000001
313.15	.1788	.0062416	.000001
313.15	.2717	.0059127	.000001
313.15	.3673	.0055817	.000001
313.15	.4654	.0053386	.000001
313.15	.5663	.00507	.000001
313.15	.6701	.0045412	.000001
313.15	.7769	.0040989	.000001
313.15	.8868	.0036092	.000001
313.15	1	.0029614	.000001
318.15	0	.005469	.000001
318.15	.0882	.0053161	.000001
318.15	.1788	.005115	.000001
318.15	.2717	.00487	.000001
318.15	.3673	.004616	.000001
318.15	.4654	.0044315	.000001
318.15	.5663	.0042586	.000001
318.15	.6701	.0038612	.000001
318.15	.7769	.0035228	.000001
318.15	.8868	.0031628	.000001
318.15	1	.0026822	.000001
