Measured thermophysical data. Vapor pressures and vaporization enthalpy of (-) alpha-bisabolol and (dl) menthol by correlation gas chromatography
Source: J. Chem. Thermodyn., 2017, 10.1016/j.jct.2016.11.027
Compound 1: DL-menthol, C10H20O, purity 92%
Compound 2: (-)-.alpha.-bisabolol, C15H26O, purity 93%

System: DL-menthol; phases: Liquid, Gas
Property: Molar enthalpy of vaporization or sublimation, kJ/mol (Liquid); method: Correlation gas chromatography
Temperature, K	Molar enthalpy of vaporization or sublimation, kJ/mol	uncertainty
298	75	2.1

System: DL-menthol; phases: Liquid, Gas
Property: Vapor or sublimation pressure, kPa (Liquid); method: Gas chromatography
Temperature, K	Vapor or sublimation pressure, kPa	uncertainty
298.15	.0045	
310	.014	
320	.034	
330	.075	
340	.16	
350	.31	
360	.57	
370	1	
380	1.7	
390	2.9	
400	4.6	
410	7	
420	10	
430	15	
440	22	
450	30	
460	41	
470	55	
480	73	
490	96	
500	120	
492.7	101.325	

System: (-)-.alpha.-bisabolol; phases: Liquid, Gas
Property: Molar enthalpy of vaporization or sublimation, kJ/mol (Liquid); method: Correlation gas chromatography
Temperature, K	Molar enthalpy of vaporization or sublimation, kJ/mol	uncertainty
298	96.6	2.4

System: (-)-.alpha.-bisabolol; phases: Liquid, Gas
Property: Vapor or sublimation pressure, kPa (Liquid); method: Gas chromatography
Temperature, K	Vapor or sublimation pressure, kPa	uncertainty
298.15	.00002	
310	.000093	
320	.0003	
330	.00086	
340	.0023	
350	.0056	
360	.013	
370	.027	
380	.055	
390	.11	
400	.2	
410	.35	
420	.59	
430	.97	
440	1.5	
450	2.4	
460	3.6	
470	5.3	
480	7.5	
490	10.6	
500	15	
574.8	101.325	
