Measured thermophysical data. Evaluation of the impact of phosphate salts on the formation of ionic-liquid-based aqueous biphasic systems
Source: J. Chem. Thermodyn., 2012, 10.1016/j.jct.2012.05.019
Compound 1: 1-butyl-3-methylimidazolium triflate, C9H15F3N2O3S
Compound 2: 1-butyl-3-methylimidazolium methanesulfonate, C9H18N2O3S
Compound 3: 1-butyl-3-methylimidazolium acetate, C10H18N2O2
Compound 4: 1-butyl-3-methylimidazolium trifluoroacetate, C10H15F3N2O2
Compound 5: 1-Butyl-3-methylimidazolium ethyl sulfate, C10H20N2O4S
Compound 6: 1-butyl-3-methylimidazolium methylsulfate, C9H18N2O4S
Compound 7: 1-butyl-3-methylimidazolium tosylate, C15H22N2O3S
Compound 8: 1-butyl-3-methylimidazolium chloride, C8H15ClN2
Compound 9: 1-n-butyl-3-methylimidazolium bromide, C8H15BrN2
Compound 10: 1-butyl-3-methylimidazolium dicyanamide, C10H15N5
Compound 11: 1-butyl-3-methylimidazolium dimethylphosphate, C10H21N2O4P
Compound 12: water, H2O
Compound 13: phosphoric acid, tripotassium salt, K3O4P, purity 98%
Compound 14: dipotassium phosphate (K2HPO4), HK2O4P, purity 99%
Compound 15: potassium acid phosphate, H2KO4P, purity 99%

System: water + phosphoric acid, tripotassium salt + 1-butyl-3-methylimidazolium tosylate; phases: Liquid, Crystal
Fixed: Temperature, K = 298
Fixed: Pressure, kPa = 101
Property: Mass fraction of 1-butyl-3-methylimidazolium tosylate (Liquid); method: Titration method
Mass fraction of phosphoric acid, tripotassium salt	Mass fraction of 1-butyl-3-methylimidazolium tosylate	uncertainty
.027141	.480475	
.03075	.463484	
.033669	.447189	
.037098	.429019	
.04158	.415908	
.043459	.396593	
.046154	.389395	
.051096	.3741	
.052709	.361776	
.05786	.349629	
.059507	.341955	
.060941	.33398	
.064662	.325013	
.067506	.316633	
.070403	.308641	
.072155	.302585	
.07322	.296149	
.07675	.288939	
.077575	.283211	
.081056	.275977	
.085011	.267979	
.085969	.265116	
.086514	.260409	
.091113	.252302	
.093596	.246403	
.094626	.242352	
.096832	.237231	
.098655	.230563	
.099785	.222645	
.10258	.217543	
.10311	.214448	
.105461	.209901	
.106271	.206409	
.107856	.202295	
.109009	.198296	
.110483	.194842	
.11188	.191896	
.11467	.188077	
.115145	.185753	
.115314	.183475	
.117851	.180153	
.11779	.17803	
.120196	.173937	
.120257	.171781	
.120911	.170277	
.123357	.167547	
.124863	.165151	
.125144	.16187	
.125472	.160218	
.126152	.157341	
.126664	.156269	
.127898	.15406	
.128097	.152309	
.120911	.170277	

System: water + phosphoric acid, tripotassium salt + 1-butyl-3-methylimidazolium tosylate; phases: Liquid mixture 1, Liquid mixture 2
Property: Mass fraction of phosphoric acid, tripotassium salt (Liquid mixture 1); method: Titration method
Property: Mass fraction of phosphoric acid, tripotassium salt (Liquid mixture 2); method: Titration method
Property: Mass fraction of 1-butyl-3-methylimidazolium tosylate (Liquid mixture 2); method: Titration method
Temperature, K	Pressure, kPa	Mass fraction of 1-butyl-3-methylimidazolium tosylate	Mass fraction of phosphoric acid, tripotassium salt	uncertainty	Mass fraction of phosphoric acid, tripotassium salt	uncertainty	Mass fraction of 1-butyl-3-methylimidazolium tosylate	uncertainty
298	101.325	.5282	.0196	.0002	.1958	.0002	.0393	.0002
298	101.325	.6284	.009	.0002	.2464	.0002	.0075	.0002

System: water + phosphoric acid, tripotassium salt + 1-butyl-3-methylimidazolium methylsulfate; phases: Liquid, Crystal
Fixed: Temperature, K = 298
Fixed: Pressure, kPa = 101
Property: Mass fraction of 1-butyl-3-methylimidazolium methylsulfate (Liquid); method: Titration method
Mass fraction of phosphoric acid, tripotassium salt	Mass fraction of 1-butyl-3-methylimidazolium methylsulfate	uncertainty
.100479	.290867	
.106049	.280883	
.111042	.271054	
.114179	.263634	
.120672	.253894	
.123138	.247684	
.127907	.239849	
.130734	.235249	
.134103	.229087	
.137749	.222457	
.141072	.215994	
.145857	.209204	
.149187	.203941	
.150945	.199313	
.153865	.19432	
.15801	.18883	
.162337	.182646	

System: water + phosphoric acid, tripotassium salt + 1-butyl-3-methylimidazolium methylsulfate; phases: Liquid mixture 2, Liquid mixture 1
Property: Mass fraction of phosphoric acid, tripotassium salt (Liquid mixture 2); method: Titration method
Property: Mass fraction of 1-butyl-3-methylimidazolium methylsulfate (Liquid mixture 1); method: Titration method
Property: Mass fraction of phosphoric acid, tripotassium salt (Liquid mixture 1); method: Titration method
Temperature, K	Pressure, kPa	Mass fraction of 1-butyl-3-methylimidazolium methylsulfate	Mass fraction of phosphoric acid, tripotassium salt	uncertainty	Mass fraction of 1-butyl-3-methylimidazolium methylsulfate	uncertainty	Mass fraction of phosphoric acid, tripotassium salt	uncertainty
298	101.325	.0643	.2485	.0002	.4295	.0002	.0447	.0002
298	101.325	.0322	.2882	.0002	.5207	.0002	.0227	.0002

System: water + phosphoric acid, tripotassium salt + 1-Butyl-3-methylimidazolium ethyl sulfate; phases: Liquid, Crystal
Fixed: Temperature, K = 298
Fixed: Pressure, kPa = 101
Property: Mass fraction of 1-Butyl-3-methylimidazolium ethyl sulfate (Liquid); method: Titration method
Mass fraction of phosphoric acid, tripotassium salt	Mass fraction of 1-Butyl-3-methylimidazolium ethyl sulfate	uncertainty
.140586	.20483	
.144017	.195929	
.146512	.187433	
.154475	.173341	
.157883	.167476	
.158096	.164509	
.161909	.159023	
.164985	.15323	
.168134	.147851	
.170788	.143787	
.174479	.138893	
.175908	.135498	
.177989	.132977	
.180248	.129035	
.182489	.125726	
.185504	.120623	
.187392	.117392	
.189302	.11403	
.190691	.111458	
.191829	.109308	
.194246	.10696	

System: water + phosphoric acid, tripotassium salt + 1-Butyl-3-methylimidazolium ethyl sulfate; phases: Liquid mixture 2, Liquid mixture 1
Property: Mass fraction of phosphoric acid, tripotassium salt (Liquid mixture 2); method: Titration method
Property: Mass fraction of 1-Butyl-3-methylimidazolium ethyl sulfate (Liquid mixture 1); method: Titration method
Property: Mass fraction of phosphoric acid, tripotassium salt (Liquid mixture 1); method: Titration method
Temperature, K	Pressure, kPa	Mass fraction of 1-Butyl-3-methylimidazolium ethyl sulfate	Mass fraction of phosphoric acid, tripotassium salt	uncertainty	Mass fraction of 1-Butyl-3-methylimidazolium ethyl sulfate	uncertainty	Mass fraction of phosphoric acid, tripotassium salt	uncertainty
298	101.325	.0725	.2231	.0002	.4122	.0002	.0762	.0002
298	101.325	.0537	.2432	.0002	.5346	.0002	.0549	.0002

System: water + phosphoric acid, tripotassium salt + 1-butyl-3-methylimidazolium dimethylphosphate; phases: Liquid, Crystal
Fixed: Temperature, K = 298
Fixed: Pressure, kPa = 101
Property: Mass fraction of 1-butyl-3-methylimidazolium dimethylphosphate (Liquid); method: Titration method
Mass fraction of phosphoric acid, tripotassium salt	Mass fraction of 1-butyl-3-methylimidazolium dimethylphosphate	uncertainty
.158338	.202708	
.159007	.199148	
.161936	.194531	
.165153	.190165	
.168557	.185772	
.172803	.18105	
.203378	.147572	
.20984	.141061	
.216784	.133192	
.21997	.128056	
.225772	.122747	
.227559	.119481	
.237191	.109786	
.239698	.105727	
.243294	.102666	

System: water + phosphoric acid, tripotassium salt + 1-butyl-3-methylimidazolium dimethylphosphate; phases: Liquid mixture 2, Liquid mixture 1
Property: Mass fraction of 1-butyl-3-methylimidazolium dimethylphosphate (Liquid mixture 2); method: Titration method
Property: Mass fraction of 1-butyl-3-methylimidazolium dimethylphosphate (Liquid mixture 1); method: Titration method
Property: Mass fraction of phosphoric acid, tripotassium salt (Liquid mixture 1); method: Titration method
Temperature, K	Pressure, kPa	Mass fraction of phosphoric acid, tripotassium salt	Mass fraction of 1-butyl-3-methylimidazolium dimethylphosphate	uncertainty	Mass fraction of 1-butyl-3-methylimidazolium dimethylphosphate	uncertainty	Mass fraction of phosphoric acid, tripotassium salt	uncertainty
298	101.325	.3615	.0187	.0002	.3948	.0002	.0185	.0002
298	101.325	.4145	.0058	.0002	.4653	.0002	.0025	.0002

System: water + dipotassium phosphate (K2HPO4) + 1-butyl-3-methylimidazolium triflate; phases: Liquid, Crystal
Fixed: Temperature, K = 298
Fixed: Pressure, kPa = 101
Property: Mass fraction of 1-butyl-3-methylimidazolium triflate (Liquid); method: Titration method
Mass fraction of dipotassium phosphate (K2HPO4)	Mass fraction of 1-butyl-3-methylimidazolium triflate	uncertainty
.018653	.590373	
.025724	.503836	
.028675	.436203	
.032933	.401759	
.035951	.366065	
.038359	.341347	
.041505	.320341	
.043294	.301051	
.045802	.288909	
.048812	.274541	
.049684	.260442	
.051451	.249318	
.053167	.236646	
.054353	.225247	
.056908	.219476	
.058831	.212786	
.059988	.205102	
.061416	.197062	
.063633	.193457	
.064939	.187708	
.066423	.183672	
.069194	.175077	
.07061	.170882	
.072151	.16702	
.073419	.163075	
.076603	.157817	
.080233	.151714	
.080353	.147135	
.082764	.143302	
.08362	.139794	
.087265	.135169	
.088006	.13259	
.089326	.130799	
.090437	.128808	
.092899	.125866	

System: water + dipotassium phosphate (K2HPO4) + 1-butyl-3-methylimidazolium triflate; phases: Liquid mixture 2, Liquid mixture 1
Property: Mass fraction of 1-butyl-3-methylimidazolium triflate (Liquid mixture 2); method: Titration method
Property: Mass fraction of 1-butyl-3-methylimidazolium triflate (Liquid mixture 1); method: Titration method
Property: Mass fraction of dipotassium phosphate (K2HPO4) (Liquid mixture 1); method: Titration method
Temperature, K	Pressure, kPa	Mass fraction of dipotassium phosphate (K2HPO4)	Mass fraction of 1-butyl-3-methylimidazolium triflate	uncertainty	Mass fraction of 1-butyl-3-methylimidazolium triflate	uncertainty	Mass fraction of dipotassium phosphate (K2HPO4)	uncertainty
298	101.325	.1206	.0778	.0002	.7224	.0002	.014	.0002
298	101.325	.193	.0303	.0002	.695	.0002	.0149	.0002

System: water + dipotassium phosphate (K2HPO4) + 1-butyl-3-methylimidazolium dicyanamide; phases: Liquid, Crystal
Fixed: Temperature, K = 298
Fixed: Pressure, kPa = 101
Property: Mass fraction of 1-butyl-3-methylimidazolium dicyanamide (Liquid); method: Titration method
Mass fraction of dipotassium phosphate (K2HPO4)	Mass fraction of 1-butyl-3-methylimidazolium dicyanamide	uncertainty
.008373	.589316	
.014845	.536797	
.020495	.487723	
.027451	.454756	
.032029	.428205	
.039817	.403092	
.04437	.375704	
.049215	.354265	
.053682	.33973	
.058873	.329336	
.060881	.315989	
.064947	.307133	
.068065	.296767	
.070464	.28569	
.073817	.278489	
.076102	.27097	
.079308	.26461	
.080574	.255993	
.082962	.250535	
.08565	.244603	
.087932	.239452	
.08893	.232325	
.099687	.223211	
.101329	.218963	
.104584	.211049	
.105547	.204762	
.107293	.201364	
.109209	.197842	
.112829	.191249	
.113561	.185492	
.114666	.182764	
.122397	.165198	
.123468	.163119	
.123503	.159707	
.124677	.157043	
.1262	.154713	
.127072	.152535	
.128098	.149897	
.129503	.147936	
.130115	.14588	
.131181	.143957	
.131708	.142351	
.132365	.140953	
.13301	.139233	
.133811	.137518	
.134575	.135899	
.135333	.134299	
.1373	.132303	
.138347	.129595	
.139126	.128088	
.139963	.126632	
.140473	.12511	
.140958	.1239	
.142792	.122123	
.115532	.18013	
.117355	.177118	
.118944	.174488	
.121125	.169554	

System: water + dipotassium phosphate (K2HPO4) + 1-butyl-3-methylimidazolium dicyanamide; phases: Liquid mixture 2, Liquid mixture 1
Property: Mass fraction of 1-butyl-3-methylimidazolium dicyanamide (Liquid mixture 2); method: Titration method
Property: Mass fraction of 1-butyl-3-methylimidazolium dicyanamide (Liquid mixture 1); method: Titration method
Property: Mass fraction of dipotassium phosphate (K2HPO4) (Liquid mixture 1); method: Titration method
Temperature, K	Pressure, kPa	Mass fraction of dipotassium phosphate (K2HPO4)	Mass fraction of 1-butyl-3-methylimidazolium dicyanamide	uncertainty	Mass fraction of 1-butyl-3-methylimidazolium dicyanamide	uncertainty	Mass fraction of dipotassium phosphate (K2HPO4)	uncertainty
298	101.325	.2165	.025	.0002	.495	.0002	.0197	.0002
298	101.325	.265	.0048	.0002	.5826	.0002	.0094	.0002

System: water + dipotassium phosphate (K2HPO4) + 1-butyl-3-methylimidazolium tosylate; phases: Liquid, Crystal
Fixed: Temperature, K = 298
Fixed: Pressure, kPa = 101
Property: Mass fraction of 1-butyl-3-methylimidazolium tosylate (Liquid); method: Titration method
Mass fraction of dipotassium phosphate (K2HPO4)	Mass fraction of 1-butyl-3-methylimidazolium tosylate	uncertainty
.027938	.509912	
.030155	.48589	
.032937	.476444	
.035707	.461057	
.039216	.454293	
.042492	.436761	
.044028	.425665	
.045898	.420546	
.047905	.415535	
.05093	.401996	
.055722	.388679	
.058697	.378274	
.060803	.37219	
.061886	.367	
.066227	.35533	
.067714	.349956	
.071985	.339858	
.074955	.330616	
.075498	.323999	
.07767	.319443	
.078504	.31578	
.07971	.311763	
.082996	.306875	
.085051	.299694	
.087598	.293035	
.089037	.289559	
.090984	.285521	
.095292	.279489	
.095616	.27304	
.098863	.265358	
.102942	.256633	
.104477	.251008	
.123945	.206894	
.126756	.20093	
.128466	.196146	
.131913	.189321	
.133846	.185137	
.136427	.178821	
.139103	.174853	
.141277	.169351	
.143596	.164617	
.145759	.160489	
.147044	.15757	
.147261	.155718	
.148634	.154068	
.148748	.152466	
.150358	.150485	
.150976	.148448	
.153287	.144928	
.15369	.143064	
.15409	.142003	
.15559	.140448	
.156523	.138316	
.156946	.136362	
.157751	.135146	
.158834	.133922	
.15931	.132148	
.15982	.131367	
.160161	.130587	
.161616	.128409	
.162115	.126655	
.163705	.125383	
.164428	.123837	
.164393	.122697	
.167888	.11666	
.165711	.116244	
.166581	.114134	
.167752	.112709	
.168413	.111064	
.169424	.10944	
.170134	.108255	
.170346	.10759	
.170715	.107095	
.106947	.245296	
.110861	.239616	
.114819	.229907	
.116712	.223228	
.164784	.121994	
.165504	.121126	
.166171	.119624	
.167329	.118077	

System: water + dipotassium phosphate (K2HPO4) + 1-butyl-3-methylimidazolium tosylate; phases: Liquid mixture 2, Liquid mixture 1
Property: Mass fraction of dipotassium phosphate (K2HPO4) (Liquid mixture 2); method: Titration method
Property: Mass fraction of 1-butyl-3-methylimidazolium tosylate (Liquid mixture 1); method: Titration method
Property: Mass fraction of dipotassium phosphate (K2HPO4) (Liquid mixture 1); method: Titration method
Temperature, K	Pressure, kPa	Mass fraction of 1-butyl-3-methylimidazolium tosylate	Mass fraction of dipotassium phosphate (K2HPO4)	uncertainty	Mass fraction of 1-butyl-3-methylimidazolium tosylate	uncertainty	Mass fraction of dipotassium phosphate (K2HPO4)	uncertainty
298	101.325	.0588	.2057	.0002	.4304	.0002	.0438	.0002
298	101.325	.0175	.2546	.0002	.5376	.0002	.0219	.0002
298	101.325	.0074	.2813	.0002	.5539	.0002	.0194	.0002

System: water + dipotassium phosphate (K2HPO4) + 1-butyl-3-methylimidazolium methylsulfate; phases: Liquid, Crystal
Fixed: Temperature, K = 298
Fixed: Pressure, kPa = 101
Property: Mass fraction of 1-butyl-3-methylimidazolium methylsulfate (Liquid); method: Titration method
Mass fraction of dipotassium phosphate (K2HPO4)	Mass fraction of 1-butyl-3-methylimidazolium methylsulfate	uncertainty
.141232	.253369	
.149192	.235403	
.16851	.214443	
.178763	.201304	
.184623	.192002	
.192738	.18154	
.199797	.171933	
.213727	.155223	
.214543	.151756	
.220915	.144697	
.226972	.13823	
.22915	.134357	
.23332	.128982	
.237158	.125107	
.238692	.122441	
.242515	.118068	
.245967	.114948	
.249736	.110732	
.25318	.106748	
.257262	.102607	
.26137	.099221	
.262668	.09695	
.266749	.09342	
.269111	.09125	
.269455	.090212	
.27276	.08734	
.275653	.084077	
.278422	.081655	
.279772	.080179	
.282635	.077642	
.285228	.075801	
.286742	.074175	
.288472	.072486	
.290795	.07063	
.292952	.068844	
.295905	.066746	
.297944	.064944	
.300612	.063038	
.303185	.061176	
.305374	.059613	
.30959	.056668	
.312759	.054145	
.316123	.052249	
.322391	.048914	
.325473	.046501	
.329189	.044243	
.334695	.041206	
.340104	.038496	
.344869	.036019	
.349949	.033587	

System: water + dipotassium phosphate (K2HPO4) + 1-butyl-3-methylimidazolium methylsulfate; phases: Liquid mixture 2, Liquid mixture 1
Property: Mass fraction of 1-butyl-3-methylimidazolium methylsulfate (Liquid mixture 2); method: Titration method
Property: Mass fraction of 1-butyl-3-methylimidazolium methylsulfate (Liquid mixture 1); method: Titration method
Property: Mass fraction of dipotassium phosphate (K2HPO4) (Liquid mixture 1); method: Titration method
Temperature, K	Pressure, kPa	Mass fraction of dipotassium phosphate (K2HPO4)	Mass fraction of 1-butyl-3-methylimidazolium methylsulfate	uncertainty	Mass fraction of 1-butyl-3-methylimidazolium methylsulfate	uncertainty	Mass fraction of dipotassium phosphate (K2HPO4)	uncertainty
298	101.325	.3284	.0436	.0002	.5411	.0002	.0207	.0002
298	101.325	.3739	.0211	.0002	.6039	.0002	.0111	.0002

System: water + dipotassium phosphate (K2HPO4) + 1-Butyl-3-methylimidazolium ethyl sulfate; phases: Liquid, Crystal
Fixed: Temperature, K = 298
Fixed: Pressure, kPa = 101
Property: Mass fraction of 1-Butyl-3-methylimidazolium ethyl sulfate (Liquid); method: Titration method
Mass fraction of dipotassium phosphate (K2HPO4)	Mass fraction of 1-Butyl-3-methylimidazolium ethyl sulfate	uncertainty
.068047	.37139	
.076123	.354865	
.083388	.336436	
.084433	.330681	
.091925	.320262	
.098277	.305894	
.10573	.295278	
.111218	.284921	
.11269	.276701	
.120615	.265102	
.128126	.253759	
.133837	.246321	
.135669	.240635	
.144025	.229904	
.145736	.22491	
.15309	.216202	

System: water + dipotassium phosphate (K2HPO4) + 1-Butyl-3-methylimidazolium ethyl sulfate; phases: Liquid mixture 2, Liquid mixture 1
Property: Mass fraction of 1-Butyl-3-methylimidazolium ethyl sulfate (Liquid mixture 2); method: Titration method
Property: Mass fraction of 1-Butyl-3-methylimidazolium ethyl sulfate (Liquid mixture 1); method: Titration method
Property: Mass fraction of dipotassium phosphate (K2HPO4) (Liquid mixture 1); method: Titration method
Temperature, K	Pressure, kPa	Mass fraction of dipotassium phosphate (K2HPO4)	Mass fraction of 1-Butyl-3-methylimidazolium ethyl sulfate	uncertainty	Mass fraction of 1-Butyl-3-methylimidazolium ethyl sulfate	uncertainty	Mass fraction of dipotassium phosphate (K2HPO4)	uncertainty
298	101.325	.2676	.0788	.0002	.3402	.0002	.0817	.0002
298	101.325	.3603	.0208	.0002	.4948	.0002	.0308	.0002

System: water + dipotassium phosphate (K2HPO4) + 1-butyl-3-methylimidazolium chloride; phases: Liquid, Crystal
Fixed: Temperature, K = 298
Fixed: Pressure, kPa = 101
Property: Mass fraction of 1-butyl-3-methylimidazolium chloride (Liquid); method: Titration method
Mass fraction of dipotassium phosphate (K2HPO4)	Mass fraction of 1-butyl-3-methylimidazolium chloride	uncertainty
.046396	.46989	
.050954	.394541	
.055272	.369824	
.061392	.353619	
.068664	.341224	
.071881	.33182	
.083238	.314981	
.085798	.307005	
.088132	.299769	
.092897	.289274	
.100462	.27693	
.107221	.263269	
.114214	.253871	
.128093	.23563	
.134251	.227954	
.140047	.221233	
.144901	.213816	
.150879	.206398	
.156789	.201921	
.160295	.196852	
.168617	.18901	
.169778	.186942	
.173953	.182906	
.179196	.17791	
.183933	.172622	
.187767	.168573	
.194482	.162344	
.200768	.156977	
.203856	.153522	
.208878	.14883	
.214211	.143882	
.247056	.115168	
.25111	.111965	
.253681	.109508	
.256605	.106951	
.259676	.104278	
.262341	.102013	
.265328	.099531	
.268256	.097223	
.271507	.094845	
.273534	.092834	
.276307	.091067	
.278155	.089307	
.281003	.087217	
.28194	.07905	
.282888	.077912	
.282976	.085399	
.285548	.076191	
.286377	.083045	
.287137	.07494	
.28844	.081298	
.288845	.073788	
.291246	.072305	
.294199	.070444	
.217502	.140944	
.22107	.138352	
.223862	.135355	
.227729	.132135	
.230628	.129445	
.233374	.126791	
.238375	.12274	
.241744	.119835	
.245395	.116609	

System: water + dipotassium phosphate (K2HPO4) + 1-butyl-3-methylimidazolium chloride; phases: Liquid mixture 2, Liquid mixture 1
Property: Mass fraction of 1-butyl-3-methylimidazolium chloride (Liquid mixture 2); method: Titration method
Property: Mass fraction of 1-butyl-3-methylimidazolium chloride (Liquid mixture 1); method: Titration method
Property: Mass fraction of dipotassium phosphate (K2HPO4) (Liquid mixture 1); method: Titration method
Temperature, K	Pressure, kPa	Mass fraction of dipotassium phosphate (K2HPO4)	Mass fraction of 1-butyl-3-methylimidazolium chloride	uncertainty	Mass fraction of 1-butyl-3-methylimidazolium chloride	uncertainty	Mass fraction of dipotassium phosphate (K2HPO4)	uncertainty
298	101.325	.3545	.0458	.0002	.3786	.0002	.0581	.0002
298	101.325	.4152	.0235	.0002	.4418	.0002	.0399	.0002

System: water + dipotassium phosphate (K2HPO4) + 1-n-butyl-3-methylimidazolium bromide; phases: Liquid, Crystal
Fixed: Temperature, K = 298
Fixed: Pressure, kPa = 101
Property: Mass fraction of 1-n-butyl-3-methylimidazolium bromide (Liquid); method: Titration method
Mass fraction of dipotassium phosphate (K2HPO4)	Mass fraction of 1-n-butyl-3-methylimidazolium bromide	uncertainty
.004465	.595409	
.011523	.562302	
.017361	.533391	
.031115	.470903	
.032962	.452022	
.036149	.445286	
.048737	.420887	
.055552	.394724	
.060372	.378805	
.064398	.369084	
.070133	.358021	
.07387	.349113	
.079561	.339399	
.082862	.331288	
.088666	.321461	
.091877	.315335	
.094787	.309947	
.100211	.300358	
.105195	.292879	
.108572	.286748	
.1102	.280425	
.117917	.267577	
.121768	.262801	
.123573	.259514	
.127727	.253898	
.129612	.250869	
.133921	.245109	
.137993	.239575	
.142418	.233658	
.146163	.228749	
.153237	.220127	
.15594	.215936	
.158786	.211751	
.161596	.208152	
.166299	.202852	
.16787	.199905	
.171753	.19608	
.173211	.193155	
.176266	.18941	
.179408	.185633	

System: water + dipotassium phosphate (K2HPO4) + 1-n-butyl-3-methylimidazolium bromide; phases: Liquid mixture 2, Liquid mixture 1
Property: Mass fraction of 1-n-butyl-3-methylimidazolium bromide (Liquid mixture 2); method: Titration method
Property: Mass fraction of 1-n-butyl-3-methylimidazolium bromide (Liquid mixture 1); method: Titration method
Property: Mass fraction of dipotassium phosphate (K2HPO4) (Liquid mixture 1); method: Titration method
Temperature, K	Pressure, kPa	Mass fraction of dipotassium phosphate (K2HPO4)	Mass fraction of 1-n-butyl-3-methylimidazolium bromide	uncertainty	Mass fraction of 1-n-butyl-3-methylimidazolium bromide	uncertainty	Mass fraction of dipotassium phosphate (K2HPO4)	uncertainty
298	101.325	.3683	.0135	.0002	.4812	.0002	.0256	.0002
298	101.325	.4402	.0022	.0002	.5778	.0002	.0084	.0002

System: water + dipotassium phosphate (K2HPO4) + 1-butyl-3-methylimidazolium dimethylphosphate; phases: Liquid, Crystal
Fixed: Temperature, K = 298
Fixed: Pressure, kPa = 101
Property: Mass fraction of 1-butyl-3-methylimidazolium dimethylphosphate (Liquid); method: Titration method
Mass fraction of dipotassium phosphate (K2HPO4)	Mass fraction of 1-butyl-3-methylimidazolium dimethylphosphate	uncertainty
.085415	.338091	
.090315	.326758	
.107208	.299524	
.114558	.289538	
.122788	.27811	
.130383	.26703	
.136627	.25726	
.147485	.244841	
.154068	.237069	
.163052	.227434	
.1699	.219313	
.176473	.211373	
.182954	.203724	
.191409	.19472	
.199389	.186943	
.204111	.181342	
.208641	.176306	
.216908	.168743	
.220309	.165006	
.229103	.157088	
.233197	.152823	
.239427	.147292	
.24361	.141888	
.247794	.137822	
.252131	.134021	
.254303	.131882	
.259934	.127447	
.263875	.123627	
.267284	.120238	
.271942	.116184	
.275081	.113073	
.277224	.110874	
.278074	.109841	
.281588	.106879	
.284391	.104827	
.286121	.102736	
.288949	.100174	
.293135	.096898	
.294262	.095455	
.29749	.09323	
.299501	.091259	
.30226	.089113	
.326398	.077743	
.326824	.071667	
.326056	.069884	
.327642	.068613	
.330541	.066694	
.332736	.065145	

System: water + dipotassium phosphate (K2HPO4) + 1-butyl-3-methylimidazolium dimethylphosphate; phases: Liquid mixture 2, Liquid mixture 1
Property: Mass fraction of 1-butyl-3-methylimidazolium dimethylphosphate (Liquid mixture 2); method: Titration method
Property: Mass fraction of 1-butyl-3-methylimidazolium dimethylphosphate (Liquid mixture 1); method: Titration method
Property: Mass fraction of dipotassium phosphate (K2HPO4) (Liquid mixture 1); method: Titration method
Temperature, K	Pressure, kPa	Mass fraction of dipotassium phosphate (K2HPO4)	Mass fraction of 1-butyl-3-methylimidazolium dimethylphosphate	uncertainty	Mass fraction of 1-butyl-3-methylimidazolium dimethylphosphate	uncertainty	Mass fraction of dipotassium phosphate (K2HPO4)	uncertainty
298	101.325	.4621	.0125	.0002	.4402	.0002	.0386	.0002
298	101.325	.4975	.0068	.0002	.5726	.0002	.0101	.0002

System: water + dipotassium phosphate (K2HPO4) + 1-butyl-3-methylimidazolium acetate; phases: Liquid, Crystal
Fixed: Temperature, K = 298
Fixed: Pressure, kPa = 101
Property: Mass fraction of 1-butyl-3-methylimidazolium acetate (Liquid); method: Titration method
Mass fraction of dipotassium phosphate (K2HPO4)	Mass fraction of 1-butyl-3-methylimidazolium acetate	uncertainty
.096336	.302368	
.097577	.295431	
.110978	.272647	
.116526	.263147	
.121073	.255617	
.130012	.243204	
.137587	.232976	
.141099	.228802	
.149522	.219164	
.154372	.214512	
.161569	.206281	
.171635	.195807	
.177295	.189676	
.17965	.187287	
.18676	.180557	
.19357	.174062	
.197583	.170159	
.207179	.160896	
.211936	.154387	
.21729	.149412	
.223257	.143803	
.230309	.137555	
.241809	.128979	
.243641	.12671	
.25	.121772	
.253408	.118537	
.256176	.115362	

System: water + dipotassium phosphate (K2HPO4) + 1-butyl-3-methylimidazolium acetate; phases: Liquid mixture 2, Liquid mixture 1
Property: Mass fraction of 1-butyl-3-methylimidazolium acetate (Liquid mixture 2); method: Titration method
Property: Mass fraction of 1-butyl-3-methylimidazolium acetate (Liquid mixture 1); method: Titration method
Property: Mass fraction of dipotassium phosphate (K2HPO4) (Liquid mixture 1); method: Titration method
Temperature, K	Pressure, kPa	Mass fraction of dipotassium phosphate (K2HPO4)	Mass fraction of 1-butyl-3-methylimidazolium acetate	uncertainty	Mass fraction of 1-butyl-3-methylimidazolium acetate	uncertainty	Mass fraction of dipotassium phosphate (K2HPO4)	uncertainty
298	101.325	.345	.0595	.0002	.3083	.0002	.0905	.0002
298	101.325	.4527	.019	.0002	.3861	.0002	.0565	.0002

System: water + dipotassium phosphate (K2HPO4) + 1-butyl-3-methylimidazolium methanesulfonate; phases: Liquid, Crystal
Fixed: Temperature, K = 298
Fixed: Pressure, kPa = 101
Property: Mass fraction of 1-butyl-3-methylimidazolium methanesulfonate (Liquid); method: Titration method
Mass fraction of dipotassium phosphate (K2HPO4)	Mass fraction of 1-butyl-3-methylimidazolium methanesulfonate	uncertainty
.016441	.569104	
.0254	.529361	
.037103	.475032	
.051756	.438553	
.057256	.407722	
.064442	.391444	
.069449	.379157	
.07684	.364663	
.087833	.347871	
.091524	.338065	
.100331	.324382	
.106909	.310854	
.117744	.295248	
.127128	.281652	
.135776	.270272	
.140239	.263569	
.147548	.253243	
.156422	.243855	
.162202	.235583	
.169772	.227692	
.174819	.22079	
.184175	.210335	
.18592	.204737	
.192944	.197268	
.194804	.194955	
.20109	.188361	
.214836	.174996	
.220524	.169058	
.226471	.163729	
.230595	.159113	
.236425	.153677	
.243626	.147268	
.247676	.143028	
.251599	.138634	
.25591	.134188	
.259557	.130824	
.264037	.126552	
.26747	.123148	
.272254	.118724	
.276602	.114972	
.28175	.110783	
.285999	.107065	
.287914	.104443	
.291551	.101528	
.293745	.099569	
.295675	.097446	
.299315	.094424	
.301727	.09215	
.30598	.089065	
.309221	.086677	
.31142	.084577	
.31514	.082329	
.318901	.078757	
.321887	.076535	
.325269	.073527	
.327878	.071887	
.330349	.070022	
.332795	.068297	

System: water + dipotassium phosphate (K2HPO4) + 1-butyl-3-methylimidazolium methanesulfonate; phases: Liquid mixture 2, Liquid mixture 1
Property: Mass fraction of 1-butyl-3-methylimidazolium methanesulfonate (Liquid mixture 2); method: Titration method
Property: Mass fraction of 1-butyl-3-methylimidazolium methanesulfonate (Liquid mixture 1); method: Titration method
Property: Mass fraction of dipotassium phosphate (K2HPO4) (Liquid mixture 1); method: Titration method
Temperature, K	Pressure, kPa	Mass fraction of dipotassium phosphate (K2HPO4)	Mass fraction of 1-butyl-3-methylimidazolium methanesulfonate	uncertainty	Mass fraction of 1-butyl-3-methylimidazolium methanesulfonate	uncertainty	Mass fraction of dipotassium phosphate (K2HPO4)	uncertainty
298	101.325	.4608	.014	.0002	.4224	.0002	.0538	.0002
298	101.325	.5225	.0047	.0002	.4479	.0002	.045	.0002

System: water + potassium acid phosphate + 1-butyl-3-methylimidazolium triflate; phases: Liquid, Crystal
Fixed: Temperature, K = 298
Fixed: Pressure, kPa = 101
Property: Mass fraction of 1-butyl-3-methylimidazolium triflate (Liquid); method: Titration method
Mass fraction of potassium acid phosphate	Mass fraction of 1-butyl-3-methylimidazolium triflate	uncertainty
.021029	.55706	
.027943	.520838	
.030619	.498469	
.035264	.463976	
.038915	.426072	
.042649	.401446	
.046358	.381879	
.050821	.35512	
.052053	.344776	
.054919	.332992	
.057356	.319887	
.058405	.313474	
.061123	.299573	
.064075	.287579	
.065811	.278975	
.067427	.271014	
.068917	.263379	
.071656	.253379	
.075006	.241722	
.078148	.231538	
.080286	.223509	
.084974	.209969	
.089767	.19736	

System: water + potassium acid phosphate + 1-butyl-3-methylimidazolium triflate; phases: Liquid mixture 2, Liquid mixture 1
Property: Mass fraction of 1-butyl-3-methylimidazolium triflate (Liquid mixture 2); method: Titration method
Property: Mass fraction of 1-butyl-3-methylimidazolium triflate (Liquid mixture 1); method: Titration method
Property: Mass fraction of potassium acid phosphate (Liquid mixture 1); method: Titration method
Temperature, K	Pressure, kPa	Mass fraction of potassium acid phosphate	Mass fraction of 1-butyl-3-methylimidazolium triflate	uncertainty	Mass fraction of 1-butyl-3-methylimidazolium triflate	uncertainty	Mass fraction of potassium acid phosphate	uncertainty
298	101.325	.2254	.001	.0002	.4529	.0002	.035	.0002
298	101.325	.2721	0	.0002	.5391	.0002	.0247	.0002
