Measured thermophysical data. Binary and ternary (liquid + liquid) equilibrium for {methylcyclohexane (1) + toluene (2) + 1-hexyl-3-methylimidazolium tetracyanoborate (3)/1-butyl-3-methylimidazolium tetracyanoborate (3)}
Source: J. Chem. Thermodyn., 2011, 10.1016/j.jct.2011.05.029
Compound 1: 1-hexyl-3-methylimidazolium tetracyanoborate, C14H19BN6, purity 98%
Compound 2: 1-butyl-3-methylimidazolium tetracyanoborate, C12H15BN6, purity 98%
Compound 3: toluene, C7H8, purity 99.9%
Compound 4: cyclohexane, methyl-, C7H14, purity 98%

System: toluene + 1-hexyl-3-methylimidazolium tetracyanoborate; phases: Liquid mixture 1, Liquid mixture 2
Property: Mole fraction of toluene (Liquid mixture 1); method: Chromatography
Temperature, K	Pressure, kPa	Mole fraction of toluene	uncertainty
293.15	101.325	.9999	.001
313.15	101.325	.9999	.001
333.15	101.325	.9999	.001

System: toluene + 1-hexyl-3-methylimidazolium tetracyanoborate; phases: Liquid mixture 2, Liquid mixture 1
Property: Mole fraction of toluene (Liquid mixture 2); method: Chromatography
Temperature, K	Pressure, kPa	Mole fraction of toluene	uncertainty
293.15	101.325	.7663	.001
313.15	101.325	.7756	.001
333.15	101.325	.7799	.001

System: toluene + 1-butyl-3-methylimidazolium tetracyanoborate; phases: Liquid mixture 1, Liquid mixture 2
Property: Mole fraction of toluene (Liquid mixture 1); method: Chromatography
Temperature, K	Pressure, kPa	Mole fraction of toluene	uncertainty
293.15	101.325	.9999	.001
313.15	101.325	.9999	.001
333.15	101.325	.9999	.001

System: toluene + 1-butyl-3-methylimidazolium tetracyanoborate; phases: Liquid mixture 2, Liquid mixture 1
Property: Mole fraction of toluene (Liquid mixture 2); method: Chromatography
Temperature, K	Pressure, kPa	Mole fraction of toluene	uncertainty
293.15	101.325	.7341	.001
313.15	101.325	.7235	.001
333.15	101.325	.7042	.001

System: cyclohexane, methyl- + 1-hexyl-3-methylimidazolium tetracyanoborate; phases: Liquid mixture 1, Liquid mixture 2
Property: Mole fraction of cyclohexane, methyl- (Liquid mixture 1); method: Chromatography
Temperature, K	Pressure, kPa	Mole fraction of cyclohexane, methyl-	uncertainty
293.15	101	.9999	.001
313.15	101	.9999	.001
333.15	101	.9999	.001

System: cyclohexane, methyl- + 1-hexyl-3-methylimidazolium tetracyanoborate; phases: Liquid mixture 2, Liquid mixture 1
Property: Mole fraction of cyclohexane, methyl- (Liquid mixture 2); method: Chromatography
Temperature, K	Pressure, kPa	Mole fraction of cyclohexane, methyl-	uncertainty
293.15	101	.1239	.001
313.15	101	.1288	.001
333.15	101	.1392	.001

System: cyclohexane, methyl- + 1-butyl-3-methylimidazolium tetracyanoborate; phases: Liquid mixture 1, Liquid mixture 2
Property: Mole fraction of cyclohexane, methyl- (Liquid mixture 1); method: Chromatography
Temperature, K	Pressure, kPa	Mole fraction of cyclohexane, methyl-	uncertainty
293.15	101.325	.9999	.001
313.15	101.325	.9999	.001
333.15	101.325	.9999	.001

System: cyclohexane, methyl- + 1-butyl-3-methylimidazolium tetracyanoborate; phases: Liquid mixture 2, Liquid mixture 1
Property: Mole fraction of cyclohexane, methyl- (Liquid mixture 2); method: Chromatography
Temperature, K	Pressure, kPa	Mole fraction of cyclohexane, methyl-	uncertainty
293.15	101.325	.0884	.001
313.15	101.325	.0814	.001
333.15	101.325	.0973	.001

System: cyclohexane, methyl- + toluene + 1-hexyl-3-methylimidazolium tetracyanoborate; phases: Liquid mixture 2, Liquid mixture 1
Property: Mole fraction of cyclohexane, methyl- (Liquid mixture 2); method: Chromatography
Property: Mole fraction of cyclohexane, methyl- (Liquid mixture 1); method: Chromatography
Property: Mole fraction of toluene (Liquid mixture 1); method: Chromatography
Temperature, K	Pressure, kPa	Mole fraction of toluene	Mole fraction of cyclohexane, methyl-	uncertainty	Mole fraction of cyclohexane, methyl-	uncertainty	Mole fraction of toluene	uncertainty
293.15	1	.1284	.0894	.001	.9118	.001	.0882	.001
293.15	1	.2426	.1007	.001	.8142	.001	.1857	.001
293.15	1	.3601	.0828	.001	.6988	.001	.3012	.001
293.15	1	.4513	.0752	.001	.5835	.001	.4165	.001
293.15	1	.4884	.0816	.001	.5252	.001	.4748	.001
293.15	1	.5913	.0589	.001	.3517	.001	.6482	.001
293.15	1	.6613	.0473	.001	.219	.001	.781	.001
293.15	1	.6986	.0282	.001	.1403	.001	.8597	.001
293.15	1	.7417	.0099	.001	.0595	.001	.9405	.001
313.15	1	.1189	.1071	.001	.9085	.001	.0915	.001
313.15	1	.2246	.1136	.001	.8078	.001	.1922	.001
313.15	1	.3422	.0916	.001	.6911	.001	.3088	.001
313.15	1	.4337	.084	.001	.5716	.001	.4283	.001
313.15	1	.4699	.0876	.001	.5141	.001	.4859	.001
313.15	1	.5755	.0639	.001	.3448	.001	.6552	.001
313.15	1	.6486	.0495	.001	.2093	.001	.7907	.001
313.15	1	.689	.0296	.001	.1392	.001	.8607	.001
313.15	1	.7341	.0105	.001	.0596	.001	.9403	.001
333.15	1	.1105	.1184	.001	.9036	.001	.0964	.001
333.15	1	.211	.1192	.001	.7906	.001	.2093	.001
333.15	1	.3259	.1005	.001	.6835	.001	.3165	.001
333.15	1	.4178	.0878	.001	.561	.001	.4389	.001
333.15	1	.4489	.0909	.001	.5054	.001	.4946	.001
333.15	1	.5693	.0661	.001	.3334	.001	.6666	.001
333.15	1	.6354	.0497	.001	.2026	.001	.7973	.001
333.15	1	.6789	.0308	.001	.1389	.001	.8611	.001
333.15	1	.7236	.0107	.001	.0668	.001	.9332	.001

System: cyclohexane, methyl- + toluene + 1-butyl-3-methylimidazolium tetracyanoborate; phases: Liquid mixture 2, Liquid mixture 1
Property: Mole fraction of cyclohexane, methyl- (Liquid mixture 2); method: Chromatography
Property: Mole fraction of cyclohexane, methyl- (Liquid mixture 1); method: Chromatography
Property: Mole fraction of toluene (Liquid mixture 1); method: Chromatography
Temperature, K	Pressure, kPa	Mole fraction of toluene	Mole fraction of cyclohexane, methyl-	uncertainty	Mole fraction of cyclohexane, methyl-	uncertainty	Mole fraction of toluene	uncertainty
293.15	1	.1021	.0553	.001	.9058	.001	.0942	.001
293.15	1	.2272	.0772	.001	.779	.001	.221	.001
293.15	1	.3147	.0539	.001	.6958	.001	.3042	.001
293.15	1	.4052	.05	.001	.5738	.001	.4262	.001
293.15	1	.4719	.0603	.001	.4529	.001	.547	.001
293.15	1	.542	.0451	.001	.3524	.001	.6476	.001
293.15	1	.5977	.0429	.001	.2329	.001	.767	.001
293.15	1	.6568	.0184	.001	.1451	.001	.8549	.001
293.15	1	.704	.0058	.001	.0607	.001	.9393	.001
313.15	1	.0972	.0699	.001	.9018	.001	.0982	.001
313.15	1	.212	.0856	.001	.7563	.001	.2437	.001
313.15	1	.2952	.0593	.001	.6859	.001	.3141	.001
313.15	1	.3865	.0552	.001	.5644	.001	.4356	.001
313.15	1	.4529	.0643	.001	.4384	.001	.5616	.001
313.15	1	.5271	.0417	.001	.3453	.001	.6547	.001
313.15	1	.5804	.044	.001	.2261	.001	.7739	.001
313.15	1	.6409	.0195	.001	.1431	.001	.8569	.001
313.15	1	.6864	.0057	.001	.0652	.001	.9348	.001
333.15	1	.0921	.0787	.001	.8976	.001	.1024	.001
333.15	1	.2035	.0882	.001	.7501	.001	.2499	.001
333.15	1	.2834	.0672	.001	.6788	.001	.3212	.001
333.15	1	.3688	.0622	.001	.556	.001	.444	.001
333.15	1	.4367	.0678	.001	.4302	.001	.5698	.001
333.15	1	.5085	.0579	.001	.3333	.001	.6667	.001
333.15	1	.569	.0459	.001	.222	.001	.778	.001
333.15	1	.6193	.0334	.001	.1437	.001	.8563	.001
333.15	1	.6656	.0252	.001	.0654	.001	.9346	.001
