Measured thermophysical data. Experimental analysis and modeling of CO2 solubility in AMP (2-amino-2-methyl-1-propanol) at low CO2 partial pressure using the models of Deshmukh-Mather and the artificial neural network
Source: J. Chem. Thermodyn., 2011, 10.1016/j.jct.2011.05.032
Compound 1: 2-amino-2-methyl-1-propanol, C4H11NO, purity 95%
Compound 2: carbon dioxide, CO2, purity 99.5%
Compound 3: water, H2O, purity 99.9%

System: carbon dioxide + 2-amino-2-methyl-1-propanol + water; phases: Liquid, Gas
Property: Amount concentration (molarity), mol/dm3 of carbon dioxide (Liquid); method: Gas volume change
Partial pressure, kPa of carbon dioxide	Temperature, K	Solvent: Amount concentration (molarity), mol/dm3 of 2-amino-2-methyl-1-propanol	Amount concentration (molarity), mol/dm3 of carbon dioxide	uncertainty
1747	293	1	.289	
1747	303	1	.419	
1747	313	1	.271	
1747	323	1	.197	
1747	293	2	.578	
1747	303	2	.42	
1747	313	2	.27	
1747	323	2	.132	
1747	293	3	.651	
1747	303	3	.558	
1747	313	3	.405	
1747	323	3	.132	
1747	303	4	.42	
1747	313	4	.34	
1747	323	4	.264	
2620	293	1	.578	
2620	303	1	.629	
2620	313	1	.541	
2620	323	1	.262	
2620	293	2	1.012	
2620	303	2	.908	
2620	313	2	.676	
2620	323	2	.394	
2620	293	3	.939	
2620	303	3	.837	
2620	313	3	.675	
2620	293	4	.868	
2620	303	4	.7	
2620	313	4	.676	
2620	323	4	.524	
4367	303	1	.908	
4367	313	1	.947	
4367	323	1	.655	
4367	293	2	1.59	
4367	303	2	1.258	
4367	313	2	1.352	
4367	323	2	1.18	
4367	293	3	2.457	
4367	303	3	2.166	
4367	313	3	2.097	
4367	323	3	1.704	
4367	293	4	2.744	
4367	303	4	2.376	
4367	313	4	2.164	
4367	323	4	1.704	
