Measured thermophysical data. Ultrasonic velocities, densities, and viscosities of glycylglycine and CoCl2  in aqueous and aqueous ethanol systems at different temperatures
Source: J. Chem. Thermodyn., 2010, 10.1016/j.jct.2010.01.010
Compound 1: glycylglycine, C4H8N2O3, purity 99%
Compound 2: cobalt(II) chloride hexahydrate, Cl2CoH12O6, purity 99%
Compound 3: water, H2O, purity 99.8%
Compound 4: ethanol, C2H6O

System: glycylglycine + water + cobalt(II) chloride hexahydrate; phases: Liquid
Fixed: Pressure, kPa = 101
Fixed: Solvent: Mass ratio of component to other component of binary solvent of glycylglycine = .0026423584
Property: Speed of sound, m/s (Liquid); method: Linear variable-path acoustic interferometer
Temperature, K	Molality, mol/kg of cobalt(II) chloride hexahydrate	Speed of sound, m/s	uncertainty
288.15	0	1505.26	1.204208
288.15	.005	1508.38	1.206704
288.15	.01	1512.51	1.210008
288.15	.03	1516.73	1.213384
288.15	.05	1520.87	1.216696
288.15	.1	1525.05	1.22004
288.15	.25	1530.81	1.224648
288.15	.5	1536.42	1.229136
298.15	0	1600.12	1.280096
298.15	.005	1604.03	1.283224
298.15	.01	1608.94	1.287152
298.15	.03	1613.85	1.29108
298.15	.05	1618.76	1.295008
298.15	.1	1622.67	1.298136
298.15	.25	1629.58	1.303664
298.15	.5	1634.54	1.307632
308.15	0	1700.49	1.360392
308.15	.005	1704.88	1.363904
308.15	.01	1709.27	1.367416
308.15	.03	1713.66	1.370928
308.15	.05	1718.05	1.37444
308.15	.1	1724.44	1.379552
308.15	.25	1730.83	1.384664
308.15	.5	1738.25	1.3906
318.15	0	1805.57	1.444456
318.15	.005	1811.93	1.449544
318.15	.01	1818.29	1.454632
318.15	.03	1824.65	1.45972
318.15	.05	1831.01	1.464808
318.15	.1	1837.37	1.469896
318.15	.25	1843.73	1.474984
318.15	.5	1850.63	1.480504

System: glycylglycine + water + cobalt(II) chloride hexahydrate; phases: Liquid
Fixed: Pressure, kPa = 101
Fixed: Solvent: Mass ratio of component to other component of binary solvent of glycylglycine = .0026423584
Property: Mass density, kg/m3 (Liquid); method: Vibrating tube method
Temperature, K	Molality, mol/kg of cobalt(II) chloride hexahydrate	Mass density, kg/m3	uncertainty
288.15	0	994.4	.003
288.15	.005	996.9	.003
288.15	.01	1006.1	.003
288.15	.03	1015.3	.003
288.15	.05	1024.5	.003
288.15	.1	1033.7	.003
288.15	.25	1042.9	.003
288.15	.5	1052.2	.003
298.15	0	998.1	.003
298.15	.005	1007	.003
298.15	.01	1015.9	.003
298.15	.03	1024.8	.003
298.15	.05	1033.7	.003
298.15	.1	1042.6	.003
298.15	.25	1051.8	.003
298.15	.5	1061.3	.003
308.15	0	1001.7	.003
308.15	.005	1010.6	.003
308.15	.01	1019.5	.003
308.15	.03	1028.5	.003
308.15	.05	1037.4	.003
308.15	.1	1046.4	.003
308.15	.25	1055.5	.003
308.15	.5	1065.3	.003
318.15	0	1005.2	.003
318.15	.005	1014.6	.003
318.15	.01	1024	.003
318.15	.03	1033.4	.003
318.15	.05	1042.9	.003
318.15	.1	1052.4	.003
318.15	.25	1062	.003
318.15	.5	1071.4	.003

System: glycylglycine + water + cobalt(II) chloride hexahydrate; phases: Liquid
Fixed: Pressure, kPa = 101
Fixed: Solvent: Mass ratio of component to other component of binary solvent of glycylglycine = .0026423584
Property: Viscosity, Pa*s (Liquid); method: Cone and plate viscometry
Temperature, K	Molality, mol/kg of cobalt(II) chloride hexahydrate	Viscosity, Pa*s	uncertainty
288.15	0	.0012	.000006
288.15	.005	.00123	.00000615
288.15	.01	.00126	.0000063
288.15	.03	.00129	.00000645
288.15	.05	.00132	.0000066
288.15	.1	.00135	.00000675
288.15	.25	.00139	.00000695
288.15	.5	.0015	.0000075
298.15	0	.00096	.0000048
298.15	.005	.001	.000005
298.15	.01	.00104	.0000052
298.15	.03	.00109	.00000545
298.15	.05	.00115	.00000575
298.15	.1	.0012	.000006
298.15	.25	.00126	.0000063
298.15	.5	.00137	.00000685
308.15	0	.00084	.0000042
308.15	.005	.00087	.00000435
308.15	.01	.00091	.00000455
308.15	.03	.00095	.00000475
308.15	.05	.001	.000005
308.15	.1	.00106	.0000053
308.15	.25	.00112	.0000056
308.15	.5	.00123	.00000615
318.15	0	.0007	.0000035
318.15	.005	.00074	.0000037
318.15	.01	.00078	.0000039
318.15	.03	.00082	.0000041
318.15	.05	.00087	.00000435
318.15	.1	.00093	.00000465
318.15	.25	.00099	.00000495
318.15	.5	.0011	.0000055

System: glycylglycine + water + cobalt(II) chloride hexahydrate; phases: Liquid
Fixed: Pressure, kPa = 101
Fixed: Solvent: Mass ratio of component to other component of binary solvent of cobalt(II) chloride hexahydrate = .0324598
Property: Speed of sound, m/s (Liquid); method: Linear variable-path acoustic interferometer
Temperature, K	Molality, mol/kg of glycylglycine	Speed of sound, m/s	uncertainty
288.15	0	1510.07	1.208056
288.15	.005	1514.18	1.211344
288.15	.007	1519.34	1.215472
288.15	.01	1525.26	1.220208
288.15	.02	1530.81	1.224648
288.15	.03	1536.57	1.229256
288.15	.05	1542.79	1.234232
288.15	.1	1550.18	1.240144
298.15	0	1604.37	1.283496
298.15	.005	1610.69	1.288552
298.15	.007	1617.01	1.293608
298.15	.01	1623.33	1.298664
298.15	.02	1629.58	1.303664
298.15	.03	1635.97	1.308776
298.15	.05	1642.29	1.313832
298.15	.1	1648.61	1.318888
308.15	0	1708.62	1.366896
308.15	.005	1714.17	1.371336
308.15	.007	1719.72	1.375776
308.15	.01	1725.28	1.380224
308.15	.02	1730.83	1.384664
308.15	.03	1736.39	1.389112
308.15	.05	1741.92	1.393536
308.15	.1	1747.47	1.397976
318.15	0	1814.38	1.451504
318.15	.005	1821.71	1.457368
318.15	.007	1829.04	1.463232
318.15	.01	1836.37	1.469096
318.15	.02	1843.73	1.474984
318.15	.03	1851	1.4808
318.15	.05	1858.33	1.486664
318.15	.1	1865.63	1.492504

System: glycylglycine + water + cobalt(II) chloride hexahydrate; phases: Liquid
Fixed: Pressure, kPa = 101
Fixed: Solvent: Mass ratio of component to other component of binary solvent of cobalt(II) chloride hexahydrate = .0324598
Property: Mass density, kg/m3 (Liquid); method: Vibrating tube method
Temperature, K	Molality, mol/kg of glycylglycine	Mass density, kg/m3	uncertainty
288.15	0	996.8	.003
288.15	.005	1008.3	.003
288.15	.007	1019.8	.003
288.15	.01	1031.4	.003
288.15	.02	1042.9	.003
288.15	.03	1054.3	.003
288.15	.05	1066	.003
288.15	.1	1077.5	.003
298.15	0	999.9	.003
298.15	.005	1012.8	.003
298.15	.007	1025.7	.003
298.15	.01	1038.6	.003
298.15	.02	1051.8	.003
298.15	.03	1064.4	.003
298.15	.05	1077.3	.003
298.15	.1	1090.2	.003
308.15	0	1004.2	.003
308.15	.005	1017	.003
308.15	.007	1029.8	.003
308.15	.01	1042.6	.003
308.15	.02	1055.5	.003
308.15	.03	1068.2	.003
308.15	.05	1081	.003
308.15	.1	1093.9	.003
318.15	0	1007	.003
318.15	.005	1020.6	.003
318.15	.007	1034.4	.003
318.15	.01	1048.1	.003
318.15	.02	1062	.003
318.15	.03	1075.6	.003
318.15	.05	1089.3	.003
318.15	.1	1102.9	.003

System: glycylglycine + water + cobalt(II) chloride hexahydrate; phases: Liquid
Fixed: Pressure, kPa = 101
Fixed: Solvent: Mass ratio of component to other component of binary solvent of cobalt(II) chloride hexahydrate = .0324598
Property: Viscosity, Pa*s (Liquid); method: Cone and plate viscometry
Temperature, K	Molality, mol/kg of glycylglycine	Viscosity, Pa*s	uncertainty
288.15	0	.00124	.0000062
288.15	.005	.00127	.00000635
288.15	.007	.0013	.0000065
288.15	.01	.00134	.0000067
288.15	.02	.00139	.00000695
288.15	.03	.00144	.0000072
288.15	.05	.0015	.0000075
288.15	.1	.00157	.00000785
298.15	0	.00102	.0000051
298.15	.005	.00107	.00000535
298.15	.007	.00113	.00000565
298.15	.01	.00119	.00000595
298.15	.02	.00126	.0000063
298.15	.03	.00132	.0000066
298.15	.05	.00138	.0000069
298.15	.1	.00144	.0000072
308.15	0	.0009	.0000045
308.15	.005	.00095	.00000475
308.15	.007	.00101	.00000505
308.15	.01	.00106	.0000053
308.15	.02	.00112	.0000056
308.15	.03	.00118	.0000059
308.15	.05	.00125	.00000625
308.15	.1	.00133	.00000665
318.15	0	.00074	.0000037
318.15	.005	.00079	.00000395
318.15	.007	.00085	.00000425
318.15	.01	.00092	.0000046
318.15	.02	.00099	.00000495
318.15	.03	.00106	.0000053
318.15	.05	.00112	.0000056
318.15	.1	.00118	.0000059
