Measured thermophysical data. Phase equilibria in the Mg(NO3)2 - Ln(NO3)3 (Ln = La, Ce, Pr) - HNO3 ( 21%) - H2O systems at 298.15 K and thermodynamic properties of 3Mg(NO3)2*2Ln(NO3)3*24H2O
Source: J. Chem. Thermodyn., 2017, 10.1016/j.jct.2016.10.036
Compound 1: water, H2O, purity 99.9%
Compound 2: magnesium nitrate, MgN2O6, purity 99.5%
Compound 3: lanthanum(III) nitrate, LaN3O9, purity 99.9%
Compound 4: praseodymium nitrate, N3O9Pr, purity 99.9%
Compound 5: nitric acid, HNO3, purity 99%
Compound 6: lanthanum magnesium nitrate hydrate (La2Mg3(NO3)12*24H2O), H48La2Mg3N12O60, purity 99.4%
Compound 7: cerium magnesium nitrate hydrate (Ce2Mg3(NO3)12*24H2O), Ce2H48Mg3N12O60, purity 99.3%
Compound 8: magnesium praseodymium nitrate hydrate (Pr2Mg3(NO3)12*24H2O), H48Mg3N12O60Pr2, purity 99.4%
Compound 9: cerium nitrate, CeN3O9, purity 99.9%

System: lanthanum magnesium nitrate hydrate (La2Mg3(NO3)12*24H2O); phases: Crystal
Fixed: Pressure, kPa = 101.325
Property: Mass density, kg/m3 (Crystal); method: X-ray diffraction
Temperature, K	Mass density, kg/m3	uncertainty
298.15	4105.6	4.4

System: cerium magnesium nitrate hydrate (Ce2Mg3(NO3)12*24H2O); phases: Crystal
Fixed: Pressure, kPa = 101.325
Property: Mass density, kg/m3 (Crystal); method: X-ray diffraction
Temperature, K	Mass density, kg/m3	uncertainty
298.15	4127.3	1.8

System: magnesium praseodymium nitrate hydrate (Pr2Mg3(NO3)12*24H2O); phases: Crystal
Fixed: Pressure, kPa = 101.325
Property: Mass density, kg/m3 (Crystal); method: X-ray diffraction
Temperature, K	Mass density, kg/m3	uncertainty
298.15	4234.9	3.1

System: nitric acid + water + magnesium nitrate; phases: Liquid, Crystal of intercomponent compound 1
Fixed: Pressure, kPa = 100
Fixed: Temperature, K = 298.15
Property: Mass fraction of magnesium nitrate (Liquid); method: Titration method
Mass fraction of nitric acid	Mass fraction of magnesium nitrate	uncertainty
.2029	.2739	

System: nitric acid + water + lanthanum(III) nitrate; phases: Liquid, Crystal of intercomponent compound 1
Fixed: Pressure, kPa = 100
Fixed: Temperature, K = 298.15
Property: Mass fraction of lanthanum(III) nitrate (Liquid); method: Titration method
Mass fraction of nitric acid	Mass fraction of lanthanum(III) nitrate	uncertainty
.2146	.3928	

System: nitric acid + water + cerium nitrate; phases: Liquid, Crystal of intercomponent compound 1
Fixed: Pressure, kPa = 100
Fixed: Temperature, K = 298.15
Property: Mass fraction of cerium nitrate (Liquid); method: Titration method
Mass fraction of nitric acid	Mass fraction of cerium nitrate	uncertainty
.2031	.4372	

System: nitric acid + water + praseodymium nitrate; phases: Liquid, Crystal of intercomponent compound 1
Fixed: Pressure, kPa = 100
Fixed: Temperature, K = 298.15
Property: Mass fraction of praseodymium nitrate (Liquid); method: Titration method
Mass fraction of nitric acid	Mass fraction of praseodymium nitrate	uncertainty
.2069	.413	

System: water + lanthanum magnesium nitrate hydrate (La2Mg3(NO3)12*24H2O); phases: Liquid
Fixed: Temperature, K = 298.15
Fixed: Pressure, kPa = 100
Property: Molar enthalpy of solution, kJ/mol (Liquid); method: Calvet calorimetry
Mole fraction of lanthanum magnesium nitrate hydrate (La2Mg3(NO3)12*24H2O)	Molar enthalpy of solution, kJ/mol	uncertainty
0	107.96	

System: water + cerium magnesium nitrate hydrate (Ce2Mg3(NO3)12*24H2O); phases: Liquid
Fixed: Temperature, K = 298.15
Fixed: Pressure, kPa = 100
Property: Molar enthalpy of solution, kJ/mol (Liquid); method: Calvet calorimetry
Mole fraction of cerium magnesium nitrate hydrate (Ce2Mg3(NO3)12*24H2O)	Molar enthalpy of solution, kJ/mol	uncertainty
0	110.18	

System: water + magnesium praseodymium nitrate hydrate (Pr2Mg3(NO3)12*24H2O); phases: Liquid
Fixed: Temperature, K = 298.15
Fixed: Pressure, kPa = 100
Property: Molar enthalpy of solution, kJ/mol (Liquid); method: Calvet calorimetry
Mole fraction of magnesium praseodymium nitrate hydrate (Pr2Mg3(NO3)12*24H2O)	Molar enthalpy of solution, kJ/mol	uncertainty
0	102.96	
