Measured thermophysical data. Activity coefficients at infinite dilution, physicochemical and thermodynamic properties for organic solutes and water in the ionic liquid ethyl-dimethyl-(2-methoxyethyl)ammonium trifluorotris-(perfluoroethyl)phosphate
Source: J. Chem. Thermodyn., 2015, 10.1016/j.jct.2015.05.022
Compound 1: ethyldimethyl-(2-methoxyethyl)ammonium trifluorotris(perfluoroethyl)phosphate, C13H18F18NOP, purity 99.5%
Compound 2: pentane, C5H12, purity 99%
Compound 3: hexane, C6H14, purity 99%
Compound 4: 3-methylpentane, C6H14, purity 99%
Compound 5: 2,2-dimethylbutane, C6H14, purity 99%
Compound 6: heptane, C7H16, purity 99.5%
Compound 7: octane, C8H18, purity 99%
Compound 8: 2,2,4-trimethylpentane, C8H18, purity 99%
Compound 9: nonane, C9H20, purity 99%
Compound 10: decane, C10H22, purity 99%
Compound 11: cyclopentane, C5H10, purity 99%
Compound 12: cyclohexane, C6H12, purity 99%
Compound 13: methylcyclohexane, C7H14, purity 99%
Compound 14: cycloheptane, C7H14, purity 98%
Compound 15: cyclooctane, C8H16, purity 99%
Compound 16: 1-pentene, C5H10, purity 98.5%
Compound 17: 1-hexene, C6H12, purity 99%
Compound 18: cyclohexene, C6H10, purity 99%
Compound 19: 1-heptene, C7H14, purity 99%
Compound 20: 1-octene, C8H16, purity 98%
Compound 21: 1-decene, C10H20, purity 97%
Compound 22: 1-pentyne, C5H8, purity 99%
Compound 23: 1-hexyne, C6H10, purity 97%
Compound 24: 1-heptyne, C7H12, purity 98%
Compound 25: 1-octyne, C8H14, purity 97%
Compound 26: benzene, C6H6, purity 99.8%
Compound 27: toluene, C7H8, purity 99.8%
Compound 28: ethylbenzene, C8H10, purity 99.8%
Compound 29: o-xylene, C8H10, purity 99%
Compound 30: m-xylene, C8H10, purity 99%
Compound 31: p-xylene, C8H10, purity 99%
Compound 32: styrene, C8H8, purity 99.9%
Compound 33: .alpha.-methylstyrene, C9H10, purity 99%
Compound 34: thiophene, C4H4S, purity 99%
Compound 35: pyridine, C5H5N, purity 99.8%
Compound 36: methanol, CH4O, purity 99.9%
Compound 37: ethanol, C2H6O, purity 99.8%
Compound 38: propan-1-ol, C3H8O, purity 99.9%
Compound 39: propan-2-ol, C3H8O, purity 99.9%
Compound 40: butan-1-ol, C4H10O, purity 99.8%
Compound 41: butan-2-ol, C4H10O, purity 99.5%
Compound 42: 2-methyl-1-propanol, C4H10O, purity 99.5%
Compound 43: tert-butanol, C4H10O, purity 99.7%
Compound 44: pentan-1-ol, C5H12O, purity 99%
Compound 45: water, H2O
Compound 46: methyl acetate, C3H6O2, purity 99.8%
Compound 47: methyl propanoate, C4H8O2, purity 99%
Compound 48: methyl butanoate, C5H10O2, purity 99%
Compound 49: ethyl acetate, C4H8O2, purity 99.8%
Compound 50: vinyl acetate, C4H6O2, purity 99%
Compound 51: tetrahydrofuran, C4H8O, purity 99.9%
Compound 52: 1,4-dioxane, C4H8O2, purity 99.8%
Compound 53: tert-butyl methyl ether, C5H12O, purity 99.8%
Compound 54: tert-butyl ethyl ether, C6H14O, purity 99%
Compound 55: tert-amyl methyl ether, C6H14O, purity 97%
Compound 56: diethyl ether, C4H10O, purity 99.9%
Compound 57: dipropyl ether, C6H14O, purity 99%
Compound 58: diisopropyl ether, C6H14O, purity 99%
Compound 59: di-n-butyl ether, C8H18O, purity 99.3%
Compound 60: acetone, C3H6O, purity 99.9%
Compound 61: 2-pentanone, C5H10O, purity 99%
Compound 62: 3-pentanone, C5H10O, purity 99%
Compound 63: propanal, C3H6O, purity 97%
Compound 64: butanal, C4H8O, purity 99%
Compound 65: acetonitrile, C2H3N, purity 99.9%
Compound 66: 1-nitropropane, C3H7NO2, purity 98.5%

System: pentane + ethyldimethyl-(2-methoxyethyl)ammonium trifluorotris(perfluoroethyl)phosphate; phases: Liquid
Fixed: Pressure, kPa = 101
Fixed: Mole fraction of pentane = 0
Property: Activity coefficient of pentane (Liquid); method: Chromatography
Temperature, K	Activity coefficient of pentane	uncertainty
318.15	10.1	.303
328.15	9.65	.2895
338.15	9.36	.2808
348.15	8.98	.2694
358.15	8.74	.2622
368.15	8.43	.2529

System: hexane + ethyldimethyl-(2-methoxyethyl)ammonium trifluorotris(perfluoroethyl)phosphate; phases: Liquid
Fixed: Pressure, kPa = 101
Fixed: Mole fraction of hexane = 0
Property: Activity coefficient of hexane (Liquid); method: Chromatography
Temperature, K	Activity coefficient of hexane	uncertainty
318.15	14.8	.444
328.15	14	.42
338.15	13.4	.402
348.15	12.8	.384
358.15	12.2	.366
368.15	11.8	.354

System: 3-methylpentane + ethyldimethyl-(2-methoxyethyl)ammonium trifluorotris(perfluoroethyl)phosphate; phases: Liquid
Fixed: Pressure, kPa = 101
Fixed: Mole fraction of 3-methylpentane = 0
Property: Activity coefficient of 3-methylpentane (Liquid); method: Chromatography
Temperature, K	Activity coefficient of 3-methylpentane	uncertainty
318.15	13.1	.393
328.15	12.3	.369
338.15	11.8	.354
348.15	11.3	.339
358.15	10.8	.324
368.15	10.4	.312

System: 2,2-dimethylbutane + ethyldimethyl-(2-methoxyethyl)ammonium trifluorotris(perfluoroethyl)phosphate; phases: Liquid
Fixed: Pressure, kPa = 101
Fixed: Mole fraction of 2,2-dimethylbutane = 0
Property: Activity coefficient of 2,2-dimethylbutane (Liquid); method: Chromatography
Temperature, K	Activity coefficient of 2,2-dimethylbutane	uncertainty
318.15	11.1	.333
328.15	10.7	.321
338.15	10.3	.309
348.15	10	.3
358.15	9.63	.2889
368.15	9.35	.2805

System: heptane + ethyldimethyl-(2-methoxyethyl)ammonium trifluorotris(perfluoroethyl)phosphate; phases: Liquid
Fixed: Pressure, kPa = 101
Fixed: Mole fraction of heptane = 0
Property: Activity coefficient of heptane (Liquid); method: Chromatography
Temperature, K	Activity coefficient of heptane	uncertainty
318.15	21.8	.654
328.15	20.4	.612
338.15	19.2	.576
348.15	18	.54
358.15	17	.51
368.15	16.2	.486

System: octane + ethyldimethyl-(2-methoxyethyl)ammonium trifluorotris(perfluoroethyl)phosphate; phases: Liquid
Fixed: Pressure, kPa = 101
Fixed: Mole fraction of octane = 0
Property: Activity coefficient of octane (Liquid); method: Chromatography
Temperature, K	Activity coefficient of octane	uncertainty
318.15	32.2	.966
328.15	29.7	.891
338.15	27.5	.825
348.15	25.3	.759
358.15	23.8	.714
368.15	22.3	.669

System: 2,2,4-trimethylpentane + ethyldimethyl-(2-methoxyethyl)ammonium trifluorotris(perfluoroethyl)phosphate; phases: Liquid
Fixed: Pressure, kPa = 101
Fixed: Mole fraction of 2,2,4-trimethylpentane = 0
Property: Activity coefficient of 2,2,4-trimethylpentane (Liquid); method: Chromatography
Temperature, K	Activity coefficient of 2,2,4-trimethylpentane	uncertainty
318.15	19	.57
328.15	18.1	.543
338.15	17.3	.519
348.15	16.5	.495
358.15	15.8	.474
368.15	15.2	.456

System: nonane + ethyldimethyl-(2-methoxyethyl)ammonium trifluorotris(perfluoroethyl)phosphate; phases: Liquid
Fixed: Pressure, kPa = 101
Fixed: Mole fraction of nonane = 0
Property: Activity coefficient of nonane (Liquid); method: Chromatography
Temperature, K	Activity coefficient of nonane	uncertainty
318.15	46.6	1.398
328.15	42.8	1.284
338.15	39.3	1.179
348.15	36	1.08
358.15	33.3	.999
368.15	31.2	.936

System: decane + ethyldimethyl-(2-methoxyethyl)ammonium trifluorotris(perfluoroethyl)phosphate; phases: Liquid
Fixed: Pressure, kPa = 101
Fixed: Mole fraction of decane = 0
Property: Activity coefficient of decane (Liquid); method: Chromatography
Temperature, K	Activity coefficient of decane	uncertainty
318.15	69.3	2.079
328.15	61.8	1.854
338.15	56.3	1.689
348.15	50.9	1.527
358.15	46.7	1.401
368.15	43.3	1.299

System: cyclopentane + ethyldimethyl-(2-methoxyethyl)ammonium trifluorotris(perfluoroethyl)phosphate; phases: Liquid
Fixed: Pressure, kPa = 101
Fixed: Mole fraction of cyclopentane = 0
Property: Activity coefficient of cyclopentane (Liquid); method: Chromatography
Temperature, K	Activity coefficient of cyclopentane	uncertainty
318.15	6.63	.1989
328.15	6.37	.1911
338.15	6.14	.1842
348.15	5.93	.1779
358.15	5.78	.1734
368.15	5.6	.168

System: cyclohexane + ethyldimethyl-(2-methoxyethyl)ammonium trifluorotris(perfluoroethyl)phosphate; phases: Liquid
Fixed: Pressure, kPa = 101
Fixed: Mole fraction of cyclohexane = 0
Property: Activity coefficient of cyclohexane (Liquid); method: Chromatography
Temperature, K	Activity coefficient of cyclohexane	uncertainty
318.15	10.2	.306
328.15	9.6	.288
338.15	9.14	.2742
348.15	8.67	.2601
358.15	8.24	.2472
368.15	7.92	.2376

System: methylcyclohexane + ethyldimethyl-(2-methoxyethyl)ammonium trifluorotris(perfluoroethyl)phosphate; phases: Liquid
Fixed: Pressure, kPa = 101
Fixed: Mole fraction of methylcyclohexane = 0
Property: Activity coefficient of methylcyclohexane (Liquid); method: Chromatography
Temperature, K	Activity coefficient of methylcyclohexane	uncertainty
318.15	13.3	.399
328.15	12.6	.378
338.15	12	.36
348.15	11.3	.339
358.15	10.7	.321
368.15	10.3	.309

System: cycloheptane + ethyldimethyl-(2-methoxyethyl)ammonium trifluorotris(perfluoroethyl)phosphate; phases: Liquid
Fixed: Pressure, kPa = 101
Fixed: Mole fraction of cycloheptane = 0
Property: Activity coefficient of cycloheptane (Liquid); method: Chromatography
Temperature, K	Activity coefficient of cycloheptane	uncertainty
318.15	14.7	.441
328.15	13.8	.414
338.15	12.9	.387
348.15	12.1	.363
358.15	11.3	.339
368.15	10.8	.324

System: cyclooctane + ethyldimethyl-(2-methoxyethyl)ammonium trifluorotris(perfluoroethyl)phosphate; phases: Liquid
Fixed: Pressure, kPa = 101
Fixed: Mole fraction of cyclooctane = 0
Property: Activity coefficient of cyclooctane (Liquid); method: Chromatography
Temperature, K	Activity coefficient of cyclooctane	uncertainty
318.15	20.8	.624
328.15	19.3	.579
338.15	17.9	.537
348.15	16.5	.495
358.15	15.4	.462
368.15	14.6	.438

System: 1-pentene + ethyldimethyl-(2-methoxyethyl)ammonium trifluorotris(perfluoroethyl)phosphate; phases: Liquid
Fixed: Pressure, kPa = 101
Fixed: Mole fraction of 1-pentene = 0
Property: Activity coefficient of 1-pentene (Liquid); method: Chromatography
Temperature, K	Activity coefficient of 1-pentene	uncertainty
318.15	5.02	.1506
328.15	4.99	.1497
338.15	4.97	.1491
348.15	4.93	.1479
358.15	4.91	.1473
368.15	4.89	.1467

System: 1-hexene + ethyldimethyl-(2-methoxyethyl)ammonium trifluorotris(perfluoroethyl)phosphate; phases: Liquid
Fixed: Pressure, kPa = 101
Fixed: Mole fraction of 1-hexene = 0
Property: Activity coefficient of 1-hexene (Liquid); method: Chromatography
Temperature, K	Activity coefficient of 1-hexene	uncertainty
318.15	7.38	.2214
328.15	7.21	.2163
338.15	7.05	.2115
348.15	6.88	.2064
358.15	6.75	.2025
368.15	6.63	.1989

System: cyclohexene + ethyldimethyl-(2-methoxyethyl)ammonium trifluorotris(perfluoroethyl)phosphate; phases: Liquid
Fixed: Pressure, kPa = 101
Fixed: Mole fraction of cyclohexene = 0
Property: Activity coefficient of cyclohexene (Liquid); method: Chromatography
Temperature, K	Activity coefficient of cyclohexene	uncertainty
318.15	5.71	.1713
328.15	5.56	.1668
338.15	5.43	.1629
348.15	5.29	.1587
358.15	5.17	.1551
368.15	5.08	.1524

System: 1-heptene + ethyldimethyl-(2-methoxyethyl)ammonium trifluorotris(perfluoroethyl)phosphate; phases: Liquid
Fixed: Pressure, kPa = 101
Fixed: Mole fraction of 1-heptene = 0
Property: Activity coefficient of 1-heptene (Liquid); method: Chromatography
Temperature, K	Activity coefficient of 1-heptene	uncertainty
318.15	10.7	.321
328.15	10.5	.315
338.15	10.2	.306
348.15	9.83	.2949
358.15	9.6	.288
368.15	9.38	.2814

System: 1-octene + ethyldimethyl-(2-methoxyethyl)ammonium trifluorotris(perfluoroethyl)phosphate; phases: Liquid
Fixed: Pressure, kPa = 101
Fixed: Mole fraction of 1-octene = 0
Property: Activity coefficient of 1-octene (Liquid); method: Chromatography
Temperature, K	Activity coefficient of 1-octene	uncertainty
318.15	15.8	.474
328.15	15.2	.456
338.15	14.6	.438
348.15	14	.42
358.15	13.5	.405
368.15	13.1	.393

System: 1-decene + ethyldimethyl-(2-methoxyethyl)ammonium trifluorotris(perfluoroethyl)phosphate; phases: Liquid
Fixed: Pressure, kPa = 101
Fixed: Mole fraction of 1-decene = 0
Property: Activity coefficient of 1-decene (Liquid); method: Chromatography
Temperature, K	Activity coefficient of 1-decene	uncertainty
318.15	32.7	.981
328.15	31	.93
338.15	29.3	.879
348.15	27.8	.834
358.15	26.5	.795
368.15	25.4	.762

System: 1-pentyne + ethyldimethyl-(2-methoxyethyl)ammonium trifluorotris(perfluoroethyl)phosphate; phases: Liquid
Fixed: Pressure, kPa = 101
Fixed: Mole fraction of 1-pentyne = 0
Property: Activity coefficient of 1-pentyne (Liquid); method: Chromatography
Temperature, K	Activity coefficient of 1-pentyne	uncertainty
318.15	2.23	.0669
328.15	2.28	.0684
338.15	2.32	.0696
348.15	2.36	.0708
358.15	2.41	.0723
368.15	2.45	.0735

System: 1-hexyne + ethyldimethyl-(2-methoxyethyl)ammonium trifluorotris(perfluoroethyl)phosphate; phases: Liquid
Fixed: Pressure, kPa = 101
Fixed: Mole fraction of 1-hexyne = 0
Property: Activity coefficient of 1-hexyne (Liquid); method: Chromatography
Temperature, K	Activity coefficient of 1-hexyne	uncertainty
318.15	3.24	.0972
328.15	3.29	.0987
338.15	3.33	.0999
348.15	3.35	.1005
358.15	3.38	.1014
368.15	3.41	.1023

System: 1-heptyne + ethyldimethyl-(2-methoxyethyl)ammonium trifluorotris(perfluoroethyl)phosphate; phases: Liquid
Fixed: Pressure, kPa = 101
Fixed: Mole fraction of 1-heptyne = 0
Property: Activity coefficient of 1-heptyne (Liquid); method: Chromatography
Temperature, K	Activity coefficient of 1-heptyne	uncertainty
318.15	4.7	.141
328.15	4.7	.141
338.15	4.71	.1413
348.15	4.71	.1413
358.15	4.71	.1413
368.15	4.72	.1416

System: 1-octyne + ethyldimethyl-(2-methoxyethyl)ammonium trifluorotris(perfluoroethyl)phosphate; phases: Liquid
Fixed: Pressure, kPa = 101
Fixed: Mole fraction of 1-octyne = 0
Property: Activity coefficient of 1-octyne (Liquid); method: Chromatography
Temperature, K	Activity coefficient of 1-octyne	uncertainty
318.15	6.71	.2013
328.15	6.66	.1998
338.15	6.6	.198
348.15	6.55	.1965
358.15	6.5	.195
368.15	6.46	.1938

System: benzene + ethyldimethyl-(2-methoxyethyl)ammonium trifluorotris(perfluoroethyl)phosphate; phases: Liquid
Fixed: Pressure, kPa = 101
Fixed: Mole fraction of benzene = 0
Property: Activity coefficient of benzene (Liquid); method: Chromatography
Temperature, K	Activity coefficient of benzene	uncertainty
318.15	.77	.0231
328.15	.816	.02448
338.15	.863	.02589
348.15	.901	.02703
358.15	.952	.02856
368.15	.996	.02988

System: toluene + ethyldimethyl-(2-methoxyethyl)ammonium trifluorotris(perfluoroethyl)phosphate; phases: Liquid
Fixed: Pressure, kPa = 101
Fixed: Mole fraction of toluene = 0
Property: Activity coefficient of toluene (Liquid); method: Chromatography
Temperature, K	Activity coefficient of toluene	uncertainty
318.15	1.05	.0315
328.15	1.12	.0336
338.15	1.18	.0354
348.15	1.24	.0372
358.15	1.31	.0393
368.15	1.36	.0408

System: ethylbenzene + ethyldimethyl-(2-methoxyethyl)ammonium trifluorotris(perfluoroethyl)phosphate; phases: Liquid
Fixed: Pressure, kPa = 101
Fixed: Mole fraction of ethylbenzene = 0
Property: Activity coefficient of ethylbenzene (Liquid); method: Chromatography
Temperature, K	Activity coefficient of ethylbenzene	uncertainty
318.15	1.58	.0474
328.15	1.67	.0501
338.15	1.75	.0525
348.15	1.82	.0546
358.15	1.9	.057
368.15	1.97	.0591

System: o-xylene + ethyldimethyl-(2-methoxyethyl)ammonium trifluorotris(perfluoroethyl)phosphate; phases: Liquid
Fixed: Pressure, kPa = 101
Fixed: Mole fraction of o-xylene = 0
Property: Activity coefficient of o-xylene (Liquid); method: Chromatography
Temperature, K	Activity coefficient of o-xylene	uncertainty
318.15	1.37	.0411
328.15	1.45	.0435
338.15	1.52	.0456
348.15	1.59	.0477
358.15	1.67	.0501
368.15	1.74	.0522

System: m-xylene + ethyldimethyl-(2-methoxyethyl)ammonium trifluorotris(perfluoroethyl)phosphate; phases: Liquid
Fixed: Pressure, kPa = 101
Fixed: Mole fraction of m-xylene = 0
Property: Activity coefficient of m-xylene (Liquid); method: Chromatography
Temperature, K	Activity coefficient of m-xylene	uncertainty
318.15	1.43	.0429
328.15	1.52	.0456
338.15	1.62	.0486
348.15	1.7	.051
358.15	1.79	.0537
368.15	1.87	.0561

System: p-xylene + ethyldimethyl-(2-methoxyethyl)ammonium trifluorotris(perfluoroethyl)phosphate; phases: Liquid
Fixed: Pressure, kPa = 101
Fixed: Mole fraction of p-xylene = 0
Property: Activity coefficient of p-xylene (Liquid); method: Chromatography
Temperature, K	Activity coefficient of p-xylene	uncertainty
318.15	1.48	.0444
328.15	1.58	.0474
338.15	1.66	.0498
348.15	1.75	.0525
358.15	1.84	.0552
368.15	1.92	.0576

System: styrene + ethyldimethyl-(2-methoxyethyl)ammonium trifluorotris(perfluoroethyl)phosphate; phases: Liquid
Fixed: Pressure, kPa = 101
Fixed: Mole fraction of styrene = 0
Property: Activity coefficient of styrene (Liquid); method: Chromatography
Temperature, K	Activity coefficient of styrene	uncertainty
318.15	1.05	.0315
328.15	1.11	.0333
338.15	1.17	.0351
348.15	1.22	.0366
358.15	1.28	.0384
368.15	1.34	.0402

System: .alpha.-methylstyrene + ethyldimethyl-(2-methoxyethyl)ammonium trifluorotris(perfluoroethyl)phosphate; phases: Liquid
Fixed: Pressure, kPa = 101
Fixed: Mole fraction of .alpha.-methylstyrene = 0
Property: Activity coefficient of .alpha.-methylstyrene (Liquid); method: Chromatography
Temperature, K	Activity coefficient of .alpha.-methylstyrene	uncertainty
318.15	1.54	.0462
328.15	1.64	.0492
338.15	1.75	.0525
348.15	1.84	.0552
358.15	1.96	.0588
368.15	2.07	.0621

System: thiophene + ethyldimethyl-(2-methoxyethyl)ammonium trifluorotris(perfluoroethyl)phosphate; phases: Liquid
Fixed: Pressure, kPa = 101
Fixed: Mole fraction of thiophene = 0
Property: Activity coefficient of thiophene (Liquid); method: Chromatography
Temperature, K	Activity coefficient of thiophene	uncertainty
318.15	.807	.02421
328.15	.851	.02553
338.15	.898	.02694
348.15	.936	.02808
358.15	.978	.02934
368.15	1.02	.0306

System: pyridine + ethyldimethyl-(2-methoxyethyl)ammonium trifluorotris(perfluoroethyl)phosphate; phases: Liquid
Fixed: Pressure, kPa = 101
Fixed: Mole fraction of pyridine = 0
Property: Activity coefficient of pyridine (Liquid); method: Chromatography
Temperature, K	Activity coefficient of pyridine	uncertainty
318.15	.378	.01134
328.15	.41	.0123
338.15	.439	.01317
348.15	.477	.01431
358.15	.506	.01518
368.15	.536	.01608

System: methanol + ethyldimethyl-(2-methoxyethyl)ammonium trifluorotris(perfluoroethyl)phosphate; phases: Liquid
Fixed: Pressure, kPa = 101
Fixed: Mole fraction of methanol = 0
Property: Activity coefficient of methanol (Liquid); method: Chromatography
Temperature, K	Activity coefficient of methanol	uncertainty
318.15	2.03	.0609
328.15	1.91	.0573
338.15	1.79	.0537
348.15	1.69	.0507
358.15	1.6	.048
368.15	1.52	.0456

System: ethanol + ethyldimethyl-(2-methoxyethyl)ammonium trifluorotris(perfluoroethyl)phosphate; phases: Liquid
Fixed: Pressure, kPa = 101
Fixed: Mole fraction of ethanol = 0
Property: Activity coefficient of ethanol (Liquid); method: Chromatography
Temperature, K	Activity coefficient of ethanol	uncertainty
318.15	2.38	.0714
328.15	2.22	.0666
338.15	2.07	.0621
348.15	1.93	.0579
358.15	1.83	.0549
368.15	1.73	.0519

System: propan-1-ol + ethyldimethyl-(2-methoxyethyl)ammonium trifluorotris(perfluoroethyl)phosphate; phases: Liquid
Fixed: Pressure, kPa = 101
Fixed: Mole fraction of propan-1-ol = 0
Property: Activity coefficient of propan-1-ol (Liquid); method: Chromatography
Temperature, K	Activity coefficient of propan-1-ol	uncertainty
318.15	3.08	.0924
328.15	2.84	.0852
338.15	2.64	.0792
348.15	2.45	.0735
358.15	2.29	.0687
368.15	2.16	.0648

System: propan-2-ol + ethyldimethyl-(2-methoxyethyl)ammonium trifluorotris(perfluoroethyl)phosphate; phases: Liquid
Fixed: Pressure, kPa = 101
Fixed: Mole fraction of propan-2-ol = 0
Property: Activity coefficient of propan-2-ol (Liquid); method: Chromatography
Temperature, K	Activity coefficient of propan-2-ol	uncertainty
318.15	2.44	.0732
328.15	2.27	.0681
338.15	2.12	.0636
348.15	1.98	.0594
358.15	1.85	.0555
368.15	1.77	.0531

System: butan-1-ol + ethyldimethyl-(2-methoxyethyl)ammonium trifluorotris(perfluoroethyl)phosphate; phases: Liquid
Fixed: Pressure, kPa = 101
Fixed: Mole fraction of butan-1-ol = 0
Property: Activity coefficient of butan-1-ol (Liquid); method: Chromatography
Temperature, K	Activity coefficient of butan-1-ol	uncertainty
318.15	3.95	.1185
328.15	3.66	.1098
338.15	3.36	.1008
348.15	3.09	.0927
358.15	2.87	.0861
368.15	2.7	.081

System: butan-2-ol + ethyldimethyl-(2-methoxyethyl)ammonium trifluorotris(perfluoroethyl)phosphate; phases: Liquid
Fixed: Pressure, kPa = 101
Fixed: Mole fraction of butan-2-ol = 0
Property: Activity coefficient of butan-2-ol (Liquid); method: Chromatography
Temperature, K	Activity coefficient of butan-2-ol	uncertainty
318.15	2.95	.0885
328.15	2.72	.0816
338.15	2.53	.0759
348.15	2.34	.0702
358.15	2.2	.066
368.15	2.08	.0624

System: 2-methyl-1-propanol + ethyldimethyl-(2-methoxyethyl)ammonium trifluorotris(perfluoroethyl)phosphate; phases: Liquid
Fixed: Pressure, kPa = 101
Fixed: Mole fraction of 2-methyl-1-propanol = 0
Property: Activity coefficient of 2-methyl-1-propanol (Liquid); method: Chromatography
Temperature, K	Activity coefficient of 2-methyl-1-propanol	uncertainty
318.15	3.86	.1158
328.15	3.47	.1041
338.15	3.15	.0945
348.15	2.89	.0867
358.15	2.66	.0798
368.15	2.47	.0741

System: tert-butanol + ethyldimethyl-(2-methoxyethyl)ammonium trifluorotris(perfluoroethyl)phosphate; phases: Liquid
Fixed: Pressure, kPa = 101
Fixed: Mole fraction of tert-butanol = 0
Property: Activity coefficient of tert-butanol (Liquid); method: Chromatography
Temperature, K	Activity coefficient of tert-butanol	uncertainty
318.15	2.12	.0636
328.15	2.01	.0603
338.15	1.89	.0567
348.15	1.81	.0543
358.15	1.72	.0516
368.15	1.65	.0495

System: pentan-1-ol + ethyldimethyl-(2-methoxyethyl)ammonium trifluorotris(perfluoroethyl)phosphate; phases: Liquid
Fixed: Pressure, kPa = 101
Fixed: Mole fraction of pentan-1-ol = 0
Property: Activity coefficient of pentan-1-ol (Liquid); method: Chromatography
Temperature, K	Activity coefficient of pentan-1-ol	uncertainty
318.15	4.8	.144
328.15	4.43	.1329
338.15	4.07	.1221
348.15	3.78	.1134
358.15	3.52	.1056
368.15	3.31	.0993

System: water + ethyldimethyl-(2-methoxyethyl)ammonium trifluorotris(perfluoroethyl)phosphate; phases: Liquid
Fixed: Pressure, kPa = 101
Fixed: Mole fraction of water = 0
Property: Activity coefficient of water (Liquid); method: Chromatography
Temperature, K	Activity coefficient of water	uncertainty
318.15	6.69	.2007
328.15	5.94	.1782
338.15	5.17	.1551
348.15	4.63	.1389
358.15	4.11	.1233
368.15	3.72	.1116

System: methyl acetate + ethyldimethyl-(2-methoxyethyl)ammonium trifluorotris(perfluoroethyl)phosphate; phases: Liquid
Fixed: Pressure, kPa = 101
Fixed: Mole fraction of methyl acetate = 0
Property: Activity coefficient of methyl acetate (Liquid); method: Chromatography
Temperature, K	Activity coefficient of methyl acetate	uncertainty
318.15	.318	.00954
328.15	.349	.01047
338.15	.379	.01137
348.15	.408	.01224
358.15	.442	.01326
368.15	.475	.01425

System: methyl propanoate + ethyldimethyl-(2-methoxyethyl)ammonium trifluorotris(perfluoroethyl)phosphate; phases: Liquid
Fixed: Pressure, kPa = 101
Fixed: Mole fraction of methyl propanoate = 0
Property: Activity coefficient of methyl propanoate (Liquid); method: Chromatography
Temperature, K	Activity coefficient of methyl propanoate	uncertainty
318.15	.415	.01245
328.15	.452	.01356
338.15	.49	.0147
348.15	.528	.01584
358.15	.568	.01704
368.15	.614	.01842

System: methyl butanoate + ethyldimethyl-(2-methoxyethyl)ammonium trifluorotris(perfluoroethyl)phosphate; phases: Liquid
Fixed: Pressure, kPa = 101
Fixed: Mole fraction of methyl butanoate = 0
Property: Activity coefficient of methyl butanoate (Liquid); method: Chromatography
Temperature, K	Activity coefficient of methyl butanoate	uncertainty
318.15	.583	.01749
328.15	.631	.01893
338.15	.684	.02052
348.15	.733	.02199
358.15	.78	.0234
368.15	.83	.0249

System: ethyl acetate + ethyldimethyl-(2-methoxyethyl)ammonium trifluorotris(perfluoroethyl)phosphate; phases: Liquid
Fixed: Pressure, kPa = 101
Fixed: Mole fraction of ethyl acetate = 0
Property: Activity coefficient of ethyl acetate (Liquid); method: Chromatography
Temperature, K	Activity coefficient of ethyl acetate	uncertainty
318.15	.409	.01227
328.15	.441	.01323
338.15	.481	.01443
348.15	.519	.01557
358.15	.555	.01665
368.15	.597	.01791

System: vinyl acetate + ethyldimethyl-(2-methoxyethyl)ammonium trifluorotris(perfluoroethyl)phosphate; phases: Liquid
Fixed: Pressure, kPa = 101
Fixed: Mole fraction of vinyl acetate = 0
Property: Activity coefficient of vinyl acetate (Liquid); method: Chromatography
Temperature, K	Activity coefficient of vinyl acetate	uncertainty
318.15	.605	.01815
328.15	.641	.01923
338.15	.679	.02037
348.15	.715	.02145
358.15	.75	.0225
368.15	.791	.02373

System: tetrahydrofuran + ethyldimethyl-(2-methoxyethyl)ammonium trifluorotris(perfluoroethyl)phosphate; phases: Liquid
Fixed: Pressure, kPa = 101
Fixed: Mole fraction of tetrahydrofuran = 0
Property: Activity coefficient of tetrahydrofuran (Liquid); method: Chromatography
Temperature, K	Activity coefficient of tetrahydrofuran	uncertainty
318.15	.437	.01311
328.15	.475	.01425
338.15	.511	.01533
348.15	.546	.01638
358.15	.586	.01758
368.15	.624	.01872

System: 1,4-dioxane + ethyldimethyl-(2-methoxyethyl)ammonium trifluorotris(perfluoroethyl)phosphate; phases: Liquid
Fixed: Pressure, kPa = 101
Fixed: Mole fraction of 1,4-dioxane = 0
Property: Activity coefficient of 1,4-dioxane (Liquid); method: Chromatography
Temperature, K	Activity coefficient of 1,4-dioxane	uncertainty
318.15	.374	.01122
328.15	.414	.01242
338.15	.449	.01347
348.15	.485	.01455
358.15	.53	.0159
368.15	.569	.01707

System: tert-butyl methyl ether + ethyldimethyl-(2-methoxyethyl)ammonium trifluorotris(perfluoroethyl)phosphate; phases: Liquid
Fixed: Pressure, kPa = 101
Fixed: Mole fraction of tert-butyl methyl ether = 0
Property: Activity coefficient of tert-butyl methyl ether (Liquid); method: Chromatography
Temperature, K	Activity coefficient of tert-butyl methyl ether	uncertainty
318.15	1.52	.0456
328.15	1.62	.0486
338.15	1.72	.0516
348.15	1.81	.0543
358.15	1.91	.0573
368.15	2.01	.0603

System: tert-butyl ethyl ether + ethyldimethyl-(2-methoxyethyl)ammonium trifluorotris(perfluoroethyl)phosphate; phases: Liquid
Fixed: Pressure, kPa = 101
Fixed: Mole fraction of tert-butyl ethyl ether = 0
Property: Activity coefficient of tert-butyl ethyl ether (Liquid); method: Chromatography
Temperature, K	Activity coefficient of tert-butyl ethyl ether	uncertainty
318.15	3.78	.1134
328.15	3.9	.117
338.15	4.02	.1206
348.15	4.12	.1236
358.15	4.23	.1269
368.15	4.32	.1296

System: tert-amyl methyl ether + ethyldimethyl-(2-methoxyethyl)ammonium trifluorotris(perfluoroethyl)phosphate; phases: Liquid
Fixed: Pressure, kPa = 101
Fixed: Mole fraction of tert-amyl methyl ether = 0
Property: Activity coefficient of tert-amyl methyl ether (Liquid); method: Chromatography
Temperature, K	Activity coefficient of tert-amyl methyl ether	uncertainty
318.15	2.34	.0702
328.15	2.46	.0738
338.15	2.57	.0771
348.15	2.67	.0801
358.15	2.79	.0837
368.15	2.88	.0864

System: diethyl ether + ethyldimethyl-(2-methoxyethyl)ammonium trifluorotris(perfluoroethyl)phosphate; phases: Liquid
Fixed: Pressure, kPa = 101
Fixed: Mole fraction of diethyl ether = 0
Property: Activity coefficient of diethyl ether (Liquid); method: Chromatography
Temperature, K	Activity coefficient of diethyl ether	uncertainty
318.15	1.6	.048
328.15	1.67	.0501
338.15	1.74	.0522
348.15	1.81	.0543
358.15	1.88	.0564
368.15	1.95	.0585

System: dipropyl ether + ethyldimethyl-(2-methoxyethyl)ammonium trifluorotris(perfluoroethyl)phosphate; phases: Liquid
Fixed: Pressure, kPa = 101
Fixed: Mole fraction of dipropyl ether = 0
Property: Activity coefficient of dipropyl ether (Liquid); method: Chromatography
Temperature, K	Activity coefficient of dipropyl ether	uncertainty
318.15	4.36	.1308
328.15	4.43	.1329
338.15	4.49	.1347
348.15	4.55	.1365
358.15	4.62	.1386
368.15	4.68	.1404

System: diisopropyl ether + ethyldimethyl-(2-methoxyethyl)ammonium trifluorotris(perfluoroethyl)phosphate; phases: Liquid
Fixed: Pressure, kPa = 101
Fixed: Mole fraction of diisopropyl ether = 0
Property: Activity coefficient of diisopropyl ether (Liquid); method: Chromatography
Temperature, K	Activity coefficient of diisopropyl ether	uncertainty
318.15	3.81	.1143
328.15	3.93	.1179
338.15	4.04	.1212
348.15	4.15	.1245
358.15	4.25	.1275
368.15	4.36	.1308

System: di-n-butyl ether + ethyldimethyl-(2-methoxyethyl)ammonium trifluorotris(perfluoroethyl)phosphate; phases: Liquid
Fixed: Pressure, kPa = 101
Fixed: Mole fraction of di-n-butyl ether = 0
Property: Activity coefficient of di-n-butyl ether (Liquid); method: Chromatography
Temperature, K	Activity coefficient of di-n-butyl ether	uncertainty
318.15	9.7	.291
328.15	9.57	.2871
338.15	9.45	.2835
348.15	9.31	.2793
358.15	9.22	.2766
368.15	9.13	.2739

System: acetone + ethyldimethyl-(2-methoxyethyl)ammonium trifluorotris(perfluoroethyl)phosphate; phases: Liquid
Fixed: Pressure, kPa = 101
Fixed: Mole fraction of acetone = 0
Property: Activity coefficient of acetone (Liquid); method: Chromatography
Temperature, K	Activity coefficient of acetone	uncertainty
318.15	.208	.00624
328.15	.229	.00687
338.15	.247	.00741
348.15	.268	.00804
358.15	.287	.00861
368.15	.308	.00924

System: 2-pentanone + ethyldimethyl-(2-methoxyethyl)ammonium trifluorotris(perfluoroethyl)phosphate; phases: Liquid
Fixed: Pressure, kPa = 101
Fixed: Mole fraction of 2-pentanone = 0
Property: Activity coefficient of 2-pentanone (Liquid); method: Chromatography
Temperature, K	Activity coefficient of 2-pentanone	uncertainty
318.15	.362	.01086
328.15	.394	.01182
338.15	.424	.01272
348.15	.455	.01365
358.15	.488	.01464
368.15	.52	.0156

System: 3-pentanone + ethyldimethyl-(2-methoxyethyl)ammonium trifluorotris(perfluoroethyl)phosphate; phases: Liquid
Fixed: Pressure, kPa = 101
Fixed: Mole fraction of 3-pentanone = 0
Property: Activity coefficient of 3-pentanone (Liquid); method: Chromatography
Temperature, K	Activity coefficient of 3-pentanone	uncertainty
318.15	.36	.0108
328.15	.399	.01197
338.15	.429	.01287
348.15	.467	.01401
358.15	.506	.01518
368.15	.54	.0162

System: propanal + ethyldimethyl-(2-methoxyethyl)ammonium trifluorotris(perfluoroethyl)phosphate; phases: Liquid
Fixed: Pressure, kPa = 101
Fixed: Mole fraction of propanal = 0
Property: Activity coefficient of propanal (Liquid); method: Chromatography
Temperature, K	Activity coefficient of propanal	uncertainty
318.15	.334	.01002
328.15	.36	.0108
338.15	.388	.01164
348.15	.413	.01239
358.15	.44	.0132
368.15	.468	.01404

System: butanal + ethyldimethyl-(2-methoxyethyl)ammonium trifluorotris(perfluoroethyl)phosphate; phases: Liquid
Fixed: Pressure, kPa = 101
Fixed: Mole fraction of butanal = 0
Property: Activity coefficient of butanal (Liquid); method: Chromatography
Temperature, K	Activity coefficient of butanal	uncertainty
318.15	.444	.01332
328.15	.478	.01434
338.15	.514	.01542
348.15	.546	.01638
358.15	.58	.0174
368.15	.614	.01842

System: acetonitrile + ethyldimethyl-(2-methoxyethyl)ammonium trifluorotris(perfluoroethyl)phosphate; phases: Liquid
Fixed: Pressure, kPa = 101
Fixed: Mole fraction of acetonitrile = 0
Property: Activity coefficient of acetonitrile (Liquid); method: Chromatography
Temperature, K	Activity coefficient of acetonitrile	uncertainty
318.15	.285	.00855
328.15	.302	.00906
338.15	.318	.00954
348.15	.333	.00999
358.15	.349	.01047
368.15	.365	.01095

System: 1-nitropropane + ethyldimethyl-(2-methoxyethyl)ammonium trifluorotris(perfluoroethyl)phosphate; phases: Liquid
Fixed: Pressure, kPa = 101
Fixed: Mole fraction of 1-nitropropane = 0
Property: Activity coefficient of 1-nitropropane (Liquid); method: Chromatography
Temperature, K	Activity coefficient of 1-nitropropane	uncertainty
318.15	.544	.01632
328.15	.568	.01704
338.15	.591	.01773
348.15	.612	.01836
358.15	.63	.0189
368.15	.653	.01959
