Measured thermophysical data. Solubility determination and thermodynamic modelling of allisartan isoproxil in different binary solvent mixtures from T = (278.15 to 313.15) K and mixing properties of solutions
Source: J. Chem. Thermodyn., 2016, 10.1016/j.jct.2016.08.035
Compound 1: Allisartan isoproxil, C27H29ClN6O5, purity 99.5%
Compound 2: acetone, C3H6O, purity 99.5%
Compound 3: acetonitrile, C2H3N, purity 99.5%
Compound 4: methanol, CH4O, purity 99.5%
Compound 5: water, H2O, purity 99.5%

System: Allisartan isoproxil; phases: Crystal, Liquid, Air at 1 atmosphere
Property: Normal melting temperature, K (Crystal); method: DSC/DTA
Normal melting temperature, K	uncertainty
424.26	.5

System: Allisartan isoproxil; phases: Crystal, Liquid, Air at 1 atmosphere
Property: Molar enthalpy of transition or fusion, kJ/mol (Crystal); method: DSC
Molar enthalpy of transition or fusion, kJ/mol	uncertainty
42.78	1.17

System: acetone + water + Allisartan isoproxil; phases: Liquid, Crystal
Fixed: Pressure, kPa = 100
Property: Mole fraction of Allisartan isoproxil (Liquid); method: Gravimetric analysis
Temperature, K	Solvent: Mole fraction of acetone	Mole fraction of Allisartan isoproxil	uncertainty
278.15	.3	.000144	
278.15	.4	.000688	
278.15	.5	.00212	
278.15	.6	.00428	
278.15	.7	.00735	
278.15	.8	.0107	
278.15	.9	.01231	
278.15	1	.00987	
283.15	.3	.000209	
283.15	.4	.000912	
283.15	.5	.00249	
283.15	.6	.00514	
283.15	.7	.00855	
283.15	.8	.01205	
283.15	.9	.01335	
283.15	1	.0112	
288.15	.3	.000267	
288.15	.4	.00131	
288.15	.5	.00318	
288.15	.6	.00615	
288.15	.7	.0102	
288.15	.8	.01414	
288.15	.9	.01619	
288.15	1	.0132	
293.15	.3	.000344	
293.15	.4	.00177	
293.15	.5	.00407	
293.15	.6	.00757	
293.15	.7	.01199	
293.15	.8	.01652	
293.15	.9	.01907	
293.15	1	.01554	
298.15	.3	.000482	
298.15	.4	.00229	
298.15	.5	.00502	
298.15	.6	.00925	
298.15	.7	.01457	
298.15	.8	.01985	
298.15	.9	.0227	
298.15	1	.01903	
303.15	.3	.000664	
303.15	.4	.0029	
303.15	.5	.0065	
303.15	.6	.01175	
303.15	.7	.01824	
303.15	.8	.02451	
303.15	.9	.02737	
303.15	1	.02345	
308.15	.3	.000871	
308.15	.4	.00387	
308.15	.5	.00916	
308.15	.6	.01607	
308.15	.7	.0243	
308.15	.8	.03143	
308.15	.9	.03405	
308.15	1	.02991	
313.15	.3	.00112	
313.15	.4	.00495	
313.15	.5	.01164	
313.15	.6	.02085	
313.15	.7	.03032	
313.15	.8	.03739	
313.15	.9	.03957	
313.15	1	.03637	

System: acetonitrile + water + Allisartan isoproxil; phases: Liquid, Crystal
Fixed: Pressure, kPa = 100
Property: Mole fraction of Allisartan isoproxil (Liquid); method: Gravimetric analysis
Temperature, K	Solvent: Mole fraction of acetonitrile	Mole fraction of Allisartan isoproxil	uncertainty
278.15	.3	.000137	
278.15	.4	.000393	
278.15	.5	.000758	
278.15	.6	.00125	
278.15	.7	.00194	
278.15	.8	.0027	
278.15	.9	.0025	
278.15	1	.00131	
283.15	.3	.000148	
283.15	.4	.000434	
283.15	.5	.000862	
283.15	.6	.00144	
283.15	.7	.00226	
283.15	.8	.00309	
283.15	.9	.00286	
283.15	1	.00154	
288.15	.3	.000184	
288.15	.4	.00054	
288.15	.5	.00109	
288.15	.6	.00182	
288.15	.7	.00287	
288.15	.8	.00381	
288.15	.9	.00354	
288.15	1	.00195	
293.15	.3	.000231	
293.15	.4	.000672	
293.15	.5	.00138	
293.15	.6	.0023	
293.15	.7	.00375	
293.15	.8	.00498	
293.15	.9	.00464	
293.15	1	.00247	
298.15	.3	.000309	
298.15	.4	.000923	
298.15	.5	.00189	
298.15	.6	.00302	
298.15	.7	.00505	
298.15	.8	.00662	
298.15	.9	.00613	
298.15	1	.00326	
303.15	.3	.000336	
303.15	.4	.0011	
303.15	.5	.00232	
303.15	.6	.0041	
303.15	.7	.00647	
303.15	.8	.00839	
303.15	.9	.00775	
303.15	1	.00445	
308.15	.3	.000484	
308.15	.4	.00147	
308.15	.5	.00302	
308.15	.6	.0056	
308.15	.7	.00867	
308.15	.8	.01111	
308.15	.9	.01032	
308.15	1	.00597	
313.15	.3	.000573	
313.15	.4	.00184	
313.15	.5	.0041	
313.15	.6	.00735	
313.15	.7	.01173	
313.15	.8	.01458	
313.15	.9	.01321	
313.15	1	.00816	

System: methanol + water + Allisartan isoproxil; phases: Liquid, Crystal
Fixed: Pressure, kPa = 100
Property: Mole fraction of Allisartan isoproxil (Liquid); method: Gravimetric analysis
Temperature, K	Solvent: Mole fraction of methanol	Mole fraction of Allisartan isoproxil	uncertainty
278.15	.5	.0000166	
278.15	.6	.0000576	
278.15	.7	.000147	
278.15	.8	.000325	
278.15	.9	.000608	
278.15	1	.00111	
283.15	.5	.0000208	
283.15	.6	.0000703	
283.15	.7	.000178	
283.15	.8	.000367	
283.15	.9	.000753	
283.15	1	.00128	
288.15	.5	.0000264	
288.15	.6	.0000868	
288.15	.7	.000214	
288.15	.8	.000523	
288.15	.9	.00099	
288.15	1	.00156	
293.15	.5	.0000376	
293.15	.6	.000124	
293.15	.7	.000319	
293.15	.8	.000703	
293.15	.9	.00133	
293.15	1	.00209	
298.15	.5	.0000558	
298.15	.6	.000179	
298.15	.7	.000434	
298.15	.8	.000914	
298.15	.9	.00181	
298.15	1	.00277	
303.15	.5	.000081	
303.15	.6	.00025	
303.15	.7	.00056	
303.15	.8	.0012	
303.15	.9	.00226	
303.15	1	.00361	
308.15	.5	.000112	
308.15	.6	.00032	
308.15	.7	.00077	
308.15	.8	.00168	
308.15	.9	.00325	
308.15	1	.00508	
313.15	.5	.000161	
313.15	.6	.000444	
313.15	.7	.00106	
313.15	.8	.00227	
313.15	.9	.00437	
313.15	1	.00772	

System: acetone + Allisartan isoproxil; phases: Liquid, Crystal
Property: Mole fraction of Allisartan isoproxil (Liquid); method: Gravimetric analysis
Temperature, K	Pressure, kPa	Mole fraction of Allisartan isoproxil	uncertainty
278.15	100	.00987	
283.15	100	.0112	
288.15	100	.0132	
293.15	100	.01554	
298.15	100	.01903	
303.15	100	.02345	
308.15	100	.02991	
313.15	100	.03637	

System: acetonitrile + Allisartan isoproxil; phases: Liquid, Crystal
Property: Mole fraction of Allisartan isoproxil (Liquid); method: Gravimetric analysis
Temperature, K	Pressure, kPa	Mole fraction of Allisartan isoproxil	uncertainty
278.15	100	.00131	
283.15	100	.00154	
288.15	100	.00195	
293.15	100	.00247	
298.15	100	.00326	
303.15	100	.00445	
308.15	100	.00597	
313.15	100	.00816	

System: methanol + Allisartan isoproxil; phases: Liquid, Crystal
Property: Mole fraction of Allisartan isoproxil (Liquid); method: Gravimetric analysis
Temperature, K	Pressure, kPa	Mole fraction of Allisartan isoproxil	uncertainty
278.15	100	.00111	
283.15	100	.00128	
288.15	100	.00156	
293.15	100	.00209	
298.15	100	.00277	
303.15	100	.00361	
308.15	100	.00508	
313.15	100	.00772	
