Measured thermophysical data. Solubility of nicotinic acid in water, ethanol, acetone, diethyl ether, acetonitrile, and dimethyl sulfoxide
Source: J. Chem. Thermodyn., 2012, 10.1016/j.jct.2011.11.023
Compound 1: 3-pyridinecarboxylic acid, C6H5NO2, purity 99.5%
Compound 2: ethanol, C2H6O, purity 99.9%
Compound 3: methylsulfinylmethane, C2H6OS, purity 99.9%
Compound 4: acetone, C3H6O, purity 99.8%
Compound 5: ethanonitrile, C2H3N, purity 99.9%
Compound 6: ethyl ether, C4H10O, purity 99.7%
Compound 7: water, H2O, purity 99.9%

System: 3-pyridinecarboxylic acid; phases: Crystal 2, Crystal 1, Air at 1 atmosphere
Property: Molar enthalpy of transition or fusion, kJ/mol (Crystal 2); method: DSC/DTA
Molar enthalpy of transition or fusion, kJ/mol	uncertainty
1.03	.09

System: 3-pyridinecarboxylic acid; phases: Crystal 1, Liquid, Air at 1 atmosphere
Property: Molar enthalpy of transition or fusion, kJ/mol (Crystal 1); method: DSC/DTA
Molar enthalpy of transition or fusion, kJ/mol	uncertainty
27.6	.1

System: 3-pyridinecarboxylic acid; phases: Crystal 1, Liquid
Property: Solid-liquid equilibrium temperature, K (Crystal 1); method: DSC/DTA
Pressure, kPa	Solid-liquid equilibrium temperature, K	uncertainty
101.3	510.4	.5

System: 3-pyridinecarboxylic acid; phases: Crystal 2, Crystal 1
Property: Solid-liquid equilibrium temperature, K (Crystal 2); method: DSC/DTA
Pressure, kPa	Solid-liquid equilibrium temperature, K	uncertainty
101.3	455.7	.3

System: 3-pyridinecarboxylic acid + water; phases: Liquid, Crystal
Fixed: Pressure, kPa = 101
Property: Mole fraction of 3-pyridinecarboxylic acid (Liquid); method: Gravimetric
Temperature, K	Mole fraction of 3-pyridinecarboxylic acid	uncertainty
283.59	.001721	.00004
293.41	.002183	.00003
303.03	.002805	.000076
312.97	.003655	.0001
322.83	.00465	.000032
332.01	.005859	.000052

System: 3-pyridinecarboxylic acid + ethanol; phases: Liquid, Crystal
Fixed: Pressure, kPa = 101
Property: Mole fraction of 3-pyridinecarboxylic acid (Liquid); method: Gravimetric
Temperature, K	Mole fraction of 3-pyridinecarboxylic acid	uncertainty
283.38	.002235	.000004
293.46	.003087	.000154
303.15	.004234	.000018
312.83	.006052	.000078
322.64	.008427	.000008
332.43	.011465	.000052

System: 3-pyridinecarboxylic acid + methylsulfinylmethane; phases: Liquid, Crystal
Fixed: Pressure, kPa = 101
Property: Mole fraction of 3-pyridinecarboxylic acid (Liquid); method: Gravimetric
Temperature, K	Mole fraction of 3-pyridinecarboxylic acid	uncertainty
293.56	.05966	.00175
303.38	.07404	.0006
313.07	.09106	.00085
322.84	.10852	.00067
332.36	.13059	.00015

System: 3-pyridinecarboxylic acid + methylsulfinylmethane; phases: Liquid, Crystal
Fixed: Pressure, kPa = 101
Property: Molar enthalpy of solution, kJ/mol (Liquid); method: Isoperibol calorimetry
Temperature, K	Molar enthalpy of solution, kJ/mol	uncertainty
298	19.03	.08

System: 3-pyridinecarboxylic acid + acetone; phases: Liquid, Crystal
Fixed: Pressure, kPa = 101
Property: Mole fraction of 3-pyridinecarboxylic acid (Liquid); method: Gravimetric
Temperature, K	Mole fraction of 3-pyridinecarboxylic acid	uncertainty
285.46	.000733	.000012
292.26	.001139	.000026
296.8	.001373	.000018
302.14	.00161	.000058
307.1	.002314	.000066
317.11	.00318	.00014

System: 3-pyridinecarboxylic acid + ethanonitrile; phases: Liquid, Crystal
Fixed: Pressure, kPa = 101
Property: Mole fraction of 3-pyridinecarboxylic acid (Liquid); method: Gravimetric
Temperature, K	Mole fraction of 3-pyridinecarboxylic acid	uncertainty
283.3	.0000712	.0000168
288.51	.0001204	.0000284
293.01	.0001696	.0000192
297.58	.000185	.0000148
302.63	.000268	.0000214
306.91	.0003541	.0000158
312.49	.0004752	.00002
316.21	.0005473	.0000166
322.45	.000715	.0000342
332.32	.0010707	.00003

System: 3-pyridinecarboxylic acid + ethyl ether; phases: Liquid, Crystal
Fixed: Pressure, kPa = 101
Property: Mole fraction of 3-pyridinecarboxylic acid (Liquid); method: Gravimetric
Temperature, K	Mole fraction of 3-pyridinecarboxylic acid	uncertainty
283.45	.0003224	.0000752
285.74	.0003786	.000049
290.57	.0005386	.0000486
294.02	.0006179	.0000328
298.66	.0008132	.000053
