Measured thermophysical data. High-pressure (vapour + liquid) equilibria for ternary systems composed by {(E)-2-hexenal or hexanal + carbon dioxide + water}: Partition coefficient measurement
Source: J. Chem. Thermodyn., 2015, 10.1016/j.jct.2015.05.003
Compound 1: ethanol, C2H6O, purity 99.9%
Compound 2: (E)-2-hexenal, C6H10O, purity 99.5%
Compound 3: hexanal, C6H12O, purity 98%
Compound 4: water, H2O, purity 99.8%
Compound 5: carbon dioxide, CO2, purity 99.999%

System: ethanol + carbon dioxide + water; phases: Liquid, Gas
Fixed: Temperature, K = 333
Property: Mass fraction of ethanol (Liquid); method: Index of refraction calibration data
Property: Mass fraction of carbon dioxide (Gas); method: Index of refraction calibration data
Property: Mass fraction of ethanol (Gas); method: Index of refraction calibration data
Pressure, kPa	Mass fraction of carbon dioxide	Mass fraction of ethanol	uncertainty	Mass fraction of carbon dioxide	uncertainty	Mass fraction of ethanol	uncertainty
10110	.0345	.0559	.06	.9821	.0036	.009	.0003
10050	.0374	.1457	.06	.9906	.0036	.0084	.0003
10220	.0399	.1466	.06	.9859	.0036	.0113	.0003
10060	.0635	.3011	.06	.9844	.0036	.0136	.0003
9960	.1529	.4859	.06	.9821	.0036	.0165	.0003
10200	.1628	.4672	.06	.9789	.0036	.0205	.0003
10030	.3364	.4831	.06	.9764	.0036	.0218	.0003

System: carbon dioxide + (E)-2-hexenal + water; phases: Liquid, Gas
Property: Mole fraction of (E)-2-hexenal (Liquid); method: spectrophotometry
Property: Mole fraction of water (Gas); method: spectrophotometry
Property: Mole fraction of (E)-2-hexenal (Gas); method: spectrophotometry
Temperature, K	Pressure, kPa	Mole fraction of water	Mole fraction of (E)-2-hexenal	uncertainty	Mole fraction of water	uncertainty	Mole fraction of (E)-2-hexenal	uncertainty
313	8600	.9856588	.0000068	.0000015	.001393	.004	.000106	.000032
323	14500	.985293	.000002	.0000015	.004276	.004	.000113	.000032
323	15900	.9812193	.0000017	.0000015	.005169	.004	.000109	.000032
323	18300	.9745246	.0000014	.0000015	.005114	.004	.000104	.000032
333	7900	.9888051	.0000286	.0000015	.005885	.004	.00016	.000032
333	10000	.9884545	.0000168	.0000015	.004791	.004	.000185	.000032
333	12200	.9869213	.0000058	.0000015	.006041	.004	.000179	.000032
333	14000	.9878069	.0000029	.0000015	.005152	.004	.000156	.000032
333	15700	.9850982	.0000023	.0000015	.006034	.004	.000137	.000032
333	19000	.9834183	.0000017	.0000015	.006747	.004	.000123	.000032
313	10500	.9802045	.0000026	.0000015	.002364	.004	.000132	.000032
313	12600	.9797704	.0000021	.0000015	.002765	.004	.000146	.000032
313	15900	.9824253	.0000017	.0000015	.004548	.004	.000153	.000032
313	14600	.9822765	.0000018	.0000015	.003556	.004	.000147	.000032
313	17200	.9810668	.0000017	.0000015	.005908	.004	.000154	.000032
323	8200	.9866272	.0000284	.0000015	.002243	.004	.000162	.000032
323	10200	.9860766	.0000082	.0000015	.002388	.004	.000163	.000032
323	12100	.9843854	.0000031	.0000015	.003729	.004	.000125	.000032

System: hexanal + carbon dioxide + water; phases: Liquid, Gas
Property: Mole fraction of hexanal (Liquid); method: spectrophotometry
Property: Mole fraction of water (Gas); method: spectrophotometry
Property: Mole fraction of hexanal (Gas); method: spectrophotometry
Temperature, K	Pressure, kPa	Mole fraction of water	Mole fraction of hexanal	uncertainty	Mole fraction of water	uncertainty	Mole fraction of hexanal	uncertainty
313	9700	.9815554	.0000213	.000007	.003061	.003	.000202	.000013
323	18500	.9780056	.0000058	.000007	.005909	.003	.000092	.000013
333	8400	.9863411	.0000265	.000007	.006485	.003	.000288	.000013
333	10100	.9844234	.0000153	.000007	.005083	.003	.000224	.000013
333	12400	.9832437	.0000102	.000007	.005628	.003	.000165	.000013
333	14500	.9845538	.0000085	.000007	.006346	.003	.000132	.000013
333	17100	.9824248	.0000068	.000007	.007305	.003	.000114	.000013
333	17900	.9826842	.0000063	.000007	.007123	.003	.000107	.000013
313	12100	.9779613	.0000111	.000007	.004159	.003	.000137	.000013
313	13900	.9756193	.0000108	.000007	.004709	.003	.000154	.000013
313	16000	.9783578	.0000098	.000007	.004526	.003	.000148	.000013
313	16700	.9787433	.0000085	.000007	.004677	.003	.000136	.000013
323	10200	.9832029	.0000203	.000007	.003004	.003	.00019	.000013
323	12200	.9790918	.0000139	.000007	.004774	.003	.000147	.000013
323	14400	.9783667	.0000118	.000007	.00554	.003	.000126	.000013
323	16600	.9817987	.0000073	.000007	.006177	.003	.000106	.000013

System: ethanol + carbon dioxide; phases: Liquid, Gas
Fixed: Temperature, K = 313
Property: Vapor or sublimation pressure, kPa (Liquid); method: Closed cell (Static) method
Mole fraction of carbon dioxide	Vapor or sublimation pressure, kPa	uncertainty
.1627	3040	50
.2477	4310	50
.322	5170	50
.4049	6050	50
.4767	6110	50
.611	7090	50
.5783	7080	50
.6916	7390	50
.7083	7650	50
.8441	7950	50

System: ethanol + carbon dioxide; phases: Gas, Liquid
Fixed: Temperature, K = 313
Property: Mole fraction of carbon dioxide (Gas); method: Chromatography
Pressure, kPa	Mole fraction of carbon dioxide	uncertainty
3200	.986	.002
4280	.988	.001
5380	.989	.001
6050	.989	.001
7290	.986	.001
7640	.98	.001
