Measured thermophysical data. Thermal conductivity of dry anatase and rutile nano-powders and ethylene and propylene glycol-based TiO2 nanofluids
Source: J. Chem. Thermodyn., 2015, 10.1016/j.jct.2014.12.001
Compound 1: ethylene glycol, C2H6O2, purity 99.5%
Compound 2: propylene glycol, C3H8O2, purity 99.5%

System: ethylene glycol; phases: Liquid
Property: Thermal conductivity, W/m/K (Liquid); method: Parallel plate method
Temperature, K	Pressure, kPa	Thermal conductivity, W/m/K	uncertainty
283.15	100	.239	.01
303.15	100	.248	.01
323.15	100	.257	.01
343.15	100	.266	.01

System: propylene glycol; phases: Liquid
Property: Thermal conductivity, W/m/K (Liquid); method: Parallel plate method
Temperature, K	Pressure, kPa	Thermal conductivity, W/m/K	uncertainty
283.15	100	.206	.01
303.15	100	.207	.01
323.15	100	.206	.01
343.15	100	.207	.01
