Measured thermophysical data. Liquid density of HFE-7000 and HFE-7100 from T = (283 to 363) K at pressures up to 100 MPa
Source: J. Chem. Thermodyn., 2014, 10.1016/j.jct.2014.05.017
Compound 1: R-134a, C2H2F4, purity 99.9%
Compound 2: heptafluoropropyl methyl ether, C4H3F7O, purity 99.5%
Compound 3: methyl nonafluoroisobutyl ether, C5H3F9O, purity 99.5%
Compound 4: 1-methoxy-nonafluorobutane, C5H3F9O, purity 99.5%

System: R-134a; phases: Liquid
Property: Mass density, kg/m3 (Liquid); method: Vibrating tube method
Temperature, K	Pressure, kPa	Mass density, kg/m3	uncertainty
303.27	1010	1188.92	.041
303.27	5010	1212.9	.036
303.26	10020	1237.53	.032
303.26	20020	1276.18	.028
303.27	40000	1332.27	.024
303.27	59990	1374.03	.022
303.29	79930	1408.19	.028
322.47	5000	1139.41	.052
322.48	10000	1173.46	.042
322.48	19990	1222.36	.033
322.48	40000	1289.13	.026
322.48	60010	1336.26	.024
322.48	80000	1373.47	.031
342.86	5010	1045.93	.086
342.87	10010	1097.7	.057
342.88	20010	1162.75	.038
342.89	40000	1242.46	.028
342.89	60010	1296.15	.024
342.89	80000	1337.87	.035
362.81	5000	921.95	.075
362.82	10010	1013.37	.093
362.83	20010	1101.82	.073
362.83	40010	1197.04	.065
362.84	60000	1257.56	.063
362.84	79990	1303.5	.071

System: heptafluoropropyl methyl ether; phases: Liquid
Property: Mass density, kg/m3 (Liquid); method: Vibrating tube method
Temperature, K	Pressure, kPa	Mass density, kg/m3	uncertainty
283.55	100	1444.27	.032
283.56	1000	1447.38	.032
283.56	3000	1453.66	.031
283.55	5000	1459.72	.031
283.55	10000	1474.16	.03
283.55	15000	1487.18	.03
283.55	20000	1499.19	.03
283.54	25000	1510.86	.03
283.53	30000	1521.02	.029
283.53	40000	1540.12	.029
283.53	50000	1556.72	.029
283.53	60000	1572.41	.029
283.54	70000	1585.95	.032
283.53	80000	1598.84	.032
283.53	90000	1610.91	.031
283.55	100000	1622.3	.031
293.24	110	1417.69	.032
293.24	1000	1421.01	.032
293.24	3000	1428.22	.032
293.24	5000	1435.01	.031
293.24	10000	1450.65	.031
293.24	15000	1464.77	.03
293.23	20010	1477.66	.03
293.23	25010	1489.49	.03
293.24	30010	1500.53	.029
293.24	40010	1520.55	.029
293.24	50000	1538.2	.029
293.25	60010	1554.4	.029
293.25	70000	1569.18	.033
293.25	80010	1582.67	.032
293.25	90000	1594.97	.031
293.26	100000	1606.74	.031
303.2	100	1389.94	.034
303.2	1000	1393.75	.033
303.21	3000	1401.85	.033
303.21	5000	1409.44	.032
303.21	9990	1426.77	.031
303.21	15000	1442.22	.031
303.21	20000	1456.14	.03
303.21	25000	1468.91	.03
303.21	30000	1480.72	.03
303.21	40000	1501.89	.029
303.21	50000	1520.69	.029
303.21	60000	1537.52	.029
303.21	70000	1553.07	.033
303.21	80000	1567.18	.032
303.21	89990	1580.16	.032
303.21	100000	1592.38	.031
313.1	1000	1365.7	.035
313.1	3010	1374.86	.034
313.1	5000	1383.29	.033
313.11	10010	1402.44	.032
313.11	15000	1419.39	.031
313.11	20010	1434.39	.031
313.11	25000	1448.05	.03
313.11	30000	1460.66	.03
313.11	40000	1483.26	.029
313.11	50000	1503.06	.029
313.11	60000	1520.82	.029
313.11	70000	1536.92	.034
313.11	80000	1551.63	.033
313.11	90000	1565.25	.032
313.11	100000	1577.91	.031
322.97	1000	1337.75	.037
322.98	3000	1347.85	.036
322.97	5010	1357.83	.035
322.98	10000	1378.84	.033
322.98	15000	1397.3	.032
322.98	20000	1413.63	.031
322.98	24990	1428.21	.031
322.98	29990	1441.74	.03
322.97	39990	1465.73	.029
322.97	50010	1486.7	.029
322.97	60000	1505.33	.029
322.96	70000	1522.39	.034
322.96	80000	1538.03	.033
322.96	90000	1551.89	.032
322.96	100000	1564.89	.032
332.96	1000	1306.57	.041
332.97	2990	1318.32	.039
332.97	5000	1329.27	.037
332.97	10000	1352.96	.034
332.97	15000	1373.2	.033
332.97	20000	1390.99	.032
332.98	25000	1406.85	.031
332.98	30000	1421.25	.03
332.98	40000	1446.68	.03
332.98	50000	1468.69	.029
332.98	60000	1488.26	.029
332.98	70000	1506.14	.035
332.98	79990	1522.09	.034
332.98	90000	1536.74	.033
332.98	100000	1550.23	.032
342.9	1010	1275.2	.045
342.9	3000	1288.95	.042
342.91	5010	1301.32	.04
342.91	10000	1327.86	.036
342.9	15010	1350.09	.034
342.91	20000	1369.28	.033
342.91	25000	1386.37	.032
342.91	30010	1401.79	.031
342.91	40000	1428.71	.03
342.91	50000	1451.97	.029
342.91	60000	1472.37	.029
342.91	70000	1490.94	.036
342.91	80000	1507.45	.034
342.91	90000	1522.67	.033
342.91	100000	1536.73	.032
352.89	1010	1241.72	.051
352.89	3000	1257.78	.047
352.89	4990	1271.94	.043
352.9	10000	1301.89	.038
352.9	15000	1326.27	.035
352.9	20000	1347.19	.033
352.9	25000	1365.54	.032
352.9	30000	1382.06	.031
352.9	39990	1410.57	.03
352.9	50000	1435.01	.03
352.9	60000	1456.38	.029
352.9	69990	1475.88	.036
352.9	79990	1493.11	.035
352.9	89990	1508.79	.034
352.9	100000	1523.36	.033
362.77	1010	1206.22	.06
362.77	3000	1225.37	.053
362.77	5000	1241.84	.048
362.78	10010	1275.55	.04
362.78	15000	1302.46	.037
362.78	20000	1325.16	.034
362.78	25000	1344.88	.033
362.78	30010	1362.5	.032
362.78	40000	1392.7	.031
362.78	50000	1418.36	.03
362.78	60000	1440.74	.029
362.78	69990	1460.91	.037
362.78	80000	1478.74	.036
362.78	90000	1495	.034
362.78	100000	1509.99	.033

System: 1-methoxy-nonafluorobutane + methyl nonafluoroisobutyl ether; phases: Liquid
Fixed: Mole fraction of methyl nonafluoroisobutyl ether = .5
Property: Mass density, kg/m3 (Liquid); method: Vibrating tube method
Temperature, K	Pressure, kPa	Mass density, kg/m3	uncertainty
283.51	100	1554.57	.031
283.51	1000	1557.26	.031
283.51	3000	1562.8	.031
283.5	5000	1568.19	.031
283.5	10000	1581.22	.03
283.5	15000	1593.06	.03
283.5	20000	1604.07	.03
283.5	25000	1614.96	.03
283.5	30000	1624.4	.03
283.5	40000	1642.3	.03
283.51	50000	1657.92	.029
283.5	60000	1672.87	.029
283.52	70000	1685.79	.032
283.52	80000	1698.11	.032
283.52	90000	1709.6	.031
283.52	100000	1720.65	.031
293.23	100	1528.41	.032
293.23	990	1531.32	.031
293.23	3000	1537.65	.031
293.23	5000	1543.66	.031
293.23	10000	1557.69	.031
293.23	15000	1570.47	.031
293.23	20010	1582.26	.03
293.23	25000	1593.17	.03
293.23	30010	1603.45	.03
293.23	40010	1622.2	.03
293.23	50010	1638.87	.029
293.23	60010	1654.24	.029
293.22	70000	1668.48	.032
293.22	80000	1681.38	.032
293.22	90000	1693.18	.031
293.22	100010	1704.54	.031
303.24	100	1502.19	.032
303.24	1000	1505.5	.032
303.24	3010	1512.55	.032
303.25	5000	1519.12	.031
303.25	10000	1534.55	.031
303.25	15000	1548.47	.031
303.25	20000	1561.21	.03
303.25	25010	1572.95	.03
303.25	30010	1583.9	.03
303.26	40000	1603.64	.03
303.26	50010	1621.38	.029
303.26	60000	1637.33	.029
303.26	70000	1652.36	.033
303.27	80010	1665.76	.032
303.28	90000	1678.21	.032
303.28	100010	1689.99	.031
313.15	100	1475.9	.033
313.15	1010	1479.51	.033
313.15	3000	1487.2	.032
313.16	4990	1494.52	.032
313.16	9990	1511.32	.031
313.16	15000	1526.53	.031
313.16	20000	1540.14	.031
313.16	25000	1552.66	.03
313.16	30010	1564.3	.03
313.17	40000	1585.34	.03
313.17	50000	1603.99	.029
313.17	60000	1620.82	.029
313.17	70000	1636.22	.033
313.17	80000	1650.33	.032
313.17	90000	1663.4	.032
313.17	100000	1675.52	.031
323.02	100	1450.9	.035
323.02	990	1454.8	.034
323.02	3000	1463.62	.034
323.02	5000	1471.4	.033
323.02	10000	1490.17	.032
323.02	15000	1506.66	.032
323.02	20000	1521.26	.031
323.02	25000	1534.43	.031
323.02	29990	1547.36	.03
323.02	40000	1569.25	.03
323.02	50000	1588.8	.029
323.02	60000	1606.49	.029
323.02	70000	1623.27	.034
323.02	80000	1637.33	.033
323.02	90000	1650.96	.032
323.02	100000	1663.91	.032
332.95	110	1421.17	.036
332.95	1010	1425.8	.036
332.95	2990	1435.52	.035
332.96	5000	1444.47	.034
332.96	10000	1464.79	.033
332.96	15000	1482.69	.032
332.96	20000	1498.53	.031
332.96	25000	1512.88	.031
332.96	30000	1526.15	.03
332.96	40000	1549.62	.03
332.96	50000	1570.13	.03
332.96	60000	1588.59	.029
332.96	70000	1605.76	.034
332.96	80000	1620.87	.033
332.96	89990	1634.84	.032
332.96	100000	1647.92	.032
342.84	1000	1398.03	.038
342.84	3000	1409.01	.037
342.84	5000	1419.13	.036
342.85	10000	1441.63	.034
342.85	15000	1460.98	.033
342.86	20000	1478.01	.032
342.86	25000	1493.41	.031
342.86	30010	1507.49	.031
342.86	39990	1532.34	.03
342.86	50000	1554.01	.03
342.86	60000	1573.28	.029
342.86	70000	1591.08	.035
342.86	80000	1606.79	.034
342.86	89990	1621.36	.033
342.86	100000	1634.9	.032
352.85	1000	1368.89	.041
352.85	3000	1381.33	.039
352.85	5000	1392.71	.038
352.85	10010	1417.6	.035
352.85	14990	1438.62	.033
352.85	20000	1457.06	.032
352.85	25000	1473.52	.032
352.85	30000	1488.5	.031
352.85	40000	1514.79	.03
352.85	50000	1537.56	.03
352.85	59990	1557.64	.03
352.85	70000	1576.35	.035
352.85	80000	1592.72	.034
352.85	90000	1607.7	.033
352.85	100000	1621.64	.032
362.78	1000	1338.46	.045
362.78	3000	1352.68	.042
362.78	4990	1365.53	.04
362.78	10000	1393.11	.036
362.78	14990	1416.07	.034
362.78	20000	1435.99	.033
362.78	25000	1453.56	.032
362.78	30000	1469.49	.031
362.78	40000	1497.21	.031
362.78	50000	1521.09	.03
362.78	60000	1542.08	.03
362.79	70010	1561.51	.036
362.79	79990	1578.48	.035
362.79	89990	1594.01	.034
362.79	100000	1608.36	.033
