Measured thermophysical data. Solubility measurement and correlation of 4-nitrophthalimide in (methanol, ethanol, or acetone) + N,N-dimethylformamide mixed solvents at temperatures from 273.15 K to 323.15 K
Source: J. Chem. Thermodyn., 2016, 10.1016/j.jct.2016.08.013
Compound 1: 4-nitrophthalimide, C8H4N2O4, purity 98.5%
Compound 2: methanol, CH4O, purity 99.5%
Compound 3: ethanol, C2H6O, purity 99.6%
Compound 4: acetone, C3H6O, purity 99.4%
Compound 5: dimethylformamide, C3H7NO, purity 99.5%

System: methanol + dimethylformamide + 4-nitrophthalimide; phases: Liquid, Crystal
Fixed: Pressure, kPa = 101.1
Property: Mole fraction of 4-nitrophthalimide (Liquid); method: Chromatography
Temperature, K	Solvent: Mass fraction of methanol	Mole fraction of 4-nitrophthalimide	uncertainty
273.15	.1002	.02952	
278.15	.1002	.03512	
283.15	.1002	.04156	
288.15	.1002	.04875	
293.15	.1002	.05656	
298.15	.1002	.0655	
303.15	.1002	.0751	
308.15	.1002	.08691	
313.15	.1002	.0998	
318.15	.1002	.1129	
323.15	.1002	.1276	
273.15	.2003	.02459	
278.15	.2003	.02991	
283.15	.2003	.03464	
288.15	.2003	.04084	
293.15	.2003	.04796	
298.15	.2003	.05405	
303.15	.2003	.06208	
308.15	.2003	.07193	
313.15	.2003	.08292	
318.15	.2003	.09356	
323.15	.2003	.1059	
273.15	.2998	.02045	
278.15	.2998	.02392	
283.15	.2998	.02864	
288.15	.2998	.03332	
293.15	.2998	.03826	
298.15	.2998	.04468	
303.15	.2998	.05109	
308.15	.2998	.058	
313.15	.2998	.06615	
318.15	.2998	.07568	
323.15	.2998	.08591	
273.15	.4005	.01615	
278.15	.4005	.01907	
283.15	.4005	.02229	
288.15	.4005	.0263	
293.15	.4005	.03041	
298.15	.4005	.03543	
303.15	.4005	.04033	
308.15	.4005	.04591	
313.15	.4005	.05219	
318.15	.4005	.05983	
323.15	.4005	.0669	
273.15	.4997	.01242	
278.15	.4997	.01453	
283.15	.4997	.01706	
288.15	.4997	.01984	
293.15	.4997	.02283	
298.15	.4997	.02604	
303.15	.4997	.03026	
308.15	.4997	.03405	
313.15	.4997	.03983	
318.15	.4997	.04466	
323.15	.4997	.05038	
273.15	.5996	.009095	
278.15	.5996	.01053	
283.15	.5996	.01215	
288.15	.5996	.01414	
293.15	.5996	.01621	
298.15	.5996	.01893	
303.15	.5996	.02116	
308.15	.5996	.02436	
313.15	.5996	.02808	
318.15	.5996	.03184	
323.15	.5996	.03618	
273.15	.7001	.006138	
278.15	.7001	.007122	
283.15	.7001	.008324	
288.15	.7001	.009258	
293.15	.7001	.01093	
298.15	.7001	.01262	
303.15	.7001	.01455	
308.15	.7001	.01664	
313.15	.7001	.01895	
318.15	.7001	.02107	
323.15	.7001	.02485	
273.15	.7999	.004001	
278.15	.7999	.004606	
283.15	.7999	.005113	
288.15	.7999	.006145	
293.15	.7999	.007052	
298.15	.7999	.008352	
303.15	.7999	.009482	
308.15	.7999	.01081	
313.15	.7999	.01239	
318.15	.7999	.01461	
323.15	.7999	.01604	
273.15	.8997	.002421	
278.15	.8997	.002812	
283.15	.8997	.003242	
288.15	.8997	.003815	
293.15	.8997	.004483	
298.15	.8997	.005161	
303.15	.8997	.005947	
308.15	.8997	.006848	
313.15	.8997	.007836	
318.15	.8997	.009077	
323.15	.8997	.01015	

System: ethanol + dimethylformamide + 4-nitrophthalimide; phases: Liquid, Crystal
Fixed: Pressure, kPa = 101.1
Property: Mole fraction of 4-nitrophthalimide (Liquid); method: Chromatography
Temperature, K	Solvent: Mass fraction of ethanol	Mole fraction of 4-nitrophthalimide	uncertainty
273.15	.0998	.02179	
278.15	.0998	.02689	
283.15	.0998	.03199	
288.15	.0998	.03757	
293.15	.0998	.04436	
298.15	.0998	.05167	
303.15	.0998	.06022	
308.15	.0998	.07069	
313.15	.0998	.08085	
318.15	.0998	.09181	
323.15	.0998	.1033	
273.15	.2005	.01495	
278.15	.2005	.01903	
283.15	.2005	.02282	
288.15	.2005	.02735	
293.15	.2005	.03211	
298.15	.2005	.03746	
303.15	.2005	.04472	
308.15	.2005	.05025	
313.15	.2005	.05803	
318.15	.2005	.06734	
323.15	.2005	.07697	
273.15	.2996	.01174	
278.15	.2996	.01441	
283.15	.2996	.01742	
288.15	.2996	.0204	
293.15	.2996	.02458	
298.15	.2996	.02853	
303.15	.2996	.03397	
308.15	.2996	.03953	
313.15	.2996	.04501	
318.15	.2996	.05103	
323.15	.2996	.0593	
273.15	.3995	.009617	
278.15	.3995	.01119	
283.15	.3995	.01355	
288.15	.3995	.0163	
293.15	.3995	.01923	
298.15	.3995	.0229	
303.15	.3995	.02658	
308.15	.3995	.03068	
313.15	.3995	.03553	
318.15	.3995	.04078	
323.15	.3995	.04605	
273.15	.4998	.006917	
278.15	.4998	.008586	
283.15	.4998	.01023	
288.15	.4998	.01244	
293.15	.4998	.01477	
298.15	.4998	.01737	
303.15	.4998	.02017	
308.15	.4998	.02381	
313.15	.4998	.02783	
318.15	.4998	.03156	
323.15	.4998	.03657	
273.15	.6005	.005091	
278.15	.6005	.006291	
283.15	.6005	.007549	
288.15	.6005	.009095	
293.15	.6005	.01091	
298.15	.6005	.01263	
303.15	.6005	.01501	
308.15	.6005	.01786	
313.15	.6005	.0209	
318.15	.6005	.02331	
323.15	.6005	.02711	
273.15	.7001	.003479	
278.15	.7001	.004223	
283.15	.7001	.005256	
288.15	.7001	.006388	
293.15	.7001	.007603	
298.15	.7001	.009087	
303.15	.7001	.01051	
308.15	.7001	.0127	
313.15	.7001	.01487	
318.15	.7001	.01717	
323.15	.7001	.01973	
273.15	.7995	.002203	
278.15	.7995	.002799	
283.15	.7995	.003365	
288.15	.7995	.004033	
293.15	.7995	.004987	
298.15	.7995	.005889	
303.15	.7995	.007079	
308.15	.7995	.008103	
313.15	.7995	.00983	
318.15	.7995	.011201	
323.15	.7995	.013177	
273.15	.8993	.001299	
278.15	.8993	.001623	
283.15	.8993	.001993	
288.15	.8993	.002476	
293.15	.8993	.002985	
298.15	.8993	.003586	
303.15	.8993	.00433	
308.15	.8993	.004989	
313.15	.8993	.006088	
318.15	.8993	.007085	
323.15	.8993	.008162	

System: acetone + dimethylformamide + 4-nitrophthalimide; phases: Liquid, Crystal
Fixed: Pressure, kPa = 101.1
Property: Mole fraction of 4-nitrophthalimide (Liquid); method: Chromatography
Temperature, K	Solvent: Mass fraction of acetone	Mole fraction of 4-nitrophthalimide	uncertainty
273.15	.1002	.03017	
278.15	.1002	.03628	
283.15	.1002	.04248	
288.15	.1002	.04935	
293.15	.1002	.05717	
298.15	.1002	.06593	
303.15	.1002	.07597	
308.15	.1002	.08688	
313.15	.1002	.09894	
318.15	.1002	.1125	
323.15	.1002	.1266	
273.15	.2003	.0273	
278.15	.2003	.03205	
283.15	.2003	.03711	
288.15	.2003	.04318	
293.15	.2003	.04977	
298.15	.2003	.05717	
303.15	.2003	.06541	
308.15	.2003	.07447	
313.15	.2003	.08463	
318.15	.2003	.09584	
323.15	.2003	.1067	
273.15	.2998	.02492	
278.15	.2998	.02908	
283.15	.2998	.03346	
288.15	.2998	.03878	
293.15	.2998	.04423	
298.15	.2998	.05048	
303.15	.2998	.05765	
308.15	.2998	.06537	
313.15	.2998	.07363	
318.15	.2998	.082612	
323.15	.2998	.09137	
273.15	.4005	.02314	
278.15	.4005	.02672	
283.15	.4005	.03047	
288.15	.4005	.03497	
293.15	.4005	.03984	
298.15	.4005	.04529	
303.15	.4005	.05186	
308.15	.4005	.05777	
313.15	.4005	.06475	
318.15	.4005	.07228	
323.15	.4005	.07931	
273.15	.4997	.02154	
278.15	.4997	.02468	
283.15	.4997	.02736	
288.15	.4997	.03189	
293.15	.4997	.03609	
298.15	.4997	.04082	
303.15	.4997	.04572	
308.15	.4997	.05127	
313.15	.4997	.05726	
318.15	.4997	.06336	
323.15	.4997	.07032	
273.15	.5996	.02016	
278.15	.5996	.02284	
283.15	.5996	.02576	
288.15	.5996	.02905	
293.15	.5996	.03278	
298.15	.5996	.03669	
303.15	.5996	.0409	
308.15	.5996	.04569	
313.15	.5996	.05056	
318.15	.5996	.05543	
323.15	.5996	.06091	
273.15	.7001	.01904	
278.15	.7001	.02127	
283.15	.7001	.02378	
288.15	.7001	.02661	
293.15	.7001	.02976	
298.15	.7001	.03306	
303.15	.7001	.03696	
308.15	.7001	.04039	
313.15	.7001	.04464	
318.15	.7001	.04837	
323.15	.7001	.05362	
273.15	.7999	.01805	
278.15	.7999	.02004	
283.15	.7999	.02229	
288.15	.7999	.02464	
293.15	.7999	.02727	
298.15	.7999	.03017	
303.15	.7999	.03324	
308.15	.7999	.03658	
313.15	.7999	.03985	
318.15	.7999	.04369	
323.15	.7999	.04606	
273.15	.8997	.01793	
278.15	.8997	.01984	
283.15	.8997	.02149	
288.15	.8997	.02339	
293.15	.8997	.02568	
298.15	.8997	.02817	
303.15	.8997	.03074	
308.15	.8997	.03311	
313.15	.8997	.03623	
318.15	.8997	.03905	
323.15	.8997	.04245	
