Measured thermophysical data. Solubility determination and thermodynamic dissolution functions of 1,3-diphenylguanidine in nine organic solvents at evaluated temperatures
Source: J. Chem. Thermodyn., 2016, 10.1016/j.jct.2016.03.011
Compound 1: 1,3-diphenylguanidine, C13H13N3, purity 97%
Compound 2: n-butanol, C4H10O, purity 99.5%
Compound 3: ethanol, C2H6O, purity 99.7%
Compound 4: n-propanol, C3H8O, purity 99.5%
Compound 5: isopropanol, C3H8O, purity 99.7%
Compound 6: ethyl acetate, C4H8O2, purity 99.5%
Compound 7: acetone, C3H6O, purity 99.5%
Compound 8: acetonitrile, C2H3N, purity 99.0%
Compound 9: toluene, C7H8, purity 99.5%
Compound 10: isobutanol, C4H10O, purity 99.5%

System: 1,3-diphenylguanidine; phases: Crystal, Liquid, Air at 1 atmosphere
Property: Normal melting temperature, K (Crystal); method: DSC/DTA
Normal melting temperature, K	uncertainty
421.15	.5

System: 1,3-diphenylguanidine; phases: Crystal, Liquid, Air at 1 atmosphere
Property: Molar enthalpy of transition or fusion, kJ/mol (Crystal); method: DSC
Molar enthalpy of transition or fusion, kJ/mol	uncertainty
22.52	.4

System: acetonitrile + 1,3-diphenylguanidine; phases: Liquid, Crystal
Fixed: Pressure, kPa = 101.3
Property: Mole fraction of 1,3-diphenylguanidine (Liquid); method: Chromatography
Temperature, K	Mole fraction of 1,3-diphenylguanidine	uncertainty
273.15	.008279	
275.65	.009088	
278.15	.01007	
280.65	.01111	
283.15	.01216	
285.65	.01337	
288.15	.01475	
290.65	.01613	
293.15	.01785	
295.65	.01972	
298.15	.02142	
300.65	.02339	
303.15	.02538	
305.65	.02783	
308.15	.03029	
310.65	.03306	
313.15	.036	

System: 1,3-diphenylguanidine + ethyl acetate; phases: Liquid, Crystal
Fixed: Pressure, kPa = 101.3
Property: Mole fraction of 1,3-diphenylguanidine (Liquid); method: Chromatography
Temperature, K	Mole fraction of 1,3-diphenylguanidine	uncertainty
273.15	.0278	
275.65	.02999	
278.15	.03248	
280.65	.03471	
283.15	.03725	
285.65	.04013	
288.15	.04346	
290.65	.04628	
293.15	.04962	
295.65	.05303	
298.15	.05663	
300.65	.0603	
303.15	.06414	
305.65	.06783	
308.15	.0719	
310.65	.07628	
313.15	.08143	

System: ethanol + 1,3-diphenylguanidine; phases: Liquid, Crystal
Fixed: Pressure, kPa = 101.3
Property: Mole fraction of 1,3-diphenylguanidine (Liquid); method: Chromatography
Temperature, K	Mole fraction of 1,3-diphenylguanidine	uncertainty
273.15	.0144	
275.65	.01556	
278.15	.01702	
280.65	.0184	
283.15	.01991	
285.65	.02169	
288.15	.02347	
290.65	.02532	
293.15	.02732	
295.65	.02924	
298.15	.03148	
300.65	.03373	
303.15	.03631	
305.65	.03903	
308.15	.04191	
310.65	.04477	
313.15	.04826	

System: n-propanol + 1,3-diphenylguanidine; phases: Liquid, Crystal
Fixed: Pressure, kPa = 101.3
Property: Mole fraction of 1,3-diphenylguanidine (Liquid); method: Chromatography
Temperature, K	Mole fraction of 1,3-diphenylguanidine	uncertainty
273.15	.01595	
275.65	.01742	
278.15	.01887	
280.65	.02045	
283.15	.02218	
285.65	.02381	
288.15	.02592	
290.65	.02785	
293.15	.0301	
295.65	.03242	
298.15	.03504	
300.65	.03791	
303.15	.0406	
305.65	.04355	
308.15	.04651	
310.65	.04992	
313.15	.05366	

System: isopropanol + 1,3-diphenylguanidine; phases: Liquid, Crystal
Fixed: Pressure, kPa = 101.3
Property: Mole fraction of 1,3-diphenylguanidine (Liquid); method: Chromatography
Temperature, K	Mole fraction of 1,3-diphenylguanidine	uncertainty
273.15	.005409	
275.65	.006027	
278.15	.006745	
280.65	.007509	
283.15	.008366	
285.65	.009285	
288.15	.01044	
290.65	.01169	
293.15	.01298	
295.65	.01449	
298.15	.01609	
300.65	.01802	
303.15	.02006	
305.65	.0222	
308.15	.02465	
310.65	.02693	
313.15	.02991	

System: acetone + 1,3-diphenylguanidine; phases: Liquid, Crystal
Fixed: Pressure, kPa = 101.3
Property: Mole fraction of 1,3-diphenylguanidine (Liquid); method: Chromatography
Temperature, K	Mole fraction of 1,3-diphenylguanidine	uncertainty
273.15	.04329	
275.65	.04677	
278.15	.05084	
280.65	.05544	
283.15	.05992	
285.65	.06476	
288.15	.06997	
290.65	.07511	
293.15	.08018	
295.65	.0862	
298.15	.09283	
300.65	.09928	
303.15	.1058	
305.65	.1126	
308.15	.1205	
310.65	.1283	
313.15	.1372	

System: 1,3-diphenylguanidine + toluene; phases: Liquid, Crystal
Fixed: Pressure, kPa = 101.3
Property: Mole fraction of 1,3-diphenylguanidine (Liquid); method: Chromatography
Temperature, K	Mole fraction of 1,3-diphenylguanidine	uncertainty
273.15	.001322	
275.65	.001541	
278.15	.001723	
280.65	.001952	
283.15	.00219	
285.65	.002492	
288.15	.002823	
290.65	.003162	
293.15	.003539	
295.65	.003891	
298.15	.004317	
300.65	.004759	
303.15	.005278	
305.65	.005843	
308.15	.006408	
310.65	.007094	
313.15	.007705	

System: n-butanol + 1,3-diphenylguanidine; phases: Liquid, Crystal
Fixed: Pressure, kPa = 101.3
Property: Mole fraction of 1,3-diphenylguanidine (Liquid); method: Chromatography
Temperature, K	Mole fraction of 1,3-diphenylguanidine	uncertainty
273.15	.01796	
275.65	.01945	
278.15	.02105	
280.65	.02272	
283.15	.02455	
285.65	.02664	
288.15	.02857	
290.65	.03064	
293.15	.03289	
295.65	.03524	
298.15	.03775	
300.65	.0405	
303.15	.04309	
305.65	.04616	
308.15	.0494	
310.65	.0527	
313.15	.05617	

System: isobutanol + 1,3-diphenylguanidine; phases: Liquid, Crystal
Fixed: Pressure, kPa = 101.3
Property: Mole fraction of 1,3-diphenylguanidine (Liquid); method: Chromatography
Temperature, K	Mole fraction of 1,3-diphenylguanidine	uncertainty
273.15	.01242	
275.65	.01348	
278.15	.01474	
280.65	.01602	
283.15	.01756	
285.65	.0189	
288.15	.02079	
290.65	.02242	
293.15	.02445	
295.65	.02645	
298.15	.02859	
300.65	.0311	
303.15	.03333	
305.65	.03588	
308.15	.03842	
310.65	.04124	
313.15	.0446	
