Measured thermophysical data. Molecular interactions in binary mixtures of 1-butoxy-2-propanol with alcohols at different temperatures: A thermophysical and spectroscopic approach
Source: J. Chem. Thermodyn., 2014, 10.1016/j.jct.2014.07.019
Compound 1: 1-butoxy-2-propanol, C7H16O2
Compound 2: 1-propanol, C3H8O
Compound 3: 2-propanol, C3H8O
Compound 4: 1-butanol, C4H10O
Compound 5: 2-butanol, C4H10O

System: 1-butoxy-2-propanol; phases: Liquid
Property: Mass density, kg/m3 (Liquid); method: Vibrating tube method
Temperature, K	Pressure, kPa	Mass density, kg/m3	uncertainty
293.15	100	879.031	.05
298.15	100	874.632	.05
303.15	100	870.204	.05
308.15	100	865.737	.05
313.15	100	861.241	.05

System: 1-butoxy-2-propanol; phases: Liquid
Fixed: Frequency, MHz = 3
Property: Speed of sound, m/s (Liquid); method: Sing-around technique in a fixed-path interferometer
Temperature, K	Pressure, kPa	Speed of sound, m/s	uncertainty
293.15	100	1278.98	.5
298.15	100	1260.9	.5
303.15	100	1242.94	.5
308.15	100	1224.91	.5
313.15	100	1207.02	.5

System: 1-propanol; phases: Liquid
Property: Mass density, kg/m3 (Liquid); method: Vibrating tube method
Temperature, K	Pressure, kPa	Mass density, kg/m3	uncertainty
293.15	100	804.144	.05
298.15	100	800.13	.05
303.15	100	796.08	.05
308.15	100	792.001	.05
313.15	100	787.884	.05

System: 1-propanol; phases: Liquid
Fixed: Frequency, MHz = 3
Property: Speed of sound, m/s (Liquid); method: Sing-around technique in a fixed-path interferometer
Temperature, K	Pressure, kPa	Speed of sound, m/s	uncertainty
293.15	100	1224.24	.5
298.15	100	1207.03	.5
303.15	100	1189.81	.5
308.15	100	1172.82	.5
313.15	100	1156.24	.5

System: 2-propanol; phases: Liquid
Property: Mass density, kg/m3 (Liquid); method: Vibrating tube method
Temperature, K	Pressure, kPa	Mass density, kg/m3	uncertainty
293.15	100	785.739	.05
298.15	100	781.588	.05
303.15	100	777.468	.05
308.15	100	773.151	.05
313.15	100	768.446	.05

System: 2-propanol; phases: Liquid
Fixed: Frequency, MHz = 3
Property: Speed of sound, m/s (Liquid); method: Sing-around technique in a fixed-path interferometer
Temperature, K	Pressure, kPa	Speed of sound, m/s	uncertainty
293.15	100	1168.49	.5
298.15	100	1148.03	.5
303.15	100	1132.16	.5
308.15	100	1114.33	.5
313.15	100	1096.18	.5

System: 1-butanol; phases: Liquid
Property: Mass density, kg/m3 (Liquid); method: Vibrating tube method
Temperature, K	Pressure, kPa	Mass density, kg/m3	uncertainty
293.15	100	809.807	.05
298.15	100	805.986	.05
303.15	100	802.139	.05
308.15	100	798.261	.05
313.15	100	794.385	.05

System: 1-butanol; phases: Liquid
Fixed: Frequency, MHz = 3
Property: Speed of sound, m/s (Liquid); method: Sing-around technique in a fixed-path interferometer
Temperature, K	Pressure, kPa	Speed of sound, m/s	uncertainty
293.15	100	1257.52	.5
298.15	100	1240.56	.5
303.15	100	1223.69	.5
308.15	100	1207.02	.5
313.15	100	1190.51	.5

System: 2-butanol; phases: Liquid
Property: Mass density, kg/m3 (Liquid); method: Vibrating tube method
Temperature, K	Pressure, kPa	Mass density, kg/m3	uncertainty
293.15	100	806.679	.05
298.15	100	802.563	.05
303.15	100	798.352	.05
308.15	100	794.058	.05
313.15	100	789.668	.05

System: 2-butanol; phases: Liquid
Fixed: Frequency, MHz = 3
Property: Speed of sound, m/s (Liquid); method: Sing-around technique in a fixed-path interferometer
Temperature, K	Pressure, kPa	Speed of sound, m/s	uncertainty
293.15	100	1230.19	.5
298.15	100	1213.26	.5
303.15	100	1197.16	.5
308.15	100	1176.99	.5
313.15	100	1158.86	.5

System: 1-propanol + 1-butoxy-2-propanol; phases: Liquid
Fixed: Pressure, kPa = 100
Property: Mass density, kg/m3 (Liquid); method: Vibrating tube method
Temperature, K	Mole fraction of 1-butoxy-2-propanol	Mass density, kg/m3	uncertainty
293.15	0	804.144	.05
293.15	.0573	812.915	.05
293.15	.1001	818.814	.05
293.15	.1558	825.901	.05
293.15	.2031	831.228	.05
293.15	.2532	836.415	.05
293.15	.3033	841.124	.05
293.15	.4046	849.477	.05
293.15	.5048	856.464	.05
293.15	.6055	862.441	.05
293.15	.7052	867.521	.05
293.15	.807	872.037	.05
293.15	.8546	873.936	.05
293.15	.9041	875.766	.05
293.15	.9537	877.527	.05
293.15	1	879.031	.05
298.15	0	800.13	.05
298.15	.0573	808.937	.05
298.15	.1001	814.76	.05
298.15	.1558	821.803	.05
298.15	.2031	827.109	.05
298.15	.2532	832.273	.05
298.15	.3033	836.955	.05
298.15	.4046	845.264	.05
298.15	.5048	852.232	.05
298.15	.6055	858.152	.05
298.15	.7052	863.197	.05
298.15	.807	867.684	.05
298.15	.8546	869.566	.05
298.15	.9041	871.424	.05
298.15	.9537	873.128	.05
298.15	1	874.632	.05
303.15	0	796.08	.05
303.15	.0573	804.905	.05
303.15	.1001	810.658	.05
303.15	.1558	817.667	.05
303.15	.2031	822.949	.05
303.15	.2532	828.091	.05
303.15	.3033	832.749	.05
303.15	.4046	841.013	.05
303.15	.5048	847.934	.05
303.15	.6055	853.82	.05
303.15	.7052	858.839	.05
303.15	.807	863.298	.05
303.15	.8546	865.165	.05
303.15	.9041	867.019	.05
303.15	.9537	868.704	.05
303.15	1	870.204	.05
308.15	0	792.001	.05
308.15	.0573	800.798	.05
308.15	.1001	806.519	.05
308.15	.1558	813.493	.05
308.15	.2031	818.753	.05
308.15	.2532	823.867	.05
308.15	.3033	828.501	.05
308.15	.4046	836.72	.05
308.15	.5048	843.623	.05
308.15	.6055	849.452	.05
308.15	.7052	854.443	.05
308.15	.807	858.874	.05
308.15	.8546	860.735	.05
308.15	.9041	862.582	.05
308.15	.9537	864.265	.05
308.15	1	865.737	.05
313.15	0	787.884	.05
313.15	.0573	796.651	.05
313.15	.1001	802.334	.05
313.15	.1558	809.279	.05
313.15	.2031	814.513	.05
313.15	.2532	819.599	.05
313.15	.3033	824.211	.05
313.15	.4046	832.382	.05
313.15	.5048	839.27	.05
313.15	.6055	845.054	.05
313.15	.7052	850.006	.05
313.15	.807	854.415	.05
313.15	.8546	856.272	.05
313.15	.9041	858.113	.05
313.15	.9537	859.772	.05
313.15	1	861.241	.05

System: 1-propanol + 1-butoxy-2-propanol; phases: Liquid
Fixed: Pressure, kPa = 100
Fixed: Frequency, MHz = 3
Property: Speed of sound, m/s (Liquid); method: Sing-around technique in a fixed-path interferometer
Temperature, K	Mole fraction of 1-butoxy-2-propanol	Speed of sound, m/s	uncertainty
293.15	0	1224.24	.5
293.15	.0573	1230.81	.5
293.15	.1001	1235.69	.5
293.15	.1558	1241.5	.5
293.15	.2031	1246.28	.5
293.15	.2532	1250.68	.5
293.15	.3033	1254.6	.5
293.15	.4046	1261.2	.5
293.15	.5048	1266.34	.5
293.15	.6055	1270.3	.5
293.15	.7052	1273.16	.5
293.15	.807	1275.73	.5
293.15	.8546	1276.78	.5
293.15	.9041	1277.72	.5
293.15	.9537	1278.46	.5
293.15	1	1278.98	.5
298.15	0	1207.03	.5
298.15	.0573	1213.83	.5
298.15	.1001	1218.8	.5
298.15	.1558	1224.81	.5
298.15	.2031	1229.35	.5
298.15	.2532	1233.58	.5
298.15	.3033	1237.48	.5
298.15	.4046	1243.94	.5
298.15	.5048	1248.89	.5
298.15	.6055	1252.94	.5
298.15	.7052	1255.72	.5
298.15	.807	1258.35	.5
298.15	.8546	1259.3	.5
298.15	.9041	1260.22	.5
298.15	.9537	1260.83	.5
298.15	1	1260.9	.5
303.15	0	1189.81	.5
303.15	.0573	1197.06	.5
303.15	.1001	1202.05	.5
303.15	.1558	1207.99	.5
303.15	.2031	1212.53	.5
303.15	.2532	1216.77	.5
303.15	.3033	1220.48	.5
303.15	.4046	1226.79	.5
303.15	.5048	1231.74	.5
303.15	.6055	1235.63	.5
303.15	.7052	1238.4	.5
303.15	.807	1240.83	.5
303.15	.8546	1241.81	.5
303.15	.9041	1242.57	.5
303.15	.9537	1243.22	.5
303.15	1	1242.94	.5
308.15	0	1172.82	.5
308.15	.0573	1180.39	.5
308.15	.1001	1185.44	.5
308.15	.1558	1191.26	.5
308.15	.2031	1195.67	.5
308.15	.2532	1199.76	.5
308.15	.3033	1203.46	.5
308.15	.4046	1209.63	.5
308.15	.5048	1214.39	.5
308.15	.6055	1218.19	.5
308.15	.7052	1221.07	.5
308.15	.807	1223.4	.5
308.15	.8546	1224.19	.5
308.15	.9041	1224.97	.5
308.15	.9537	1225.58	.5
308.15	1	1224.91	.5
313.15	0	1156.24	.5
313.15	.0573	1164.12	.5
313.15	.1001	1169	.5
313.15	.1558	1174.69	.5
313.15	.2031	1179.08	.5
313.15	.2532	1183.07	.5
313.15	.3033	1186.7	.5
313.15	.4046	1192.66	.5
313.15	.5048	1197.22	.5
313.15	.6055	1201.03	.5
313.15	.7052	1203.85	.5
313.15	.807	1206.18	.5
313.15	.8546	1206.59	.5
313.15	.9041	1207.37	.5
313.15	.9537	1208.14	.5
313.15	1	1207.02	.5

System: 2-propanol + 1-butoxy-2-propanol; phases: Liquid
Fixed: Pressure, kPa = 100
Property: Mass density, kg/m3 (Liquid); method: Vibrating tube method
Temperature, K	Mole fraction of 1-butoxy-2-propanol	Mass density, kg/m3	uncertainty
293.15	0	785.739	.05
293.15	.0518	795.249	.05
293.15	.1029	803.695	.05
293.15	.1532	811.327	.05
293.15	.2019	818.045	.05
293.15	.2529	824.525	.05
293.15	.3032	830.352	.05
293.15	.4059	840.824	.05
293.15	.5048	849.502	.05
293.15	.604	857.039	.05
293.15	.7012	863.524	.05
293.15	.8028	869.466	.05
293.15	.8545	872.203	.05
293.15	.9056	874.745	.05
293.15	.954	876.996	.05
293.15	1	879.031	.05
298.15	0	781.588	.05
298.15	.0518	791.104	.05
298.15	.1029	799.527	.05
298.15	.1532	807.143	.05
298.15	.2019	813.834	.05
298.15	.2529	820.286	.05
298.15	.3032	826.103	.05
298.15	.4059	836.541	.05
298.15	.5048	845.196	.05
298.15	.604	852.718	.05
298.15	.7012	859.19	.05
298.15	.8028	865.108	.05
298.15	.8545	867.842	.05
298.15	.9056	870.379	.05
298.15	.954	872.629	.05
298.15	1	874.632	.05
303.15	0	777.468	.05
303.15	.0518	787.006	.05
303.15	.1029	795.386	.05
303.15	.1532	802.969	.05
303.15	.2019	809.64	.05
303.15	.2529	816.061	.05
303.15	.3032	821.857	.05
303.15	.4059	832.254	.05
303.15	.5048	840.881	.05
303.15	.604	848.373	.05
303.15	.7012	854.833	.05
303.15	.8028	860.733	.05
303.15	.8545	863.464	.05
303.15	.9056	865.982	.05
303.15	.954	868.284	.05
303.15	1	870.204	.05
308.15	0	773.151	.05
308.15	.0518	782.711	.05
308.15	.1029	791.07	.05
308.15	.1532	798.631	.05
308.15	.2019	805.279	.05
308.15	.2529	811.703	.05
308.15	.3032	817.482	.05
308.15	.4059	827.85	.05
308.15	.5048	836.456	.05
308.15	.604	843.934	.05
308.15	.7012	850.391	.05
308.15	.8028	856.287	.05
308.15	.8545	859.022	.05
308.15	.9056	861.537	.05
308.15	.954	863.829	.05
308.15	1	865.737	.05
313.15	0	768.446	.05
313.15	.0518	778.081	.05
313.15	.1029	786.435	.05
313.15	.1532	793.996	.05
313.15	.2019	800.656	.05
313.15	.2529	807.104	.05
313.15	.3032	812.872	.05
313.15	.4059	823.26	.05
313.15	.5048	831.887	.05
313.15	.604	839.389	.05
313.15	.7012	845.859	.05
313.15	.8028	851.775	.05
313.15	.8545	854.514	.05
313.15	.9056	857.049	.05
313.15	.954	859.355	.05
313.15	1	861.241	.05

System: 2-propanol + 1-butoxy-2-propanol; phases: Liquid
Fixed: Pressure, kPa = 100
Fixed: Frequency, MHz = 3
Property: Speed of sound, m/s (Liquid); method: Sing-around technique in a fixed-path interferometer
Temperature, K	Mole fraction of 1-butoxy-2-propanol	Speed of sound, m/s	uncertainty
293.15	0	1168.49	.5
293.15	.0518	1178.67	.5
293.15	.1029	1188.9	.5
293.15	.1532	1197.49	.5
293.15	.2019	1205.77	.5
293.15	.2529	1213.87	.5
293.15	.3032	1221.85	.5
293.15	.4059	1234.58	.5
293.15	.5048	1244.93	.5
293.15	.604	1253.34	.5
293.15	.7012	1261.25	.5
293.15	.8028	1267.65	.5
293.15	.8545	1270.63	.5
293.15	.9056	1273.43	.5
293.15	.954	1275.93	.5
293.15	1	1278.98	.5
298.15	0	1148.03	.5
298.15	.0518	1159.05	.5
298.15	.1029	1168.92	.5
298.15	.1532	1178.3	.5
298.15	.2019	1186.1	.5
298.15	.2529	1194.44	.5
298.15	.3032	1201.32	.5
298.15	.4059	1214.05	.5
298.15	.5048	1225.26	.5
298.15	.604	1234.58	.5
298.15	.7012	1242.98	.5
298.15	.8028	1250.23	.5
298.15	.8545	1254.61	.5
298.15	.9056	1257.48	.5
298.15	.954	1259.79	.5
298.15	1	1260.9	.5
303.15	0	1132.16	.5
303.15	.0518	1141.8	.5
303.15	.1029	1150.72	.5
303.15	.1532	1159.16	.5
303.15	.2019	1166.78	.5
303.15	.2529	1174.17	.5
303.15	.3032	1180.95	.5
303.15	.4059	1193.46	.5
303.15	.5048	1204.43	.5
303.15	.604	1214.38	.5
303.15	.7012	1222.63	.5
303.15	.8028	1230.53	.5
303.15	.8545	1233.98	.5
303.15	.9056	1237.51	.5
303.15	.954	1240.62	.5
303.15	1	1242.94	.5
308.15	0	1114.33	.5
308.15	.0518	1124.27	.5
308.15	.1029	1133.18	.5
308.15	.1532	1141.6	.5
308.15	.2019	1149.18	.5
308.15	.2529	1156.47	.5
308.15	.3032	1163.22	.5
308.15	.4059	1175.73	.5
308.15	.5048	1186.69	.5
308.15	.604	1196.58	.5
308.15	.7012	1204.85	.5
308.15	.8028	1212.79	.5
308.15	.8545	1216.24	.5
308.15	.9056	1219.73	.5
308.15	.954	1222.88	.5
308.15	1	1224.91	.5
313.15	0	1096.18	.5
313.15	.0518	1103.52	.5
313.15	.1029	1111.53	.5
313.15	.1532	1121.45	.5
313.15	.2019	1129.92	.5
313.15	.2529	1138.42	.5
313.15	.3032	1146.61	.5
313.15	.4059	1159.44	.5
313.15	.5048	1170.32	.5
313.15	.604	1179.72	.5
313.15	.7012	1187.9	.5
313.15	.8028	1195.68	.5
313.15	.8545	1199.34	.5
313.15	.9056	1202.09	.5
313.15	.954	1204.65	.5
313.15	1	1207.02	.5

System: 1-butanol + 1-butoxy-2-propanol; phases: Liquid
Fixed: Pressure, kPa = 100
Property: Mass density, kg/m3 (Liquid); method: Vibrating tube method
Temperature, K	Mole fraction of 1-butoxy-2-propanol	Mass density, kg/m3	uncertainty
293.15	0	809.807	.05
293.15	.0519	815.814	.05
293.15	.0992	821.015	.05
293.15	.1522	826.515	.05
293.15	.2025	831.372	.05
293.15	.2533	835.963	.05
293.15	.3031	840.187	.05
293.15	.4039	847.844	.05
293.15	.4992	854.333	.05
293.15	.6055	860.746	.05
293.15	.7017	865.941	.05
293.15	.8058	871.007	.05
293.15	.852	873.053	.05
293.15	.8982	875.005	.05
293.15	.9565	877.407	.05
293.15	1	879.031	.05
298.15	0	805.986	.05
298.15	.0519	811.979	.05
298.15	.0992	817.166	.05
298.15	.1522	822.607	.05
298.15	.2025	827.404	.05
298.15	.2533	831.953	.05
298.15	.3031	836.14	.05
298.15	.4039	843.734	.05
298.15	.4992	850.165	.05
298.15	.6055	856.533	.05
298.15	.7017	861.685	.05
298.15	.8058	866.701	.05
298.15	.852	868.741	.05
298.15	.8982	870.664	.05
298.15	.9565	873.039	.05
298.15	1	874.632	.05
303.15	0	802.139	.05
303.15	.0519	808.09	.05
303.15	.0992	813.235	.05
303.15	.1522	818.628	.05
303.15	.2025	823.395	.05
303.15	.2533	827.91	.05
303.15	.3031	832.063	.05
303.15	.4039	839.592	.05
303.15	.4992	845.969	.05
303.15	.6055	852.278	.05
303.15	.7017	857.378	.05
303.15	.8058	862.345	.05
303.15	.852	864.367	.05
303.15	.8982	866.282	.05
303.15	.9565	868.667	.05
303.15	1	870.204	.05
308.15	0	798.261	.05
308.15	.0519	804.168	.05
308.15	.0992	809.277	.05
308.15	.1522	814.607	.05
308.15	.2025	819.351	.05
308.15	.2533	823.833	.05
308.15	.3031	827.949	.05
308.15	.4039	835.411	.05
308.15	.4992	841.732	.05
308.15	.6055	847.986	.05
308.15	.7017	853.038	.05
308.15	.8058	857.961	.05
308.15	.852	859.962	.05
308.15	.8982	861.844	.05
308.15	.9565	864.216	.05
308.15	1	865.737	.05
313.15	0	794.385	.05
313.15	.0519	800.279	.05
313.15	.0992	805.328	.05
313.15	.1522	810.63	.05
313.15	.2025	815.31	.05
313.15	.2533	819.767	.05
313.15	.3031	823.842	.05
313.15	.4039	831.226	.05
313.15	.4992	837.498	.05
313.15	.6055	843.678	.05
313.15	.7017	848.688	.05
313.15	.8058	853.562	.05
313.15	.852	855.538	.05
313.15	.8982	857.451	.05
313.15	.9565	859.743	.05
313.15	1	861.241	.05

System: 1-butanol + 1-butoxy-2-propanol; phases: Liquid
Fixed: Pressure, kPa = 100
Fixed: Frequency, MHz = 3
Property: Speed of sound, m/s (Liquid); method: Sing-around technique in a fixed-path interferometer
Temperature, K	Mole fraction of 1-butoxy-2-propanol	Speed of sound, m/s	uncertainty
293.15	0	1257.52	.5
293.15	.0519	1259.89	.5
293.15	.0992	1262.09	.5
293.15	.1522	1264.39	.5
293.15	.2025	1266.4	.5
293.15	.2533	1268.22	.5
293.15	.3031	1269.84	.5
293.15	.4039	1272.45	.5
293.15	.4992	1274.45	.5
293.15	.6055	1276.34	.5
293.15	.7017	1277.44	.5
293.15	.8058	1278.31	.5
293.15	.852	1278.61	.5
293.15	.8982	1278.78	.5
293.15	.9565	1279.04	.5
293.15	1	1278.98	.5
298.15	0	1240.56	.5
298.15	.0519	1243.65	.5
298.15	.0992	1246.14	.5
298.15	.1522	1248.67	.5
298.15	.2025	1250.8	.5
298.15	.2533	1252.67	.5
298.15	.3031	1254.07	.5
298.15	.4039	1256.39	.5
298.15	.4992	1258.37	.5
298.15	.6055	1260.1	.5
298.15	.7017	1260.84	.5
298.15	.8058	1261.35	.5
298.15	.852	1261.29	.5
298.15	.8982	1261.34	.5
298.15	.9565	1261.54	.5
298.15	1	1260.9	.5
303.15	0	1223.69	.5
303.15	.0519	1227.07	.5
303.15	.0992	1229.44	.5
303.15	.1522	1232.02	.5
303.15	.2025	1234.11	.5
303.15	.2533	1235.8	.5
303.15	.3031	1237.24	.5
303.15	.4039	1239.4	.5
303.15	.4992	1241.2	.5
303.15	.6055	1242.79	.5
303.15	.7017	1243.46	.5
303.15	.8058	1243.92	.5
303.15	.852	1243.89	.5
303.15	.8982	1243.86	.5
303.15	.9565	1243.9	.5
303.15	1	1242.94	.5
308.15	0	1207.02	.5
308.15	.0519	1210.58	.5
308.15	.0992	1212.9	.5
308.15	.1522	1215.39	.5
308.15	.2025	1217.39	.5
308.15	.2533	1218.97	.5
308.15	.3031	1220.34	.5
308.15	.4039	1222.38	.5
308.15	.4992	1223.99	.5
308.15	.6055	1225.44	.5
308.15	.7017	1226.06	.5
308.15	.8058	1226.4	.5
308.15	.852	1226.29	.5
308.15	.8982	1226.28	.5
308.15	.9565	1226.26	.5
308.15	1	1224.91	.5
313.15	0	1190.51	.5
313.15	.0519	1193	.5
313.15	.0992	1194.77	.5
313.15	.1522	1196.74	.5
313.15	.2025	1198.37	.5
313.15	.2533	1199.86	.5
313.15	.3031	1201.16	.5
313.15	.4039	1203.22	.5
313.15	.4992	1204.79	.5
313.15	.6055	1206.2	.5
313.15	.7017	1206.99	.5
313.15	.8058	1207.45	.5
313.15	.852	1207.47	.5
313.15	.8982	1207.54	.5
313.15	.9565	1207.46	.5
313.15	1	1207.02	.5

System: 2-butanol + 1-butoxy-2-propanol; phases: Liquid
Fixed: Pressure, kPa = 100
Property: Mass density, kg/m3 (Liquid); method: Vibrating tube method
Temperature, K	Mole fraction of 1-butoxy-2-propanol	Mass density, kg/m3	uncertainty
293.15	0	806.679	.05
293.15	.0517	812.712	.05
293.15	.1014	818.284	.05
293.15	.1527	823.685	.05
293.15	.2041	828.704	.05
293.15	.2815	835.699	.05
293.15	.3581	841.995	.05
293.15	.4421	848.377	.05
293.15	.5348	854.7	.05
293.15	.627	860.446	.05
293.15	.7213	865.799	.05
293.15	.8116	870.476	.05
293.15	.8581	872.724	.05
293.15	.9062	874.964	.05
293.15	.9536	877.051	.05
293.15	1	879.031	.05
298.15	0	802.563	.05
298.15	.0517	808.614	.05
298.15	.1014	814.152	.05
298.15	.1527	819.533	.05
298.15	.2041	824.532	.05
298.15	.2815	831.499	.05
298.15	.3581	837.767	.05
298.15	.4421	844.12	.05
298.15	.5348	850.417	.05
298.15	.627	856.141	.05
298.15	.7213	861.469	.05
298.15	.8116	866.131	.05
298.15	.8581	868.372	.05
298.15	.9062	870.61	.05
298.15	.9536	872.689	.05
298.15	1	874.632	.05
303.15	0	798.352	.05
303.15	.0517	804.434	.05
303.15	.1014	809.949	.05
303.15	.1527	815.316	.05
303.15	.2041	820.316	.05
303.15	.2815	827.23	.05
303.15	.3581	833.49	.05
303.15	.4421	839.804	.05
303.15	.5348	846.095	.05
303.15	.627	851.795	.05
303.15	.7213	857.116	.05
303.15	.8116	861.747	.05
303.15	.8581	863.985	.05
303.15	.9062	866.21	.05
303.15	.9536	868.316	.05
303.15	1	870.204	.05
308.15	0	794.058	.05
308.15	.0517	800.162	.05
308.15	.1014	805.653	.05
308.15	.1527	811.017	.05
308.15	.2041	816	.05
308.15	.2815	822.897	.05
308.15	.3581	829.144	.05
308.15	.4421	835.438	.05
308.15	.5348	841.719	.05
308.15	.627	847.417	.05
308.15	.7213	852.712	.05
308.15	.8116	857.328	.05
308.15	.8581	859.577	.05
308.15	.9062	861.774	.05
308.15	.9536	863.853	.05
308.15	1	865.737	.05
313.15	0	789.668	.05
313.15	.0517	795.809	.05
313.15	.1014	801.286	.05
313.15	.1527	806.644	.05
313.15	.2041	811.61	.05
313.15	.2815	818.493	.05
313.15	.3581	824.735	.05
313.15	.4421	831.018	.05
313.15	.5348	837.299	.05
313.15	.627	842.98	.05
313.15	.7213	848.267	.05
313.15	.8116	852.892	.05
313.15	.8581	855.127	.05
313.15	.9062	857.32	.05
313.15	.9536	859.383	.05
313.15	1	861.241	.05

System: 2-butanol + 1-butoxy-2-propanol; phases: Liquid
Fixed: Pressure, kPa = 100
Fixed: Frequency, MHz = 3
Property: Speed of sound, m/s (Liquid); method: Sing-around technique in a fixed-path interferometer
Temperature, K	Mole fraction of 1-butoxy-2-propanol	Speed of sound, m/s	uncertainty
293.15	0	1230.19	.5
293.15	.0517	1234.44	.5
293.15	.1014	1238.8	.5
293.15	.1527	1242.97	.5
293.15	.2041	1246.92	.5
293.15	.2815	1252.23	.5
293.15	.3581	1256.79	.5
293.15	.4421	1261.11	.5
293.15	.5348	1265.27	.5
293.15	.627	1268.81	.5
293.15	.7213	1271.6	.5
293.15	.8116	1274.03	.5
293.15	.8581	1275.26	.5
293.15	.9062	1276.44	.5
293.15	.9536	1277.73	.5
293.15	1	1278.98	.5
298.15	0	1213.26	.5
298.15	.0517	1217.32	.5
298.15	.1014	1221.52	.5
298.15	.1527	1225.9	.5
298.15	.2041	1229.38	.5
298.15	.2815	1234.03	.5
298.15	.3581	1238.22	.5
298.15	.4421	1242.5	.5
298.15	.5348	1246.85	.5
298.15	.627	1250.7	.5
298.15	.7213	1253.96	.5
298.15	.8116	1256.41	.5
298.15	.8581	1257.5	.5
298.15	.9062	1258.64	.5
298.15	.9536	1259.73	.5
298.15	1	1260.9	.5
303.15	0	1197.16	.5
303.15	.0517	1201.41	.5
303.15	.1014	1205.65	.5
303.15	.1527	1209.61	.5
303.15	.2041	1213.34	.5
303.15	.2815	1218.34	.5
303.15	.3581	1222.63	.5
303.15	.4421	1226.69	.5
303.15	.5348	1230.59	.5
303.15	.627	1233.82	.5
303.15	.7213	1236.5	.5
303.15	.8116	1238.77	.5
303.15	.8581	1239.81	.5
303.15	.9062	1240.82	.5
303.15	.9536	1241.96	.5
303.15	1	1242.94	.5
308.15	0	1176.99	.5
308.15	.0517	1181.62	.5
308.15	.1014	1185.96	.5
308.15	.1527	1190.03	.5
308.15	.2041	1193.96	.5
308.15	.2815	1199.12	.5
308.15	.3581	1203.58	.5
308.15	.4421	1207.87	.5
308.15	.5348	1211.98	.5
308.15	.627	1215.35	.5
308.15	.7213	1218.15	.5
308.15	.8116	1220.57	.5
308.15	.8581	1221.86	.5
308.15	.9062	1222.76	.5
308.15	.9536	1223.91	.5
308.15	1	1224.91	.5
313.15	0	1158.86	.5
313.15	.0517	1163.63	.5
313.15	.1014	1167.98	.5
313.15	.1527	1172.02	.5
313.15	.2041	1176.01	.5
313.15	.2815	1181.21	.5
313.15	.3581	1185.67	.5
313.15	.4421	1189.99	.5
313.15	.5348	1194.12	.5
313.15	.627	1197.5	.5
313.15	.7213	1200.33	.5
313.15	.8116	1202.76	.5
313.15	.8581	1204.07	.5
313.15	.9062	1204.97	.5
313.15	.9536	1206.12	.5
313.15	1	1207.02	.5
