Measured thermophysical data. Thermophysical properties of biodiesel and related systems. Part I. Vapour liquid  equilibrium at low pressures of binary and ternary systems involving  methanol, ethanol, glycerol, water and NaCl
Source: J. Chem. Thermodyn., 2013, 10.1016/j.jct.2012.09.032
Compound 1: methyl alcohol, CH4O, purity 99.9%
Compound 2: ethanol, C2H6O, purity 99.9%
Compound 3: glycerol, C3H8O3, purity 99.5%
Compound 4: water, H2O
Compound 5: sodium chloride, ClNa, purity 97%

System: methyl alcohol; phases: Liquid, Gas
Property: Vapor or sublimation pressure, kPa (Liquid); method: Ebulliometric method (Recirculating still)
Temperature, K	Vapor or sublimation pressure, kPa	uncertainty
282.55	6.7	.0402
293.75	13.3	.0798
301.45	20	.12
307.35	26.7	.1602
311.85	33.3	.1998
315.75	40	.24
319.05	46.7	.2802
322.05	53.3	.3198
324.65	60	.36
327.25	66.7	.4002

System: ethanol; phases: Liquid, Gas
Property: Vapor or sublimation pressure, kPa (Liquid); method: Ebulliometric method (Recirculating still)
Temperature, K	Vapor or sublimation pressure, kPa	uncertainty
295.25	6.7	.0402
307.45	13.3	.0798
315.05	20	.12
321.05	26.7	.1602
325.65	33.3	.1998
329.55	40	.24
332.85	46.7	.2802
335.95	53.3	.3198
338.65	60	.36
341.15	66.7	.4002

System: glycerol; phases: Liquid, Gas
Property: Vapor or sublimation pressure, kPa (Liquid); method: Ebulliometric method (Recirculating still)
Temperature, K	Vapor or sublimation pressure, kPa	uncertainty
477.25	6.7	.0402
493.35	13.3	.0798
505.55	20	.12
513.95	26.7	.1602
520.65	33.3	.1998

System: water; phases: Liquid, Gas
Property: Vapor or sublimation pressure, kPa (Liquid); method: Ebulliometric method (Recirculating still)
Temperature, K	Vapor or sublimation pressure, kPa	uncertainty
311.15	6.7	.0402
324.55	13.3	.0798
361.85	66.7	.4002

System: glycerol + methyl alcohol; phases: Liquid, Gas
Property: Boiling temperature at pressure P, K (Liquid); method: Ebulliometric method (Recirculating still)
Mass fraction of methyl alcohol	Pressure, kPa	Boiling temperature at pressure P, K	uncertainty
0	6.7	477.25	.1
.05	6.7	324.55	.1
.075	6.7	316.35	.1
.1	6.7	309.75	.1
.2	6.7	296.45	.1
.3	6.7	290.65	.1
.4	6.7	287.45	.1
.5	6.7	285.95	.1
.6	6.7	285.25	.1
.7	6.7	284.55	.1
.8	6.7	283.85	.1
.9	6.7	283.15	.1
1	6.7	282.55	.1
0	13.3	493.35	.1
.05	13.3	340.65	.1
.075	13.3	331.65	.1
.1	13.3	322.95	.1
.2	13.3	308.95	.1
.3	13.3	303.05	.1
.4	13.3	299.75	.1
.5	13.3	298.15	.1
.6	13.3	297.05	.1
.7	13.3	296.15	.1
.8	13.3	295.25	.1
.9	13.3	294.45	.1
1	13.3	293.75	.1
0	20	505.55	.1
.05	20	350.45	.1
.075	20	340.55	.1
.1	20	331.75	.1
.2	20	317.05	.1
.3	20	311.15	.1
.4	20	307.85	.1
.5	20	306.25	.1
.6	20	305.15	.1
.7	20	304.05	.1
.8	20	303.05	.1
.9	20	302.25	.1
1	20	301.45	.1
0	26.7	513.95	.1
.05	26.7	358.45	.1
.075	26.7	347.65	.1
.1	26.7	338.75	.1
.2	26.7	323.35	.1
.3	26.7	317.35	.1
.4	26.7	314.05	.1
.5	26.7	312.35	.1
.6	26.7	311.15	.1
.7	26.7	310.05	.1
.8	26.7	309.05	.1
.9	26.7	308.15	.1
1	26.7	307.35	.1
0	33.3	520.65	.1
.05	33.3	365.45	.1
.075	33.3	353.95	.1
.1	33.3	344.95	.1
.2	33.3	328.65	.1
.3	33.3	322.35	.1
.4	33.3	318.85	.1
.5	33.3	316.95	.1
.6	33.3	315.75	.1
.7	33.3	314.65	.1
.8	33.3	313.65	.1
.9	33.3	312.65	.1
1	33.3	311.85	.1
.05	40	371.95	.1
.075	40	358.85	.1
.1	40	349.75	.1
.2	40	333.05	.1
.3	40	326.65	.1
.4	40	323.05	.1
.5	40	321.05	.1
.6	40	319.85	.1
.7	40	318.75	.1
.8	40	317.65	.1
.9	40	316.65	.1
1	40	315.75	.1
.05	46.7	376.95	.1
.075	46.7	362.95	.1
.1	46.7	353.85	.1
.2	46.7	336.85	.1
.3	46.7	330.35	.1
.4	46.7	326.65	.1
.5	46.7	324.55	.1
.6	46.7	323.35	.1
.7	46.7	322.25	.1
.8	46.7	321.15	.1
.9	46.7	320.05	.1
1	46.7	319.05	.1
.05	53.3	381.25	.1
.075	53.3	366.85	.1
.1	53.3	357.75	.1
.2	53.3	340.25	.1
.3	53.3	333.55	.1
.4	53.3	329.75	.1
.5	53.3	327.55	.1
.6	53.3	326.35	.1
.7	53.3	325.25	.1
.8	53.3	324.15	.1
.9	53.3	323.05	.1
1	53.3	322.05	.1
.05	60	384.45	.1
.075	60	370.55	.1
.1	60	361.35	.1
.2	60	343.45	.1
.3	60	336.65	.1
.4	60	332.75	.1
.5	60	330.55	.1
.6	60	329.25	.1
.7	60	328.05	.1
.8	60	326.75	.1
.9	60	325.65	.1
1	60	324.65	.1
.05	66.7	388.35	.1
.075	66.7	374.05	.1
.1	66.7	364.65	.1
.2	66.7	346.35	.1
.3	66.7	339.35	.1
.4	66.7	335.45	.1
.5	66.7	333.25	.1
.6	66.7	331.95	.1
.7	66.7	330.65	.1
.8	66.7	329.35	.1
.9	66.7	328.25	.1
1	66.7	327.25	.1

System: glycerol + ethanol; phases: Liquid, Gas
Property: Boiling temperature at pressure P, K (Liquid); method: Ebulliometric method (Recirculating still)
Mass fraction of ethanol	Pressure, kPa	Boiling temperature at pressure P, K	uncertainty
0	6.7	477.25	.1
.05	6.7	335.95	.1
.075	6.7	327.35	.1
.1	6.7	319.55	.1
.2	6.7	307.85	.1
.3	6.7	302.55	.1
.4	6.7	299.85	.1
.5	6.7	298.65	.1
.6	6.7	297.75	.1
.7	6.7	296.95	.1
.8	6.7	296.35	.1
.9	6.7	295.75	.1
1	6.7	295.25	.1
0	13.3	493.35	.1
.05	13.3	352.65	.1
.075	13.3	341.65	.1
.1	13.3	334.25	.1
.2	13.3	321.55	.1
.3	13.3	315.35	.1
.4	13.3	312.45	.1
.5	13.3	311.25	.1
.6	13.3	310.25	.1
.7	13.3	309.35	.1
.8	13.3	308.55	.1
.9	13.3	307.95	.1
1	13.3	307.45	.1
0	20	505.55	.1
.05	20	362.85	.1
.075	20	351.65	.1
.1	20	343.75	.1
.2	20	329.85	.1
.3	20	323.45	.1
.4	20	320.45	.1
.5	20	319.25	.1
.6	20	318.25	.1
.7	20	317.35	.1
.8	20	316.45	.1
.9	20	315.75	.1
1	20	315.05	.1
0	26.7	513.95	.1
.05	26.7	370.75	.1
.075	26.7	359.65	.1
.1	26.7	350.55	.1
.2	26.7	336.05	.1
.3	26.7	329.35	.1
.4	26.7	326.65	.1
.5	26.7	325.35	.1
.6	26.7	324.35	.1
.7	26.7	323.45	.1
.8	26.7	322.55	.1
.9	26.7	321.75	.1
1	26.7	321.05	.1
0	33.3	520.65	.1
.05	33.3	376.75	.1
.075	33.3	365.95	.1
.1	33.3	355.85	.1
.2	33.3	341.65	.1
.3	33.3	334.75	.1
.4	33.3	331.55	.1
.5	33.3	330.15	.1
.6	33.3	329.15	.1
.7	33.3	328.05	.1
.8	33.3	327.15	.1
.9	33.3	326.35	.1
1	33.3	325.65	.1
.05	40	382.35	.1
.075	40	371.35	.1
.1	40	360.85	.1
.2	40	346.45	.1
.3	40	338.95	.1
.4	40	335.65	.1
.5	40	334.25	.1
.6	40	333.15	.1
.7	40	332.05	.1
.8	40	331.15	.1
.9	40	330.25	.1
1	40	329.55	.1
.05	46.7	386.45	.1
.075	46.7	375.65	.1
.1	46.7	364.85	.1
.2	46.7	348.75	.1
.3	46.7	342.55	.1
.4	46.7	339.35	.1
.5	46.7	337.85	.1
.6	46.7	336.65	.1
.7	46.7	335.55	.1
.8	46.7	334.55	.1
.9	46.7	333.65	.1
1	46.7	332.85	.1
.05	53.3	390.45	.1
.075	53.3	379.25	.1
.1	53.3	368.95	.1
.2	53.3	352.85	.1
.3	53.3	345.55	.1
.4	53.3	342.65	.1
.5	53.3	341.05	.1
.6	53.3	339.85	.1
.7	53.3	338.65	.1
.8	53.3	337.65	.1
.9	53.3	336.75	.1
1	53.3	335.95	.1
.05	60	394.55	.1
.075	60	382.95	.1
.1	60	372.45	.1
.2	60	355.95	.1
.3	60	348.55	.1
.4	60	345.55	.1
.5	60	343.85	.1
.6	60	342.65	.1
.7	60	341.45	.1
.8	60	340.45	.1
.9	60	339.55	.1
1	60	338.65	.1
.05	66.7	397.85	.1
.075	66.7	385.95	.1
.1	66.7	375.85	.1
.2	66.7	359.25	.1
.3	66.7	351.35	.1
.4	66.7	348.35	.1
.5	66.7	346.55	.1
.6	66.7	345.35	.1
.7	66.7	344.15	.1
.8	66.7	343.05	.1
.9	66.7	342.05	.1
1	66.7	341.15	.1

System: glycerol + water; phases: Liquid, Gas
Property: Boiling temperature at pressure P, K (Liquid); method: Ebulliometric method (Recirculating still)
Mass fraction of water	Pressure, kPa	Boiling temperature at pressure P, K	uncertainty
0	6.7	477.25	.1
.047	6.7	360.55	.1
.115	6.7	336.75	.1
.227	6.7	323.65	.1
.439	6.7	316.75	.1
1	6.7	311.15	.1
0	13.3	493.35	.1
.047	13.3	377.65	.1
.115	13.3	352.85	.1
.227	13.3	338.05	.1
.439	13.3	330.45	.1
1	13.3	324.55	.1
.047	66.7	428.05	.1
.115	66.7	396.65	.1
.227	66.7	379.65	.1
.439	66.7	368.45	.1
1	66.7	361.85	.1

System: glycerol + methyl alcohol + water; phases: Liquid, Gas
Property: Boiling temperature at pressure P, K (Liquid); method: Ebulliometric method (Recirculating still)
Pressure, kPa	Mass fraction of methyl alcohol	Mass fraction of glycerol	Boiling temperature at pressure P, K	uncertainty
6.7	.2	.2	300.15	.1
6.7	.6	.2	287.95	.1
6.7	.2	.6	296.85	.1
13.3	.2	.2	312.85	.1
13.3	.6	.2	300.85	.1
13.3	.2	.6	309.55	.1
26.7	.2	.2	326.85	.1
26.7	.6	.2	314.15	.1
26.7	.2	.6	323.75	.1
40	.2	.2	335.95	.1
40	.6	.2	322.95	.1
40	.2	.6	333.15	.1
53.3	.2	.2	342.55	.1
53.3	.6	.2	329.45	.1
53.3	.2	.6	340.05	.1
66.7	.2	.2	348.15	.1
66.7	.6	.2	334.75	.1
66.7	.2	.6	345.95	.1

System: glycerol + ethanol + water; phases: Liquid, Gas
Property: Boiling temperature at pressure P, K (Liquid); method: Ebulliometric method (Recirculating still)
Pressure, kPa	Mass fraction of ethanol	Mass fraction of glycerol	Boiling temperature at pressure P, K	uncertainty
6.7	.2	.2	303.25	.1
6.7	.6	.2	298.35	.1
6.7	.2	.6	303.85	.1
13.3	.2	.2	314.95	.1
13.3	.6	.2	310.05	.1
13.3	.2	.6	316.65	.1
26.7	.2	.2	329.55	.1
26.7	.6	.2	323.45	.1
26.7	.2	.6	331.35	.1
40	.2	.2	338.45	.1
40	.6	.2	332.05	.1
40	.2	.6	340.95	.1
53.3	.2	.2	344.95	.1
53.3	.6	.2	338.65	.1
53.3	.2	.6	347.85	.1
66.7	.2	.2	350.35	.1
66.7	.6	.2	343.85	.1
66.7	.2	.6	353.45	.1

System: glycerol + sodium chloride + water; phases: Liquid, Gas
Property: Boiling temperature at pressure P, K (Liquid); method: Ebulliometric method (Recirculating still)
Pressure, kPa	Solvent: Mass fraction of water	Mass fraction of sodium chloride	Boiling temperature at pressure P, K	uncertainty
6.7	0	.07	479.85	.1
6.7	.05	.07	361.65	.1
6.7	.075	.07	352.25	.1
6.7	.1	.07	345.05	.1
6.7	.2	.07	329.95	.1
6.7	.3	.07	323.45	.1
6.7	.4	.07	320.35	.1
13.3	0	.07	496.05	.1
13.3	.05	.07	383.45	.1
13.3	.075	.07	370.45	.1
13.3	.1	.07	362.35	.1
13.3	.2	.07	345.55	.1
13.3	.3	.07	338.25	.1
13.3	.4	.07	334.55	.1
20	0	.07	508.25	.1
20	.05	.07	395.95	.1
20	.075	.07	382.25	.1
20	.1	.07	373.05	.1
20	.2	.07	354.85	.1
20	.3	.07	347.35	.1
20	.4	.07	343.45	.1
26.7	0	.07	516.75	.1
26.7	.05	.07	405.55	.1
26.7	.075	.07	390.95	.1
26.7	.1	.07	380.95	.1
26.7	.2	.07	361.85	.1
26.7	.3	.07	354.15	.1
26.7	.4	.07	350.25	.1
33.3	0	.07	523.55	.1
33.3	.05	.07	413.15	.1
33.3	.075	.07	397.75	.1
33.3	.1	.07	387.55	.1
33.3	.2	.07	367.65	.1
33.3	.3	.07	359.55	.1
33.3	.4	.07	355.55	.1
40	.05	.07	419.45	.1
40	.075	.07	403.25	.1
40	.1	.07	392.85	.1
40	.2	.07	372.35	.1
40	.3	.07	363.95	.1
40	.4	.07	359.85	.1
46.7	.05	.07	425.15	.1
46.7	.075	.07	408.15	.1
46.7	.1	.07	397.65	.1
46.7	.2	.07	376.45	.1
46.7	.3	.07	367.75	.1
46.7	.4	.07	363.55	.1
53.3	.05	.07	429.95	.1
53.3	.075	.07	412.35	.1
53.3	.1	.07	401.75	.1
53.3	.2	.07	380.25	.1
53.3	.3	.07	371.35	.1
53.3	.4	.07	367.05	.1
60	.05	.07	434.45	.1
60	.075	.07	416.35	.1
60	.1	.07	405.35	.1
60	.2	.07	383.55	.1
60	.3	.07	374.55	.1
60	.4	.07	370.25	.1
66.7	.05	.07	438.45	.1
66.7	.075	.07	420.05	.1
66.7	.1	.07	408.55	.1
66.7	.2	.07	386.55	.1
66.7	.3	.07	377.45	.1
66.7	.4	.07	373.05	.1
6.7	.5	.15	320.15	.1
6.7	.6	.15	318.55	.1
6.7	.7	.15	317.15	.1
6.7	.8	.15	315.95	.1
6.7	.9	.15	314.85	.1
6.7	1	.15	313.85	.1
13.3	.5	.15	334.65	.1
13.3	.6	.15	332.65	.1
13.3	.7	.15	331.05	.1
13.3	.8	.15	329.65	.1
13.3	.9	.15	328.45	.1
13.3	1	.15	327.45	.1
20	.5	.15	343.65	.1
20	.6	.15	341.55	.1
20	.7	.15	339.95	.1
20	.8	.15	338.55	.1
20	.9	.15	337.35	.1
20	1	.15	336.35	.1
26.7	.5	.15	350.25	.1
26.7	.6	.15	348.15	.1
26.7	.7	.15	346.45	.1
26.7	.8	.15	344.95	.1
26.7	.9	.15	343.65	.1
26.7	1	.15	342.65	.1
33.3	.5	.15	355.55	.1
33.3	.6	.15	353.45	.1
33.3	.7	.15	351.75	.1
33.3	.8	.15	350.15	.1
33.3	.9	.15	348.85	.1
33.3	1	.15	347.85	.1
40	.5	.15	359.85	.1
40	.6	.15	357.75	.1
40	.7	.15	356.05	.1
40	.8	.15	354.35	.1
40	.9	.15	353.05	.1
40	1	.15	352.05	.1
46.7	.5	.15	363.65	.1
46.7	.6	.15	361.45	.1
46.7	.7	.15	359.75	.1
46.7	.8	.15	357.95	.1
46.7	.9	.15	356.65	.1
46.7	1	.15	355.65	.1
53.3	.5	.15	367.05	.1
53.3	.6	.15	364.85	.1
53.3	.7	.15	363.05	.1
53.3	.8	.15	361.25	.1
53.3	.9	.15	359.95	.1
53.3	1	.15	358.95	.1
60	.5	.15	370.25	.1
60	.6	.15	367.95	.1
60	.7	.15	366.15	.1
60	.8	.15	364.25	.1
60	.9	.15	362.95	.1
60	1	.15	361.85	.1
66.7	.5	.15	373.05	.1
66.7	.6	.15	370.75	.1
66.7	.7	.15	368.95	.1
66.7	.8	.15	367.05	.1
66.7	.9	.15	365.75	.1
66.7	1	.15	364.65	.1

System: glycerol + sodium chloride; phases: Liquid, Gas
Property: Boiling temperature at pressure P, K (Liquid); method: Ebulliometric method (Recirculating still)
Pressure, kPa	Mass fraction of sodium chloride	Boiling temperature at pressure P, K	uncertainty
6.7	.07	479.85	.1
13.3	.07	496.05	.1
20	.07	508.25	.1
26.7	.07	516.75	.1
33.3	.07	523.55	.1

System: sodium chloride + water; phases: Liquid, Gas
Property: Boiling temperature at pressure P, K (Liquid); method: Ebulliometric method (Recirculating still)
Pressure, kPa	Mass fraction of sodium chloride	Boiling temperature at pressure P, K	uncertainty
6.7	.15	313.85	.1
13.3	.15	327.45	.1
20	.15	336.35	.1
26.7	.15	342.65	.1
33.3	.15	347.85	.1
40	.15	352.05	.1
46.7	.15	355.65	.1
53.3	.15	358.95	.1
60	.15	361.85	.1
66.7	.15	364.65	.1
