Measured thermophysical data. Effect of temperature and additives on the critical micelle concentration and thermodynamics of micelle formation of sodium dodecyl benzene sulfonate and dodecyltrimethylammonium bromide in aqueous solution: A conductometric study
Source: J. Chem. Thermodyn., 2014, 10.1016/j.jct.2013.12.019
Compound 1: water, H2O
Compound 2: L-glutamine, C5H10N2O3, purity 99%
Compound 3: L-histidine, C6H9N3O2, purity 99%
Compound 4: L-methionine, C5H11NO2S, purity 98%
Compound 5: dodecyltrimethylammonium bromide, C15H34BrN, purity 98%

System: dodecyltrimethylammonium bromide + water; phases: Liquid
Fixed: Pressure, kPa = 101
Property: Electrical conductivity, S/m (Liquid); method: Alternating current cell with electrodes
Temperature, K	Molality, mol/kg of dodecyltrimethylammonium bromide	Electrical conductivity, S/m	uncertainty
293.15	.0015	.014	.00014
293.15	.003	.027	.00027
293.15	.0045	.0397	.000397
293.15	.006	.0524	.000524
293.15	.0075	.0645	.000645
293.15	.009	.0763	.000763
293.15	.0105	.088	.00088
293.15	.012	.0995	.000995
293.15	.0135	.1107	.001107
293.15	.015	.1214	.001214
293.15	.0165	.1297	.001297
293.15	.018	.1355	.001355
293.15	.0195	.1385	.001385
293.15	.021	.1418	.001418
293.15	.0225	.1447	.001447
293.15	.024	.1475	.001475
293.15	.0255	.1505	.001505
293.15	.027	.1531	.001531
293.15	.0285	.1557	.001557
293.15	.03	.1585	.001585
298.15	.0015	.01428	.0001428
298.15	.003	.0273	.000273
298.15	.0045	.0412	.000412
298.15	.006	.0535	.000535
298.15	.0075	.0669	.000669
298.15	.009	.0784	.000784
298.15	.0105	.091	.00091
298.15	.012	.1023	.001023
298.15	.0135	.1127	.001127
298.15	.015	.1231	.001231
298.15	.0165	.1321	.001321
298.15	.018	.1365	.001365
298.15	.0195	.1395	.001395
298.15	.021	.1423	.001423
298.15	.0225	.1453	.001453
298.15	.024	.1481	.001481
298.15	.0255	.1508	.001508
298.15	.027	.1536	.001536
298.15	.0285	.1564	.001564
298.15	.03	.1592	.001592
303.15	.0015	.01439	.0001439
303.15	.003	.0278	.000278
303.15	.0045	.0413	.000413
303.15	.006	.055	.00055
303.15	.0075	.0675	.000675
303.15	.009	.0798	.000798
303.15	.0105	.0908	.000908
303.15	.012	.1035	.001035
303.15	.0135	.1143	.001143
303.15	.015	.1259	.001259
303.15	.0165	.1324	.001324
303.15	.018	.1372	.001372
303.15	.0195	.1408	.001408
303.15	.021	.1435	.001435
303.15	.0225	.1465	.001465
303.15	.024	.1495	.001495
303.15	.0255	.1511	.001511
303.15	.027	.1542	.001542
303.15	.0285	.1564	.001564
303.15	.03	.1595	.001595
308.15	.0015	.01533	.0001533
308.15	.003	.0286	.000286
308.15	.0045	.042	.00042
308.15	.006	.0551	.000551
308.15	.0075	.068	.00068
308.15	.009	.0808	.000808
308.15	.0105	.0927	.000927
308.15	.012	.105	.00105
308.15	.0135	.1174	.001174
308.15	.015	.1278	.001278
308.15	.0165	.1337	.001337
308.15	.018	.1388	.001388
308.15	.0195	.1424	.001424
308.15	.021	.1455	.001455
308.15	.0225	.1483	.001483
308.15	.024	.1513	.001513
308.15	.0255	.1545	.001545
308.15	.027	.1575	.001575
308.15	.0285	.1595	.001595
308.15	.03	.1625	.001625
313.15	.0015	.01688	.0001688
313.15	.003	.032	.00032
313.15	.0045	.0469	.000469
313.15	.006	.061	.00061
313.15	.0075	.0759	.000759
313.15	.009	.0895	.000895
313.15	.0105	.1032	.001032
313.15	.012	.1162	.001162
313.15	.0135	.1285	.001285
313.15	.015	.1374	.001374
313.15	.0165	.1437	.001437
313.15	.018	.1487	.001487
313.15	.0195	.1518	.001518
313.15	.021	.156	.00156
313.15	.0225	.1597	.001597
313.15	.024	.162	.00162
313.15	.0255	.165	.00165
313.15	.027	.1678	.001678
313.15	.0285	.171	.00171
313.15	.03	.1732	.001732

System: L-glutamine + dodecyltrimethylammonium bromide + water; phases: Liquid
Fixed: Pressure, kPa = 101
Property: Electrical conductivity, S/m (Liquid); method: Alternating current cell with electrodes
Temperature, K	Solvent: Molality, mol/kg of L-glutamine	Molality, mol/kg of dodecyltrimethylammonium bromide	Electrical conductivity, S/m	uncertainty
293.15	.01	.0015	.01396	.0001396
293.15	.01	.003	.0267	.000267
293.15	.01	.0045	.0391	.000391
293.15	.01	.006	.0516	.000516
293.15	.01	.0075	.063	.00063
293.15	.01	.009	.0741	.000741
293.15	.01	.0105	.0857	.000857
293.15	.01	.012	.0972	.000972
293.15	.01	.0135	.1077	.001077
293.15	.01	.015	.1178	.001178
293.15	.01	.0165	.1258	.001258
293.15	.01	.018	.1299	.001299
293.15	.01	.0195	.1334	.001334
293.15	.01	.021	.1358	.001358
293.15	.01	.0225	.1387	.001387
293.15	.01	.024	.1412	.001412
293.15	.01	.0255	.1441	.001441
293.15	.01	.027	.1468	.001468
293.15	.01	.0285	.149	.00149
293.15	.01	.03	.1518	.001518
298.15	.01	.0015	.01452	.0001452
298.15	.01	.003	.027	.00027
298.15	.01	.0045	.0404	.000404
298.15	.01	.006	.0534	.000534
298.15	.01	.0075	.0644	.000644
298.15	.01	.009	.0773	.000773
298.15	.01	.0105	.089	.00089
298.15	.01	.012	.1007	.001007
298.15	.01	.0135	.1113	.001113
298.15	.01	.015	.1229	.001229
298.15	.01	.0165	.1298	.001298
298.15	.01	.018	.1331	.001331
298.15	.01	.0195	.1365	.001365
298.15	.01	.021	.1394	.001394
298.15	.01	.0225	.1419	.001419
298.15	.01	.024	.1448	.001448
298.15	.01	.0255	.1474	.001474
298.15	.01	.027	.1498	.001498
298.15	.01	.0285	.152	.00152
298.15	.01	.03	.154	.00154
303.15	.01	.0015	.01468	.0001468
303.15	.01	.003	.028	.00028
303.15	.01	.0045	.041	.00041
303.15	.01	.006	.0538	.000538
303.15	.01	.0075	.0666	.000666
303.15	.01	.009	.0786	.000786
303.15	.01	.0105	.0901	.000901
303.15	.01	.012	.1019	.001019
303.15	.01	.0135	.1131	.001131
303.15	.01	.015	.1239	.001239
303.15	.01	.0165	.1298	.001298
303.15	.01	.018	.1333	.001333
303.15	.01	.0195	.137	.00137
303.15	.01	.021	.1402	.001402
303.15	.01	.0225	.1444	.001444
303.15	.01	.024	.1475	.001475
303.15	.01	.0255	.1497	.001497
303.15	.01	.027	.152	.00152
303.15	.01	.0285	.1554	.001554
303.15	.01	.03	.1584	.001584
308.15	.01	.0015	.01471	.0001471
308.15	.01	.003	.028	.00028
308.15	.01	.0045	.0416	.000416
308.15	.01	.006	.054	.00054
308.15	.01	.0075	.0669	.000669
308.15	.01	.009	.0788	.000788
308.15	.01	.0105	.0904	.000904
308.15	.01	.012	.1017	.001017
308.15	.01	.0135	.1132	.001132
308.15	.01	.015	.1242	.001242
308.15	.01	.0165	.1314	.001314
308.15	.01	.018	.136	.00136
308.15	.01	.0195	.1398	.001398
308.15	.01	.021	.1429	.001429
308.15	.01	.0225	.146	.00146
308.15	.01	.024	.1491	.001491
308.15	.01	.0255	.1521	.001521
308.15	.01	.027	.1547	.001547
308.15	.01	.0285	.1576	.001576
308.15	.01	.03	.1608	.001608
313.15	.01	.0015	.01498	.0001498
313.15	.01	.003	.0286	.000286
313.15	.01	.0045	.0418	.000418
313.15	.01	.006	.0541	.000541
313.15	.01	.0075	.0672	.000672
313.15	.01	.009	.0793	.000793
313.15	.01	.0105	.0916	.000916
313.15	.01	.012	.104	.00104
313.15	.01	.0135	.1149	.001149
313.15	.01	.015	.1243	.001243
313.15	.01	.0165	.1329	.001329
313.15	.01	.018	.1379	.001379
313.15	.01	.0195	.1421	.001421
313.15	.01	.021	.1457	.001457
313.15	.01	.0225	.1488	.001488
313.15	.01	.024	.1515	.001515
313.15	.01	.0255	.1548	.001548
313.15	.01	.027	.1575	.001575
313.15	.01	.0285	.1601	.001601
313.15	.01	.03	.1634	.001634
293.15	.05	.0015	.01402	.0001402
293.15	.05	.003	.0269	.000269
293.15	.05	.0045	.0399	.000399
293.15	.05	.006	.052	.00052
293.15	.05	.0075	.0643	.000643
293.15	.05	.009	.0762	.000762
293.15	.05	.0105	.0876	.000876
293.15	.05	.012	.0993	.000993
293.15	.05	.0135	.1096	.001096
293.15	.05	.015	.1193	.001193
293.15	.05	.0165	.1269	.001269
293.15	.05	.018	.1311	.001311
293.15	.05	.0195	.1345	.001345
293.15	.05	.021	.137	.00137
293.15	.05	.0225	.1395	.001395
293.15	.05	.024	.1424	.001424
293.15	.05	.0255	.1451	.001451
293.15	.05	.027	.1477	.001477
293.15	.05	.0285	.1504	.001504
293.15	.05	.03	.1533	.001533
298.15	.05	.0015	.01422	.0001422
298.15	.05	.003	.0272	.000272
298.15	.05	.0045	.0398	.000398
298.15	.05	.006	.0521	.000521
298.15	.05	.0075	.0644	.000644
298.15	.05	.009	.0762	.000762
298.15	.05	.0105	.0875	.000875
298.15	.05	.012	.0983	.000983
298.15	.05	.0135	.1114	.001114
298.15	.05	.015	.1219	.001219
298.15	.05	.0165	.1261	.001261
298.15	.05	.018	.1324	.001324
298.15	.05	.0195	.1355	.001355
298.15	.05	.021	.1391	.001391
298.15	.05	.0225	.1417	.001417
298.15	.05	.024	.1444	.001444
298.15	.05	.0255	.1472	.001472
298.15	.05	.027	.1496	.001496
298.15	.05	.0285	.1513	.001513
298.15	.05	.03	.154	.00154
303.15	.05	.0015	.01437	.0001437
303.15	.05	.003	.0273	.000273
303.15	.05	.0045	.0401	.000401
303.15	.05	.006	.0524	.000524
303.15	.05	.0075	.0651	.000651
303.15	.05	.009	.0768	.000768
303.15	.05	.0105	.0887	.000887
303.15	.05	.012	.1001	.001001
303.15	.05	.0135	.1114	.001114
303.15	.05	.015	.1228	.001228
303.15	.05	.0165	.1297	.001297
303.15	.05	.018	.1338	.001338
303.15	.05	.0195	.1359	.001359
303.15	.05	.021	.1393	.001393
303.15	.05	.0225	.1424	.001424
303.15	.05	.024	.1455	.001455
303.15	.05	.0255	.1483	.001483
303.15	.05	.027	.1511	.001511
303.15	.05	.0285	.154	.00154
303.15	.05	.03	.1569	.001569
308.15	.05	.0015	.01435	.0001435
308.15	.05	.003	.0274	.000274
308.15	.05	.0045	.0419	.000419
308.15	.05	.006	.0547	.000547
308.15	.05	.0075	.0664	.000664
308.15	.05	.009	.0787	.000787
308.15	.05	.0105	.0899	.000899
308.15	.05	.012	.1018	.001018
308.15	.05	.0135	.1142	.001142
308.15	.05	.015	.1239	.001239
308.15	.05	.0165	.1319	.001319
308.15	.05	.018	.1372	.001372
308.15	.05	.0195	.1411	.001411
308.15	.05	.021	.145	.00145
308.15	.05	.0225	.1482	.001482
308.15	.05	.024	.1516	.001516
308.15	.05	.0255	.1547	.001547
308.15	.05	.027	.1575	.001575
308.15	.05	.0285	.1609	.001609
308.15	.05	.03	.1645	.001645
313.15	.05	.0015	.01613	.0001613
313.15	.05	.003	.0298	.000298
313.15	.05	.0045	.0427	.000427
313.15	.05	.006	.0545	.000545
313.15	.05	.0075	.0663	.000663
313.15	.05	.009	.0788	.000788
313.15	.05	.0105	.0901	.000901
313.15	.05	.012	.1033	.001033
313.15	.05	.0135	.1145	.001145
313.15	.05	.015	.1281	.001281
313.15	.05	.0165	.1339	.001339
313.15	.05	.018	.1379	.001379
313.15	.05	.0195	.1414	.001414
313.15	.05	.021	.1452	.001452
313.15	.05	.0225	.1483	.001483
313.15	.05	.024	.1514	.001514
313.15	.05	.0255	.1546	.001546
313.15	.05	.027	.158	.00158
313.15	.05	.0285	.1614	.001614
313.15	.05	.03	.1644	.001644
293.15	.1	.0015	.01434	.0001434
293.15	.1	.003	.0271	.000271
293.15	.1	.0045	.0392	.000392
293.15	.1	.006	.0514	.000514
293.15	.1	.0075	.0633	.000633
293.15	.1	.009	.0753	.000753
293.15	.1	.0105	.0867	.000867
293.15	.1	.012	.0977	.000977
293.15	.1	.0135	.1095	.001095
293.15	.1	.015	.1202	.001202
293.15	.1	.0165	.1274	.001274
293.15	.1	.018	.1315	.001315
293.15	.1	.0195	.1346	.001346
293.15	.1	.021	.138	.00138
293.15	.1	.0225	.1409	.001409
293.15	.1	.024	.1441	.001441
293.15	.1	.0255	.1469	.001469
293.15	.1	.027	.1493	.001493
293.15	.1	.0285	.1522	.001522
293.15	.1	.03	.1547	.001547
298.15	.1	.0015	.01463	.0001463
298.15	.1	.003	.0275	.000275
298.15	.1	.0045	.0401	.000401
298.15	.1	.006	.0528	.000528
298.15	.1	.0075	.0644	.000644
298.15	.1	.009	.0764	.000764
298.15	.1	.0105	.0885	.000885
298.15	.1	.012	.0994	.000994
298.15	.1	.0135	.1107	.001107
298.15	.1	.015	.1212	.001212
298.15	.1	.0165	.1289	.001289
298.15	.1	.018	.1328	.001328
298.15	.1	.0195	.1364	.001364
298.15	.1	.021	.1395	.001395
298.15	.1	.0225	.1421	.001421
298.15	.1	.024	.1453	.001453
298.15	.1	.0255	.1479	.001479
298.15	.1	.027	.1509	.001509
298.15	.1	.0285	.1537	.001537
298.15	.1	.03	.1568	.001568
303.15	.1	.0015	.01484	.0001484
303.15	.1	.003	.0278	.000278
303.15	.1	.0045	.0403	.000403
303.15	.1	.006	.0529	.000529
303.15	.1	.0075	.0649	.000649
303.15	.1	.009	.0768	.000768
303.15	.1	.0105	.089	.00089
303.15	.1	.012	.1016	.001016
303.15	.1	.0135	.112	.00112
303.15	.1	.015	.1206	.001206
303.15	.1	.0165	.1294	.001294
303.15	.1	.018	.1338	.001338
303.15	.1	.0195	.1369	.001369
303.15	.1	.021	.1398	.001398
303.15	.1	.0225	.1427	.001427
303.15	.1	.024	.1456	.001456
303.15	.1	.0255	.1485	.001485
303.15	.1	.027	.1514	.001514
303.15	.1	.0285	.154	.00154
303.15	.1	.03	.1569	.001569
308.15	.1	.0015	.01491	.0001491
308.15	.1	.003	.0282	.000282
308.15	.1	.0045	.0414	.000414
308.15	.1	.006	.054	.00054
308.15	.1	.0075	.0659	.000659
308.15	.1	.009	.0776	.000776
308.15	.1	.0105	.0897	.000897
308.15	.1	.012	.1026	.001026
308.15	.1	.0135	.1132	.001132
308.15	.1	.015	.1241	.001241
308.15	.1	.0165	.1301	.001301
308.15	.1	.018	.1348	.001348
308.15	.1	.0195	.1382	.001382
308.15	.1	.021	.1413	.001413
308.15	.1	.0225	.1447	.001447
308.15	.1	.024	.1482	.001482
308.15	.1	.0255	.1508	.001508
308.15	.1	.027	.1556	.001556
308.15	.1	.0285	.1577	.001577
308.15	.1	.03	.1614	.001614
313.15	.1	.0015	.01526	.0001526
313.15	.1	.003	.0284	.000284
313.15	.1	.0045	.0417	.000417
313.15	.1	.006	.0542	.000542
313.15	.1	.0075	.0664	.000664
313.15	.1	.009	.0791	.000791
313.15	.1	.0105	.0912	.000912
313.15	.1	.012	.1025	.001025
313.15	.1	.0135	.1142	.001142
313.15	.1	.015	.126	.00126
313.15	.1	.0165	.1345	.001345
313.15	.1	.018	.14	.0014
313.15	.1	.0195	.1451	.001451
313.15	.1	.021	.1479	.001479
313.15	.1	.0225	.1512	.001512
313.15	.1	.024	.1547	.001547
313.15	.1	.0255	.158	.00158
313.15	.1	.027	.1626	.001626
313.15	.1	.0285	.1643	.001643
313.15	.1	.03	.1673	.001673

System: L-histidine + dodecyltrimethylammonium bromide + water; phases: Liquid
Fixed: Pressure, kPa = 101
Property: Electrical conductivity, S/m (Liquid); method: Alternating current cell with electrodes
Temperature, K	Solvent: Molality, mol/kg of L-histidine	Molality, mol/kg of dodecyltrimethylammonium bromide	Electrical conductivity, S/m	uncertainty
293.15	.01	.0015	.001409	.00001409
293.15	.01	.003	.01547	.0001547
293.15	.01	.0045	.0259	.000259
293.15	.01	.006	.0396	.000396
293.15	.01	.0075	.0528	.000528
293.15	.01	.009	.0649	.000649
293.15	.01	.0105	.0769	.000769
293.15	.01	.012	.0885	.000885
293.15	.01	.0135	.0981	.000981
293.15	.01	.015	.1095	.001095
293.15	.01	.0165	.1198	.001198
293.15	.01	.018	.1272	.001272
293.15	.01	.0195	.1322	.001322
293.15	.01	.021	.1356	.001356
293.15	.01	.0225	.1384	.001384
293.15	.01	.024	.1407	.001407
293.15	.01	.0255	.1434	.001434
293.15	.01	.027	.1453	.001453
293.15	.01	.0285	.1481	.001481
293.15	.01	.03	.1498	.001498
298.15	.01	.0015	.001501	.00001501
298.15	.01	.003	.0153	.000153
298.15	.01	.0045	.0283	.000283
298.15	.01	.006	.041	.00041
298.15	.01	.0075	.0533	.000533
298.15	.01	.009	.0655	.000655
298.15	.01	.0105	.0773	.000773
298.15	.01	.012	.0888	.000888
298.15	.01	.0135	.0984	.000984
298.15	.01	.015	.1103	.001103
298.15	.01	.0165	.1206	.001206
298.15	.01	.018	.1278	.001278
298.15	.01	.0195	.1332	.001332
298.15	.01	.021	.1359	.001359
298.15	.01	.0225	.1395	.001395
298.15	.01	.024	.1422	.001422
298.15	.01	.0255	.145	.00145
298.15	.01	.027	.1475	.001475
298.15	.01	.0285	.1503	.001503
298.15	.01	.03	.1528	.001528
303.15	.01	.0015	.001837	.00001837
303.15	.01	.003	.01567	.0001567
303.15	.01	.0045	.0287	.000287
303.15	.01	.006	.0415	.000415
303.15	.01	.0075	.0539	.000539
303.15	.01	.009	.0661	.000661
303.15	.01	.0105	.0774	.000774
303.15	.01	.012	.0894	.000894
303.15	.01	.0135	.1	.001
303.15	.01	.015	.1105	.001105
303.15	.01	.0165	.1273	.001273
303.15	.01	.018	.1296	.001296
303.15	.01	.0195	.135	.00135
303.15	.01	.021	.1392	.001392
303.15	.01	.0225	.1432	.001432
303.15	.01	.024	.146	.00146
303.15	.01	.0255	.1488	.001488
303.15	.01	.027	.1514	.001514
303.15	.01	.0285	.1536	.001536
303.15	.01	.03	.1558	.001558
308.15	.01	.0015	.00156	.0000156
308.15	.01	.003	.01597	.0001597
308.15	.01	.0045	.0295	.000295
308.15	.01	.006	.0421	.000421
308.15	.01	.0075	.0552	.000552
308.15	.01	.009	.067	.00067
308.15	.01	.0105	.0797	.000797
308.15	.01	.012	.0913	.000913
308.15	.01	.0135	.1036	.001036
308.15	.01	.015	.1141	.001141
308.15	.01	.0165	.1214	.001214
308.15	.01	.018	.1334	.001334
308.15	.01	.0195	.1379	.001379
308.15	.01	.021	.1413	.001413
308.15	.01	.0225	.1442	.001442
308.15	.01	.024	.1475	.001475
308.15	.01	.0255	.1504	.001504
308.15	.01	.027	.153	.00153
308.15	.01	.0285	.155	.00155
308.15	.01	.03	.1572	.001572
313.15	.01	.0015	.00182	.0000182
313.15	.01	.003	.01612	.0001612
313.15	.01	.0045	.0297	.000297
313.15	.01	.006	.0425	.000425
313.15	.01	.0075	.0552	.000552
313.15	.01	.009	.0679	.000679
313.15	.01	.0105	.0813	.000813
313.15	.01	.012	.0926	.000926
313.15	.01	.0135	.105	.00105
313.15	.01	.015	.116	.00116
313.15	.01	.0165	.1236	.001236
313.15	.01	.018	.1333	.001333
313.15	.01	.0195	.1387	.001387
313.15	.01	.021	.1424	.001424
313.15	.01	.0225	.1462	.001462
313.15	.01	.024	.1498	.001498
313.15	.01	.0255	.1524	.001524
313.15	.01	.027	.1557	.001557
313.15	.01	.0285	.1585	.001585
313.15	.01	.03	.1613	.001613
293.15	.05	.0015	.00572	.0000572
293.15	.05	.003	.01856	.0001856
293.15	.05	.0045	.0312	.000312
293.15	.05	.006	.0447	.000447
293.15	.05	.0075	.0563	.000563
293.15	.05	.009	.0685	.000685
293.15	.05	.0105	.0793	.000793
293.15	.05	.012	.0913	.000913
293.15	.05	.0135	.1018	.001018
293.15	.05	.015	.1115	.001115
293.15	.05	.0165	.1208	.001208
293.15	.05	.018	.1305	.001305
293.15	.05	.0195	.1336	.001336
293.15	.05	.021	.1369	.001369
293.15	.05	.0225	.1394	.001394
293.15	.05	.024	.1425	.001425
293.15	.05	.0255	.1453	.001453
293.15	.05	.027	.1482	.001482
293.15	.05	.0285	.1501	.001501
293.15	.05	.03	.1538	.001538
298.15	.05	.0015	.0054	.000054
298.15	.05	.003	.0192	.000192
298.15	.05	.0045	.0318	.000318
298.15	.05	.006	.0448	.000448
298.15	.05	.0075	.0567	.000567
298.15	.05	.009	.0688	.000688
298.15	.05	.0105	.0795	.000795
298.15	.05	.012	.0916	.000916
298.15	.05	.0135	.1027	.001027
298.15	.05	.015	.1131	.001131
298.15	.05	.0165	.1227	.001227
298.15	.05	.018	.1309	.001309
298.15	.05	.0195	.1355	.001355
298.15	.05	.021	.1386	.001386
298.15	.05	.0225	.142	.00142
298.15	.05	.024	.1452	.001452
298.15	.05	.0255	.1476	.001476
298.15	.05	.027	.15	.0015
298.15	.05	.0285	.1521	.001521
298.15	.05	.03	.1547	.001547
303.15	.05	.0015	.00609	.0000609
303.15	.05	.003	.0197	.000197
303.15	.05	.0045	.0318	.000318
303.15	.05	.006	.0448	.000448
303.15	.05	.0075	.0573	.000573
303.15	.05	.009	.0695	.000695
303.15	.05	.0105	.0814	.000814
303.15	.05	.012	.0933	.000933
303.15	.05	.0135	.1059	.001059
303.15	.05	.015	.1166	.001166
303.15	.05	.0165	.1278	.001278
303.15	.05	.018	.1364	.001364
303.15	.05	.0195	.137	.00137
303.15	.05	.021	.1399	.001399
303.15	.05	.0225	.1425	.001425
303.15	.05	.024	.1453	.001453
303.15	.05	.0255	.1486	.001486
303.15	.05	.027	.1506	.001506
303.15	.05	.0285	.1538	.001538
303.15	.05	.03	.1562	.001562
308.15	.05	.0015	.00639	.0000639
308.15	.05	.003	.02	.0002
308.15	.05	.0045	.0319	.000319
308.15	.05	.006	.0448	.000448
308.15	.05	.0075	.0575	.000575
308.15	.05	.009	.0693	.000693
308.15	.05	.0105	.0814	.000814
308.15	.05	.012	.0927	.000927
308.15	.05	.0135	.1046	.001046
308.15	.05	.015	.1165	.001165
308.15	.05	.0165	.1271	.001271
308.15	.05	.018	.1348	.001348
308.15	.05	.0195	.1393	.001393
308.15	.05	.021	.143	.00143
308.15	.05	.0225	.147	.00147
308.15	.05	.024	.1498	.001498
308.15	.05	.0255	.1528	.001528
308.15	.05	.027	.1559	.001559
308.15	.05	.0285	.1591	.001591
308.15	.05	.03	.1618	.001618
313.15	.05	.0015	.00697	.0000697
313.15	.05	.003	.0203	.000203
313.15	.05	.0045	.0335	.000335
313.15	.05	.006	.0459	.000459
313.15	.05	.0075	.058	.00058
313.15	.05	.009	.0703	.000703
313.15	.05	.0105	.0826	.000826
313.15	.05	.012	.0944	.000944
313.15	.05	.0135	.106	.00106
313.15	.05	.015	.1165	.001165
313.15	.05	.0165	.1276	.001276
313.15	.05	.018	.1372	.001372
313.15	.05	.0195	.1426	.001426
313.15	.05	.021	.1463	.001463
313.15	.05	.0225	.1495	.001495
313.15	.05	.024	.1525	.001525
313.15	.05	.0255	.1572	.001572
313.15	.05	.027	.1606	.001606
313.15	.05	.0285	.1639	.001639
313.15	.05	.03	.1675	.001675
293.15	.1	.0015	.01017	.0001017
293.15	.1	.003	.0228	.000228
293.15	.1	.0045	.0356	.000356
293.15	.1	.006	.0487	.000487
293.15	.1	.0075	.0614	.000614
293.15	.1	.009	.0727	.000727
293.15	.1	.0105	.0858	.000858
293.15	.1	.012	.0967	.000967
293.15	.1	.0135	.1085	.001085
293.15	.1	.015	.1189	.001189
293.15	.1	.0165	.1293	.001293
293.15	.1	.018	.1349	.001349
293.15	.1	.0195	.1389	.001389
293.15	.1	.021	.1418	.001418
293.15	.1	.0225	.1454	.001454
293.15	.1	.024	.1475	.001475
293.15	.1	.0255	.1509	.001509
293.15	.1	.027	.1533	.001533
293.15	.1	.0285	.1552	.001552
293.15	.1	.03	.1578	.001578
298.15	.1	.0015	.01108	.0001108
298.15	.1	.003	.0234	.000234
298.15	.1	.0045	.0369	.000369
298.15	.1	.006	.0495	.000495
298.15	.1	.0075	.0618	.000618
298.15	.1	.009	.0737	.000737
298.15	.1	.0105	.086	.00086
298.15	.1	.012	.098	.00098
298.15	.1	.0135	.1081	.001081
298.15	.1	.015	.1219	.001219
298.15	.1	.0165	.1298	.001298
298.15	.1	.018	.1351	.001351
298.15	.1	.0195	.1396	.001396
298.15	.1	.021	.1419	.001419
298.15	.1	.0225	.1455	.001455
298.15	.1	.024	.1485	.001485
298.15	.1	.0255	.1519	.001519
298.15	.1	.027	.1559	.001559
298.15	.1	.0285	.1573	.001573
298.15	.1	.03	.1599	.001599
303.15	.1	.0015	.0117	.000117
303.15	.1	.003	.0238	.000238
303.15	.1	.0045	.0373	.000373
303.15	.1	.006	.0496	.000496
303.15	.1	.0075	.0625	.000625
303.15	.1	.009	.0747	.000747
303.15	.1	.0105	.0861	.000861
303.15	.1	.012	.0968	.000968
303.15	.1	.0135	.1092	.001092
303.15	.1	.015	.1199	.001199
303.15	.1	.0165	.1298	.001298
303.15	.1	.018	.1355	.001355
303.15	.1	.0195	.1399	.001399
303.15	.1	.021	.143	.00143
303.15	.1	.0225	.1463	.001463
303.15	.1	.024	.1496	.001496
303.15	.1	.0255	.1526	.001526
303.15	.1	.027	.1559	.001559
303.15	.1	.0285	.1591	.001591
303.15	.1	.03	.1617	.001617
308.15	.1	.0015	.01227	.0001227
308.15	.1	.003	.0252	.000252
308.15	.1	.0045	.0385	.000385
308.15	.1	.006	.0517	.000517
308.15	.1	.0075	.0639	.000639
308.15	.1	.009	.0762	.000762
308.15	.1	.0105	.0883	.000883
308.15	.1	.012	.0997	.000997
308.15	.1	.0135	.1101	.001101
308.15	.1	.015	.1221	.001221
308.15	.1	.0165	.1321	.001321
308.15	.1	.018	.1391	.001391
308.15	.1	.0195	.1431	.001431
308.15	.1	.021	.1466	.001466
308.15	.1	.0225	.1502	.001502
308.15	.1	.024	.1537	.001537
308.15	.1	.0255	.1572	.001572
308.15	.1	.027	.1597	.001597
308.15	.1	.0285	.1632	.001632
308.15	.1	.03	.1668	.001668
313.15	.1	.0015	.01289	.0001289
313.15	.1	.003	.0261	.000261
313.15	.1	.0045	.0392	.000392
313.15	.1	.006	.0519	.000519
313.15	.1	.0075	.0648	.000648
313.15	.1	.009	.0768	.000768
313.15	.1	.0105	.0888	.000888
313.15	.1	.012	.0999	.000999
313.15	.1	.0135	.1113	.001113
313.15	.1	.015	.1227	.001227
313.15	.1	.0165	.1324	.001324
313.15	.1	.018	.1431	.001431
313.15	.1	.0195	.1479	.001479
313.15	.1	.021	.1511	.001511
313.15	.1	.0225	.1542	.001542
313.15	.1	.024	.158	.00158
313.15	.1	.0255	.162	.00162
313.15	.1	.027	.1654	.001654
313.15	.1	.0285	.1689	.001689
313.15	.1	.03	.1723	.001723

System: L-methionine + dodecyltrimethylammonium bromide + water; phases: Liquid
Fixed: Pressure, kPa = 101
Property: Electrical conductivity, S/m (Liquid); method: Alternating current cell with electrodes
Temperature, K	Solvent: Molality, mol/kg of L-methionine	Molality, mol/kg of dodecyltrimethylammonium bromide	Electrical conductivity, S/m	uncertainty
293.15	.01	.0015	.01391	.0001391
293.15	.01	.003	.0263	.000263
293.15	.01	.0045	.0394	.000394
293.15	.01	.006	.0515	.000515
293.15	.01	.0075	.0643	.000643
293.15	.01	.009	.0771	.000771
293.15	.01	.0105	.0896	.000896
293.15	.01	.012	.1011	.001011
293.15	.01	.0135	.1127	.001127
293.15	.01	.015	.1229	.001229
293.15	.01	.0165	.1315	.001315
293.15	.01	.018	.1352	.001352
293.15	.01	.0195	.1387	.001387
293.15	.01	.021	.1417	.001417
293.15	.01	.0225	.1448	.001448
293.15	.01	.024	.1475	.001475
293.15	.01	.0255	.1503	.001503
293.15	.01	.027	.1527	.001527
293.15	.01	.0285	.1553	.001553
293.15	.01	.03	.1578	.001578
298.15	.01	.0015	.01448	.0001448
298.15	.01	.003	.0275	.000275
298.15	.01	.0045	.0415	.000415
298.15	.01	.006	.0547	.000547
298.15	.01	.0075	.0663	.000663
298.15	.01	.009	.0786	.000786
298.15	.01	.0105	.0907	.000907
298.15	.01	.012	.1025	.001025
298.15	.01	.0135	.1139	.001139
298.15	.01	.015	.1244	.001244
298.15	.01	.0165	.1334	.001334
298.15	.01	.018	.1368	.001368
298.15	.01	.0195	.1402	.001402
298.15	.01	.021	.1432	.001432
298.15	.01	.0225	.1462	.001462
298.15	.01	.024	.149	.00149
298.15	.01	.0255	.1522	.001522
298.15	.01	.027	.155	.00155
298.15	.01	.0285	.158	.00158
298.15	.01	.03	.1605	.001605
303.15	.01	.0015	.01529	.0001529
303.15	.01	.003	.029	.00029
303.15	.01	.0045	.0416	.000416
303.15	.01	.006	.0544	.000544
303.15	.01	.0075	.0668	.000668
303.15	.01	.009	.0793	.000793
303.15	.01	.0105	.0918	.000918
303.15	.01	.012	.1031	.001031
303.15	.01	.0135	.1145	.001145
303.15	.01	.015	.1235	.001235
303.15	.01	.0165	.1328	.001328
303.15	.01	.018	.1373	.001373
303.15	.01	.0195	.1401	.001401
303.15	.01	.021	.1431	.001431
303.15	.01	.0225	.1461	.001461
303.15	.01	.024	.1496	.001496
303.15	.01	.0255	.1526	.001526
303.15	.01	.027	.1554	.001554
303.15	.01	.0285	.1582	.001582
303.15	.01	.03	.1613	.001613
308.15	.01	.0015	.01532	.0001532
308.15	.01	.003	.0292	.000292
308.15	.01	.0045	.0424	.000424
308.15	.01	.006	.0551	.000551
308.15	.01	.0075	.0681	.000681
308.15	.01	.009	.0797	.000797
308.15	.01	.0105	.0915	.000915
308.15	.01	.012	.1034	.001034
308.15	.01	.0135	.1147	.001147
308.15	.01	.015	.1259	.001259
308.15	.01	.0165	.1342	.001342
308.15	.01	.018	.1388	.001388
308.15	.01	.0195	.143	.00143
308.15	.01	.021	.1456	.001456
308.15	.01	.0225	.1492	.001492
308.15	.01	.024	.1521	.001521
308.15	.01	.0255	.1549	.001549
308.15	.01	.027	.1583	.001583
308.15	.01	.0285	.161	.00161
308.15	.01	.03	.1649	.001649
313.15	.01	.0015	.01564	.0001564
313.15	.01	.003	.0294	.000294
313.15	.01	.0045	.0426	.000426
313.15	.01	.006	.0558	.000558
313.15	.01	.0075	.068	.00068
313.15	.01	.009	.0805	.000805
313.15	.01	.0105	.0923	.000923
313.15	.01	.012	.1035	.001035
313.15	.01	.0135	.1148	.001148
313.15	.01	.015	.1259	.001259
313.15	.01	.0165	.1352	.001352
313.15	.01	.018	.141	.00141
313.15	.01	.0195	.1448	.001448
313.15	.01	.021	.1487	.001487
313.15	.01	.0225	.1512	.001512
313.15	.01	.024	.1543	.001543
313.15	.01	.0255	.1577	.001577
313.15	.01	.027	.161	.00161
313.15	.01	.0285	.1634	.001634
313.15	.01	.03	.1673	.001673
293.15	.05	.0015	.01585	.0001585
293.15	.05	.003	.0286	.000286
293.15	.05	.0045	.0414	.000414
293.15	.05	.006	.054	.00054
293.15	.05	.0075	.066	.00066
293.15	.05	.009	.0768	.000768
293.15	.05	.0105	.0885	.000885
293.15	.05	.012	.0998	.000998
293.15	.05	.0135	.1108	.001108
293.15	.05	.015	.1215	.001215
293.15	.05	.0165	.1305	.001305
293.15	.05	.018	.1344	.001344
293.15	.05	.0195	.1376	.001376
293.15	.05	.021	.1407	.001407
293.15	.05	.0225	.1438	.001438
293.15	.05	.024	.1469	.001469
293.15	.05	.0255	.1493	.001493
293.15	.05	.027	.1523	.001523
293.15	.05	.0285	.1547	.001547
293.15	.05	.03	.1569	.001569
298.15	.05	.0015	.01645	.0001645
298.15	.05	.003	.03	.0003
298.15	.05	.0045	.0431	.000431
298.15	.05	.006	.0558	.000558
298.15	.05	.0075	.0682	.000682
298.15	.05	.009	.0803	.000803
298.15	.05	.0105	.0918	.000918
298.15	.05	.012	.1037	.001037
298.15	.05	.0135	.1142	.001142
298.15	.05	.015	.1252	.001252
298.15	.05	.0165	.1315	.001315
298.15	.05	.018	.1357	.001357
298.15	.05	.0195	.1392	.001392
298.15	.05	.021	.1419	.001419
298.15	.05	.0225	.145	.00145
298.15	.05	.024	.1476	.001476
298.15	.05	.0255	.1502	.001502
298.15	.05	.027	.1528	.001528
298.15	.05	.0285	.155	.00155
298.15	.05	.03	.1571	.001571
303.15	.05	.0015	.01603	.0001603
303.15	.05	.003	.0292	.000292
303.15	.05	.0045	.0419	.000419
303.15	.05	.006	.0556	.000556
303.15	.05	.0075	.0676	.000676
303.15	.05	.009	.0809	.000809
303.15	.05	.0105	.0901	.000901
303.15	.05	.012	.1034	.001034
303.15	.05	.0135	.1146	.001146
303.15	.05	.015	.1249	.001249
303.15	.05	.0165	.1314	.001314
303.15	.05	.018	.1357	.001357
303.15	.05	.0195	.1391	.001391
303.15	.05	.021	.1418	.001418
303.15	.05	.0225	.1452	.001452
303.15	.05	.024	.1485	.001485
303.15	.05	.0255	.151	.00151
303.15	.05	.027	.1536	.001536
303.15	.05	.0285	.1561	.001561
303.15	.05	.03	.1588	.001588
308.15	.05	.0015	.01618	.0001618
308.15	.05	.003	.0292	.000292
308.15	.05	.0045	.0409	.000409
308.15	.05	.006	.0545	.000545
308.15	.05	.0075	.0664	.000664
308.15	.05	.009	.0784	.000784
308.15	.05	.0105	.09	.0009
308.15	.05	.012	.1015	.001015
308.15	.05	.0135	.112	.00112
308.15	.05	.015	.1228	.001228
308.15	.05	.0165	.1314	.001314
308.15	.05	.018	.1373	.001373
308.15	.05	.0195	.1405	.001405
308.15	.05	.021	.1442	.001442
308.15	.05	.0225	.1471	.001471
308.15	.05	.024	.1506	.001506
308.15	.05	.0255	.1535	.001535
308.15	.05	.027	.1561	.001561
308.15	.05	.0285	.1588	.001588
308.15	.05	.03	.1619	.001619
313.15	.05	.0015	.0164	.000164
313.15	.05	.003	.0298	.000298
313.15	.05	.0045	.0431	.000431
313.15	.05	.006	.0555	.000555
313.15	.05	.0075	.0676	.000676
313.15	.05	.009	.0804	.000804
313.15	.05	.0105	.092	.00092
313.15	.05	.012	.1033	.001033
313.15	.05	.0135	.1172	.001172
313.15	.05	.015	.1285	.001285
313.15	.05	.0165	.1373	.001373
313.15	.05	.018	.1427	.001427
313.15	.05	.0195	.1462	.001462
313.15	.05	.021	.1491	.001491
313.15	.05	.0225	.153	.00153
313.15	.05	.024	.1567	.001567
313.15	.05	.0255	.1591	.001591
313.15	.05	.027	.1632	.001632
313.15	.05	.0285	.1659	.001659
313.15	.05	.03	.1681	.001681
293.15	.1	.0015	.01611	.0001611
293.15	.1	.003	.0284	.000284
293.15	.1	.0045	.0416	.000416
293.15	.1	.006	.0537	.000537
293.15	.1	.0075	.0663	.000663
293.15	.1	.009	.0782	.000782
293.15	.1	.0105	.0896	.000896
293.15	.1	.012	.1007	.001007
293.15	.1	.0135	.1114	.001114
293.15	.1	.015	.1227	.001227
293.15	.1	.0165	.1294	.001294
293.15	.1	.018	.1334	.001334
293.15	.1	.0195	.1364	.001364
293.15	.1	.021	.1388	.001388
293.15	.1	.0225	.142	.00142
293.15	.1	.024	.1442	.001442
293.15	.1	.0255	.1473	.001473
293.15	.1	.027	.149	.00149
293.15	.1	.0285	.1524	.001524
293.15	.1	.03	.1548	.001548
298.15	.1	.0015	.01725	.0001725
298.15	.1	.003	.0304	.000304
298.15	.1	.0045	.043	.00043
298.15	.1	.006	.0555	.000555
298.15	.1	.0075	.0677	.000677
298.15	.1	.009	.0794	.000794
298.15	.1	.0105	.091	.00091
298.15	.1	.012	.1025	.001025
298.15	.1	.0135	.1132	.001132
298.15	.1	.015	.1238	.001238
298.15	.1	.0165	.1302	.001302
298.15	.1	.018	.1339	.001339
298.15	.1	.0195	.1373	.001373
298.15	.1	.021	.1405	.001405
298.15	.1	.0225	.143	.00143
298.15	.1	.024	.1456	.001456
298.15	.1	.0255	.1489	.001489
298.15	.1	.027	.1519	.001519
298.15	.1	.0285	.1532	.001532
298.15	.1	.03	.1559	.001559
303.15	.1	.0015	.01762	.0001762
303.15	.1	.003	.0307	.000307
303.15	.1	.0045	.0437	.000437
303.15	.1	.006	.0569	.000569
303.15	.1	.0075	.0691	.000691
303.15	.1	.009	.081	.00081
303.15	.1	.0105	.0928	.000928
303.15	.1	.012	.1039	.001039
303.15	.1	.0135	.115	.00115
303.15	.1	.015	.1242	.001242
303.15	.1	.0165	.1333	.001333
303.15	.1	.018	.1371	.001371
303.15	.1	.0195	.1405	.001405
303.15	.1	.021	.1435	.001435
303.15	.1	.0225	.1466	.001466
303.15	.1	.024	.1496	.001496
303.15	.1	.0255	.153	.00153
303.15	.1	.027	.1559	.001559
303.15	.1	.0285	.1593	.001593
303.15	.1	.03	.1622	.001622
308.15	.1	.0015	.01784	.0001784
308.15	.1	.003	.031	.00031
308.15	.1	.0045	.0439	.000439
308.15	.1	.006	.0571	.000571
308.15	.1	.0075	.0697	.000697
308.15	.1	.009	.0812	.000812
308.15	.1	.0105	.0933	.000933
308.15	.1	.012	.1047	.001047
308.15	.1	.0135	.1153	.001153
308.15	.1	.015	.126	.00126
308.15	.1	.0165	.133	.00133
308.15	.1	.018	.138	.00138
308.15	.1	.0195	.1417	.001417
308.15	.1	.021	.1452	.001452
308.15	.1	.0225	.1484	.001484
308.15	.1	.024	.1515	.001515
308.15	.1	.0255	.1551	.001551
308.15	.1	.027	.158	.00158
308.15	.1	.0285	.161	.00161
308.15	.1	.03	.1635	.001635
313.15	.1	.0015	.01809	.0001809
313.15	.1	.003	.0315	.000315
313.15	.1	.0045	.0446	.000446
313.15	.1	.006	.0579	.000579
313.15	.1	.0075	.0705	.000705
313.15	.1	.009	.0815	.000815
313.15	.1	.0105	.0949	.000949
313.15	.1	.012	.1059	.001059
313.15	.1	.0135	.1178	.001178
313.15	.1	.015	.1276	.001276
313.15	.1	.0165	.1336	.001336
313.15	.1	.018	.1398	.001398
313.15	.1	.0195	.144	.00144
313.15	.1	.021	.1475	.001475
313.15	.1	.0225	.151	.00151
313.15	.1	.024	.1542	.001542
313.15	.1	.0255	.1576	.001576
313.15	.1	.027	.1605	.001605
313.15	.1	.0285	.1632	.001632
313.15	.1	.03	.1655	.001655
