Measured thermophysical data. Sublimation thermodynamics of four fluoroquinolone antimicrobial compounds
Source: J. Chem. Thermodyn., 2017, 10.1016/j.jct.2016.10.010
Compound 1: ciprofloxacin, C17H18FN3O3, purity 98%
Compound 2: Enrofloxacin, C19H22FN3O3, purity 98%
Compound 3: norfloxacin, C16H18FN3O3, purity 98%
Compound 4: levofloxacin, C18H20FN3O4, purity 98%
Compound 5: benzoic acid, C7H6O2, purity 99.5%

System: ciprofloxacin; phases: Crystal, Liquid, Air at 1 atmosphere
Property: Normal melting temperature, K (Crystal); method: DSC/DTA
Normal melting temperature, K	uncertainty
543	1

System: ciprofloxacin; phases: Crystal, Liquid, Air at 1 atmosphere
Property: Molar enthalpy of transition or fusion, kJ/mol (Crystal); method: DSC
Molar enthalpy of transition or fusion, kJ/mol	uncertainty
64	6.4

System: ciprofloxacin; phases: Crystal, Gas
Property: Vapor or sublimation pressure, kPa (Crystal); method: Transpiration method
Temperature, K	Vapor or sublimation pressure, kPa	uncertainty
436.15	.00000195	
438.15	.00000243	
440.15	.00000285	
442.15	.00000354	
444.15	.0000043	
446.15	.00000497	
448.15	.00000594	
450.15	.00000709	
452.15	.0000084	
454.15	.00001045	
456.15	.00001228	
458.15	.00001461	
460.15	.00001764	

System: Enrofloxacin; phases: Crystal, Liquid, Air at 1 atmosphere
Property: Normal melting temperature, K (Crystal); method: DSC/DTA
Normal melting temperature, K	uncertainty
494.7	.2

System: Enrofloxacin; phases: Crystal, Liquid, Air at 1 atmosphere
Property: Molar enthalpy of transition or fusion, kJ/mol (Crystal); method: DSC
Molar enthalpy of transition or fusion, kJ/mol	uncertainty
32.9	.5

System: Enrofloxacin; phases: Crystal, Gas
Property: Vapor or sublimation pressure, kPa (Crystal); method: Transpiration method
Temperature, K	Vapor or sublimation pressure, kPa	uncertainty
431.15	.00000179	
433.15	.00000213	
435.15	.0000025	
437.15	.00000292	
439.15	.00000341	
441.15	.00000404	
443.15	.00000471	
445.15	.00000549	
447.15	.00000661	
449.15	.00000756	
451.15	.00000891	
453.15	.00001035	

System: norfloxacin; phases: Crystal, Liquid, Air at 1 atmosphere
Property: Normal melting temperature, K (Crystal); method: DSC/DTA
Normal melting temperature, K	uncertainty
493.5	1

System: norfloxacin; phases: Crystal, Liquid, Air at 1 atmosphere
Property: Molar enthalpy of transition or fusion, kJ/mol (Crystal); method: DSC
Molar enthalpy of transition or fusion, kJ/mol	uncertainty
36.1	3.61

System: norfloxacin; phases: Crystal 2, Crystal 1, Air at 1 atmosphere
Property: Triple point temperature, K (Crystal 2); method: DSC
Triple point temperature, K	uncertainty
468.7	.2

System: norfloxacin; phases: Crystal, Gas
Property: Vapor or sublimation pressure, kPa (Crystal); method: Transpiration method
Temperature, K	Vapor or sublimation pressure, kPa	uncertainty
423.15	.0000013	
425.15	.00000157	
427.15	.00000186	
429.15	.00000221	
431.15	.00000266	
432.15	.00000285	
434.15	.00000335	
436.15	.00000392	
438.15	.00000453	
440.15	.00000526	
442.15	.00000602	
444.15	.00000701	
446.15	.00000832	

System: levofloxacin; phases: Crystal, Liquid, Air at 1 atmosphere
Property: Normal melting temperature, K (Crystal); method: DSC/DTA
Normal melting temperature, K	uncertainty
506.1	

System: levofloxacin; phases: Crystal, Liquid, Air at 1 atmosphere
Property: Molar enthalpy of transition or fusion, kJ/mol (Crystal); method: DSC
Molar enthalpy of transition or fusion, kJ/mol	uncertainty
22	2.2

System: levofloxacin; phases: Metastable crystal, Liquid, Air at 1 atmosphere
Property: Normal melting temperature, K (Metastable crystal); method: DSC/DTA
Normal melting temperature, K	uncertainty
500.1	

System: levofloxacin; phases: Metastable crystal, Liquid, Air at 1 atmosphere
Property: Normal melting temperature, K (Metastable crystal); method: DSC/DTA
Normal melting temperature, K	uncertainty
503.6	

System: levofloxacin; phases: Crystal, Gas
Property: Vapor or sublimation pressure, kPa (Crystal); method: Transpiration method
Temperature, K	Vapor or sublimation pressure, kPa	uncertainty
437.15	.00000571	
439.15	.00000666	
441.15	.00000835	
443.15	.00000972	
445.15	.00001135	
447.15	.00001364	
449.15	.00001607	
451.15	.00001952	
453.15	.00002326	
455.15	.00002722	
457.15	.00003146	
459.15	.00003689	

System: benzoic acid; phases: Crystal, Gas
Property: Vapor or sublimation pressure, kPa (Crystal); method: Transpiration method
Temperature, K	Vapor or sublimation pressure, kPa	uncertainty
307.15	.000285	
323.15	.001674	
338.15	.007513	
354.15	.031599	
