Measured thermophysical data. Solubilities and thermodynamic properties of SO2 in five biobased solvents
Source: J. Chem. Thermodyn., 2016, 10.1016/j.jct.2015.09.017
Compound 1: ethyl levulinate, C7H12O3, purity 98.5%
Compound 2: butyl levulinate, C9H16O3, purity 98%
Compound 3: dibutyl succinate, C12H22O4, purity 98.3%
Compound 4: .gamma.-butyrylolactone, C4H6O2, purity 99.77%
Compound 5: .gamma.-valerolactone, C5H8O2, purity 98.5%
Compound 6: sulfur dioxide, O2S, purity 99.9%

System: ethyl levulinate; phases: Liquid
Fixed: Pressure, kPa = 101.325
Property: Mass density, kg/m3 (Liquid); method: Pycnometric method
Temperature, K	Mass density, kg/m3	uncertainty
293.15	1013.2	3
303.15	1005.3	3
313.15	994.9	3
323.15	984.6	3
333.15	975.1	3

System: butyl levulinate; phases: Liquid
Fixed: Pressure, kPa = 101.325
Property: Mass density, kg/m3 (Liquid); method: Pycnometric method
Temperature, K	Mass density, kg/m3	uncertainty
293.15	975.6	3
303.15	966.5	3
313.15	958.2	3
323.15	949.3	3
333.15	939.8	3

System: dibutyl succinate; phases: Liquid
Fixed: Pressure, kPa = 101.325
Property: Mass density, kg/m3 (Liquid); method: Pycnometric method
Temperature, K	Mass density, kg/m3	uncertainty
293.15	975.3	3
303.15	966.2	3
313.15	957	3
323.15	947.8	3
333.15	938.7	3

System: .gamma.-butyrylolactone; phases: Liquid
Fixed: Pressure, kPa = 101.325
Property: Mass density, kg/m3 (Liquid); method: Pycnometric method
Temperature, K	Mass density, kg/m3	uncertainty
293.15	1131	3
303.15	1120.8	3
313.15	1111.2	3
323.15	1103.1	3
333.15	1096.4	3

System: .gamma.-valerolactone; phases: Liquid
Fixed: Pressure, kPa = 101.325
Property: Mass density, kg/m3 (Liquid); method: Pycnometric method
Temperature, K	Mass density, kg/m3	uncertainty
293.15	1051.8	3
303.15	1042.9	3
313.15	1034.1	3
323.15	1025.2	3
333.15	1016.3	3

System: ethyl levulinate + sulfur dioxide; phases: Liquid, Gas
Property: Molality, mol/kg of sulfur dioxide (Liquid); method: volumetric method
Temperature, K	Pressure, kPa	Molality, mol/kg of sulfur dioxide	uncertainty
293.15	3.3	.348	.00696
293.15	6.3	.667	.01334
293.15	9.3	.969	.01938
293.15	15.3	1.545	.0309
293.15	21.7	2.137	.04274
293.15	30.2	2.885	.0577
293.15	40.4	3.75	.075
293.15	49.5	4.5	.09
293.15	60.1	5.387	.10774
293.15	69.9	6.196	.12392
293.15	79.2	6.975	.1395
293.15	88.8	7.799	.15598
293.15	100.6	8.842	.17684
293.15	110.3	9.736	.19472
293.15	119.7	10.634	.21268
303.15	8.9	.613	.01226
303.15	18.3	1.212	.02424
303.15	25.3	1.603	.03206
303.15	31.9	2.022	.04044
303.15	41.2	2.579	.05158
303.15	50.5	3.109	.06218
303.15	60.1	3.721	.07442
303.15	71.7	4.382	.08764
303.15	79.3	4.906	.09812
303.15	88.5	5.445	.1089
303.15	98.6	6.081	.12162
303.15	108.2	6.734	.13468
303.15	118.1	7.341	.14682
313.15	3.7	.179	.00358
313.15	6.3	.302	.00604
313.15	10.6	.509	.01018
313.15	15	.716	.01432
313.15	21.1	.986	.01972
313.15	31.1	1.437	.02874
313.15	40.5	1.846	.03692
313.15	50	2.25	.045
313.15	60.1	2.677	.05354
313.15	70.3	3.1	.062
313.15	80.1	3.509	.07018
313.15	90.1	3.923	.07846
313.15	100.2	4.346	.08692
313.15	110.3	4.766	.09532
313.15	120	5.17	.1034
323.15	3.1	.109	.00218
323.15	6.5	.23	.0046
323.15	9.6	.335	.0067
323.15	14.6	.505	.0101
323.15	20.5	.695	.0139
323.15	30.9	1.034	.02068
323.15	43.1	1.424	.02848
323.15	50	1.641	.03282
323.15	59.7	1.948	.03896
323.15	70.5	2.277	.04554
323.15	79.8	2.561	.05122
323.15	89.9	2.871	.05742
323.15	100.5	3.195	.0639
323.15	110.5	3.499	.06998
323.15	120.5	3.805	.0761
333.15	3.3	.087	.00174
333.15	6.9	.179	.00358
333.15	9.8	.252	.00504
333.15	14.9	.38	.0076
333.15	19.7	.499	.00998
333.15	30.6	.766	.01532
333.15	41.4	1.025	.0205
333.15	51.3	1.26	.0252
333.15	60.2	1.471	.02942
333.15	69.7	1.696	.03392
333.15	81.7	1.979	.03958
333.15	90	2.169	.04338
333.15	99.7	2.394	.04788
333.15	109.6	2.625	.0525
333.15	120.1	2.865	.0573

System: butyl levulinate + sulfur dioxide; phases: Liquid, Gas
Property: Molality, mol/kg of sulfur dioxide (Liquid); method: volumetric method
Temperature, K	Pressure, kPa	Molality, mol/kg of sulfur dioxide	uncertainty
293.15	3.2	.254	.00508
293.15	6.7	.502	.01004
293.15	10	.737	.01474
293.15	15.2	1.091	.02182
293.15	20.2	1.425	.0285
293.15	29.8	2.046	.04092
293.15	39.8	2.717	.05434
293.15	50.2	3.409	.06818
293.15	59.8	4.052	.08104
293.15	70	4.732	.09464
293.15	80.3	5.427	.10854
293.15	90	6.093	.12186
293.15	98.4	6.693	.13386
293.15	105.8	7.246	.14492
293.15	117.9	8.155	.1631
303.15	7.3	.378	.00756
303.15	10.2	.524	.01048
303.15	15.4	.781	.01562
303.15	20.3	1.017	.02034
303.15	30.2	1.497	.02994
303.15	40.2	1.961	.03922
303.15	50.1	2.427	.04854
303.15	60.7	2.914	.05828
303.15	71	3.391	.06782
303.15	80.9	3.87	.0774
303.15	91.1	4.356	.08712
303.15	100.9	4.859	.09718
303.15	110.3	5.345	.1069
303.15	120.4	5.855	.1171
313.15	3.4	.13	.0026
313.15	6.3	.236	.00472
313.15	9.5	.356	.00712
313.15	15.2	.568	.01136
313.15	20.4	.758	.01516
313.15	30.1	1.111	.02222
313.15	40.6	1.479	.02958
313.15	50.3	1.82	.0364
313.15	60	2.152	.04304
313.15	70.5	2.514	.05028
313.15	81	2.875	.0575
313.15	91.3	3.224	.06448
313.15	101.2	3.564	.07128
313.15	111	3.906	.07812
313.15	119.7	4.207	.08414
323.15	3.6	.097	.00194
323.15	7.3	.197	.00394
323.15	10.1	.276	.00552
323.15	19.6	.529	.01058
323.15	30.4	.816	.01632
323.15	41.1	1.094	.02188
323.15	51.9	1.374	.02748
323.15	60.1	1.586	.03172
323.15	69.9	1.834	.03668
323.15	80.5	2.107	.04214
323.15	90.6	2.364	.04728
323.15	99.9	2.6	.052
323.15	110.6	2.871	.05742
323.15	121.1	3.136	.06272
333.15	3.8	.08	.0016
333.15	7.7	.163	.00326
333.15	11.4	.239	.00478
333.15	15.1	.311	.00622
333.15	20.6	.419	.00838
333.15	30.7	.623	.01246
333.15	40.2	.806	.01612
333.15	51.1	1.021	.02042
333.15	60.3	1.2	.024
333.15	70	1.387	.02774
333.15	80.3	1.585	.0317
333.15	91.2	1.798	.03596
333.15	100.7	1.982	.03964
333.15	110.8	2.176	.04352
333.15	121	2.373	.04746

System: dibutyl succinate + sulfur dioxide; phases: Liquid, Gas
Property: Molality, mol/kg of sulfur dioxide (Liquid); method: volumetric method
Temperature, K	Pressure, kPa	Molality, mol/kg of sulfur dioxide	uncertainty
293.15	3.6	.195	.0039
293.15	7.4	.393	.00786
293.15	10	.523	.01046
293.15	14.9	.778	.01556
293.15	19.9	1.024	.02048
293.15	30.1	1.527	.03054
293.15	40	2.003	.04006
293.15	50	2.485	.0497
293.15	59.8	2.956	.05912
293.15	69.7	3.44	.0688
293.15	80.1	3.946	.07892
293.15	90	4.45	.089
293.15	99.3	4.939	.09878
293.15	109.2	5.482	.10964
293.15	119	6.026	.12052
303.15	3.6	.134	.00268
303.15	6.5	.24	.0048
303.15	9.7	.354	.00708
303.15	15.6	.575	.0115
303.15	19.3	.706	.01412
303.15	30.2	1.091	.02182
303.15	39.9	1.429	.02858
303.15	49.8	1.771	.03542
303.15	59.4	2.1	.042
303.15	70	2.466	.04932
303.15	80.1	2.812	.05624
303.15	90.5	3.176	.06352
303.15	99.6	3.5	.07
303.15	109.1	3.842	.07684
303.15	119.1	4.211	.08422
313.15	6.9	.172	.00344
313.15	11.4	.285	.0057
313.15	15.9	.398	.00796
313.15	20	.497	.00994
313.15	30.3	.749	.01498
313.15	40.4	.993	.01986
313.15	49.7	1.218	.02436
313.15	60	1.465	.0293
313.15	70.2	1.714	.03428
313.15	80.2	1.954	.03908
313.15	90.1	2.194	.04388
313.15	99.5	2.427	.04854
313.15	109.1	2.662	.05324
313.15	119.5	2.918	.05836
323.15	2.6	.048	.00096
323.15	6.9	.126	.00252
323.15	9.7	.177	.00354
323.15	14.9	.272	.00544
323.15	19.6	.357	.00714
323.15	29.4	.532	.01064
323.15	41	.738	.01476
323.15	50	.897	.01794
323.15	60.7	1.087	.02174
323.15	69.4	1.241	.02482
323.15	80.7	1.437	.02874
323.15	89.6	1.601	.03202
323.15	99.9	1.788	.03576
323.15	109.4	1.961	.03922
323.15	119.9	2.147	.04294
333.15	3.2	.046	.00092
333.15	6.4	.089	.00178
333.15	9.3	.128	.00256
333.15	15	.204	.00408
333.15	20	.276	.00552
333.15	30.5	.417	.00834
333.15	40.6	.554	.01108
333.15	50.3	.684	.01368
333.15	60.5	.823	.01646
333.15	69.3	.941	.01882
333.15	80.1	1.088	.02176
333.15	90.8	1.232	.02464
333.15	99.6	1.353	.02706
333.15	110.1	1.496	.02992
333.15	120.7	1.643	.03286

System: .gamma.-butyrylolactone + sulfur dioxide; phases: Liquid, Gas
Property: Molality, mol/kg of sulfur dioxide (Liquid); method: volumetric method
Temperature, K	Pressure, kPa	Molality, mol/kg of sulfur dioxide	uncertainty
293.15	3	.484	.00968
293.15	6.2	.909	.01818
293.15	9.7	1.373	.02746
293.15	14.8	2.012	.04024
293.15	20	2.62	.0524
293.15	30.7	3.829	.07658
293.15	42.2	5.053	.10106
293.15	53.1	6.193	.12386
293.15	63.5	7.283	.14566
293.15	71.3	8.108	.16216
293.15	81.4	9.195	.1839
293.15	91.4	10.331	.20662
293.15	100.9	11.435	.2287
293.15	110.1	12.565	.2513
293.15	118.9	13.665	.2733
303.15	3	.3	.006
303.15	6.2	.592	.01184
303.15	9.1	.859	.01718
303.15	14	1.295	.0259
303.15	18.8	1.709	.03418
303.15	28.9	2.538	.05076
303.15	39.2	3.346	.06692
303.15	50.3	4.181	.08362
303.15	61.1	4.99	.0998
303.15	71.1	5.732	.11464
303.15	79.4	6.348	.12696
303.15	89.3	7.088	.14176
303.15	100.3	7.91	.1582
303.15	109.1	8.598	.17196
303.15	119	9.379	.18758
313.15	4	.258	.00516
313.15	7.3	.474	.00948
313.15	13.1	.831	.01662
313.15	18.6	1.163	.02326
313.15	28.5	1.747	.03494
313.15	39	2.336	.04672
313.15	49.1	2.893	.05786
313.15	59.6	3.454	.06908
313.15	69.4	3.98	.0796
313.15	79.3	4.501	.09002
313.15	89.7	5.054	.10108
313.15	98.6	5.526	.11052
313.15	108	6.023	.12046
313.15	118.1	6.556	.13112
323.15	2.9	.147	.00294
323.15	6.2	.298	.00596
323.15	11.3	.529	.01058
323.15	16.6	.756	.01512
323.15	27.7	1.224	.02448
323.15	38.6	1.679	.03358
323.15	48.2	2.072	.04144
323.15	56.5	2.404	.04808
323.15	66.8	2.805	.0561
323.15	76.4	3.178	.06356
323.15	87.3	3.598	.07196
323.15	96.2	3.945	.0789
323.15	106.9	4.353	.08706
323.15	116.1	4.709	.09418
333.15	4.1	.134	.00268
333.15	9.8	.325	.0065
333.15	14.8	.486	.00972
333.15	24	.784	.01568
333.15	33.3	1.077	.02154
333.15	44.4	1.42	.0284
333.15	53.6	1.702	.03404
333.15	63.7	2.01	.0402
333.15	73.7	2.311	.04622
333.15	83.7	2.605	.0521
333.15	93.9	2.911	.05822
333.15	103.1	3.183	.06366
333.15	113.1	3.481	.06962

System: .gamma.-valerolactone + sulfur dioxide; phases: Liquid, Gas
Property: Molality, mol/kg of sulfur dioxide (Liquid); method: volumetric method
Temperature, K	Pressure, kPa	Molality, mol/kg of sulfur dioxide	uncertainty
293.15	3.2	.442	.00884
293.15	5.9	.798	.01596
293.15	8.6	1.157	.02314
293.15	12.8	1.667	.03334
293.15	19.1	2.384	.04768
293.15	27.1	3.232	.06464
293.15	35.6	4.097	.08194
293.15	43.1	4.847	.09694
293.15	52.6	5.772	.11544
293.15	63	6.778	.13556
293.15	71.3	7.58	.1516
293.15	81.7	8.613	.17226
293.15	89.4	9.387	.18774
293.15	98.6	10.355	.2071
293.15	107.5	11.313	.22626
293.15	115.5	12.226	.24452
303.15	2.7	.243	.00486
303.15	5.8	.515	.0103
303.15	8.8	.768	.01536
303.15	15.1	1.27	.0254
303.15	19.7	1.628	.03256
303.15	29.9	2.378	.04756
303.15	40.2	3.111	.06222
303.15	50.6	3.816	.07632
303.15	60.6	4.491	.08982
303.15	70.3	5.146	.10292
303.15	80.2	5.797	.11594
303.15	90.3	6.465	.1293
303.15	99.9	7.119	.14238
303.15	109.8	7.789	.15578
303.15	119.8	8.486	.16972
313.15	3.4	.214	.00428
313.15	7.1	.445	.0089
313.15	11.1	.681	.01362
313.15	15.5	.942	.01884
313.15	20.5	1.228	.02456
313.15	30.3	1.777	.03554
313.15	40.5	2.319	.04638
313.15	51.1	2.861	.05722
313.15	61.8	3.396	.06792
313.15	72.4	3.925	.0785
313.15	81.9	4.394	.08788
313.15	92.2	4.899	.09798
313.15	100.4	5.295	.1059
313.15	110.3	5.785	.1157
313.15	119.8	6.25	.125
323.15	3	.139	.00278
323.15	6.3	.28	.0056
323.15	9.3	.412	.00824
323.15	14.7	.644	.01288
323.15	19.9	.861	.01722
323.15	30.2	1.28	.0256
323.15	40	1.674	.03348
323.15	49.9	2.059	.04118
323.15	60	2.448	.04896
323.15	70.4	2.836	.05672
323.15	80.2	3.197	.06394
323.15	91.6	3.619	.07238
323.15	101.4	3.983	.07966
323.15	111.6	4.36	.0872
323.15	119.7	4.663	.09326
333.15	2.3	.075	.0015
333.15	5.7	.183	.00366
333.15	9.4	.305	.0061
333.15	14.5	.468	.00936
333.15	19.5	.621	.01242
333.15	29.6	.931	.01862
333.15	40.4	1.258	.02516
333.15	49.6	1.527	.03054
333.15	59.5	1.815	.0363
333.15	69.9	2.177	.04354
333.15	79.1	2.44	.0488
333.15	89.7	2.738	.05476
333.15	99.4	3.008	.06016
333.15	110.2	3.31	.0662
333.15	120.7	3.604	.07208
