Measured thermophysical data. Densities, refractive indices, and viscosities of N,N-diethylethanol ammonium chloride - glycerol or - ethylene glycol deep eutectic solvents and their aqueous solutions
Source: J. Chem. Thermodyn., 2013, 10.1016/j.jct.2013.05.041
Compound 1: N,N-diethylethanolammonium chloride, C6H16ClNO, purity 98%
Compound 2: glycerol, C3H8O3, purity 99.5%
Compound 3: ethylene glycol, C2H6O2, purity 99.9%
Compound 4: water, H2O
Compound 5: diisodecyl phthalate, C28H46O4, purity 98%

System: water; phases: Liquid
Fixed: Pressure, kPa = 101.325
Property: Mass density, kg/m3 (Liquid); method: Vibrating tube method
Temperature, K	Mass density, kg/m3	uncertainty
293.15	998.9	.5
298.15	997.9	.5
303.15	996.6	.5
313.15	993.4	.5
323.15	989.4	.5
333.15	984.7	.5
343.15	979.3	.5

System: water; phases: Liquid
Fixed: Pressure, kPa = 101.325
Property: Refractive index (Na D-line) (Liquid); method: Standard Abbe refractometry
Temperature, K	Refractive index (Na D-line)	uncertainty
293.15	1.33298	.00005
298.15	1.33244	.00005
303.15	1.33186	.00005
313.15	1.33049	.00005
323.15	1.32885	.00005
333.15	1.32697	.00005
343.15	1.32493	.00005

System: water; phases: Liquid
Fixed: Pressure, kPa = 101.325
Property: Viscosity, Pa*s (Liquid); method: Falling or rolling sphere viscometry
Temperature, K	Viscosity, Pa*s	uncertainty
293.15	.001006	.00001006
298.15	.000893	.00000893
303.15	.000801	.00000801
313.15	.000652	.00000652
323.15	.000551	.00000551
333.15	.00047	.0000047
343.15	.000411	.00000411

System: diisodecyl phthalate; phases: Liquid
Fixed: Pressure, kPa = 101.325
Property: Viscosity, Pa*s (Liquid); method: Falling or rolling sphere viscometry
Temperature, K	Viscosity, Pa*s	uncertainty
293.15	.1233	.001233
298.15	.08838	.0008838
303.15	.06524	.0006524
313.15	.03785	.0003785
323.15	.02373	.0002373
333.15	.01603	.0001603
343.15	.01131	.0001131

System: glycerol + N,N-diethylethanolammonium chloride; phases: Liquid
Fixed: Pressure, kPa = 101
Fixed: Mole fraction of N,N-diethylethanolammonium chloride = .333
Property: Mass density, kg/m3 (Liquid); method: Vibrating tube method
Temperature, K	Mass density, kg/m3	uncertainty
298.15	1176.6	.5
303.15	1173.5	.5
308.15	1170.3	.5
313.15	1167.2	.5
318.15	1164.2	.5
323.15	1161.2	.5
328.15	1158.2	.5
333.15	1155.2	.5
338.15	1152.2	.5
343.15	1149.2	.5

System: glycerol + N,N-diethylethanolammonium chloride; phases: Liquid
Fixed: Pressure, kPa = 101
Fixed: Mole fraction of N,N-diethylethanolammonium chloride = .333
Property: Refractive index (Na D-line) (Liquid); method: Standard Abbe refractometry
Temperature, K	Refractive index (Na D-line)	uncertainty
298.15	1.4856	.00005
303.15	1.48435	.00005
308.15	1.48307	.00005
313.15	1.48181	.00005
318.15	1.48052	.00005
323.15	1.47923	.00005
328.15	1.47795	.00005
333.15	1.47663	.00005
338.15	1.47534	.00005
343.15	1.47401	.00005

System: glycerol + N,N-diethylethanolammonium chloride; phases: Liquid
Fixed: Pressure, kPa = 101
Fixed: Mole fraction of N,N-diethylethanolammonium chloride = .333
Property: Viscosity, Pa*s (Liquid); method: Falling or rolling sphere viscometry
Temperature, K	Viscosity, Pa*s	uncertainty
298.15	.513093	.00513093
303.15	.3514589	.003514589
308.15	.2512543	.002512543
313.15	.1828741	.001828741
318.15	.1379542	.001379542
323.15	.1041835	.001041835
328.15	.0827882	.000827882
333.15	.0655467	.000655467
338.15	.0523401	.000523401
343.15	.0425755	.000425755

System: ethylene glycol + N,N-diethylethanolammonium chloride; phases: Liquid
Fixed: Pressure, kPa = 101
Fixed: Mole fraction of N,N-diethylethanolammonium chloride = .333
Property: Mass density, kg/m3 (Liquid); method: Vibrating tube method
Temperature, K	Mass density, kg/m3	uncertainty
298.15	1099.9	.5
303.15	1096.8	.5
308.15	1093.8	.5
313.15	1090.9	.5
318.15	1087.9	.5
323.15	1084.8	.5
328.15	1081.8	.5
333.15	1078.8	.5
338.15	1075.9	.5
343.15	1072.8	.5

System: ethylene glycol + N,N-diethylethanolammonium chloride; phases: Liquid
Fixed: Pressure, kPa = 101
Fixed: Mole fraction of N,N-diethylethanolammonium chloride = .333
Property: Refractive index (Na D-line) (Liquid); method: Standard Abbe refractometry
Temperature, K	Refractive index (Na D-line)	uncertainty
298.15	1.46768	.00005
303.15	1.46634	.00005
308.15	1.46498	.00005
313.15	1.4636	.00005
318.15	1.46192	.00005
323.15	1.46051	.00005
328.15	1.45941	.00005
333.15	1.45771	.00005
338.15	1.45664	.00005
343.15	1.45531	.00005

System: ethylene glycol + N,N-diethylethanolammonium chloride; phases: Liquid
Fixed: Pressure, kPa = 101
Fixed: Mole fraction of N,N-diethylethanolammonium chloride = .333
Property: Viscosity, Pa*s (Liquid); method: Falling or rolling sphere viscometry
Temperature, K	Viscosity, Pa*s	uncertainty
298.15	.0504466	.000504466
303.15	.0406835	.000406835
308.15	.0320365	.000320365
313.15	.0262835	.000262835
318.15	.0219701	.000219701
323.15	.0185065	.000185065
328.15	.0158308	.000158308
333.15	.0135007	.000135007
338.15	.0114891	.000114891
343.15	.0099868	.000099868

System: glycerol + water + N,N-diethylethanolammonium chloride; phases: Liquid
Fixed: Pressure, kPa = 101
Property: Mass density, kg/m3 (Liquid); method: Vibrating tube method
Mole fraction of N,N-diethylethanolammonium chloride	Mole fraction of glycerol	Temperature, K	Mass density, kg/m3	uncertainty
.0335	.0669	298.15	1073.6	.5
.0669	.1338	298.15	1112.1	.5
.1002	.2005	298.15	1134.1	.5
.1336	.2673	298.15	1148	.5
.1671	.3342	298.15	1156.9	.5
.2001	.4003	298.15	1163	.5
.2343	.4685	298.15	1167.6	.5
.2673	.5345	298.15	1171.1	.5
.3005	.601	298.15	1174.1	.5
.0335	.0669	303.15	1071.6	.5
.0669	.1338	303.15	1109.6	.5
.1002	.2005	303.15	1131.2	.5
.1336	.2673	303.15	1145.1	.5
.1671	.3342	303.15	1154.1	.5
.2001	.4003	303.15	1160.1	.5
.2343	.4685	303.15	1164.7	.5
.2673	.5345	303.15	1168.1	.5
.3005	.601	303.15	1170.9	.5
.0335	.0669	308.15	1069.2	.5
.0669	.1338	308.15	1106.9	.5
.1002	.2005	308.15	1128.4	.5
.1336	.2673	308.15	1142.3	.5
.1671	.3342	308.15	1150.9	.5
.2001	.4003	308.15	1157	.5
.2343	.4685	308.15	1161.7	.5
.2673	.5345	308.15	1165.1	.5
.3005	.601	308.15	1167.9	.5
.0335	.0669	313.15	1066.8	.5
.0669	.1338	313.15	1104.2	.5
.1002	.2005	313.15	1125.5	.5
.1336	.2673	313.15	1139.3	.5
.1671	.3342	313.15	1147.9	.5
.2001	.4003	313.15	1154.1	.5
.2343	.4685	313.15	1158.6	.5
.2673	.5345	313.15	1162.1	.5
.3005	.601	313.15	1164.8	.5
.0335	.0669	318.15	1064.2	.5
.0669	.1338	318.15	1101.4	.5
.1002	.2005	318.15	1122.6	.5
.1336	.2673	318.15	1136.3	.5
.1671	.3342	318.15	1144.9	.5
.2001	.4003	318.15	1151	.5
.2343	.4685	318.15	1155.6	.5
.2673	.5345	318.15	1159.1	.5
.3005	.601	318.15	1161.8	.5
.0335	.0669	323.15	1061.6	.5
.0669	.1338	323.15	1098.5	.5
.1002	.2005	323.15	1119.7	.5
.1336	.2673	323.15	1133.4	.5
.1671	.3342	323.15	1141.9	.5
.2001	.4003	323.15	1148.1	.5
.2343	.4685	323.15	1152.6	.5
.2673	.5345	323.15	1156.1	.5
.3005	.601	323.15	1158.8	.5
.0335	.0669	328.15	1058.8	.5
.0669	.1338	328.15	1095.7	.5
.1002	.2005	328.15	1116.7	.5
.1336	.2673	328.15	1130.3	.5
.1671	.3342	328.15	1138.9	.5
.2001	.4003	328.15	1145.1	.5
.2343	.4685	328.15	1149.6	.5
.2673	.5345	328.15	1153.1	.5
.3005	.601	328.15	1155.8	.5
.0335	.0669	333.15	1056	.5
.0669	.1338	333.15	1092.7	.5
.1002	.2005	333.15	1113.6	.5
.1336	.2673	333.15	1127.2	.5
.1671	.3342	333.15	1135.8	.5
.2001	.4003	333.15	1142	.5
.2343	.4685	333.15	1146.6	.5
.2673	.5345	333.15	1150.1	.5
.3005	.601	333.15	1152.7	.5
.0335	.0669	338.15	1053.1	.5
.0669	.1338	338.15	1089.6	.5
.1002	.2005	338.15	1110.6	.5
.1336	.2673	338.15	1124.1	.5
.1671	.3342	338.15	1132.7	.5
.2001	.4003	338.15	1138.9	.5
.2343	.4685	338.15	1143.6	.5
.2673	.5345	338.15	1147.1	.5
.3005	.601	338.15	1149.8	.5
.0335	.0669	343.15	1050.1	.5
.0669	.1338	343.15	1086.5	.5
.1002	.2005	343.15	1107.5	.5
.1336	.2673	343.15	1120.9	.5
.1671	.3342	343.15	1129.7	.5
.2001	.4003	343.15	1135.9	.5
.2343	.4685	343.15	1140.5	.5
.2673	.5345	343.15	1144	.5
.3005	.601	343.15	1146.7	.5

System: glycerol + water + N,N-diethylethanolammonium chloride; phases: Liquid
Fixed: Pressure, kPa = 101
Property: Refractive index (Na D-line) (Liquid); method: Standard Abbe refractometry
Mole fraction of N,N-diethylethanolammonium chloride	Mole fraction of glycerol	Temperature, K	Refractive index (Na D-line)	uncertainty
.0335	.0669	298.15	1.39193	.00005
.0669	.1338	298.15	1.42363	.00005
.1002	.2005	298.15	1.44272	.00005
.1336	.2673	298.15	1.45537	.00005
.1671	.3342	298.15	1.46425	.00005
.2001	.4003	298.15	1.47071	.00005
.2343	.4685	298.15	1.47591	.00005
.2673	.5345	298.15	1.47973	.00005
.3005	.601	298.15	1.48295	.00005
.0335	.0669	303.15	1.39101	.00005
.0669	.1338	303.15	1.42256	.00005
.1002	.2005	303.15	1.44155	.00005
.1336	.2673	303.15	1.45415	.00005
.1671	.3342	303.15	1.46303	.00005
.2001	.4003	303.15	1.46948	.00005
.2343	.4685	303.15	1.47468	.00005
.2673	.5345	303.15	1.47848	.00005
.3005	.601	303.15	1.48171	.00005
.0335	.0669	308.15	1.39002	.00005
.0669	.1338	308.15	1.42137	.00005
.1002	.2005	308.15	1.44035	.00005
.1336	.2673	308.15	1.45294	.00005
.1671	.3342	308.15	1.4618	.00005
.2001	.4003	308.15	1.46823	.00005
.2343	.4685	308.15	1.47343	.00005
.2673	.5345	308.15	1.47721	.00005
.3005	.601	308.15	1.48044	.00005
.0335	.0669	313.15	1.38901	.00005
.0669	.1338	313.15	1.42021	.00005
.1002	.2005	313.15	1.43901	.00005
.1336	.2673	313.15	1.45171	.00005
.1671	.3342	313.15	1.46055	.00005
.2001	.4003	313.15	1.46697	.00005
.2343	.4685	313.15	1.47218	.00005
.2673	.5345	313.15	1.47594	.00005
.3005	.601	313.15	1.47918	.00005
.0335	.0669	318.15	1.38797	.00005
.0669	.1338	318.15	1.41904	.00005
.1002	.2005	318.15	1.43786	.00005
.1336	.2673	318.15	1.45047	.00005
.1671	.3342	318.15	1.45927	.00005
.2001	.4003	318.15	1.46573	.00005
.2343	.4685	318.15	1.47091	.00005
.2673	.5345	318.15	1.47468	.00005
.3005	.601	318.15	1.47791	.00005
.0335	.0669	323.15	1.38689	.00005
.0669	.1338	323.15	1.41785	.00005
.1002	.2005	323.15	1.43658	.00005
.1336	.2673	323.15	1.44917	.00005
.1671	.3342	323.15	1.45803	.00005
.2001	.4003	323.15	1.46447	.00005
.2343	.4685	323.15	1.46955	.00005
.2673	.5345	323.15	1.4734	.00005
.3005	.601	323.15	1.47661	.00005
.0335	.0669	328.15	1.38579	.00005
.0669	.1338	328.15	1.41665	.00005
.1002	.2005	328.15	1.43532	.00005
.1336	.2673	328.15	1.44788	.00005
.1671	.3342	328.15	1.45672	.00005
.2001	.4003	328.15	1.46316	.00005
.2343	.4685	328.15	1.46826	.00005
.2673	.5345	328.15	1.47211	.00005
.3005	.601	328.15	1.47532	.00005
.0335	.0669	333.15	1.38467	.00005
.0669	.1338	333.15	1.41542	.00005
.1002	.2005	333.15	1.43406	.00005
.1336	.2673	333.15	1.44655	.00005
.1671	.3342	333.15	1.45545	.00005
.2001	.4003	333.15	1.46187	.00005
.2343	.4685	333.15	1.46693	.00005
.2673	.5345	333.15	1.47078	.00005
.3005	.601	333.15	1.47401	.00005
.0335	.0669	338.15	1.38352	.00005
.0669	.1338	338.15	1.4142	.00005
.1002	.2005	338.15	1.43279	.00005
.1336	.2673	338.15	1.4452	.00005
.1671	.3342	338.15	1.45408	.00005
.2001	.4003	338.15	1.46057	.00005
.2343	.4685	338.15	1.46562	.00005
.2673	.5345	338.15	1.46949	.00005
.3005	.601	338.15	1.47271	.00005
.0335	.0669	343.15	1.38232	.00005
.0669	.1338	343.15	1.4128	.00005
.1002	.2005	343.15	1.43142	.00005
.1336	.2673	343.15	1.44382	.00005
.1671	.3342	343.15	1.45261	.00005
.2001	.4003	343.15	1.45915	.00005
.2343	.4685	343.15	1.46428	.00005
.2673	.5345	343.15	1.46816	.00005
.3005	.601	343.15	1.47137	.00005

System: glycerol + water + N,N-diethylethanolammonium chloride; phases: Liquid
Fixed: Pressure, kPa = 101
Property: Viscosity, Pa*s (Liquid); method: Falling or rolling sphere viscometry
Mole fraction of N,N-diethylethanolammonium chloride	Mole fraction of glycerol	Temperature, K	Viscosity, Pa*s	uncertainty
.0334	.0669	298.15	.00325	.0000325
.0669	.1337	298.15	.008992	.00008992
.1001	.2003	298.15	.020975	.00020975
.1335	.2669	298.15	.043719	.00043719
.1668	.3335	298.15	.078196	.00078196
.2003	.4005	298.15	.132155	.00132155
.2335	.4669	298.15	.190058	.00190058
.2667	.5334	298.15	.272628	.00272628
.3003	.6005	298.15	.381319	.00381319
.0334	.0669	303.15	.002836	.00002836
.0669	.1337	303.15	.007482	.00007482
.1001	.2003	303.15	.016744	.00016744
.1335	.2669	303.15	.034936	.00034936
.1668	.3335	303.15	.058642	.00058642
.2003	.4005	303.15	.096114	.00096114
.2335	.4669	303.15	.137692	.00137692
.2667	.5334	303.15	.194097	.00194097
.3003	.6005	303.15	.268164	.00268164
.0334	.0669	308.15	.002458	.00002458
.0669	.1337	308.15	.006286	.00006286
.1001	.2003	308.15	.013665	.00013665
.1335	.2669	308.15	.026465	.00026465
.1668	.3335	308.15	.045327	.00045327
.2003	.4005	308.15	.07232	.0007232
.2335	.4669	308.15	.104638	.00104638
.2667	.5334	308.15	.14201	.0014201
.3003	.6005	308.15	.193706	.00193706
.0334	.0669	313.15	.002167	.00002167
.0669	.1337	313.15	.005317	.00005317
.1001	.2003	313.15	.01107	.0001107
.1335	.2669	313.15	.020922	.00020922
.1668	.3335	313.15	.036179	.00036179
.2003	.4005	313.15	.055474	.00055474
.2335	.4669	313.15	.079992	.00079992
.2667	.5334	313.15	.105769	.00105769
.3003	.6005	313.15	.143105	.00143105
.0334	.0669	318.15	.001925	.00001925
.0669	.1337	318.15	.004581	.00004581
.1001	.2003	318.15	.009203	.00009203
.1335	.2669	318.15	.017067	.00017067
.1668	.3335	318.15	.028324	.00028324
.2003	.4005	318.15	.043466	.00043466
.2335	.4669	318.15	.062198	.00062198
.2667	.5334	318.15	.082056	.00082056
.3003	.6005	318.15	.107574	.00107574
.0334	.0669	323.15	.001722	.00001722
.0669	.1337	323.15	.00397	.0000397
.1001	.2003	323.15	.007819	.00007819
.1335	.2669	323.15	.01405	.0001405
.1668	.3335	323.15	.022593	.00022593
.2003	.4005	323.15	.035302	.00035302
.2335	.4669	323.15	.048147	.00048147
.2667	.5334	323.15	.063466	.00063466
.3003	.6005	323.15	.082833	.00082833
.0334	.0669	328.15	.001547	.00001547
.0669	.1337	328.15	.003502	.00003502
.1001	.2003	328.15	.006647	.00006647
.1335	.2669	328.15	.011518	.00011518
.1668	.3335	328.15	.018447	.00018447
.2003	.4005	328.15	.02763	.0002763
.2335	.4669	328.15	.038236	.00038236
.2667	.5334	328.15	.050006	.00050006
.3003	.6005	328.15	.064945	.00064945
.0334	.0669	333.15	.001408	.00001408
.0669	.1337	333.15	.003098	.00003098
.1001	.2003	333.15	.005762	.00005762
.1335	.2669	333.15	.009713	.00009713
.1668	.3335	333.15	.015187	.00015187
.2003	.4005	333.15	.022432	.00022432
.2335	.4669	333.15	.030644	.00030644
.2667	.5334	333.15	.040143	.00040143
.3003	.6005	333.15	.051641	.00051641
.0334	.0669	338.15	.001298	.00001298
.0669	.1337	338.15	.002764	.00002764
.1001	.2003	338.15	.004983	.00004983
.1335	.2669	338.15	.00831	.0000831
.1668	.3335	338.15	.013045	.00013045
.2003	.4005	338.15	.018386	.00018386
.2335	.4669	338.15	.024711	.00024711
.2667	.5334	338.15	.031752	.00031752
.3003	.6005	338.15	.041545	.00041545
.0334	.0669	343.15	.001182	.00001182
.0669	.1337	343.15	.002474	.00002474
.1001	.2003	343.15	.004401	.00004401
.1335	.2669	343.15	.00717	.0000717
.1668	.3335	343.15	.010862	.00010862
.2003	.4005	343.15	.015416	.00015416
.2335	.4669	343.15	.02035	.0002035
.2667	.5334	343.15	.025829	.00025829
.3003	.6005	343.15	.032988	.00032988

System: ethylene glycol + water + N,N-diethylethanolammonium chloride; phases: Liquid
Fixed: Pressure, kPa = 101
Property: Mass density, kg/m3 (Liquid); method: Vibrating tube method
Mole fraction of N,N-diethylethanolammonium chloride	Mole fraction of ethylene glycol	Temperature, K	Mass density, kg/m3	uncertainty
.0333	.0667	298.15	1042.2	.5
.0667	.1333	298.15	1066.2	.5
.1	.2	298.15	1079.8	.5
.1333	.2667	298.15	1087.5	.5
.1667	.3334	298.15	1092.2	.5
.2	.4	298.15	1095.3	.5
.2334	.4668	298.15	1097.3	.5
.2667	.5333	298.15	1098.4	.5
.3	.6	298.15	1099.3	.5
.0333	.0667	303.15	1040	.5
.0667	.1333	303.15	1063.5	.5
.1	.2	303.15	1077	.5
.1333	.2667	303.15	1084.7	.5
.1667	.3334	303.15	1089.2	.5
.2	.4	303.15	1092.3	.5
.2334	.4668	303.15	1094.4	.5
.2667	.5333	303.15	1095.4	.5
.3	.6	303.15	1096.2	.5
.0333	.0667	308.15	1037.8	.5
.0667	.1333	308.15	1060.8	.5
.1	.2	308.15	1074	.5
.1333	.2667	308.15	1081.7	.5
.1667	.3334	308.15	1086.2	.5
.2	.4	308.15	1089.3	.5
.2334	.4668	308.15	1091.3	.5
.2667	.5333	308.15	1092.5	.5
.3	.6	308.15	1093.3	.5
.0333	.0667	313.15	1035.3	.5
.0667	.1333	313.15	1058	.5
.1	.2	313.15	1071.1	.5
.1333	.2667	313.15	1078.7	.5
.1667	.3334	313.15	1083.3	.5
.2	.4	313.15	1086.3	.5
.2334	.4668	313.15	1088.3	.5
.2667	.5333	313.15	1089.5	.5
.3	.6	313.15	1090.3	.5
.0333	.0667	318.15	1032.8	.5
.0667	.1333	318.15	1055.2	.5
.1	.2	318.15	1068.1	.5
.1333	.2667	318.15	1075.7	.5
.1667	.3334	318.15	1080.3	.5
.2	.4	318.15	1083.3	.5
.2334	.4668	318.15	1085.2	.5
.2667	.5333	318.15	1086.5	.5
.3	.6	318.15	1087.2	.5
.0333	.0667	323.15	1030.2	.5
.0667	.1333	323.15	1052.3	.5
.1	.2	323.15	1065.1	.5
.1333	.2667	323.15	1072.6	.5
.1667	.3334	323.15	1077.3	.5
.2	.4	323.15	1080.3	.5
.2334	.4668	323.15	1082.2	.5
.2667	.5333	323.15	1083.4	.5
.3	.6	323.15	1084.2	.5
.0333	.0667	328.15	1027.4	.5
.0667	.1333	328.15	1049.3	.5
.1	.2	328.15	1062	.5
.1333	.2667	328.15	1069.5	.5
.1667	.3334	328.15	1074.2	.5
.2	.4	328.15	1077.2	.5
.2334	.4668	328.15	1079.2	.5
.2667	.5333	328.15	1080.4	.5
.3	.6	328.15	1081.2	.5
.0333	.0667	333.15	1024.6	.5
.0667	.1333	333.15	1046.2	.5
.1	.2	333.15	1058.9	.5
.1333	.2667	333.15	1066.4	.5
.1667	.3334	333.15	1071.1	.5
.2	.4	333.15	1074.1	.5
.2334	.4668	333.15	1076.1	.5
.2667	.5333	333.15	1077.4	.5
.3	.6	333.15	1078.2	.5
.0333	.0667	338.15	1021.7	.5
.0667	.1333	338.15	1043.2	.5
.1	.2	338.15	1055.7	.5
.1333	.2667	338.15	1063.3	.5
.1667	.3334	338.15	1068	.5
.2	.4	338.15	1071	.5
.2334	.4668	338.15	1073	.5
.2667	.5333	338.15	1074.4	.5
.3	.6	338.15	1075.2	.5
.0333	.0667	343.15	1018.7	.5
.0667	.1333	343.15	1040.1	.5
.1	.2	343.15	1052.5	.5
.1333	.2667	343.15	1060.1	.5
.1667	.3334	343.15	1064.8	.5
.2	.4	343.15	1067.9	.5
.2334	.4668	343.15	1069.9	.5
.2667	.5333	343.15	1071.3	.5
.3	.6	343.15	1072.1	.5

System: ethylene glycol + water + N,N-diethylethanolammonium chloride; phases: Liquid
Fixed: Pressure, kPa = 101
Property: Refractive index (Na D-line) (Liquid); method: Standard Abbe refractometry
Mole fraction of N,N-diethylethanolammonium chloride	Mole fraction of ethylene glycol	Temperature, K	Refractive index (Na D-line)	uncertainty
.0333	.0667	298.15	1.38083	.00005
.0667	.1333	298.15	1.40898	.00005
.1	.2	298.15	1.42676	.00005
.1333	.2667	298.15	1.43874	.00005
.1667	.3334	298.15	1.44723	.00005
.2	.4	298.15	1.4535	.00005
.2334	.4668	298.15	1.45837	.00005
.2667	.5333	298.15	1.46217	.00005
.3	.6	298.15	1.46521	.00005
.0333	.0667	303.15	1.37995	.00005
.0667	.1333	303.15	1.4079	.00005
.1	.2	303.15	1.4256	.00005
.1333	.2667	303.15	1.43752	.00005
.1667	.3334	303.15	1.44592	.00005
.2	.4	303.15	1.45223	.00005
.2334	.4668	303.15	1.45703	.00005
.2667	.5333	303.15	1.46084	.00005
.3	.6	303.15	1.46387	.00005
.0333	.0667	308.15	1.37902	.00005
.0667	.1333	308.15	1.4068	.00005
.1	.2	308.15	1.42442	.00005
.1333	.2667	308.15	1.4363	.00005
.1667	.3334	308.15	1.4446	.00005
.2	.4	308.15	1.45091	.00005
.2334	.4668	308.15	1.45571	.00005
.2667	.5333	308.15	1.45949	.00005
.3	.6	308.15	1.46253	.00005
.0333	.0667	313.15	1.37802	.00005
.0667	.1333	313.15	1.40562	.00005
.1	.2	313.15	1.4232	.00005
.1333	.2667	313.15	1.43503	.00005
.1667	.3334	313.15	1.44332	.00005
.2	.4	313.15	1.44956	.00005
.2334	.4668	313.15	1.45434	.00005
.2667	.5333	313.15	1.45813	.00005
.3	.6	313.15	1.46116	.00005
.0333	.0667	318.15	1.37691	.00005
.0667	.1333	318.15	1.40432	.00005
.1	.2	318.15	1.42177	.00005
.1333	.2667	318.15	1.43353	.00005
.1667	.3334	318.15	1.44178	.00005
.2	.4	318.15	1.448	.00005
.2334	.4668	318.15	1.45273	.00005
.2667	.5333	318.15	1.45646	.00005
.3	.6	318.15	1.45951	.00005
.0333	.0667	323.15	1.37579	.00005
.0667	.1333	323.15	1.40311	.00005
.1	.2	323.15	1.42051	.00005
.1333	.2667	323.15	1.4322	.00005
.1667	.3334	323.15	1.44044	.00005
.2	.4	323.15	1.44662	.00005
.2334	.4668	323.15	1.45132	.00005
.2667	.5333	323.15	1.45505	.00005
.3	.6	323.15	1.4581	.00005
.0333	.0667	328.15	1.37478	.00005
.0667	.1333	328.15	1.40202	.00005
.1	.2	328.15	1.4194	.00005
.1333	.2667	328.15	1.4311	.00005
.1667	.3334	328.15	1.43934	.00005
.2	.4	328.15	1.44552	.00005
.2334	.4668	328.15	1.45021	.00005
.2667	.5333	328.15	1.45394	.00005
.3	.6	328.15	1.45698	.00005
.0333	.0667	333.15	1.37354	.00005
.0667	.1333	333.15	1.4006	.00005
.1	.2	333.15	1.4179	.00005
.1333	.2667	333.15	1.42955	.00005
.1667	.3334	333.15	1.43779	.00005
.2	.4	333.15	1.44389	.00005
.2334	.4668	333.15	1.44855	.00005
.2667	.5333	333.15	1.45227	.00005
.3	.6	333.15	1.45528	.00005
.0333	.0667	338.15	1.3725	.00005
.0667	.1333	338.15	1.3995	.00005
.1	.2	338.15	1.41674	.00005
.1333	.2667	338.15	1.42844	.00005
.1667	.3334	338.15	1.43667	.00005
.2	.4	338.15	1.44275	.00005
.2334	.4668	338.15	1.44745	.00005
.2667	.5333	338.15	1.45118	.00005
.3	.6	338.15	1.45421	.00005
.0333	.0667	343.15	1.3713	.00005
.0667	.1333	343.15	1.39822	.00005
.1	.2	343.15	1.41542	.00005
.1333	.2667	343.15	1.42708	.00005
.1667	.3334	343.15	1.43536	.00005
.2	.4	343.15	1.44144	.00005
.2334	.4668	343.15	1.44606	.00005
.2667	.5333	343.15	1.44985	.00005
.3	.6	343.15	1.45287	.00005

System: ethylene glycol + water + N,N-diethylethanolammonium chloride; phases: Liquid
Fixed: Pressure, kPa = 101
Property: Viscosity, Pa*s (Liquid); method: Falling or rolling sphere viscometry
Mole fraction of N,N-diethylethanolammonium chloride	Mole fraction of ethylene glycol	Temperature, K	Viscosity, Pa*s	uncertainty
.0333	.0667	298.15	.002375	.00002375
.0667	.1333	298.15	.004932	.00004932
.1	.2	298.15	.008684	.00008684
.1333	.2667	298.15	.013735	.00013735
.1667	.3334	298.15	.019289	.00019289
.2	.4	298.15	.025176	.00025176
.2334	.4668	298.15	.031507	.00031507
.2667	.5333	298.15	.037768	.00037768
.3	.6	298.15	.044	.00044
.0333	.0667	303.15	.002071	.00002071
.0667	.1333	303.15	.004237	.00004237
.1	.2	303.15	.007281	.00007281
.1333	.2667	303.15	.011154	.00011154
.1667	.3334	303.15	.015901	.00015901
.2	.4	303.15	.020368	.00020368
.2334	.4668	303.15	.025326	.00025326
.2667	.5333	303.15	.030347	.00030347
.3	.6	303.15	.035282	.00035282
.0333	.0667	308.15	.001825	.00001825
.0667	.1333	308.15	.003608	.00003608
.1	.2	308.15	.006173	.00006173
.1333	.2667	308.15	.009288	.00009288
.1667	.3334	308.15	.013109	.00013109
.2	.4	308.15	.016733	.00016733
.2334	.4668	308.15	.020794	.00020794
.2667	.5333	308.15	.024762	.00024762
.3	.6	308.15	.028535	.00028535
.0333	.0667	313.15	.001618	.00001618
.0667	.1333	313.15	.003248	.00003248
.1	.2	313.15	.005285	.00005285
.1333	.2667	313.15	.007872	.00007872
.1667	.3334	313.15	.010788	.00010788
.2	.4	313.15	.013925	.00013925
.2334	.4668	313.15	.017135	.00017135
.2667	.5333	313.15	.020463	.00020463
.3	.6	313.15	.023527	.00023527
.0333	.0667	318.15	.001449	.00001449
.0667	.1333	318.15	.002778	.00002778
.1	.2	318.15	.004572	.00004572
.1333	.2667	318.15	.006723	.00006723
.1667	.3334	318.15	.009117	.00009117
.2	.4	318.15	.011546	.00011546
.2334	.4668	318.15	.014411	.00014411
.2667	.5333	318.15	.017134	.00017134
.3	.6	318.15	.019649	.00019649
.0333	.0667	323.15	.001304	.00001304
.0667	.1333	323.15	.002478	.00002478
.1	.2	323.15	.003987	.00003987
.1333	.2667	323.15	.005805	.00005805
.1667	.3334	323.15	.007804	.00007804
.2	.4	323.15	.009799	.00009799
.2334	.4668	323.15	.012003	.00012003
.2667	.5333	323.15	.014485	.00014485
.3	.6	323.15	.016699	.00016699
.0333	.0667	328.15	.001184	.00001184
.0667	.1333	328.15	.002261	.00002261
.1	.2	328.15	.003512	.00003512
.1333	.2667	328.15	.005049	.00005049
.1667	.3334	328.15	.00673	.0000673
.2	.4	328.15	.008433	.00008433
.2334	.4668	328.15	.010248	.00010248
.2667	.5333	328.15	.012154	.00012154
.3	.6	328.15	.014087	.00014087
.0333	.0667	333.15	.001085	.00001085
.0667	.1333	333.15	.002052	.00002052
.1	.2	333.15	.003118	.00003118
.1333	.2667	333.15	.004422	.00004422
.1667	.3334	333.15	.005867	.00005867
.2	.4	333.15	.007302	.00007302
.2334	.4668	333.15	.008856	.00008856
.2667	.5333	333.15	.010425	.00010425
.3	.6	333.15	.011888	.00011888
.0333	.0667	338.15	.001023	.00001023
.0667	.1333	338.15	.001875	.00001875
.1	.2	338.15	.002792	.00002792
.1333	.2667	338.15	.003913	.00003913
.1667	.3334	338.15	.005141	.00005141
.2	.4	338.15	.006373	.00006373
.2334	.4668	338.15	.007699	.00007699
.2667	.5333	338.15	.009059	.00009059
.3	.6	338.15	.010271	.00010271
.0333	.0667	343.15	.000968	.00000968
.0667	.1333	343.15	.00173	.0000173
.1	.2	343.15	.002523	.00002523
.1333	.2667	343.15	.003481	.00003481
.1667	.3334	343.15	.004551	.00004551
.2	.4	343.15	.005605	.00005605
.2334	.4668	343.15	.006748	.00006748
.2667	.5333	343.15	.007933	.00007933
.3	.6	343.15	.008966	.00008966
