Measured thermophysical data. The thermochemistry of coronene revisited
Source: J. Chem. Thermodyn., 2009, 10.1016/j.jct2009.03.010
Compound 1: coronene, C24H12, purity 99%
Compound 2: carbon dioxide, CO2
Compound 3: water, H2O
Compound 4: oxygen, O2

System: coronene; phases: Crystal
Fixed: Pressure, kPa = 101.325
Property: Molar heat capacity at constant pressure, J/K/mol (Crystal); method: DSC
Temperature, K	Molar heat capacity at constant pressure, J/K/mol	uncertainty
298.15	317.47214856	6.90809784

System: coronene; phases: Crystal, Liquid, Air at 1 atmosphere
Property: Normal melting temperature, K (Crystal); method: DSC/DTA
Normal melting temperature, K	uncertainty
709	.8

System: coronene; phases: Crystal, Liquid, Air at 1 atmosphere
Property: Molar enthalpy of transition or fusion, kJ/mol (Crystal); method: DSC/DTA
Molar enthalpy of transition or fusion, kJ/mol	uncertainty
21.2	.7

System: coronene; phases: Crystal
Fixed: Pressure, kPa = 101.325
Property: Molar heat capacity at constant pressure, J/K/mol (Crystal); method: Small sample (50 mg) DSC
Temperature, K	Molar heat capacity at constant pressure, J/K/mol	uncertainty
295	312.967	
298.15	317.172	
300	318.974	
310	333.991	
320	344.504	
330	355.316	
340	366.429	
350	373.938	
360	383.85	
370	394.663	
380	405.175	
410	417.189	
420	422.295	
430	435.51	
440	439.115	
450	447.825	
460	453.832	
470	463.443	
478	470.652	

Reaction: -1 coronene + 24 carbon dioxide + 6 water + -27 oxygen
Property: Specific internal energy of reaction at constant volume, J/g
-37637.5

Reaction: -1 coronene + 24 carbon dioxide + 6 water + -27 oxygen
Property: Specific internal energy of reaction at constant volume, J/g
-37631
