Measured thermophysical data. Volumetric properties of binary mixtures of dimethyl sulfoxide  with amines from (293.15 to 363.15) K
Source: J. Chem. Thermodyn., 2013, 10.1016/j.jct.2012.08.021
Compound 1: 2-aminoethanol, C2H7NO, purity 99%
Compound 2: iminodiethanol, C4H11NO2, purity 99%
Compound 3: N-methyldiethanolamine, C5H13NO2, purity 98%
Compound 4: methylsulfinylmethane, C2H6OS, purity 99%

System: methylsulfinylmethane + 2-aminoethanol; phases: Liquid
Fixed: Pressure, kPa = 101
Property: Mass density, kg/m3 (Liquid); method: Vibrating tube method
Temperature, K	Mole fraction of 2-aminoethanol	Mass density, kg/m3	uncertainty
293.144	0	1100.865	.05
293.154	.1002	1092.346	.05
293.149	.2	1084.234	.05
293.15	.2999	1076.518	.05
293.153	.4002	1068.583	.05
293.151	.5002	1060.655	.05
293.15	.5999	1052.612	.05
293.146	.7002	1044.317	.05
293.151	.8001	1035.238	.05
293.153	.8998	1026.096	.05
293.157	1	1016.341	.05
303.146	0	1090.812	.05
303.146	.1002	1082.484	.05
303.157	.2	1074.465	.05
303.143	.2999	1066.931	.05
303.15	.4002	1059.151	.05
303.149	.5002	1051.414	.05
303.153	.5999	1043.576	.05
303.154	.7002	1035.507	.05
303.152	.8001	1026.695	.05
303.155	.8998	1017.834	.05
303.143	1	1008.401	.05
313.145	0	1080.77	.05
313.145	.1002	1072.613	.05
313.146	.2	1064.728	.05
313.145	.2999	1057.33	.05
313.151	.4002	1049.709	.05
313.146	.5002	1042.152	.05
313.151	.5999	1034.518	.05
313.15	.7002	1026.701	.05
313.148	.8001	1018.119	.05
313.15	.8998	1009.561	.05
313.144	1	1000.414	.05
323.145	0	1070.728	.05
323.145	.1002	1062.742	.05
323.159	.2	1054.963	.05
323.152	.2999	1047.717	.05
323.146	.4002	1040.259	.05
323.155	.5002	1032.85	.05
323.155	.5999	1025.42	.05
333.146	0	1060.678	.05
333.146	.1002	1052.864	.05
333.157	.2	1045.216	.05
333.145	.2999	1038.109	.05
333.148	.4002	1030.783	.05
333.15	.5002	1023.558	.05
333.158	.5999	1016.305	.05
333.153	.7002	1008.935	.05
333.148	.8001	1000.839	.05
333.148	.8998	992.847	.05
333.142	1	984.302	.05
343.144	0	1050.621	.05
343.148	.1002	1042.967	.05
343.146	.2	1035.459	.05
343.148	.2999	1028.468	.05
343.151	.4002	1021.279	.05
343.148	.5002	1014.223	.05
343.15	.5999	1007.154	.05
343.15	.7002	999.999	.05
343.149	.8001	992.114	.05
343.148	.8998	984.393	.05
343.142	1	976.141	.05
353.143	0	1040.542	.05
353.142	.1002	1033.054	.05
353.146	.2	1025.665	.05
353.143	.2999	1018.806	.05
353.143	.4002	1011.754	.05
353.144	.5002	1004.844	.05
353.147	.5999	997.944	.05
353.144	.7002	990.992	.05
353.145	.8001	983.32	.05
353.144	.8998	975.863	.05
353.142	1	967.893	.05
363.146	0	1030.433	.05
363.144	.1002	1023.1	.05
363.145	.2	1015.841	.05
363.149	.2999	1009.097	.05
363.147	.4002	1002.171	.05
363.142	.5002	995.408	.05
363.143	.5999	988.672	.05
323.15	.7002	1017.833	.05
323.15	.8001	1009.502	.05
323.148	.8998	1001.232	.05
323.146	1	992.384	.05
363.143	.7002	981.91	.05
363.142	.8001	974.446	.05
363.143	.8998	967.234	.05
363.149	1	959.536	.05

System: methylsulfinylmethane + iminodiethanol; phases: Liquid
Fixed: Pressure, kPa = 101
Property: Mass density, kg/m3 (Liquid); method: Vibrating tube method
Temperature, K	Mole fraction of iminodiethanol	Mass density, kg/m3	uncertainty
293.144	0	1100.865	.05
293.153	.1002	1098.864	.05
293.151	.1999	1097.332	.05
293.152	.2998	1096.582	.05
293.148	.4001	1096.232	.05
293.151	.5001	1096.24	.05
293.151	.6	1096.286	.05
293.153	.7002	1096.883	.05
293.151	.8001	1097.242	.05
293.142	.9002	1097.476	.05
293.154	1	1097.614	.05
303.146	0	1090.812	.05
303.15	.1002	1089.384	.05
303.153	.1999	1088.255	.05
303.153	.2998	1087.879	.05
303.142	.4001	1087.869	.05
303.15	.5001	1088.23	.05
303.153	.6	1088.594	.05
303.149	.7002	1089.433	.05
303.147	.8001	1090.113	.05
303.144	.9002	1090.693	.05
303.151	1	1091.169	.05
313.145	0	1080.77	.05
313.151	.1002	1079.889	.05
313.148	.1999	1079.188	.05
313.151	.2998	1079.178	.05
313.142	.4001	1079.495	.05
313.15	.5001	1080.188	.05
313.148	.6	1080.867	.05
313.15	.7002	1081.969	.05
313.153	.8001	1082.902	.05
313.152	.9002	1083.772	.05
313.147	1	1084.596	.05
323.145	0	1070.728	.05
323.15	.1002	1070.394	.05
323.148	.1999	1070.108	.05
323.148	.2998	1070.463	.05
323.142	.4001	1071.098	.05
323.148	.5001	1072.119	.05
323.149	.6	1073.104	.05
333.146	0	1060.678	.05
333.148	.1002	1060.886	.05
333.151	.1999	1061.011	.05
333.151	.2998	1061.72	.05
333.147	.4001	1062.675	.05
333.151	.5001	1064.014	.05
333.15	.6	1065.298	.05
333.148	.7002	1066.937	.05
333.152	.8001	1068.415	.05
333.146	.9002	1069.781	.05
333.144	1	1071.107	.05
343.144	0	1050.621	.05
343.149	.1002	1051.358	.05
343.147	.1999	1051.902	.05
343.148	.2998	1052.963	.05
343.141	.4001	1054.22	.05
343.152	.5001	1055.86	.05
343.146	.6	1057.434	.05
343.146	.7002	1059.337	.05
343.147	.8001	1061.078	.05
343.145	.9002	1062.687	.05
343.144	1	1064.253	.05
353.143	0	1040.542	.05
353.149	.1002	1041.801	.05
353.142	.1999	1042.767	.05
353.155	.2998	1044.16	.05
353.151	.4001	1045.719	.05
353.144	.5001	1047.653	.05
353.146	.6	1049.497	.05
353.144	.7002	1051.657	.05
353.153	.8001	1053.639	.05
353.144	.9002	1055.502	.05
353.144	1	1057.305	.05
363.146	0	1030.433	.05
363.145	.1002	1032.21	.05
363.142	.1999	1033.592	.05
363.141	.2998	1035.346	.05
363.148	.4001	1037.177	.05
363.148	.5001	1039.385	.05
363.141	.6	1041.502	.05
323.149	.7002	1074.477	.05
323.156	.8001	1075.677	.05
323.146	.9002	1076.802	.05
323.149	1	1077.885	.05
363.142	.7002	1043.895	.05
363.143	.8001	1046.124	.05
363.142	.9002	1048.211	.05
363.146	1	1050.24	.05

System: methylsulfinylmethane + N-methyldiethanolamine; phases: Liquid
Fixed: Pressure, kPa = 101
Property: Mass density, kg/m3 (Liquid); method: Vibrating tube method
Temperature, K	Mole fraction of N-methyldiethanolamine	Mass density, kg/m3	uncertainty
293.144	0	1100.865	.05
293.15	.1002	1089.57	.05
293.151	.2	1079.886	.05
293.149	.3001	1071.579	.05
293.15	.4001	1064.659	.05
293.15	.5002	1058.736	.05
293.144	.5998	1053.803	.05
293.152	.7002	1049.581	.05
293.152	.7998	1046.103	.05
293.152	.8998	1043.373	.05
293.154	1	1040.6	.05
303.146	0	1090.812	.05
303.148	.1002	1080.032	.05
303.151	.2	1070.748	.05
303.15	.3001	1062.757	.05
303.143	.4001	1056.104	.05
303.151	.5002	1050.393	.05
303.143	.5998	1045.651	.05
303.151	.7002	1041.606	.05
303.151	.7998	1038.275	.05
303.152	.8998	1035.668	.05
303.147	1	1033.017	.05
313.145	0	1080.77	.05
313.15	.1002	1070.49	.05
313.15	.2	1061.605	.05
313.15	.3001	1053.938	.05
313.144	.4001	1047.544	.05
313.148	.5002	1042.057	.05
313.145	.5998	1037.494	.05
313.148	.7002	1033.612	.05
313.15	.7998	1030.42	.05
313.15	.8998	1027.95	.05
313.148	1	1025.401	.05
323.145	0	1070.728	.05
323.149	.1002	1060.95	.05
323.15	.2	1052.468	.05
323.154	.3001	1045.11	.05
323.143	.4001	1038.988	.05
323.154	.5002	1033.712	.05
323.145	.5998	1029.328	.05
323.149	.7002	1025.6	.05
323.154	.7998	1022.527	.05
323.15	.8998	1020.184	.05
323.149	1	1017.739	.05
333.146	0	1060.678	.05
333.149	.1002	1051.411	.05
333.149	.2	1043.328	.05
333.154	.3001	1036.293	.05
333.143	.4001	1030.43	.05
333.147	.5002	1025.374	.05
333.145	.5998	1021.151	.05
333.15	.7002	1017.562	.05
333.149	.7998	1014.627	.05
333.15	.8998	1012.372	.05
333.147	1	1010.026	.05
343.144	0	1050.621	.05
343.149	.1002	1041.861	.05
343.149	.2	1034.178	.05
343.15	.3001	1027.477	.05
343.142	.4001	1021.863	.05
343.144	.5002	1017.014	.05
343.144	.5998	1012.952	.05
343.149	.7002	1009.507	.05
343.148	.7998	1006.674	.05
343.15	.8998	1004.509	.05
343.146	1	1002.249	.05
353.143	0	1040.542	.05
353.144	.1002	1032.292	.05
353.146	.2	1025.01	.05
353.156	.3001	1018.622	.05
353.142	.4001	1013.273	.05
353.143	.5002	1008.632	.05
353.144	.5998	1004.722	.05
353.148	.7002	1001.405	.05
353.159	.7998	998.661	.05
353.144	.8998	996.587	.05
353.143	1	994.404	.05
363.146	0	1030.433	.05
363.141	.1002	1022.701	.05
363.142	.2	1015.82	.05
363.143	.3001	1009.768	.05
363.155	.4001	1004.648	.05
363.145	.5002	1000.219	.05
363.148	.5998	996.455	.05
363.141	.7002	993.263	.05
363.143	.7998	990.621	.05
363.143	.8998	988.594	.05
363.147	1	986.471	.05
