Measured thermophysical data. Structuring of water in the new generation ionic liquid - Comparative experimental and theoretical study
Source: J. Chem. Thermodyn., 2016, 10.1016/j.jct.2015.10.001
Compound 1: 1-butyl-3-methylimidazolium salicylate, C15H20N2O3
Compound 2: water, H2O, purity 99.8%

System: 1-butyl-3-methylimidazolium salicylate; phases: Liquid
Fixed: Pressure, kPa = 101.325
Property: Mass density, kg/m3 (Liquid); method: Vibrating tube method
Temperature, K	Mass density, kg/m3	uncertainty
293.15	1152.27	.81
298.15	1149.05	.81
303.15	1145.65	.81
308.15	1142.22	.81
313.15	1138.76	.81

System: 1-butyl-3-methylimidazolium salicylate; phases: Liquid
Fixed: Pressure, kPa = 101.325
Property: Viscosity, Pa*s (Liquid); method: Cone and plate viscometry
Temperature, K	Viscosity, Pa*s	uncertainty
293.15	1.19411	.0119411
298.15	.77763	.0077763
303.15	.50142	.0050142
308.15	.33814	.0033814
313.15	.24	.0024
318.15	.16797	.0016797
323.15	.12706	.0012706

System: 1-butyl-3-methylimidazolium salicylate; phases: Liquid
Fixed: Pressure, kPa = 101.325
Property: Electrical conductivity, S/m (Liquid); method: Direct current cell with electrodes
Temperature, K	Electrical conductivity, S/m	uncertainty
293.15	.0182	.000273
298.15	.0281	.0004215
303.15	.0447	.0006705
308.15	.0692	.001038
313.15	.0965	.0014475
318.15	.156	.00234
323.15	.2198	.003297

System: water; phases: Liquid
Fixed: Pressure, kPa = 101.325
Property: Mass density, kg/m3 (Liquid); method: Vibrating tube method
Temperature, K	Mass density, kg/m3	uncertainty
293.15	998.21	.81
298.15	997.05	.81
303.15	995.65	.81
308.15	994.04	.81
313.15	992.22	.81

System: water; phases: Liquid
Fixed: Pressure, kPa = 101.325
Property: Viscosity, Pa*s (Liquid); method: Capillary tube (Ostwald; Ubbelohde) method
Temperature, K	Viscosity, Pa*s	uncertainty
293.15	.001003	.00001003
298.15	.00089	.0000089
303.15	.000797	.00000797
308.15	.000719	.00000719
313.15	.000653	.00000653

System: water + 1-butyl-3-methylimidazolium salicylate; phases: Liquid
Fixed: Pressure, kPa = 100
Property: Mass density, kg/m3 (Liquid); method: Vibrating tube method
Temperature, K	Molality, mol/kg of 1-butyl-3-methylimidazolium salicylate	Mass density, kg/m3	uncertainty
293.15	.00579	998.44	.81
293.15	.007	998.49	.81
293.15	.00801	998.53	.81
293.15	.01056	998.64	.81
293.15	.01278	998.73	.81
293.15	.0158	998.86	.81
293.15	.01707	998.92	.81
293.15	.02056	999.07	.81
293.15	.02523	999.27	.81
298.15	.00579	997.28	.81
298.15	.007	997.33	.81
298.15	.00801	997.37	.81
298.15	.01056	997.48	.81
298.15	.01278	997.57	.81
298.15	.0158	997.7	.81
298.15	.01707	997.75	.81
298.15	.02056	997.9	.81
298.15	.02523	998.11	.81
303.15	.00579	995.88	.81
303.15	.007	995.93	.81
303.15	.00801	995.97	.81
303.15	.01056	996.07	.81
303.15	.01278	996.17	.81
303.15	.0158	996.29	.81
303.15	.01707	996.35	.81
303.15	.02056	996.5	.81
303.15	.02523	996.7	.81
308.15	.00579	994.27	.81
308.15	.007	994.32	.81
308.15	.00801	994.36	.81
308.15	.01056	994.46	.81
308.15	.01278	994.55	.81
308.15	.0158	994.68	.81
308.15	.01707	994.74	.81
308.15	.02056	994.89	.81
308.15	.02523	995.09	.81
313.15	.00579	992.45	.81
313.15	.007	992.5	.81
313.15	.00801	992.54	.81
313.15	.01056	992.64	.81
313.15	.01278	992.73	.81
313.15	.0158	992.86	.81
313.15	.01707	992.91	.81
313.15	.02056	993.06	.81
313.15	.02523	993.26	.81
293.15	0	998.21	.81
298.15	0	997.05	.81
303.15	0	995.65	.81
308.15	0	994.04	.81
313.15	0	992.22	.81

System: water + 1-butyl-3-methylimidazolium salicylate; phases: Liquid
Fixed: Pressure, kPa = 100
Property: Viscosity, Pa*s (Liquid); method: Capillary tube (Ostwald; Ubbelohde) method
Temperature, K	Molality, mol/kg of 1-butyl-3-methylimidazolium salicylate	Viscosity, Pa*s	uncertainty
293.15	.0058	.001031	.00001031
293.15	.0071	.001035	.00001035
293.15	.0117	.001046	.00001046
293.15	.0205	.001065	.00001065
293.15	.0353	.001091	.00001091
293.15	.0384	.001096	.00001096
293.15	.0552	.001123	.00001123
293.15	.0765	.001155	.00001155
298.15	.0058	.000925	.00000925
298.15	.0071	.00093	.0000093
298.15	.0117	.000943	.00000943
298.15	.0205	.000964	.00000964
298.15	.0353	.000993	.00000993
298.15	.0384	.000998	.00000998
298.15	.0552	.001026	.00001026
298.15	.0765	.001058	.00001058
303.15	.0058	.000838	.00000838
303.15	.0071	.000842	.00000842
303.15	.0117	.000857	.00000857
303.15	.0205	.000879	.00000879
303.15	.0353	.000911	.00000911
303.15	.0384	.000917	.00000917
303.15	.0552	.000945	.00000945
303.15	.0765	.000979	.00000979
308.15	.0058	.000765	.00000765
308.15	.0071	.00077	.0000077
308.15	.0117	.000787	.00000787
308.15	.0205	.000811	.00000811
308.15	.0353	.000845	.00000845
308.15	.0384	.000851	.00000851
308.15	.0552	.000882	.00000882
308.15	.0765	.000916	.00000916
313.15	.0058	.000701	.00000701
313.15	.0071	.000707	.00000707
313.15	.0117	.000723	.00000723
313.15	.0205	.000749	.00000749
313.15	.0353	.000783	.00000783
313.15	.0384	.000789	.00000789
313.15	.0552	.000819	.00000819
313.15	.0765	.000853	.00000853
293.15	0	.001003	.00001003
298.15	0	.00089	.0000089
303.15	0	.000797	.00000797
308.15	0	.000719	.00000719
313.15	0	.000653	.00000653

System: water + 1-butyl-3-methylimidazolium salicylate; phases: Liquid
Fixed: Pressure, kPa = 100
Property: Electrical conductivity, S/m (Liquid); method: Direct current cell with electrodes
Temperature, K	Molality, mol/kg of 1-butyl-3-methylimidazolium salicylate	Electrical conductivity, S/m	uncertainty
293.15	.001	.007	.000105
293.15	.0037	.0231	.0003465
293.15	.0062	.0356	.000534
293.15	.0072	.0399	.0005985
293.15	.008	.0439	.0006585
293.15	.01	.0517	.0007755
293.15	.0144	.0674	.001011
293.15	.0221	.0901	.0013515
298.15	.001	.0079	.0001185
298.15	.0037	.0262	.000393
298.15	.0062	.0404	.000606
298.15	.0072	.0452	.000678
298.15	.008	.0498	.000747
298.15	.01	.0588	.000882
298.15	.0144	.0771	.0011565
298.15	.0221	.1028	.001542
303.15	.001	.0089	.0001335
303.15	.0037	.0297	.0004455
303.15	.0062	.0454	.000681
303.15	.0072	.0507	.0007605
303.15	.008	.0559	.0008385
303.15	.01	.0659	.0009885
303.15	.0144	.0871	.0013065
303.15	.0221	.1183	.0017745
308.15	.001	.0099	.0001485
308.15	.0037	.0328	.000492
308.15	.0062	.0501	.0007515
308.15	.0072	.057	.000855
308.15	.008	.0623	.0009345
308.15	.01	.0745	.0011175
308.15	.0144	.0986	.001479
308.15	.0221	.1326	.001989
313.15	.001	.011	.000165
313.15	.0037	.0362	.000543
313.15	.0062	.0551	.0008265
313.15	.0072	.0629	.0009435
313.15	.008	.0686	.001029
313.15	.01	.0826	.001239
313.15	.0144	.1105	.0016575
313.15	.0221	.1486	.002229
