Measured thermophysical data. Combined physical and chemical absorption of carbon dioxide in a mixture of ionic liquids
Source: J. Chem. Thermodyn., 2014, 10.1016/j.jct.2013.10.023
Compound 1: carbon dioxide, CO2, purity 99.99%
Compound 2: 1-ethyl-3-methylimidazolium acetate, C8H14N2O2, purity 95%
Compound 3: 1-ethyl-3-methylimidazolium ethyl sulfate, C8H16N2O4S

System: 1-ethyl-3-methylimidazolium acetate; phases: Liquid
Property: Mass density, kg/m3 (Liquid); method: Vibrating tube method
Temperature, K	Pressure, kPa	Mass density, kg/m3	uncertainty
298.15	101	1099.04	.05
308.15	101	1092.95	.05
318.15	101	1086.88	.05
328.15	101	1080.86	.05
338.15	101	1074.86	.05
348.15	101	1071.37	1
358.15	101	1063.03	.05

System: 1-ethyl-3-methylimidazolium acetate; phases: Liquid
Property: Viscosity, Pa*s (Liquid); method: Capillary tube (Ostwald; Ubbelohde) method
Temperature, K	Pressure, kPa	Viscosity, Pa*s	uncertainty
298.15	101	.1384	.001384
308.15	101	.0761	.000761
318.15	101	.0459	.000459
328.15	101	.0301	.000301
338.15	101	.0208	.000208
348.15	101	.01428	.0001428
358.15	101	.01153	.0001153

System: 1-ethyl-3-methylimidazolium ethyl sulfate; phases: Liquid
Property: Mass density, kg/m3 (Liquid); method: Vibrating tube method
Temperature, K	Pressure, kPa	Mass density, kg/m3	uncertainty
298.15	101	1238.68	.05
308.15	101	1231.92	.05
318.15	101	1225.2	.05
328.15	101	1218.51	.05
338.15	101	1211.88	.05
348.15	101	1208.19	1
358.15	101	1198.75	.05

System: 1-ethyl-3-methylimidazolium ethyl sulfate; phases: Liquid
Property: Viscosity, Pa*s (Liquid); method: Capillary tube (Ostwald; Ubbelohde) method
Temperature, K	Pressure, kPa	Viscosity, Pa*s	uncertainty
298.15	101	.09662	.0009662
308.15	101	.06041	.0006041
318.15	101	.03995	.0003995
328.15	101	.02891	.0002891
338.15	101	.02063	.0002063
348.15	101	.01566	.0001566
358.15	101	.01223	.0001223

System: carbon dioxide + 1-ethyl-3-methylimidazolium acetate; phases: Liquid, Gas
Property: Mole fraction of carbon dioxide (Liquid); method: magnetic suspension balance
Pressure, kPa	Temperature, K	Mole fraction of carbon dioxide	uncertainty
94	298.2	.2606	.01
200	298.2	.2916	.01
296	298.2	.3075	.01
400	298.2	.3213	.01
500	298.2	.3284	.01
604	298.2	.3255	.01
702	298.2	.3273	.01
904	298.2	.3308	.01
1104	298.2	.3347	.01
1289	298.2	.3391	.01
1486	298.2	.3432	.01
1639	298.2	.3396	.01
1403	298.2	.3468	.01
1200	298.2	.3433	.01
1003	298.2	.3397	.01
801	298.2	.3362	.01
600	298.2	.3324	.01
498	298.2	.3303	.01
400	298.2	.3281	.01
299	298.2	.3258	.01
203	298.2	.3228	.01
102	298.2	.3184	.01
95	318.2	.2223	.01
201	318.2	.2574	.01
303	318.2	.2732	.01
398	318.2	.2819	.01
499	318.2	.2927	.01
603	318.2	.303	.01
730	318.2	.3097	.01
895	318.2	.3227	.01
1099	318.2	.3346	.01
1298	318.2	.3452	.01
1493	318.2	.3555	.01
1644	318.2	.3614	.01
1403	318.2	.3591	.01
1201	318.2	.3508	.01
1002	318.2	.3456	.01
802	318.2	.3368	.01
605	318.2	.3209	.01
503	318.2	.3122	.01
402	318.2	.3082	.01
299	318.2	.292	.01
198	318.2	.2838	.01
101	318.2	.2698	.01
92	338.2	.1621	.01
192	338.2	.2441	.01
304	338.2	.2642	.01
400	338.2	.2697	.01
502	338.2	.2845	.01
598	338.2	.2922	.01
700	338.2	.2974	.01
901	338.2	.3112	.01
1097	338.2	.3218	.01
1296	338.2	.329	.01
1496	338.2	.3379	.01
1633	338.2	.3425	.01
1403	338.2	.3412	.01
1197	338.2	.3377	.01
1004	338.2	.3337	.01
800	338.2	.3254	.01
611	338.2	.3049	.01
499	338.2	.2991	.01
402	338.2	.2899	.01
299	338.2	.2825	.01
200	338.2	.2706	.01
104	338.2	.2582	.01
98	358.2	.1624	.01
196	358.2	.2006	.01
311	358.2	.2218	.01
400	358.2	.2325	.01
501	358.2	.2448	.01
597	358.2	.2528	.01
702	358.2	.2591	.01
910	358.2	.272	.01
1102	358.2	.2832	.01
1301	358.2	.2922	.01
1498	358.2	.3002	.01
1630	358.2	.305	.01
1399	358.2	.3027	.01
1197	358.2	.2954	.01
1004	358.2	.2896	.01
795	358.2	.2771	.01
600	358.2	.2654	.01
500	358.2	.2625	.01
404	358.2	.2518	.01
298	358.2	.2395	.01
201	358.2	.2309	.01
106	358.2	.2046	.01

System: carbon dioxide + 1-ethyl-3-methylimidazolium ethyl sulfate; phases: Liquid, Gas
Property: Mole fraction of carbon dioxide (Liquid); method: magnetic suspension balance
Pressure, kPa	Temperature, K	Mole fraction of carbon dioxide	uncertainty
100	298.2	.0034	.01
200	298.2	.0182	.01
310	298.2	.0231	.01
399	298.2	.0358	.01
505	298.2	.0409	.01
604	298.2	.0486	.01
698	298.2	.0561	.01
903	298.2	.0737	.01
1098	298.2	.0903	.01
1304	298.2	.1152	.01
1487	298.2	.1382	.01
1646	298.2	.146	.01
1405	298.2	.1447	.01
1202	298.2	.1396	.01
982	298.2	.1182	.01
803	298.2	.1019	.01
608	298.2	.0839	.01
500	298.2	.0757	.01
400	298.2	.0662	.01
300	298.2	.0546	.01
201	298.2	.0415	.01
102	298.2	.0359	.01
103	318.2	.0042	.01
204	318.2	.0042	.01
302	318.2	.0148	.01
404	318.2	.0214	.01
496	318.2	.0301	.01
600	318.2	.0372	.01
693	318.2	.045	.01
890	318.2	.0553	.01
1089	318.2	.0661	.01
1234	318.2	.0862	.01
1489	318.2	.0935	.01
1602	318.2	.1024	.01
1401	318.2	.1044	.01
1199	318.2	.0974	.01
992	318.2	.0806	.01
802	318.2	.0697	.01
603	318.2	.0536	.01
500	318.2	.0474	.01
399	318.2	.0405	.01
298	318.2	.0332	.01
198	318.2	.0244	.01
101	318.2	.0191	.01
104	338.2	.0012	.01
201	338.2	.0046	.01
300	338.2	.0087	.01
402	338.2	.0156	.01
503	338.2	.0191	.01
600	338.2	.0247	.01
694	338.2	.0334	.01
902	338.2	.0412	.01
1091	338.2	.0507	.01
1267	338.2	.0629	.01
1448	338.2	.0745	.01
1606	338.2	.075	.01
1392	338.2	.0745	.01
1193	338.2	.0693	.01
996	338.2	.0606	.01
797	338.2	.052	.01
598	338.2	.0387	.01
498	338.2	.0325	.01
394	338.2	.0309	.01
301	338.2	.0229	.01
199	338.2	.0159	.01
100	338.2	.0081	.01
104	358.2	.0004	.01
205	358.2	.0024	.01
308	358.2	.0055	.01
400	358.2	.0084	.01
501	358.2	.0143	.01
600	358.2	.0169	.01
703	358.2	.0193	.01
898	358.2	.0268	.01
1100	358.2	.0379	.01
1298	358.2	.0409	.01
1500	358.2	.0492	.01
1636	358.2	.0504	.01
1401	358.2	.0514	.01
1201	358.2	.0483	.01
994	358.2	.0425	.01
799	358.2	.0333	.01
602	358.2	.0249	.01
500	358.2	.0208	.01
402	358.2	.0174	.01
299	358.2	.0136	.01
201	358.2	.01	.01
101	358.2	.0049	.01

System: carbon dioxide + 1-ethyl-3-methylimidazolium acetate + 1-ethyl-3-methylimidazolium ethyl sulfate; phases: Liquid, Gas
Property: Mole fraction of carbon dioxide (Liquid); method: magnetic suspension balance
Temperature, K	Pressure, kPa	Solvent: Mole fraction of 1-ethyl-3-methylimidazolium acetate	Mole fraction of carbon dioxide	uncertainty
298.2	100	0	.0034	.01
298.2	200	0	.0182	.01
298.2	310	0	.0231	.01
298.2	399	0	.0358	.01
298.2	505	0	.0409	.01
298.2	604	0	.0486	.01
298.2	698	0	.0561	.01
298.2	903	0	.0737	.01
298.2	1098	0	.0903	.01
298.2	1304	0	.1152	.01
298.2	1487	0	.1382	.01
298.2	1646	0	.146	.01
298.2	1405	0	.1447	.01
298.2	1202	0	.1396	.01
298.2	982	0	.1182	.01
298.2	803	0	.1019	.01
298.2	608	0	.0839	.01
298.2	500	0	.0757	.01
298.2	400	0	.0662	.01
298.2	300	0	.0546	.01
298.2	201	0	.0415	.01
298.2	102	0	.0359	.01
298.2	99	.2516	.079	.01
298.2	203	.2516	.1042	.01
298.2	302	.2516	.1168	.01
298.2	404	.2516	.1294	.01
298.2	500	.2516	.136	.01
298.2	599	.2516	.1524	.01
298.2	697	.2516	.1619	.01
298.2	895	.2516	.1811	.01
298.2	1098	.2516	.197	.01
298.2	1295	.2516	.2141	.01
298.2	1504	.2516	.2283	.01
298.2	1602	.2516	.2402	.01
298.2	1397	.2516	.2399	.01
298.2	1203	.2516	.2264	.01
298.2	1004	.2516	.2104	.01
298.2	801	.2516	.1957	.01
298.2	603	.2516	.1802	.01
298.2	500	.2516	.1706	.01
298.2	402	.2516	.1545	.01
298.2	297	.2516	.1498	.01
298.2	200	.2516	.1424	.01
298.2	102	.2516	.1251	.01
298.2	98	.4919	.1344	.01
298.2	198	.4919	.164	.01
298.2	291	.4919	.1821	.01
298.2	393	.4919	.1936	.01
298.2	491	.4919	.2035	.01
298.2	600	.4919	.2093	.01
298.2	674	.4919	.2244	.01
298.2	871	.4919	.2404	.01
298.2	1089	.4919	.254	.01
298.2	1246	.4919	.2711	.01
298.2	1439	.4919	.2862	.01
298.2	1602	.4919	.2971	.01
298.2	1304	.4919	.2857	.01
298.2	1198	.4919	.2839	.01
298.2	978	.4919	.268	.01
298.2	790	.4919	.2607	.01
298.2	570	.4919	.2351	.01
298.2	497	.4919	.2285	.01
298.2	398	.4919	.2231	.01
298.2	298	.4919	.2083	.01
298.2	201	.4919	.1988	.01
298.2	104	.4919	.1899	.01
298.2	98	.7503	.1956	.01
298.2	199	.7503	.2174	.01
298.2	303	.7503	.2356	.01
298.2	406	.7503	.2485	.01
298.2	500	.7503	.2538	.01
298.2	598	.7503	.2673	.01
298.2	705	.7503	.2794	.01
298.2	896	.7503	.2952	.01
298.2	1098	.7503	.3074	.01
298.2	1290	.7503	.32	.01
298.2	1503	.7503	.3369	.01
298.2	1639	.7503	.3456	.01
298.2	1398	.7503	.3427	.01
298.2	1210	.7503	.3339	.01
298.2	1005	.7503	.3189	.01
298.2	806	.7503	.3135	.01
298.2	600	.7503	.2912	.01
298.2	501	.7503	.2826	.01
298.2	399	.7503	.2791	.01
298.2	299	.7503	.2673	.01
298.2	200	.7503	.265	.01
298.2	105	.7503	.2494	.01
298.2	94	1	.2606	.01
298.2	200	1	.2916	.01
298.2	296	1	.3075	.01
298.2	400	1	.3213	.01
298.2	500	1	.3284	.01
298.2	604	1	.3255	.01
298.2	702	1	.3273	.01
298.2	904	1	.3308	.01
298.2	1104	1	.3347	.01
298.2	1289	1	.3391	.01
298.2	1486	1	.3432	.01
298.2	1639	1	.3396	.01
298.2	1403	1	.3468	.01
298.2	1200	1	.3433	.01
298.2	1003	1	.3397	.01
298.2	801	1	.3362	.01
298.2	600	1	.3324	.01
298.2	498	1	.3303	.01
298.2	400	1	.3281	.01
298.2	299	1	.3258	.01
298.2	203	1	.3228	.01
298.2	102	1	.3184	.01
358.2	104	0	.0004	.01
358.2	205	0	.0024	.01
358.2	308	0	.0055	.01
358.2	400	0	.0084	.01
358.2	501	0	.0143	.01
358.2	600	0	.0169	.01
358.2	703	0	.0193	.01
358.2	898	0	.0268	.01
358.2	1100	0	.0379	.01
358.2	1298	0	.0409	.01
358.2	1500	0	.0492	.01
358.2	1636	0	.0504	.01
358.2	1401	0	.0514	.01
358.2	1201	0	.0483	.01
358.2	994	0	.0425	.01
358.2	799	0	.0333	.01
358.2	602	0	.0249	.01
358.2	500	0	.0208	.01
358.2	402	0	.0174	.01
358.2	299	0	.0136	.01
358.2	201	0	.01	.01
358.2	101	0	.0049	.01
358.2	106	.2516	.0397	.01
358.2	206	.2516	.056	.01
358.2	301	.2516	.0669	.01
358.2	401	.2516	.0771	.01
358.2	502	.2516	.0836	.01
358.2	599	.2516	.0892	.01
358.2	702	.2516	.0981	.01
358.2	902	.2516	.1042	.01
358.2	1093	.2516	.1164	.01
358.2	1298	.2516	.1258	.01
358.2	1500	.2516	.1368	.01
358.2	1637	.2516	.138	.01
358.2	1401	.2516	.1341	.01
358.2	1198	.2516	.126	.01
358.2	997	.2516	.1173	.01
358.2	799	.2516	.1086	.01
358.2	602	.2516	.0984	.01
358.2	500	.2516	.0917	.01
358.2	402	.2516	.0868	.01
358.2	299	.2516	.0801	.01
358.2	199	.2516	.0694	.01
358.2	102	.2516	.0591	.01
358.2	101	.4919	.0835	.01
358.2	202	.4919	.1071	.01
358.2	304	.4919	.1212	.01
358.2	402	.4919	.1309	.01
358.2	503	.4919	.14	.01
358.2	599	.4919	.1479	.01
358.2	703	.4919	.1545	.01
358.2	898	.4919	.1653	.01
358.2	1095	.4919	.1753	.01
358.2	1302	.4919	.185	.01
358.2	1493	.4919	.1941	.01
358.2	1648	.4919	.1996	.01
358.2	1399	.4919	.1981	.01
358.2	1203	.4919	.1882	.01
358.2	999	.4919	.1784	.01
358.2	801	.4919	.1692	.01
358.2	600	.4919	.1588	.01
358.2	498	.4919	.1505	.01
358.2	392	.4919	.1404	.01
358.2	298	.4919	.1311	.01
358.2	199	.4919	.1222	.01
358.2	104	.4919	.1023	.01
358.2	100	.7503	.0952	.01
358.2	199	.7503	.1263	.01
358.2	308	.7503	.1439	.01
358.2	407	.7503	.1539	.01
358.2	502	.7503	.1635	.01
358.2	603	.7503	.1726	.01
358.2	703	.7503	.1793	.01
358.2	897	.7503	.1915	.01
358.2	1105	.7503	.2028	.01
358.2	1294	.7503	.2128	.01
358.2	1500	.7503	.2201	.01
358.2	1614	.7503	.2251	.01
358.2	1400	.7503	.2233	.01
358.2	1194	.7503	.2145	.01
358.2	1004	.7503	.2061	.01
358.2	802	.7503	.2004	.01
358.2	595	.7503	.1833	.01
358.2	502	.7503	.1776	.01
358.2	400	.7503	.1678	.01
358.2	300	.7503	.1557	.01
358.2	200	.7503	.1431	.01
358.2	104	.7503	.1257	.01
358.2	98	1	.1624	.01
358.2	196	1	.2006	.01
358.2	311	1	.2218	.01
358.2	400	1	.2325	.01
358.2	501	1	.2448	.01
358.2	597	1	.2528	.01
358.2	702	1	.2591	.01
358.2	910	1	.272	.01
358.2	1102	1	.2832	.01
358.2	1301	1	.2922	.01
358.2	1498	1	.3002	.01
358.2	1630	1	.305	.01
358.2	1399	1	.3027	.01
358.2	1197	1	.2954	.01
358.2	1004	1	.2896	.01
358.2	795	1	.2771	.01
358.2	600	1	.2654	.01
358.2	500	1	.2625	.01
358.2	404	1	.2518	.01
358.2	298	1	.2395	.01
358.2	201	1	.2309	.01
358.2	106	1	.2046	.01

System: 1-ethyl-3-methylimidazolium acetate + 1-ethyl-3-methylimidazolium ethyl sulfate; phases: Liquid
Fixed: Pressure, kPa = 101
Property: Mass density, kg/m3 (Liquid); method: Vibrating tube method
Temperature, K	Mole fraction of 1-ethyl-3-methylimidazolium acetate	Mass density, kg/m3	uncertainty
298.15	0	1238.68	.05
298.15	.0993	1226.62	.05
298.15	.2011	1214.23	.05
298.15	.2973	1202.11	.05
298.15	.3917	1189.85	.05
298.15	.5069	1174.26	.05
298.15	.5988	1161.36	.05
298.15	.705	1145.81	.05
298.15	.8012	1131.13	.05
298.15	.9007	1115.5	.05
298.15	1	1099.04	.05
308.15	0	1231.92	.05
308.15	.0993	1219.9	.05
308.15	.2011	1207.5	.05
308.15	.2973	1195.48	.05
308.15	.3917	1183.26	.05
308.15	.5069	1167.73	.05
308.15	.5988	1154.86	.05
308.15	.705	1139.5	.05
308.15	.8012	1124.87	.05
308.15	.9007	1109.3	.05
308.15	1	1092.95	.05
318.15	0	1225.2	.05
318.15	.0993	1213.21	.05
318.15	.2011	1200.9	.05
318.15	.2973	1188.92	.05
318.15	.3917	1176.76	.05
318.15	.5069	1161.31	.05
318.15	.5988	1148.5	.05
318.15	.705	1133.15	.05
318.15	.8012	1118.65	.05
318.15	.9007	1103.14	.05
318.15	1	1086.88	.05
328.15	0	1218.51	.05
328.15	.0993	1206.59	.05
328.15	.2011	1194.33	.05
328.15	.2973	1182.38	.05
328.15	.3917	1170.26	.05
328.15	.5069	1154.88	.05
328.15	.5988	1142.13	.05
328.15	.705	1126.87	.05
328.15	.8012	1112.55	.05
328.15	.9007	1097.01	.05
328.15	1	1080.86	.05
338.15	0	1211.88	.05
338.15	.0993	1200.01	.05
338.15	.2011	1187.79	.05
338.15	.2973	1175.91	.05
338.15	.3917	1163.85	.05
338.15	.5069	1148.54	.05
338.15	.5988	1135.86	.05
338.15	.705	1120.68	.05
338.15	.8012	1106.35	.05
338.15	.9007	1090.93	.05
338.15	1	1074.86	.05
348.15	0	1208.19	1
348.15	.0993	1196.34	1
348.15	.2011	1184.12	1
348.15	.2973	1172.27	1
348.15	.3917	1160.23	1
348.15	.5069	1144.94	1
348.15	.5988	1132.29	1
348.15	.705	1117.12	1
348.15	.8012	1102.78	1
348.15	.9007	1087.39	1
348.15	1	1071.37	1
358.15	0	1198.75	.05
358.15	.0993	1187	.05
358.15	.2011	1174.89	.05
358.15	.2973	1163.13	.05
358.15	.3917	1151.18	.05
358.15	.5069	1136.03	.05
358.15	.5988	1123.47	.05
358.15	.705	1108.41	.05
358.15	.8012	1094.15	.05
358.15	.9007	1078.94	.05
358.15	1	1063.03	.05

System: 1-ethyl-3-methylimidazolium acetate + 1-ethyl-3-methylimidazolium ethyl sulfate; phases: Liquid
Fixed: Pressure, kPa = 101
Property: Viscosity, Pa*s (Liquid); method: Capillary tube (Ostwald; Ubbelohde) method
Temperature, K	Mole fraction of 1-ethyl-3-methylimidazolium acetate	Viscosity, Pa*s	uncertainty
298.15	0	.09662	.0009662
298.15	.0993	.0972	.000972
298.15	.2011	.09993	.0009993
298.15	.2973	.1018	.001018
298.15	.3917	.1052	.001052
298.15	.5069	.1101	.001101
298.15	.5988	.1141	.001141
298.15	.705	.1201	.001201
298.15	.8012	.1258	.001258
298.15	.9007	.131	.00131
298.15	1	.1384	.001384
308.15	0	.06041	.0006041
308.15	.0993	.06111	.0006111
308.15	.2011	.06127	.0006127
308.15	.2973	.06235	.0006235
308.15	.3917	.06363	.0006363
308.15	.5069	.06547	.0006547
308.15	.5988	.06699	.0006699
308.15	.705	.06907	.0006907
308.15	.8012	.07101	.0007101
308.15	.9007	.0734	.000734
308.15	1	.0761	.000761
318.15	0	.03995	.0003995
318.15	.0993	.04047	.0004047
318.15	.2011	.04105	.0004105
318.15	.2973	.04159	.0004159
318.15	.3917	.04212	.0004212
318.15	.5069	.04177	.0004177
318.15	.5988	.0433	.000433
318.15	.705	.04393	.0004393
318.15	.8012	.04455	.0004455
318.15	.9007	.04524	.0004524
318.15	1	.0459	.000459
328.15	0	.02891	.0002891
328.15	.0993	.02906	.0002906
328.15	.2011	.02919	.0002919
328.15	.2973	.02932	.0002932
328.15	.3917	.02944	.0002944
328.15	.5069	.02958	.0002958
328.15	.5988	.02969	.0002969
328.15	.705	.02981	.0002981
328.15	.8012	.02991	.0002991
328.15	.9007	.03	.0003
328.15	1	.0301	.000301
338.15	0	.02063	.0002063
338.15	.0993	.0207	.000207
338.15	.2011	.02078	.0002078
338.15	.2973	.02084	.0002084
338.15	.3917	.02089	.0002089
338.15	.5069	.02092	.0002092
338.15	.5988	.02092	.0002092
338.15	.705	.02089	.0002089
338.15	.8012	.02086	.0002086
338.15	.9007	.02084	.0002084
338.15	1	.0208	.000208
348.15	0	.01566	.0001566
348.15	.0993	.01563	.0001563
348.15	.2011	.01558	.0001558
348.15	.2973	.0155	.000155
348.15	.3917	.01539	.0001539
348.15	.5069	.01524	.0001524
348.15	.5988	.0151	.000151
348.15	.705	.01491	.0001491
348.15	.8012	.01472	.0001472
348.15	.9007	.01451	.0001451
348.15	1	.01428	.0001428
358.15	0	.01223	.0001223
358.15	.0993	.01257	.0001257
358.15	.2011	.0128	.000128
358.15	.2973	.01295	.0001295
358.15	.3917	.01293	.0001293
358.15	.5069	.0129	.000129
358.15	.5988	.01281	.0001281
358.15	.705	.0127	.000127
358.15	.8012	.01247	.0001247
358.15	.9007	.01217	.0001217
358.15	1	.01153	.0001153
