Measured thermophysical data. Physicochemical properties of green solvent 1-ethyl-3- methylimidazolium tetrafluoroborate with aniline from T = (293.15 to 323.15) K at atmospheric pressure
Source: J. Chem. Thermodyn., 2017, 10.1016/j.jct.2016.09.028
Compound 1: 1-ethyl-3-methylimidazolium tetrafluoroborate, C6H11BF4N2, purity 98%
Compound 2: aniline, C6H7N, purity 99%

System: 1-ethyl-3-methylimidazolium tetrafluoroborate; phases: Liquid
Property: Mass density, kg/m3 (Liquid); method: Vibrating tube method
Temperature, K	Pressure, kPa	Mass density, kg/m3	uncertainty
293.15	100	1283.64	
303.15	100	1276.12	
313.15	100	1268.57	
323.15	100	1261.04	

System: 1-ethyl-3-methylimidazolium tetrafluoroborate; phases: Liquid
Fixed: Frequency, MHz = 3
Property: Speed of sound, m/s (Liquid); method: Sing-around technique in a fixed-path interferometer
Temperature, K	Pressure, kPa	Speed of sound, m/s	uncertainty
293.15	100	1632.57	
303.15	100	1609.49	
313.15	100	1586.19	
323.15	100	1563.38	

System: aniline + 1-ethyl-3-methylimidazolium tetrafluoroborate; phases: Liquid
Fixed: Pressure, kPa = 100
Property: Mass density, kg/m3 (Liquid); method: Vibrating tube method
Temperature, K	Mole fraction of 1-ethyl-3-methylimidazolium tetrafluoroborate	Mass density, kg/m3	uncertainty
293.15	0	1021.69	
293.15	.1008	1068.09	
293.15	.2035	1112.92	
293.15	.3059	1153.03	
293.15	.4053	1183.5	
293.15	.5073	1208.33	
293.15	.6013	1227.06	
293.15	.7046	1244.52	
293.15	.8067	1260.47	
293.15	.9059	1272.26	
293.15	1	1283.64	
303.15	0	1013.04	
303.15	.1008	1059.52	
303.15	.2035	1104.8	
303.15	.3059	1144.58	
303.15	.4053	1175.21	
303.15	.5073	1200.1	
303.15	.6013	1219.01	
303.15	.7046	1236.64	
303.15	.8067	1252.74	
303.15	.9059	1264.62	
303.15	1	1276.12	
313.15	0	1004.36	
313.15	.1008	1050.95	
313.15	.2035	1096.69	
313.15	.3059	1136.13	
313.15	.4053	1166.91	
313.15	.5073	1191.87	
313.15	.6013	1210.96	
313.15	.7046	1228.76	
313.15	.8067	1245.01	
313.15	.9059	1256.98	
313.15	1	1268.57	
323.15	0	995.66	
323.15	.1008	1042.39	
323.15	.2035	1088.57	
323.15	.3059	1127.68	
323.15	.4053	1158.62	
323.15	.5073	1183.64	
323.15	.6013	1202.91	
323.15	.7046	1220.88	
323.15	.8067	1237.28	
323.15	.9059	1249.34	
323.15	1	1261.04	

System: aniline + 1-ethyl-3-methylimidazolium tetrafluoroborate; phases: Liquid
Fixed: Pressure, kPa = 100
Fixed: Frequency, MHz = 3
Property: Speed of sound, m/s (Liquid); method: Sing-around technique in a fixed-path interferometer
Temperature, K	Mole fraction of 1-ethyl-3-methylimidazolium tetrafluoroborate	Speed of sound, m/s	uncertainty
293.15	0	1656.77	
293.15	.1008	1673.59	
293.15	.2035	1684.77	
293.15	.3059	1689.81	
293.15	.4053	1688.9	
293.15	.5073	1684.64	
293.15	.6013	1673.94	
293.15	.7046	1660.57	
293.15	.8067	1648.44	
293.15	.9059	1638.78	
293.15	1	1632.57	
303.15	0	1618.35	
303.15	.1008	1634.22	
303.15	.2035	1650.57	
303.15	.3059	1657.17	
303.15	.4053	1658.87	
303.15	.5073	1654.47	
303.15	.6013	1646.2	
303.15	.7046	1634.65	
303.15	.8067	1623.81	
303.15	.9059	1614.23	
303.15	1	1609.49	
313.15	0	1580.05	
313.15	.1008	1596.45	
313.15	.2035	1616.16	
313.15	.3059	1625.46	
313.15	.4053	1628.7	
313.15	.5073	1624.22	
313.15	.6013	1617.61	
313.15	.7046	1608.77	
313.15	.8067	1599.36	
313.15	.9059	1591.83	
313.15	1	1586.19	
323.15	0	1541.94	
323.15	.1008	1561.84	
323.15	.2035	1582.97	
323.15	.3059	1592.98	
323.15	.4053	1596.82	
323.15	.5073	1593.21	
323.15	.6013	1589.26	
323.15	.7046	1582.27	
323.15	.8067	1575.36	
323.15	.9059	1568.89	
323.15	1	1563.38	
