Measured thermophysical data. High temperature phase transition of mixed (PuO2 + ThO2) investigated by laser melting
Source: J. Chem. Thermodyn., 2015, 10.1016/j.jct.2014.10.006
Compound 1: plutonium dioxide, O2Pu
Compound 2: thorium dioxide, O2Th

System: thorium dioxide + plutonium dioxide; phases: Crystal, Liquid
Fixed: Pressure, kPa = 300
Property: Solid-liquid equilibrium temperature, K (Crystal); method: laser-pulse method
Mole fraction of thorium dioxide	Solid-liquid equilibrium temperature, K	uncertainty
.05	3008	45
.15	3050	49
.46	3208	55
.92	3551	68
.97	3592	67
