Measured thermophysical data. Isothermal (vapour + liquid) equilibria for binary mixtures of diisopropyl ether  with (methanol, or ethanol, or 1-butanol): Experimental data, correlations,  and predictions
Source: J. Chem. Thermodyn., 2013, 10.1016/j.jct.2012.11.005
Compound 1: cyclohexane, C6H12, purity 98%
Compound 2: methyl alcohol, CH4O, purity 99.5%
Compound 3: ethanol, C2H6O, purity 99.5%
Compound 4: n-butanol, C4H10O, purity 99.5%
Compound 5: ethane, 1-methyl-1-(1-methylethoxy)-, C6H14O, purity 99%

System: cyclohexane; phases: Liquid
Fixed: Pressure, kPa = 101.325
Property: Mass density, kg/m3 (Liquid); method: Vibrating tube method
Temperature, K	Mass density, kg/m3	uncertainty
293.15	778.414	.04

System: cyclohexane; phases: Liquid
Fixed: Pressure, kPa = 101.325
Property: Refractive index (Na D-line) (Liquid); method: Standard Abbe refractometry
Temperature, K	Refractive index (Na D-line)	uncertainty
293.15	1.42655	.0001

System: cyclohexane; phases: Liquid
Fixed: Pressure, kPa = 101.325
Property: Boiling temperature at pressure P, K (Liquid); method: Closed cell (Static) method
Pressure, kPa	Boiling temperature at pressure P, K	uncertainty

System: methyl alcohol; phases: Liquid
Fixed: Pressure, kPa = 101.325
Property: Mass density, kg/m3 (Liquid); method: Vibrating tube method
Temperature, K	Mass density, kg/m3	uncertainty
298.15	786.624	.04

System: methyl alcohol; phases: Liquid
Fixed: Pressure, kPa = 101.325
Property: Refractive index (Na D-line) (Liquid); method: Standard Abbe refractometry
Temperature, K	Refractive index (Na D-line)	uncertainty
293.15	1.32643	.0001

System: methyl alcohol; phases: Liquid
Fixed: Pressure, kPa = 101.325
Property: Boiling temperature at pressure P, K (Liquid); method: Closed cell (Static) method
Pressure, kPa	Boiling temperature at pressure P, K	uncertainty
19.97	301.37	.2
24.04	305.15	.2
29.98	309.56	.2
39.04	315.15	.2
50.01	320.72	.2
60.94	325.15	.2
69.96	328.57	.2
79.92	331.74	.2
89.99	334.73	.2
100	337.33	.2

System: ethanol; phases: Liquid
Fixed: Pressure, kPa = 101.325
Property: Mass density, kg/m3 (Liquid); method: Vibrating tube method
Temperature, K	Mass density, kg/m3	uncertainty
298.15	784.89	.04

System: ethanol; phases: Liquid
Fixed: Pressure, kPa = 101.325
Property: Refractive index (Na D-line) (Liquid); method: Standard Abbe refractometry
Temperature, K	Refractive index (Na D-line)	uncertainty
293.15	1.35929	.0001

System: ethanol; phases: Liquid
Fixed: Pressure, kPa = 101.325
Property: Boiling temperature at pressure P, K (Liquid); method: Closed cell (Static) method
Pressure, kPa	Boiling temperature at pressure P, K	uncertainty
17.99	313.15	.2
20	315.38	.2
29.6	323.15	.2
40	329.64	.2
47.01	333.15	.2
49.99	334.52	.2
59.93	338.66	.2
69.95	342.28	.2
79.91	345.48	.2
89.92	348.31	.2
100.07	351.05	.2

System: n-butanol; phases: Liquid
Fixed: Pressure, kPa = 101.325
Property: Mass density, kg/m3 (Liquid); method: Vibrating tube method
Temperature, K	Mass density, kg/m3	uncertainty
298.15	805.851	.04

System: n-butanol; phases: Liquid
Fixed: Pressure, kPa = 101.325
Property: Refractive index (Na D-line) (Liquid); method: Standard Abbe refractometry
Temperature, K	Refractive index (Na D-line)	uncertainty
293.15	1.39705	.0001

System: n-butanol; phases: Liquid
Fixed: Pressure, kPa = 101.325
Property: Boiling temperature at pressure P, K (Liquid); method: Closed cell (Static) method
Pressure, kPa	Boiling temperature at pressure P, K	uncertainty
1.79	308.15	.2
3.41	318.15	.2
6.18	328.15	.2
9.97	336.93	.2
10.61	338.15	.2
19.97	350.98	.2
29.98	360.02	.2
40.01	366.84	.2
50.01	372.22	.2
60	376.79	.2
69.96	380.79	.2
79.92	384.36	.2
89.99	387.52	.2
100	390.47	.2

System: ethane, 1-methyl-1-(1-methylethoxy)-; phases: Liquid
Fixed: Pressure, kPa = 101.325
Property: Mass density, kg/m3 (Liquid); method: Vibrating tube method
Temperature, K	Mass density, kg/m3	uncertainty
298.15	718.511	.04

System: ethane, 1-methyl-1-(1-methylethoxy)-; phases: Liquid
Fixed: Pressure, kPa = 101.325
Property: Refractive index (Na D-line) (Liquid); method: Standard Abbe refractometry
Temperature, K	Refractive index (Na D-line)	uncertainty
293.15	1.36547	.0001

System: ethanol + cyclohexane; phases: Liquid, Gas
Property: Vapor or sublimation pressure, kPa (Liquid); method: Ebulliometric method (Recirculating still)
Mole fraction of cyclohexane	Temperature, K	Vapor or sublimation pressure, kPa	uncertainty
.021	323.15	35.97	.2
.043	323.15	39.65	.2
.2	323.15	53.65	.2
.44	323.15	56.55	.2
.536	323.15	57.44	.2
.591	323.15	57.67	.2
.593	323.15	57.68	.2
.669	323.15	57.73	.2
.812	323.15	57.2	.2
.882	323.15	56.3	.2
.906	323.15	54.79	.2
.957	323.15	51.1	.2
.982	323.15	45.88	.2

System: ethanol + cyclohexane; phases: Gas, Liquid
Property: Mole fraction of cyclohexane (Gas); method: Chromatography
Mole fraction of cyclohexane	Temperature, K	Mole fraction of cyclohexane	uncertainty
.021	323.15	.16	.003
.043	323.15	.25	.003
.2	323.15	.509	.003
.44	323.15	.558	.003
.536	323.15	.57	.003
.591	323.15	.592	.003
.593	323.15	.595	.003
.669	323.15	.603	.003
.812	323.15	.621	.003
.882	323.15	.633	.003
.906	323.15	.649	.003
.957	323.15	.718	.003
.982	323.15	.824	.003

System: methyl alcohol + ethane, 1-methyl-1-(1-methylethoxy)-; phases: Liquid, Gas
Property: Vapor or sublimation pressure, kPa (Liquid); method: Ebulliometric method (Recirculating still)
Mole fraction of ethane, 1-methyl-1-(1-methylethoxy)-	Temperature, K	Vapor or sublimation pressure, kPa	uncertainty
.051	305.15	32.91	.2
.107	305.15	37.39	.2
.158	305.15	39.56	.2
.219	305.15	41.19	.2
.31	305.15	42.29	.2
.396	305.15	42.36	.2
.468	305.15	42.43	.2
.527	305.15	42.45	.2
.539	305.15	42.47	.2
.546	305.15	42.49	.2
.571	305.15	42.53	.2
.632	305.15	42.33	.2
.759	305.15	41.95	.2
.829	305.15	41.15	.2
.881	305.15	39.75	.2
.946	305.15	35.51	.2
.011	315.15	43.91	.2
.037	315.15	49.39	.2
.071	315.15	54.56	.2
.109	315.15	58.19	.2
.2	315.15	62.06	.2
.326	315.15	64.53	.2
.458	315.15	65.62	.2
.507	315.15	65.37	.2
.519	315.15	65.57	.2
.526	315.15	65.68	.2
.587	315.15	64.86	.2
.706	315.15	64.52	.2
.779	315.15	63.96	.2
.859	315.15	61.45	.2
.898	315.15	58.76	.2
.945	315.15	52.51	.2
.021	325.15	68.86	.2
.045	325.15	75.89	.2
.079	325.15	82.85	.2
.159	325.15	90.96	.2
.3	325.15	96.47	.2
.459	325.15	96.87	.2
.488	325.15	96.83	.2
.501	325.15	96.84	.2
.504	325.15	96.85	.2
.549	325.15	96.94	.2
.627	325.15	96.84	.2
.689	325.15	96.76	.2
.742	325.15	95.75	.2
.809	325.15	93.67	.2
.901	325.15	86.87	.2
.957	325.15	76.95	.2

System: methyl alcohol + ethane, 1-methyl-1-(1-methylethoxy)-; phases: Gas, Liquid
Property: Mole fraction of ethane, 1-methyl-1-(1-methylethoxy)- (Gas); method: Chromatography
Mole fraction of ethane, 1-methyl-1-(1-methylethoxy)-	Temperature, K	Mole fraction of ethane, 1-methyl-1-(1-methylethoxy)-	uncertainty
.051	305.15	.302	.003
.107	305.15	.41	.003
.158	305.15	.459	.003
.219	305.15	.495	.003
.31	305.15	.537	.003
.396	305.15	.545	.003
.468	305.15	.55	.003
.527	305.15	.553	.003
.539	305.15	.556	.003
.546	305.15	.561	.003
.571	305.15	.565	.003
.632	305.15	.548	.003
.759	305.15	.567	.003
.829	305.15	.587	.003
.881	305.15	.619	.003
.946	305.15	.723	.003
.011	315.15	.122	.003
.037	315.15	.24	.003
.071	315.15	.336	.003
.109	315.15	.391	.003
.2	315.15	.453	.003
.326	315.15	.489	.003
.458	315.15	.51	.003
.507	315.15	.513	.003
.519	315.15	.516	.003
.526	315.15	.518	.003
.587	315.15	.525	.003
.706	315.15	.541	.003
.779	315.15	.558	.003
.859	315.15	.597	.003
.898	315.15	.629	.003
.945	315.15	.722	.003
.021	325.15	.126	.003
.045	325.15	.229	.003
.079	325.15	.32	.003
.159	325.15	.409	.003
.3	325.15	.471	.003
.459	325.15	.49	.003
.488	325.15	.495	.003
.501	325.15	.5	.003
.504	325.15	.509	.003
.549	325.15	.513	.003
.627	325.15	.515	.003
.689	325.15	.516	.003
.742	325.15	.536	.003
.809	325.15	.56	.003
.901	325.15	.627	.003
.957	325.15	.728	.003

System: ethanol + ethane, 1-methyl-1-(1-methylethoxy)-; phases: Liquid, Gas
Property: Vapor or sublimation pressure, kPa (Liquid); method: Ebulliometric method (Recirculating still)
Mole fraction of ethane, 1-methyl-1-(1-methylethoxy)-	Temperature, K	Vapor or sublimation pressure, kPa	uncertainty
.063	313.15	26.73	.2
.125	313.15	31.97	.2
.179	313.15	34.9	.2
.223	313.15	36.78	.2
.273	313.15	38.37	.2
.34	313.15	40.06	.2
.42	313.15	41.1	.2
.651	313.15	42.19	.2
.714	313.15	42.22	.2
.726	313.15	42.45	.2
.895	313.15	41.76	.2
.086	323.15	44.39	.2
.168	323.15	52.56	.2
.259	323.15	57.19	.2
.345	323.15	59.95	.2
.416	323.15	61.26	.2
.568	323.15	62.56	.2
.696	323.15	63.64	.2
.706	323.15	63.52	.2
.779	323.15	63.46	.2
.881	323.15	61.96	.2
.945	323.15	59.51	.2
.064	333.15	63.85	.2
.125	333.15	72.89	.2
.235	333.15	83.06	.2
.3	333.15	87.47	.2
.379	333.15	89.96	.2
.521	333.15	91.68	.2
.671	333.15	92.73	.2
.684	333.15	92.75	.2
.81	333.15	92.67	.2
.886	333.15	89.87	.2
.937	333.15	85.95	.2

System: ethanol + ethane, 1-methyl-1-(1-methylethoxy)-; phases: Gas, Liquid
Property: Mole fraction of ethane, 1-methyl-1-(1-methylethoxy)- (Gas); method: Chromatography
Mole fraction of ethane, 1-methyl-1-(1-methylethoxy)-	Temperature, K	Mole fraction of ethane, 1-methyl-1-(1-methylethoxy)-	uncertainty
.063	313.15	.359	.003
.125	313.15	.48	.003
.179	313.15	.546	.003
.223	313.15	.585	.003
.273	313.15	.611	.003
.34	313.15	.64	.003
.42	313.15	.663	.003
.651	313.15	.691	.003
.714	313.15	.714	.003
.726	313.15	.726	.003
.895	313.15	.821	.003
.086	323.15	.367	.003
.168	323.15	.499	.003
.259	323.15	.567	.003
.345	323.15	.605	.003
.416	323.15	.625	.003
.568	323.15	.654	.003
.696	323.15	.698	.003
.706	323.15	.717	.003
.779	323.15	.728	.003
.881	323.15	.789	.003
.945	323.15	.862	.003
.064	333.15	.296	.003
.125	333.15	.405	.003
.235	333.15	.518	.003
.3	333.15	.564	.003
.379	333.15	.599	.003
.521	333.15	.623	.003
.671	333.15	.675	.003
.684	333.15	.686	.003
.81	333.15	.702	.003
.886	333.15	.767	.003
.937	333.15	.838	.003

System: n-butanol + ethane, 1-methyl-1-(1-methylethoxy)-; phases: Liquid, Gas
Property: Vapor or sublimation pressure, kPa (Liquid); method: Ebulliometric method (Recirculating still)
Mole fraction of ethane, 1-methyl-1-(1-methylethoxy)-	Temperature, K	Vapor or sublimation pressure, kPa	uncertainty
.042	318.15	9.94	.2
.101	318.15	14.86	.2
.258	318.15	26.27	.2
.394	318.15	31.76	.2
.415	318.15	32.74	.2
.447	318.15	33.66	.2
.63	318.15	37.93	.2
.701	318.15	39.06	.2
.895	318.15	42.89	.2
.039	338.15	21.95	.2
.131	338.15	37.05	.2
.201	338.15	46.46	.2
.039	338.15	21.95	.2
.131	338.15	37.05	.2
.201	338.15	46.46	.2
.345	338.15	60.64	.2
.38	338.15	63.26	.2
.472	338.15	68.96	.2
.543	338.15	72.57	.2
.581	338.15	74.26	.2
.721	338.15	80.19	.2
.945	338.15	88.91	.2

System: n-butanol + ethane, 1-methyl-1-(1-methylethoxy)-; phases: Gas, Liquid
Property: Mole fraction of ethane, 1-methyl-1-(1-methylethoxy)- (Gas); method: Chromatography
Mole fraction of ethane, 1-methyl-1-(1-methylethoxy)-	Temperature, K	Mole fraction of ethane, 1-methyl-1-(1-methylethoxy)-	uncertainty
.042	318.15	.62	.003
.101	318.15	.774	.003
.258	318.15	.885	.003
.394	318.15	.92	.003
.415	318.15	.923	.003
.447	318.15	.926	.003
.63	318.15	.946	.003
.701	318.15	.951	.003
.895	318.15	.973	.003
.039	338.15	.511	.003
.131	338.15	.743	.003
.201	338.15	.799	.003
.039	338.15	.511	.003
.131	338.15	.743	.003
.201	338.15	.799	.003
.345	338.15	.865	.003
.38	338.15	.875	.003
.472	338.15	.896	.003
.543	338.15	.907	.003
.581	338.15	.912	.003
.721	338.15	.932	.003
.945	338.15	.978	.003
