Measured thermophysical data. Ultrasonic and 31P NMR investigations of an acidic nuclear extractant with some monosubstituted benzenes
Source: J. Chem. Thermodyn., 2016, 10.1016/j.jct.2015.09.036
Compound 1: nitrobenzene, C6H5NO2, purity 99%
Compound 2: chlorobenzene, C6H5Cl, purity 99%
Compound 3: toluene, C7H8, purity 99%
Compound 4: bis(2-ethylhexyl) phosphate, C16H35O4P, purity 98%

System: nitrobenzene; phases: Liquid
Fixed: Frequency, MHz = 2
Property: Speed of sound, m/s (Liquid); method: Linear variable-path acoustic interferometer
Temperature, K	Pressure, kPa	Speed of sound, m/s	uncertainty
303.15	100	1445.6	.5

System: nitrobenzene; phases: Liquid
Property: Mass density, kg/m3 (Liquid); method: Pycnometric method
Temperature, K	Pressure, kPa	Mass density, kg/m3	uncertainty
303.15	100	1193.6	2

System: nitrobenzene; phases: Liquid
Property: Viscosity, Pa*s (Liquid); method: Capillary tube (Ostwald; Ubbelohde) method
Temperature, K	Pressure, kPa	Viscosity, Pa*s	uncertainty
303.15	100	.001611	.00003222

System: chlorobenzene; phases: Liquid
Fixed: Frequency, MHz = 2
Property: Speed of sound, m/s (Liquid); method: Linear variable-path acoustic interferometer
Temperature, K	Pressure, kPa	Speed of sound, m/s	uncertainty
303.15	100	1251.8	.5

System: chlorobenzene; phases: Liquid
Property: Mass density, kg/m3 (Liquid); method: Pycnometric method
Temperature, K	Pressure, kPa	Mass density, kg/m3	uncertainty
303.15	100	1095.2	2

System: chlorobenzene; phases: Liquid
Property: Viscosity, Pa*s (Liquid); method: Capillary tube (Ostwald; Ubbelohde) method
Temperature, K	Pressure, kPa	Viscosity, Pa*s	uncertainty
303.15	100	.000724	.00001448

System: toluene; phases: Liquid
Fixed: Frequency, MHz = 2
Property: Speed of sound, m/s (Liquid); method: Linear variable-path acoustic interferometer
Temperature, K	Pressure, kPa	Speed of sound, m/s	uncertainty
303.15	100	1282.6	.5

System: toluene; phases: Liquid
Property: Mass density, kg/m3 (Liquid); method: Pycnometric method
Temperature, K	Pressure, kPa	Mass density, kg/m3	uncertainty
303.15	100	856.2	2

System: toluene; phases: Liquid
Property: Viscosity, Pa*s (Liquid); method: Capillary tube (Ostwald; Ubbelohde) method
Temperature, K	Pressure, kPa	Viscosity, Pa*s	uncertainty
303.15	100	.000528	.00001056

System: bis(2-ethylhexyl) phosphate; phases: Liquid
Fixed: Frequency, MHz = 2
Property: Speed of sound, m/s (Liquid); method: Linear variable-path acoustic interferometer
Temperature, K	Pressure, kPa	Speed of sound, m/s	uncertainty
303.15	100	1293	.5

System: bis(2-ethylhexyl) phosphate; phases: Liquid
Property: Mass density, kg/m3 (Liquid); method: Pycnometric method
Temperature, K	Pressure, kPa	Mass density, kg/m3	uncertainty
303.15	100	961.3	2

System: bis(2-ethylhexyl) phosphate; phases: Liquid
Property: Viscosity, Pa*s (Liquid); method: Capillary tube (Ostwald; Ubbelohde) method
Temperature, K	Pressure, kPa	Viscosity, Pa*s	uncertainty
303.15	100	.019288	.00038576

System: nitrobenzene + bis(2-ethylhexyl) phosphate; phases: Liquid
Fixed: Temperature, K = 303.15
Fixed: Pressure, kPa = 100
Fixed: Frequency, MHz = 2
Property: Speed of sound, m/s (Liquid); method: Linear variable-path acoustic interferometer
Mole fraction of bis(2-ethylhexyl) phosphate	Speed of sound, m/s	uncertainty
0	1445.6	.5
.0912	1429.5	.5
.1743	1415.6	.5
.2624	1401.5	.5
.3698	1385.2	.5
.4211	1377.5	.5
.4779	1369.1	.5
.5326	1361.1	.5
.6102	1349.8	.5
.6933	1337.6	.5
.7299	1332.2	.5
.7867	1323.9	.5
.8598	1313.2	.5
.9387	1301.9	.5
1	1293	.5

System: nitrobenzene + bis(2-ethylhexyl) phosphate; phases: Liquid
Fixed: Temperature, K = 303.15
Fixed: Pressure, kPa = 100
Property: Mass density, kg/m3 (Liquid); method: Pycnometric method
Mole fraction of bis(2-ethylhexyl) phosphate	Mass density, kg/m3	uncertainty
0	1193.6	2
.0912	1139	2
.1743	1104.1	2
.2624	1075.4	2
.3698	1048.6	2
.4211	1038.1	2
.4779	1027.1	2
.5326	1017.4	2
.6102	1004.6	2
.6933	992.8	2
.7299	988.1	2
.7867	981.4	2
.8598	973.6	2
.9387	966.2	2
1	961.3	2

System: nitrobenzene + bis(2-ethylhexyl) phosphate; phases: Liquid
Fixed: Temperature, K = 303.15
Fixed: Pressure, kPa = 100
Property: Viscosity, Pa*s (Liquid); method: Capillary tube (Ostwald; Ubbelohde) method
Mole fraction of bis(2-ethylhexyl) phosphate	Viscosity, Pa*s	uncertainty
0	.001611	.00003222
.0912	.002409	.00004818
.1743	.002925	.0000585
.2624	.003319	.00006638
.3698	.004274	.00008548
.4211	.004689	.00009378
.4779	.005585	.0001117
.5326	.006687	.00013374
.6102	.008662	.00017324
.6933	.010946	.00021892
.7299	.011911	.00023822
.7867	.013515	.0002703
.8598	.015508	.00031016
.9387	.017752	.00035504
1	.019288	.00038576

System: chlorobenzene + bis(2-ethylhexyl) phosphate; phases: Liquid
Fixed: Temperature, K = 303.15
Fixed: Pressure, kPa = 100
Fixed: Frequency, MHz = 2
Property: Speed of sound, m/s (Liquid); method: Linear variable-path acoustic interferometer
Mole fraction of bis(2-ethylhexyl) phosphate	Speed of sound, m/s	uncertainty
0	1251.8	.5
.0568	1253.2	.5
.1474	1255.5	.5
.2143	1257.7	.5
.3498	1262.8	.5
.4357	1266.4	.5
.4788	1268.4	.5
.5322	1270.8	.5
.6285	1275.4	.5
.7146	1279.5	.5
.7704	1282.2	.5
.8433	1285.7	.5
.8789	1287.3	.5
.9501	1290.8	.5
1	1293	.5

System: chlorobenzene + bis(2-ethylhexyl) phosphate; phases: Liquid
Fixed: Temperature, K = 303.15
Fixed: Pressure, kPa = 100
Property: Mass density, kg/m3 (Liquid); method: Pycnometric method
Mole fraction of bis(2-ethylhexyl) phosphate	Mass density, kg/m3	uncertainty
0	1095.2	2
.0568	1075.2	2
.1474	1051.9	2
.2143	1038.4	2
.3498	1017.9	2
.4357	1007.6	2
.4788	1002.9	2
.5322	997.1	2
.6285	987.8	2
.7146	980.4	2
.7704	975.8	2
.8433	970.4	2
.8789	968	2
.9501	963.8	2
1	961.3	2

System: chlorobenzene + bis(2-ethylhexyl) phosphate; phases: Liquid
Fixed: Temperature, K = 303.15
Fixed: Pressure, kPa = 100
Property: Viscosity, Pa*s (Liquid); method: Capillary tube (Ostwald; Ubbelohde) method
Mole fraction of bis(2-ethylhexyl) phosphate	Viscosity, Pa*s	uncertainty
0	.000724	.00001448
.0568	.000917	.00001834
.1474	.001535	.0000307
.2143	.001859	.00003718
.3498	.002804	.00005608
.4357	.003777	.00007554
.4788	.004502	.00009004
.5322	.005526	.00011052
.6285	.007879	.00015758
.7146	.010486	.00020972
.7704	.012208	.00024416
.8433	.014558	.00029116
.8789	.015859	.00031718
.9501	.017844	.00035688
1	.019288	.00038576

System: toluene + bis(2-ethylhexyl) phosphate; phases: Liquid
Fixed: Temperature, K = 303.15
Fixed: Pressure, kPa = 100
Fixed: Frequency, MHz = 2
Property: Speed of sound, m/s (Liquid); method: Linear variable-path acoustic interferometer
Mole fraction of bis(2-ethylhexyl) phosphate	Speed of sound, m/s	uncertainty
0	1282.6	.5
.0896	1283.7	.5
.1624	1284.5	.5
.2077	1285.1	.5
.2898	1286	.5
.3279	1286.6	.5
.4205	1287.4	.5
.5082	1288.2	.5
.5903	1289	.5
.6814	1289.9	.5
.7388	1290.5	.5
.8105	1291.2	.5
.8876	1291.9	.5
.9427	1292.5	.5
1	1293	.5

System: toluene + bis(2-ethylhexyl) phosphate; phases: Liquid
Fixed: Temperature, K = 303.15
Fixed: Pressure, kPa = 100
Property: Mass density, kg/m3 (Liquid); method: Pycnometric method
Mole fraction of bis(2-ethylhexyl) phosphate	Mass density, kg/m3	uncertainty
0	856.2	2
.0896	884.9	2
.1624	902.1	2
.2077	910.5	2
.2898	923.1	2
.3279	928.8	2
.4205	937.6	2
.5082	944.5	2
.5903	949.3	2
.6814	953.3	2
.7388	955.2	2
.8105	957.1	2
.8876	958.8	2
.9427	960.1	2
1	961.3	2

System: toluene + bis(2-ethylhexyl) phosphate; phases: Liquid
Fixed: Temperature, K = 303.15
Fixed: Pressure, kPa = 100
Property: Viscosity, Pa*s (Liquid); method: Capillary tube (Ostwald; Ubbelohde) method
Mole fraction of bis(2-ethylhexyl) phosphate	Viscosity, Pa*s	uncertainty
0	.000528	.00001056
.0896	.000722	.00001444
.1624	.000907	.00001814
.2077	.001086	.00002172
.2898	.001576	.00003152
.3279	.001914	.00003828
.4205	.003098	.00006196
.5082	.004679	.00009358
.5903	.006432	.00012864
.6814	.008931	.00017862
.7388	.010843	.00021686
.8105	.013173	.00026346
.8876	.015678	.00031356
.9427	.017432	.00034864
1	.019288	.00038576
