Measured thermophysical data. Non-covalent interactions between {N,N'-bis[(2-pyridinyl)methylene]-1,2-benzenediamine]-bis(nitrato)}Cu(II) with pyridoxine hydrochloride in methanol at T = (298.15, 308.15 and 318.15) K
Source: J. Chem. Thermodyn., 2014, 10.1016/j.jct.2014.02.022
Compound 1: [N1,N2-bis[(2-pyridinyl-.kappa.N)methylene]-1,2-benzenediamine-.kappa.N1,.kappa.N2]bis(nitrato-.kappa.O)copper, C18H14CuN6O6
Compound 2: pyridoxine hydrochloride, C8H12ClNO3, purity 98.5%
Compound 3: methanol, CH4O, purity 99.8%

System: methanol; phases: Liquid
Property: Mass density, kg/m3 (Liquid); method: Vibrating tube method
Temperature, K	Pressure, kPa	Mass density, kg/m3	uncertainty
298.15	101	786.67	.5
308.15	101	777.18	.5
318.15	101	767.75	.5

System: methanol; phases: Liquid
Property: Viscosity, Pa*s (Liquid); method: Capillary tube (Ostwald; Ubbelohde) method
Temperature, K	Pressure, kPa	Viscosity, Pa*s	uncertainty
298.15	101	.000543	.00000543
308.15	101	.0004708	.000004708
318.15	101	.0004194	.000004194

System: pyridoxine hydrochloride + methanol; phases: Liquid
Fixed: Pressure, kPa = 101
Property: Mass density, kg/m3 (Liquid); method: Vibrating tube method
Temperature, K	Molality, mol/kg of pyridoxine hydrochloride	Mass density, kg/m3	uncertainty
298.15	0	786.67	.5
308.15	0	777.18	.5
318.15	0	767.75	.5
298.15	.0127	789.07	.5
308.15	.0127	778.65	.5
318.15	.0127	769.25	.5
298.15	.0254	789.94	.5
308.15	.0254	779.85	.5
318.15	.0254	770.18	.5
298.15	.0382	790.86	.5
308.15	.0382	780.83	.5
318.15	.0382	771.13	.5

System: pyridoxine hydrochloride + methanol; phases: Liquid
Fixed: Pressure, kPa = 101
Property: Viscosity, Pa*s (Liquid); method: Capillary tube (Ostwald; Ubbelohde) method
Temperature, K	Molality, mol/kg of pyridoxine hydrochloride	Viscosity, Pa*s	uncertainty
298.15	0	.000543	.00000543
308.15	0	.0004708	.000004708
318.15	0	.0004194	.000004194
298.15	.0127	.0005562	.000005562
308.15	.0127	.0004853	.000004853
318.15	.0127	.0004275	.000004275
298.15	.0254	.0005621	.000005621
308.15	.0254	.0004955	.000004955
318.15	.0254	.0004468	.000004468
298.15	.0382	.0005712	.000005712
308.15	.0382	.0005034	.000005034
318.15	.0382	.000464	.00000464

System: pyridoxine hydrochloride + methanol + [N1,N2-bis[(2-pyridinyl-.kappa.N)methylene]-1,2-benzenediamine-.kappa.N1,.kappa.N2]bis(nitrato-.kappa.O)copper; phases: Liquid
Fixed: Pressure, kPa = 101
Property: Mass density, kg/m3 (Liquid); method: Vibrating tube method
Temperature, K	Solvent: Molality, mol/kg of pyridoxine hydrochloride	Molality, mol/kg of [N1,N2-bis[(2-pyridinyl-.kappa.N)methylene]-1,2-benzenediamine-.kappa.N1,.kappa.N2]bis(nitrato-.kappa.O)copper	Mass density, kg/m3	uncertainty
298.15	.0127	.0051	789.94	.5
298.15	.0127	.0071	790.29	.5
298.15	.0127	.0102	790.87	.5
298.15	.0127	.0132	791.44	.5
298.15	.0127	.0163	792.04	.5
298.15	.0127	.0204	792.87	.5
308.15	.0127	.0051	779.53	.5
308.15	.0127	.0071	779.89	.5
308.15	.0127	.0102	780.46	.5
308.15	.0127	.0132	781.03	.5
308.15	.0127	.0163	781.64	.5
308.15	.0127	.0204	782.43	.5
318.15	.0127	.0051	770.13	.5
318.15	.0127	.0071	770.49	.5
318.15	.0127	.0102	771.06	.5
318.15	.0127	.0132	771.62	.5
318.15	.0127	.0163	772.21	.5
318.15	.0127	.0204	773	.5
298.15	.0254	.0051	790.81	.5
298.15	.0254	.0071	791.16	.5
298.15	.0254	.0102	791.74	.5
298.15	.0254	.0132	792.32	.5
298.15	.0254	.0163	792.94	.5
298.15	.0254	.0204	793.75	.5
308.15	.0254	.0051	780.73	.5
308.15	.0254	.0071	781.09	.5
308.15	.0254	.0102	781.66	.5
308.15	.0254	.0132	782.23	.5
308.15	.0254	.0163	782.85	.5
308.15	.0254	.0204	783.65	.5
318.15	.0254	.0051	771.06	.5
318.15	.0254	.0071	771.42	.5
318.15	.0254	.0102	772	.5
318.15	.0254	.0132	772.56	.5
318.15	.0254	.0163	773.16	.5
318.15	.0254	.0204	773.96	.5
298.15	.0382	.0051	791.73	.5
298.15	.0382	.0071	792.08	.5
298.15	.0382	.0101	792.65	.5
298.15	.0382	.0132	793.25	.5
298.15	.0382	.0162	793.85	.5
298.15	.0382	.0203	794.69	.5
308.15	.0382	.0051	781.71	.5
308.15	.0382	.0071	782.07	.5
308.15	.0382	.0101	782.63	.5
308.15	.0382	.0132	783.23	.5
308.15	.0382	.0162	783.82	.5
308.15	.0382	.0203	784.62	.5
318.15	.0382	.0051	772.01	.5
318.15	.0382	.0071	772.38	.5
318.15	.0382	.0101	772.94	.5
318.15	.0382	.0132	773.53	.5
318.15	.0382	.0162	774.12	.5
318.15	.0382	.0203	774.92	.5
298.15	0	.0051	787.54	.5
298.15	0	.0071	787.9	.5
298.15	0	.0102	788.47	.5
298.15	0	.0133	789.06	.5
298.15	0	.0163	789.64	.5
298.15	0	.0204	790.47	.5
308.15	0	.0051	778.06	.5
308.15	0	.0071	778.42	.5
308.15	0	.0102	778.99	.5
308.15	0	.0133	779.57	.5
308.15	0	.0163	780.15	.5
308.15	0	.0204	780.95	.5
318.15	0	.0051	768.64	.5
318.15	0	.0071	769	.5
318.15	0	.0102	769.57	.5
318.15	0	.0133	770.15	.5
318.15	0	.0163	770.73	.5
318.15	0	.0204	771.53	.5

System: pyridoxine hydrochloride + methanol + [N1,N2-bis[(2-pyridinyl-.kappa.N)methylene]-1,2-benzenediamine-.kappa.N1,.kappa.N2]bis(nitrato-.kappa.O)copper; phases: Liquid
Fixed: Pressure, kPa = 101
Property: Viscosity, Pa*s (Liquid); method: Capillary tube (Ostwald; Ubbelohde) method
Temperature, K	Solvent: Molality, mol/kg of pyridoxine hydrochloride	Molality, mol/kg of [N1,N2-bis[(2-pyridinyl-.kappa.N)methylene]-1,2-benzenediamine-.kappa.N1,.kappa.N2]bis(nitrato-.kappa.O)copper	Viscosity, Pa*s	uncertainty
298.15	.0127	.0051	.000561	.00000561
298.15	.0127	.0071	.0005666	.000005666
298.15	.0127	.0102	.0005743	.000005743
298.15	.0127	.0132	.0005821	.000005821
298.15	.0127	.0163	.000591	.00000591
298.15	.0127	.0204	.0006011	.000006011
308.15	.0127	.0051	.0004922	.000004922
308.15	.0127	.0071	.0004955	.000004955
308.15	.0127	.0102	.0005011	.000005011
308.15	.0127	.0132	.0005078	.000005078
308.15	.0127	.0163	.0005144	.000005144
308.15	.0127	.0204	.0005212	.000005212
318.15	.0127	.0051	.0004385	.000004385
318.15	.0127	.0071	.0004428	.000004428
318.15	.0127	.0102	.0004473	.000004473
318.15	.0127	.0132	.0004518	.000004518
318.15	.0127	.0163	.0004563	.000004563
318.15	.0127	.0204	.000461	.00000461
298.15	.0254	.0051	.000569	.00000569
298.15	.0254	.0071	.0005746	.000005746
298.15	.0254	.0102	.0005823	.000005823
298.15	.0254	.0132	.0005912	.000005912
298.15	.0254	.0163	.0006011	.000006011
298.15	.0254	.0204	.0006102	.000006102
308.15	.0254	.0051	.0005044	.000005044
308.15	.0254	.0071	.0005089	.000005089
308.15	.0254	.0102	.0005165	.000005165
308.15	.0254	.0132	.0005222	.000005222
308.15	.0254	.0163	.0005278	.000005278
308.15	.0254	.0204	.0005357	.000005357
318.15	.0254	.0051	.0004577	.000004577
318.15	.0254	.0071	.0004621	.000004621
318.15	.0254	.0102	.0004666	.000004666
318.15	.0254	.0132	.0004722	.000004722
318.15	.0254	.0163	.0004767	.000004767
318.15	.0254	.0204	.0004824	.000004824
298.15	.0382	.0051	.0005771	.000005771
298.15	.0382	.0071	.0005826	.000005826
298.15	.0382	.0101	.0005914	.000005914
298.15	.0382	.0132	.0006014	.000006014
298.15	.0382	.0162	.0006092	.000006092
298.15	.0382	.0203	.0006225	.000006225
308.15	.0382	.0051	.0005113	.000005113
308.15	.0382	.0071	.0005179	.000005179
308.15	.0382	.0101	.0005235	.000005235
308.15	.0382	.0132	.0005302	.000005302
308.15	.0382	.0162	.0005368	.000005368
308.15	.0382	.0203	.0005468	.000005468
318.15	.0382	.0051	.0004708	.000004708
318.15	.0382	.0071	.0004752	.000004752
318.15	.0382	.0101	.0004797	.000004797
318.15	.0382	.0132	.0004863	.000004863
318.15	.0382	.0162	.0004929	.000004929
318.15	.0382	.0203	.0004986	.000004986
298.15	0	.0051	.0005478	.000005478
298.15	0	.0071	.0005522	.000005522
298.15	0	.0102	.000559	.00000559
298.15	0	.0133	.0005667	.000005667
298.15	0	.0163	.0005755	.000005755
298.15	0	.0204	.0005856	.000005856
308.15	0	.0051	.0004755	.000004755
308.15	0	.0071	.0004789	.000004789
308.15	0	.0102	.0004855	.000004855
308.15	0	.0133	.0004901	.000004901
308.15	0	.0163	.0004967	.000004967
308.15	0	.0204	.0005035	.000005035
318.15	0	.0051	.0004282	.000004282
318.15	0	.0071	.0004316	.000004316
318.15	0	.0102	.000436	.00000436
318.15	0	.0133	.0004395	.000004395
318.15	0	.0163	.000444	.00000444
318.15	0	.0204	.0004497	.000004497

System: methanol + [N1,N2-bis[(2-pyridinyl-.kappa.N)methylene]-1,2-benzenediamine-.kappa.N1,.kappa.N2]bis(nitrato-.kappa.O)copper; phases: Liquid
Property: Mass density, kg/m3 (Liquid); method: Vibrating tube method
Temperature, K	Molality, mol/kg of [N1,N2-bis[(2-pyridinyl-.kappa.N)methylene]-1,2-benzenediamine-.kappa.N1,.kappa.N2]bis(nitrato-.kappa.O)copper	Pressure, kPa	Mass density, kg/m3	uncertainty
298.15	.0051	101	787.54	.5
298.15	.0071	101	787.9	.5
298.15	.0102	101	788.47	.5
298.15	.0133	101	789.06	.5
298.15	.0163	101	789.64	.5
298.15	.0204	101	790.47	.5
308.15	.0051	101	778.06	.5
308.15	.0071	101	778.42	.5
308.15	.0102	101	778.99	.5
308.15	.0133	101	779.57	.5
308.15	.0163	101	780.15	.5
308.15	.0204	101	780.95	.5
318.15	.0051	101	768.64	.5
318.15	.0071	101	769	.5
318.15	.0102	101	769.57	.5
318.15	.0133	101	770.15	.5
318.15	.0163	101	770.73	.5
318.15	.0204	101	771.53	.5

System: methanol + [N1,N2-bis[(2-pyridinyl-.kappa.N)methylene]-1,2-benzenediamine-.kappa.N1,.kappa.N2]bis(nitrato-.kappa.O)copper; phases: Liquid
Property: Viscosity, Pa*s (Liquid); method: Capillary tube (Ostwald; Ubbelohde) method
Temperature, K	Molality, mol/kg of [N1,N2-bis[(2-pyridinyl-.kappa.N)methylene]-1,2-benzenediamine-.kappa.N1,.kappa.N2]bis(nitrato-.kappa.O)copper	Pressure, kPa	Viscosity, Pa*s	uncertainty
298.15	.0051	101	.0005478	.000005478
298.15	.0071	101	.0005522	.000005522
298.15	.0102	101	.000559	.00000559
298.15	.0133	101	.0005667	.000005667
298.15	.0163	101	.0005755	.000005755
298.15	.0204	101	.0005856	.000005856
308.15	.0051	101	.0004755	.000004755
308.15	.0071	101	.0004789	.000004789
308.15	.0102	101	.0004855	.000004855
308.15	.0133	101	.0004901	.000004901
308.15	.0163	101	.0004967	.000004967
308.15	.0204	101	.0005035	.000005035
318.15	.0051	101	.0004282	.000004282
318.15	.0071	101	.0004316	.000004316
318.15	.0102	101	.000436	.00000436
318.15	.0133	101	.0004395	.000004395
318.15	.0163	101	.000444	.00000444
318.15	.0204	101	.0004497	.000004497
