Measured thermophysical data. The molar surface Gibbs energy and prediction of surface tension of [Cnpy][DCA] (n = 3,4,5)
Source: J. Chem. Thermodyn., 2016, 10.1016/j.jct.2015.11.023
Compound 1: 1-propylpyridinium dicyanamide, C10H12N4
Compound 2: 1-butylpyridinium dicyanamide, C11H14N4
Compound 3: 1-pentylpyridinium dicyanamide, C12H16N4
Compound 4: water, H2O

System: 1-propylpyridinium dicyanamide; phases: Liquid
Fixed: Pressure, kPa = 101.325
Property: Mass density, kg/m3 (Liquid); method: Vibrating tube method
Temperature, K	Mass density, kg/m3	uncertainty
303.15	1086.92	4
308.15	1083.79	4
313.15	1080.69	4
318.15	1077.6	4
323.15	1074.52	4
328.15	1071.46	4
333.15	1068.42	4
338.15	1065.4	4

System: 1-propylpyridinium dicyanamide; phases: Liquid, Air at 1 atmosphere
Property: Surface tension liquid-gas, N/m (Liquid); method: Maximal bubble pressure
Temperature, K	Surface tension liquid-gas, N/m	uncertainty
303.15	.0577	.0004
308.15	.0574	.0004
313.15	.057	.0004
318.15	.0567	.0004
323.15	.0564	.0004
328.15	.0561	.0004
333.15	.0557	.0004
338.15	.0554	.0004

System: 1-propylpyridinium dicyanamide; phases: Liquid
Fixed: Pressure, kPa = 101.325
Property: Refractive index (Na D-line) (Liquid); method: Standard Abbe refractometry
Temperature, K	Refractive index (Na D-line)	uncertainty
303.15	1.539	.006
308.15	1.5374	.006
313.15	1.5356	.006
318.15	1.5342	.006
323.15	1.5329	.006
328.15	1.5312	.006
333.15	1.5293	.006
338.15	1.5276	.006

System: 1-butylpyridinium dicyanamide; phases: Liquid
Fixed: Pressure, kPa = 101.325
Property: Mass density, kg/m3 (Liquid); method: Vibrating tube method
Temperature, K	Mass density, kg/m3	uncertainty
303.15	1065.76	2
308.15	1062.7	2
313.15	1059.66	2
318.15	1056.64	2
323.15	1053.63	2
328.15	1050.63	2
333.15	1047.66	2
338.15	1044.69	2

System: 1-butylpyridinium dicyanamide; phases: Liquid, Air at 1 atmosphere
Property: Surface tension liquid-gas, N/m (Liquid); method: Maximal bubble pressure
Temperature, K	Surface tension liquid-gas, N/m	uncertainty
303.15	.0555	.0003
308.15	.0552	.0003
313.15	.0549	.0003
318.15	.0545	.0003
323.15	.0542	.0003
328.15	.0539	.0003
333.15	.0536	.0003
338.15	.0534	.0003

System: 1-butylpyridinium dicyanamide; phases: Liquid
Fixed: Pressure, kPa = 101.325
Property: Refractive index (Na D-line) (Liquid); method: Standard Abbe refractometry
Temperature, K	Refractive index (Na D-line)	uncertainty
303.15	1.5325	.003
308.15	1.5309	.003
313.15	1.5285	.003
318.15	1.527	.003
323.15	1.5253	.003
328.15	1.5237	.003
333.15	1.5217	.003
338.15	1.5202	.003

System: 1-pentylpyridinium dicyanamide; phases: Liquid
Fixed: Pressure, kPa = 101.325
Property: Mass density, kg/m3 (Liquid); method: Vibrating tube method
Temperature, K	Mass density, kg/m3	uncertainty
303.15	1050.05	2
308.15	1047.03	2
313.15	1044.03	2
318.15	1041.04	2
323.15	1038.07	2
328.15	1035.11	2
333.15	1032.17	2
338.15	1029.24	2

System: 1-pentylpyridinium dicyanamide; phases: Liquid, Air at 1 atmosphere
Property: Surface tension liquid-gas, N/m (Liquid); method: Maximal bubble pressure
Temperature, K	Surface tension liquid-gas, N/m	uncertainty
303.15	.053	.0003
308.15	.0527	.0003
313.15	.0524	.0003
318.15	.0521	.0003
323.15	.0517	.0003
328.15	.0514	.0003
333.15	.0512	.0003
338.15	.051	.0003

System: 1-pentylpyridinium dicyanamide; phases: Liquid
Fixed: Pressure, kPa = 101.325
Property: Refractive index (Na D-line) (Liquid); method: Standard Abbe refractometry
Temperature, K	Refractive index (Na D-line)	uncertainty
303.15	1.5287	.003
308.15	1.5272	.003
313.15	1.5258	.003
318.15	1.5243	.003
323.15	1.523	.003
328.15	1.5212	.003
333.15	1.5194	.003
338.15	1.5179	.003

System: water + 1-propylpyridinium dicyanamide; phases: Liquid
Fixed: Pressure, kPa = 100
Property: Mass density, kg/m3 (Liquid); method: Vibrating tube method
Mass fraction of water	Temperature, K	Mass density, kg/m3	uncertainty
.00121	303.15	1086.72	4
.00121	308.15	1083.57	4
.00121	313.15	1080.46	4
.00121	318.15	1077.36	4
.00121	323.15	1074.29	4
.00121	328.15	1071.24	4
.00121	333.15	1068.17	4
.00121	338.15	1065.15	4
.00271	303.15	1086.48	4
.00271	308.15	1083.3	4
.00271	313.15	1080.2	4
.00271	318.15	1077.12	4
.00271	323.15	1074.02	4
.00271	328.15	1070.97	4
.00271	333.15	1067.92	4
.00271	338.15	1064.88	4
.00412	303.15	1086.25	4
.00412	308.15	1083.06	4
.00412	313.15	1079.95	4
.00412	318.15	1076.87	4
.00412	323.15	1073.79	4
.00412	328.15	1070.72	4
.00412	333.15	1067.67	4
.00412	338.15	1064.64	4
.00573	303.15	1085.98	4
.00573	308.15	1082.77	4
.00573	313.15	1079.65	4
.00573	318.15	1076.55	4
.00573	323.15	1073.46	4
.00573	328.15	1070.41	4
.00573	333.15	1067.34	4
.00573	338.15	1064.3	4
.00724	303.15	1085.74	4
.00724	308.15	1082.49	4
.00724	313.15	1079.36	4
.00724	318.15	1076.27	4
.00724	323.15	1073.19	4
.00724	328.15	1070.15	4
.00724	333.15	1067.04	4
.00724	338.15	1063.99	4

System: water + 1-propylpyridinium dicyanamide; phases: Liquid, Air at 1 atmosphere
Property: Surface tension liquid-gas, N/m (Liquid); method: Maximal bubble pressure
Mass fraction of water	Temperature, K	Surface tension liquid-gas, N/m	uncertainty
.00205	303.15	.0581	.0004
.00205	308.15	.0578	.0004
.00205	313.15	.0574	.0004
.00205	318.15	.0571	.0004
.00205	323.15	.0569	.0004
.00205	328.15	.0565	.0004
.00205	333.15	.0562	.0004
.00205	338.15	.0558	.0004
.0035	303.15	.0584	.0004
.0035	308.15	.0581	.0004
.0035	313.15	.0578	.0004
.0035	318.15	.0575	.0004
.0035	323.15	.0572	.0004
.0035	328.15	.0568	.0004
.0035	333.15	.0565	.0004
.0035	338.15	.0561	.0004
.005	303.15	.0587	.0004
.005	308.15	.0584	.0004
.005	313.15	.0581	.0004
.005	318.15	.0578	.0004
.005	323.15	.0575	.0004
.005	328.15	.0572	.0004
.005	333.15	.0569	.0004
.005	338.15	.0565	.0004
.00649	303.15	.059	.0004
.00649	308.15	.0587	.0004
.00649	313.15	.0584	.0004
.00649	318.15	.0581	.0004
.00649	323.15	.0578	.0004
.00649	328.15	.0575	.0004
.00649	333.15	.0572	.0004
.00649	338.15	.0568	.0004
.00802	303.15	.0593	.0004
.00802	308.15	.059	.0004
.00802	313.15	.0587	.0004
.00802	318.15	.0584	.0004
.00802	323.15	.0582	.0004
.00802	328.15	.0578	.0004
.00802	333.15	.0576	.0004
.00802	338.15	.0571	.0004

System: water + 1-propylpyridinium dicyanamide; phases: Liquid
Fixed: Pressure, kPa = 100
Property: Refractive index (Na D-line) (Liquid); method: Standard Abbe refractometry
Mass fraction of water	Temperature, K	Refractive index (Na D-line)	uncertainty
.00205	303.15	1.5386	.006
.00205	308.15	1.537	.006
.00205	313.15	1.5352	.006
.00205	318.15	1.5338	.006
.00205	323.15	1.5325	.006
.00205	328.15	1.5308	.006
.00205	333.15	1.529	.006
.00205	338.15	1.5273	.006
.00353	303.15	1.5384	.006
.00353	308.15	1.5368	.006
.00353	313.15	1.5349	.006
.00353	318.15	1.5335	.006
.00353	323.15	1.5322	.006
.00353	328.15	1.5306	.006
.00353	333.15	1.5288	.006
.00353	338.15	1.527	.006
.00496	303.15	1.5381	.006
.00496	308.15	1.5365	.006
.00496	313.15	1.5347	.006
.00496	318.15	1.5332	.006
.00496	323.15	1.5319	.006
.00496	328.15	1.5303	.006
.00496	333.15	1.5286	.006
.00496	338.15	1.5268	.006
.00639	303.15	1.5378	.006
.00639	308.15	1.5362	.006
.00639	313.15	1.5344	.006
.00639	318.15	1.5329	.006
.00639	323.15	1.5316	.006
.00639	328.15	1.5301	.006
.00639	333.15	1.5283	.006
.00639	338.15	1.5265	.006
.0079	303.15	1.5375	.006
.0079	308.15	1.5359	.006
.0079	313.15	1.5341	.006
.0079	318.15	1.5327	.006
.0079	323.15	1.5313	.006
.0079	328.15	1.5298	.006
.0079	333.15	1.5281	.006
.0079	338.15	1.5263	.006

System: water + 1-butylpyridinium dicyanamide; phases: Liquid
Fixed: Pressure, kPa = 100
Property: Mass density, kg/m3 (Liquid); method: Vibrating tube method
Mass fraction of water	Temperature, K	Mass density, kg/m3	uncertainty
.00123	303.15	1065.65	2
.00123	308.15	1062.58	2
.00123	313.15	1059.54	2
.00123	318.15	1056.51	2
.00123	323.15	1053.5	2
.00123	328.15	1050.5	2
.00123	333.15	1047.53	2
.00123	338.15	1044.55	2
.00269	303.15	1065.52	2
.00269	308.15	1062.45	2
.00269	313.15	1059.41	2
.00269	318.15	1056.38	2
.00269	323.15	1053.36	2
.00269	328.15	1050.36	2
.00269	333.15	1047.4	2
.00269	338.15	1044.42	2
.00417	303.15	1065.37	2
.00417	308.15	1062.32	2
.00417	313.15	1059.23	2
.00417	318.15	1056.24	2
.00417	323.15	1053.23	2
.00417	328.15	1050.22	2
.00417	333.15	1047.21	2
.00417	338.15	1044.27	2
.00567	303.15	1065.24	2
.00567	308.15	1062.16	2
.00567	313.15	1059.11	2
.00567	318.15	1056.07	2
.00567	323.15	1053.04	2
.00567	328.15	1050.05	2
.00567	333.15	1047.07	2
.00567	338.15	1044.09	2
.00714	303.15	1065.12	2
.00714	308.15	1062.04	2
.00714	313.15	1058.97	2
.00714	318.15	1055.94	2
.00714	323.15	1052.91	2
.00714	328.15	1049.92	2
.00714	333.15	1046.94	2
.00714	338.15	1043.94	2

System: water + 1-butylpyridinium dicyanamide; phases: Liquid, Air at 1 atmosphere
Property: Surface tension liquid-gas, N/m (Liquid); method: Maximal bubble pressure
Mass fraction of water	Temperature, K	Surface tension liquid-gas, N/m	uncertainty
.00176	303.15	.0558	.0003
.00176	308.15	.0555	.0003
.00176	313.15	.0552	.0003
.00176	318.15	.0549	.0003
.00176	323.15	.0546	.0003
.00176	328.15	.0543	.0003
.00176	333.15	.054	.0003
.00176	338.15	.0537	.0003
.0033	303.15	.0562	.0003
.0033	308.15	.0559	.0003
.0033	313.15	.0556	.0003
.0033	318.15	.0552	.0003
.0033	323.15	.0549	.0003
.0033	328.15	.0546	.0003
.0033	333.15	.0543	.0003
.0033	338.15	.054	.0003
.00478	303.15	.0565	.0003
.00478	308.15	.0562	.0003
.00478	313.15	.0559	.0003
.00478	318.15	.0555	.0003
.00478	323.15	.0552	.0003
.00478	328.15	.0549	.0003
.00478	333.15	.0546	.0003
.00478	338.15	.0543	.0003
.00628	303.15	.0568	.0003
.00628	308.15	.0565	.0003
.00628	313.15	.0562	.0003
.00628	318.15	.0558	.0003
.00628	323.15	.0555	.0003
.00628	328.15	.0552	.0003
.00628	333.15	.0549	.0003
.00628	338.15	.0545	.0003
.0078	303.15	.0571	.0003
.0078	308.15	.0568	.0003
.0078	313.15	.0565	.0003
.0078	318.15	.0562	.0003
.0078	323.15	.0558	.0003
.0078	328.15	.0555	.0003
.0078	333.15	.0552	.0003
.0078	338.15	.0548	.0003

System: water + 1-butylpyridinium dicyanamide; phases: Liquid
Fixed: Pressure, kPa = 100
Property: Refractive index (Na D-line) (Liquid); method: Standard Abbe refractometry
Mass fraction of water	Temperature, K	Refractive index (Na D-line)	uncertainty
.00176	303.15	1.5323	.003
.00176	308.15	1.5306	.003
.00176	313.15	1.5283	.003
.00176	318.15	1.5267	.003
.00176	323.15	1.525	.003
.00176	328.15	1.5234	.003
.00176	333.15	1.5214	.003
.00176	338.15	1.5199	.003
.00319	303.15	1.5321	.003
.00319	308.15	1.5303	.003
.00319	313.15	1.5281	.003
.00319	318.15	1.5265	.003
.00319	323.15	1.5248	.003
.00319	328.15	1.5232	.003
.00319	333.15	1.5212	.003
.00319	338.15	1.5197	.003
.00477	303.15	1.5319	.003
.00477	308.15	1.5301	.003
.00477	313.15	1.5279	.003
.00477	318.15	1.5262	.003
.00477	323.15	1.5245	.003
.00477	328.15	1.523	.003
.00477	333.15	1.5209	.003
.00477	338.15	1.5194	.003
.00627	303.15	1.5317	.003
.00627	308.15	1.5298	.003
.00627	313.15	1.5277	.003
.00627	318.15	1.526	.003
.00627	323.15	1.5243	.003
.00627	328.15	1.5227	.003
.00627	333.15	1.5207	.003
.00627	338.15	1.5192	.003
.0078	303.15	1.5315	.003
.0078	308.15	1.5296	.003
.0078	313.15	1.5275	.003
.0078	318.15	1.5258	.003
.0078	323.15	1.5241	.003
.0078	328.15	1.5225	.003
.0078	333.15	1.5204	.003
.0078	338.15	1.5189	.003

System: water + 1-pentylpyridinium dicyanamide; phases: Liquid
Fixed: Pressure, kPa = 100
Property: Mass density, kg/m3 (Liquid); method: Vibrating tube method
Mass fraction of water	Temperature, K	Mass density, kg/m3	uncertainty
.00124	303.15	1049.94	2
.00124	308.15	1046.92	2
.00124	313.15	1043.92	2
.00124	318.15	1040.93	2
.00124	323.15	1037.95	2
.00124	328.15	1034.99	2
.00124	333.15	1032.05	2
.00124	338.15	1029.11	2
.00269	303.15	1049.85	2
.00269	308.15	1046.83	2
.00269	313.15	1043.82	2
.00269	318.15	1040.82	2
.00269	323.15	1037.84	2
.00269	328.15	1034.88	2
.00269	333.15	1031.93	2
.00269	338.15	1029	2
.00423	303.15	1049.72	2
.00423	308.15	1046.7	2
.00423	313.15	1043.69	2
.00423	318.15	1040.7	2
.00423	323.15	1037.72	2
.00423	328.15	1034.75	2
.00423	333.15	1031.8	2
.00423	338.15	1028.86	2
.00567	303.15	1049.59	2
.00567	308.15	1046.57	2
.00567	313.15	1043.56	2
.00567	318.15	1040.56	2
.00567	323.15	1037.57	2
.00567	328.15	1034.61	2
.00567	333.15	1031.65	2
.00567	338.15	1028.71	2
.00714	303.15	1049.48	2
.00714	308.15	1046.45	2
.00714	313.15	1043.44	2
.00714	318.15	1040.44	2
.00714	323.15	1037.45	2
.00714	328.15	1034.48	2
.00714	333.15	1031.52	2
.00714	338.15	1028.58	2

System: water + 1-pentylpyridinium dicyanamide; phases: Liquid, Air at 1 atmosphere
Property: Surface tension liquid-gas, N/m (Liquid); method: Maximal bubble pressure
Mass fraction of water	Temperature, K	Surface tension liquid-gas, N/m	uncertainty
.00159	303.15	.0533	.0003
.00159	308.15	.0531	.0003
.00159	313.15	.0528	.0003
.00159	318.15	.0524	.0003
.00159	323.15	.0521	.0003
.00159	328.15	.0518	.0003
.00159	333.15	.0515	.0003
.00159	338.15	.0513	.0003
.00309	303.15	.0537	.0003
.00309	308.15	.0533	.0003
.00309	313.15	.053	.0003
.00309	318.15	.0527	.0003
.00309	323.15	.0523	.0003
.00309	328.15	.052	.0003
.00309	333.15	.0518	.0003
.00309	338.15	.0516	.0003
.00463	303.15	.054	.0003
.00463	308.15	.0537	.0003
.00463	313.15	.0534	.0003
.00463	318.15	.053	.0003
.00463	323.15	.0527	.0003
.00463	328.15	.0524	.0003
.00463	333.15	.0521	.0003
.00463	338.15	.0519	.0003
.00611	303.15	.0543	.0003
.00611	308.15	.054	.0003
.00611	313.15	.0537	.0003
.00611	318.15	.0533	.0003
.00611	323.15	.053	.0003
.00611	328.15	.0527	.0003
.00611	333.15	.0524	.0003
.00611	338.15	.0522	.0003
.00762	303.15	.0546	.0003
.00762	308.15	.0543	.0003
.00762	313.15	.054	.0003
.00762	318.15	.0536	.0003
.00762	323.15	.0533	.0003
.00762	328.15	.053	.0003
.00762	333.15	.0527	.0003
.00762	338.15	.0524	.0003

System: water + 1-pentylpyridinium dicyanamide; phases: Liquid
Fixed: Pressure, kPa = 100
Property: Refractive index (Na D-line) (Liquid); method: Standard Abbe refractometry
Mass fraction of water	Temperature, K	Refractive index (Na D-line)	uncertainty
.00159	303.15	1.5285	.003
.00159	308.15	1.527	.003
.00159	313.15	1.5255	.003
.00159	318.15	1.5241	.003
.00159	323.15	1.5228	.003
.00159	328.15	1.521	.003
.00159	333.15	1.5192	.003
.00159	338.15	1.5177	.003
.00322	303.15	1.5282	.003
.00322	308.15	1.5268	.003
.00322	313.15	1.5253	.003
.00322	318.15	1.5239	.003
.00322	323.15	1.5225	.003
.00322	328.15	1.5208	.003
.00322	333.15	1.519	.003
.00322	338.15	1.5175	.003
.00513	303.15	1.5279	.003
.00513	308.15	1.5265	.003
.00513	313.15	1.525	.003
.00513	318.15	1.5236	.003
.00513	323.15	1.5222	.003
.00513	328.15	1.5205	.003
.00513	333.15	1.5188	.003
.00513	338.15	1.5172	.003
.00661	303.15	1.5277	.003
.00661	308.15	1.5263	.003
.00661	313.15	1.5248	.003
.00661	318.15	1.5234	.003
.00661	323.15	1.522	.003
.00661	328.15	1.5203	.003
.00661	333.15	1.5186	.003
.00661	338.15	1.517	.003
.00821	303.15	1.5274	.003
.00821	308.15	1.5261	.003
.00821	313.15	1.5245	.003
.00821	318.15	1.5232	.003
.00821	323.15	1.5217	.003
.00821	328.15	1.5201	.003
.00821	333.15	1.5184	.003
.00821	338.15	1.5168	.003
