Measured thermophysical data. Density and surface tension of pure 1-ethyl-3-methylimidazolium L-lactate ionic liquid and its binary mixtures with water
Source: J. Chem. Thermodyn., 2011, 10.1016/j.jct.2010.12.026
Compound 1: 1-ethyl-3-methylimidazolium L-lactate, C9H16N2O3, purity 99%
Compound 2: water, H2O, purity 99.8%

System: 1-ethyl-3-methylimidazolium L-lactate; phases: Liquid
Fixed: Pressure, kPa = 101.325
Property: Mass density, kg/m3 (Liquid); method: densimeter (MYX-1)
Temperature, K	Mass density, kg/m3	uncertainty
283.15	1154.8	.1
293.15	1150.1	.1
298.15	1146.1	.1
303.15	1141.6	.1
308.15	1136.9	.1
313.15	1131.6	.1
318.15	1126.9	.1
323.15	1122.3	.1
328.15	1118.9	.1
333.15	1114	.1

System: 1-ethyl-3-methylimidazolium L-lactate; phases: Liquid, Air at 1 atmosphere
Property: Surface tension liquid-gas, N/m (Liquid); method: digital tensiometer
Temperature, K	Surface tension liquid-gas, N/m	uncertainty
283.15	.05337	.00015
293.15	.0529	.00015
298.15	.05238	.00015
303.15	.05149	.00015
308.15	.05105	.00015
313.15	.0506	.00015
318.15	.04998	.00015
323.15	.04972	.00015
328.15	.04897	.00015
333.15	.04863	.00015

System: water + 1-ethyl-3-methylimidazolium L-lactate; phases: Liquid
Fixed: Temperature, K = 298.15
Fixed: Pressure, kPa = 101
Property: Mass density, kg/m3 (Liquid); method: densimeter (MYX-1)
Mole fraction of 1-ethyl-3-methylimidazolium L-lactate	Mass density, kg/m3	uncertainty
0	999.9	.1
.0059	1000.4	.1
.009	1000.7	.1
.02	1009.4	.1
.0376	1025.7	.1
.05	1033.5	.1
.0579	1038.5	.1
.08	1050	.1
.1002	1059.7	.1
.2	1088.6	.1
.2999	1103.2	.1
.3975	1110.2	.1
.5023	1117.6	.1
.5997	1123.8	.1
.688	1128.6	.1
.797	1133.7	.1
.901	1138.4	.1
.939	1140.6	.1
1	1146.1	.1

System: water + 1-ethyl-3-methylimidazolium L-lactate; phases: Liquid
Fixed: Temperature, K = 298.15
Fixed: Pressure, kPa = 101
Property: Excess molar volume, m3/mol (Liquid); method: Calculated with densities of this investigation
Mole fraction of 1-ethyl-3-methylimidazolium L-lactate	Excess molar volume, m3/mol	uncertainty
0	0	0
.0059	.0000001386	.000000001386
.009	.0000002142	.000000002142
.02	.000000306	.00000000306
.0376	.0000003353	.000000003353
.05	.0000003957	.000000003957
.0579	.0000004177	.000000004177
.08	.000000489	.00000000489
.1002	.0000005132	.000000005132
.2	.0000006722	.000000006722
.2999	.0000008573	.000000008573
.3975	.000001168	.00000001168
.5023	.0000012943	.000000012943
.5997	.0000012845	.000000012845
.688	.0000012233	.000000012233
.797	.0000010917	.000000010917
.901	.0000008479	.000000008479
.939	.0000006559	.000000006559
1	0	0

System: water + 1-ethyl-3-methylimidazolium L-lactate; phases: Liquid, Air at 1 atmosphere
Fixed: Temperature, K = 298.15
Property: Surface tension liquid-gas, N/m (Liquid); method: digital tensiometer
Mole fraction of 1-ethyl-3-methylimidazolium L-lactate	Surface tension liquid-gas, N/m	uncertainty
0	.0716	.00015
.002	.06432	.00015
.003	.0625	.00015
.0042	.05982	.00015
.005	.05762	.00015
.0059	.05538	.00015
.009	.05498	.00015
.02	.05454	.00015
.0395	.05423	.00015
.05	.05367	.00015
.0577	.05319	.00015
.08	.05324	.00015
.1	.05286	.00015
.2	.0529	.00015
.2998	.05263	.00015
.3975	.05261	.00015
.5023	.05239	.00015
.5997	.05233	.00015
.688	.05214	.00015
.797	.05161	.00015
.901	.05153	.00015
1	.05238	.00015
