Measured thermophysical data. Interfacial tensions of binary mixtures of ethanol with octane, decane, dodecane, and tetradecane
Source: J. Chem. Thermodyn., 2011, 10.1016/j.jct.2011.04.005
Compound 1: decane, C10H22, purity 99.8%
Compound 2: dodecane, C12H26, purity 99.8%
Compound 3: ethanol, C2H6O, purity 99.9%
Compound 4: octane, C8H18, purity 99.7%
Compound 5: tetradecane, C14H30, purity 99.8%

System: decane; phases: Liquid, Gas
Property: Surface tension liquid-gas, N/m (Liquid); method: Maximal bubble pressure
Temperature, K	Surface tension liquid-gas, N/m	uncertainty
303.15	.0229	.0001
308.15	.0225	.0001
318.15	.02166	.0001

System: dodecane; phases: Liquid, Gas
Property: Surface tension liquid-gas, N/m (Liquid); method: Maximal bubble pressure
Temperature, K	Surface tension liquid-gas, N/m	uncertainty
298.15	.0249	.0001
303.15	.02473	.0001

System: ethanol; phases: Liquid, Gas
Property: Surface tension liquid-gas, N/m (Liquid); method: Maximal bubble pressure
Temperature, K	Surface tension liquid-gas, N/m	uncertainty
298.15	.0221	.0001
303.15	.0217	.0001
308.15	.0213	.0001
313.15	.02071	.0001
318.15	.0204	.0001

System: octane; phases: Liquid, Gas
Property: Surface tension liquid-gas, N/m (Liquid); method: Maximal bubble pressure
Temperature, K	Surface tension liquid-gas, N/m	uncertainty
298.15	.0211	.0001
308.15	.0202	.0001
318.15	.0192	.0001

System: tetradecane; phases: Liquid, Gas
Property: Surface tension liquid-gas, N/m (Liquid); method: Maximal bubble pressure
Temperature, K	Surface tension liquid-gas, N/m	uncertainty
313.15	.0248	.0001

System: ethanol + octane; phases: Liquid, Gas
Property: Surface tension liquid-gas, N/m (Liquid); method: Maximal bubble pressure
Temperature, K	Mole fraction of ethanol	Surface tension liquid-gas, N/m	uncertainty
298.15	.099	.02091	.0001
298.15	.208	.0209	.0001
298.15	.294	.02079	.0001
298.15	.391	.0208	.0001
298.15	.512	.02075	.0001
298.15	.604	.02081	.0001
298.15	.707	.0209	.0001
298.15	.809	.02103	.0001
298.15	.871	.02119	.0001
298.15	.908	.02144	.0001
298.15	.955	.02169	.0001
308.15	.105	.01995	.0001
308.15	.162	.01983	.0001
308.15	.209	.01981	.0001
308.15	.31	.01973	.0001
308.15	.403	.01971	.0001
308.15	.5	.01972	.0001
308.15	.607	.01971	.0001
308.15	.707	.01986	.0001
308.15	.807	.02005	.0001
308.15	.904	.02039	.0001
308.15	.955	.02077	.0001
318.15	.103	.01896	.0001
318.15	.205	.01871	.0001
318.15	.345	.01864	.0001
318.15	.448	.0186	.0001
318.15	.598	.01863	.0001
318.15	.703	.01869	.0001
318.15	.809	.01883	.0001
318.15	.91	.01918	.0001
318.15	.958	.01985	.0001

System: ethanol + decane; phases: Liquid, Gas
Property: Surface tension liquid-gas, N/m (Liquid); method: Maximal bubble pressure
Temperature, K	Mole fraction of ethanol	Surface tension liquid-gas, N/m	uncertainty
303.15	.034	.02285	.0001
303.15	.101	.0226	.0001
303.15	.189	.0223	.0001
303.15	.29	.0221	.0001
303.15	.395	.02195	.0001
303.15	.492	.02185	.0001
303.15	.59	.02175	.0001
303.15	.696	.02165	.0001
303.15	.801	.02155	.0001
303.15	.907	.02145	.0001
303.15	.959	.02144	.0001
303.15	.982	.02143	.0001
308.15	.076	.02225	.0001
308.15	.173	.022	.0001
308.15	.286	.0218	.0001
308.15	.373	.02168	.0001
308.15	.486	.02154	.0001
308.15	.593	.02146	.0001
308.15	.695	.0214	.0001
308.15	.8	.02129	.0001
308.15	.902	.0212	.0001
308.15	.954	.02117	.0001
318.15	.067	.02151	.0001
318.15	.16	.02125	.0001
318.15	.272	.021	.0001
318.15	.366	.02083	.0001
318.15	.472	.02067	.0001
318.15	.585	.02054	.0001
318.15	.698	.02048	.0001
318.15	.803	.02037	.0001
318.15	.907	.0203	.0001
318.15	.958	.02036	.0001

System: ethanol + dodecane; phases: Liquid, Gas
Property: Surface tension liquid-gas, N/m (Liquid); method: Maximal bubble pressure
Temperature, K	Mole fraction of ethanol	Surface tension liquid-gas, N/m	uncertainty
298.15	.055	.02487	.0001
298.15	.097	.02472	.0001
298.15	.184	.02433	.0001
298.15	.264	.02395	.0001
298.15	.366	.02347	.0001
298.15	.472	.0231	.0001
298.15	.589	.02297	.0001
298.15	.692	.02292	.0001
298.15	.799	.02278	.0001
298.15	.905	.02257	.0001
298.15	.951	.02238	.0001
303.15	.055	.0246	.0001
303.15	.09	.0245	.0001
303.15	.174	.02405	.0001
303.15	.247	.0237	.0001
303.15	.332	.02335	.0001
303.15	.443	.02292	.0001
303.15	.571	.02265	.0001
303.15	.684	.02252	.0001
303.15	.795	.02239	.0001
303.15	.903	.02216	.0001
303.15	.951	.02198	.0001

System: ethanol + tetradecane; phases: Liquid, Gas
Property: Surface tension liquid-gas, N/m (Liquid); method: Maximal bubble pressure
Temperature, K	Mole fraction of ethanol	Surface tension liquid-gas, N/m	uncertainty
313.15	.054	.02467	.0001
313.15	.072	.02467	.0001
313.15	.143	.02453	.0001
313.15	.191	.02425	.0001
313.15	.3	.0233	.0001
313.15	.412	.02252	.0001
313.15	.522	.02198	.0001
313.15	.62	.02176	.0001
313.15	.702	.0218	.0001
313.15	.8	.02166	.0001
313.15	.9	.0214	.0001
313.15	.945	.02117	.0001
313.15	.967	.02102	.0001
313.15	.988	.02082	.0001
