Measured thermophysical data. High-temperature vapour liquid equilibrium for the (water + alcohol) systems  and modelling with SAFT-VR: 2. Water-1-propanol
Source: J. Chem. Thermodyn., 2013, 10.1016/j.jct.2012.12.019
Compound 1: water, H2O
Compound 2: 1-propanol, C3H8O

System: 1-propanol; phases: Liquid, Gas
Property: Vapor or sublimation pressure, kPa (Liquid); method: Closed cell (Static) method
Temperature, K	Vapor or sublimation pressure, kPa	uncertainty
383.2	160.4	1.604
393.2	223.3	2.233
403.2	303.1	3.031
413.2	406.6	4.066
423.2	546.1	5.461

System: 1-propanol + water; phases: Liquid, Gas
Property: Vapor or sublimation pressure, kPa (Liquid); method: Closed cell (Static) method
Mole fraction of 1-propanol	Temperature, K	Vapor or sublimation pressure, kPa	uncertainty
.9989	403.2	304.2	3.042
.9025	403.2	345.5	3.455
.7913	403.2	383.2	3.832
.6854	403.2	395.2	3.952
.5794	403.2	412.1	4.121
.4	403.2	421.5	4.215
.2855	403.2	414.1	4.141
.1686	403.2	412.1	4.121
.1277	403.2	401.2	4.012
.0692	403.2	391.5	3.915
.0259	403.2	353.5	3.535
.0078	403.2	310.5	3.105
.0024	403.2	283.4	2.834
.9993	413.2	408	4.08
.9093	413.2	458.8	4.588
.795	413.2	501.1	5.011
.6832	413.2	526.2	5.262
.5921	413.2	544.2	5.442
.4018	413.2	552.4	5.524
.2762	413.2	553.8	5.538
.1812	413.2	542.6	5.426
.1212	413.2	535.1	5.351
.0253	413.2	464	4.64
.015	413.2	436.1	4.361
.0051	413.2	388.4	3.884
.9993	423.2	546.1	5.461
.8769	423.2	610.2	6.102
.8126	423.2	652	6.52
.6483	423.2	700.4	7.004
.6006	423.2	703.3	7.033
.4026	423.2	722.1	7.221
.2646	423.2	710.2	7.102
.187	423.2	711.8	7.118
.0594	423.2	658.9	6.589
.0106	423.2	593.6	5.936
.011	423.2	550	5.5
.0041	423.2	517	5.17

System: 1-propanol + water; phases: Gas, Liquid
Property: Mole fraction of 1-propanol (Gas); method: Density calibration data
Mole fraction of 1-propanol	Temperature, K	Mole fraction of 1-propanol	uncertainty
.9989	403.2	.9981	.0001
.9025	403.2	.8158	.0001
.7913	403.2	.6601	.0001
.6854	403.2	.5771	.0001
.5794	403.2	.5029	.0001
.4	403.2	.424	.0001
.2855	403.2	.3876	.0001
.1686	403.2	.3638	.0001
.1277	403.2	.3506	.0001
.0692	403.2	.3335	.0001
.0259	403.2	.2468	.0001
.0078	403.2	.1466	.0001
.0024	403.2	.052	.0001
.9993	413.2	.9978	.0001
.9093	413.2	.816	.0001
.795	413.2	.6823	.0001
.6832	413.2	.5751	.0001
.5921	413.2	.5153	.0001
.4018	413.2	.4221	.0001
.2762	413.2	.382	.0001
.1812	413.2	.3614	.0001
.1212	413.2	.3441	.0001
.0253	413.2	.2352	.0001
.015	413.2	.1761	.0001
.0051	413.2	.0778	.0001
.9993	423.2	.9974	.0001
.8769	423.2	.7918	.0001
.8126	423.2	.6941	.0001
.6483	423.2	.5509	.0001
.6006	423.2	.5267	.0001
.4026	423.2	.4226	.0001
.2646	423.2	.3733	.0001
.187	423.2	.3548	.0001
.0594	423.2	.2897	.0001
.0106	423.2	.2132	.0001
.011	423.2	.1346	.0001
.0041	423.2	.0755	.0001
