Measured thermophysical data. Experimental measurement and modeling of the Type 3 ternary system containing (decane + water + triacetin)
Source: J. Chem. Thermodyn., 2013, 10.1016/j.jct.2013.07.009
Compound 1: n-decane, C10H22, purity 99%
Compound 2: water, H2O, purity 99.99%
Compound 3: triacetin, C9H14O6, purity 99%

System: n-decane + water; phases: Liquid mixture 1, Liquid mixture 2
Property: Mole fraction of n-decane (Liquid mixture 1); method: Chromatography
Temperature, K	Pressure, kPa	Mole fraction of n-decane	uncertainty
296.15	100	.999717	.00011996604

System: n-decane + water; phases: Liquid mixture 2, Liquid mixture 1
Property: Mole fraction of n-decane (Liquid mixture 2); method: Chromatography
Temperature, K	Pressure, kPa	Mole fraction of n-decane	uncertainty
296.15	100	.00000163	.0000000001956

System: triacetin + n-decane; phases: Liquid mixture 1, Liquid mixture 2
Property: Mole fraction of n-decane (Liquid mixture 1); method: Chromatography
Temperature, K	Pressure, kPa	Mole fraction of n-decane	uncertainty
296.15	100	.987953	.00011855436

System: triacetin + n-decane; phases: Liquid mixture 2, Liquid mixture 1
Property: Mole fraction of n-decane (Liquid mixture 2); method: Chromatography
Temperature, K	Pressure, kPa	Mole fraction of n-decane	uncertainty
296.15	100	.0244	.000002928

System: triacetin + water; phases: Liquid mixture 1, Liquid mixture 2
Property: Mole fraction of water (Liquid mixture 1); method: Titration method
Temperature, K	Pressure, kPa	Mole fraction of water	uncertainty
296.15	100	.9933	.000148995

System: triacetin + water; phases: Liquid mixture 2, Liquid mixture 1
Property: Mole fraction of water (Liquid mixture 2); method: Titration method
Temperature, K	Pressure, kPa	Mole fraction of water	uncertainty
296.15	100	.3441	.000051615

System: triacetin + n-decane + water; phases: Liquid mixture 2, Liquid mixture 1
Property: Mole fraction of n-decane (Liquid mixture 2); method: Titration method
Property: Mole fraction of n-decane (Liquid mixture 1); method: Titration method
Property: Mole fraction of water (Liquid mixture 1); method: Titration method
Temperature, K	Pressure, kPa	Mole fraction of water	Mole fraction of n-decane	uncertainty	Mole fraction of n-decane	uncertainty	Mole fraction of water	uncertainty
296.15	100	.9957	.00001138	.0000000013656	.9937	.000119244	.0004285	.000000064275
296.15	100	.9949	.00001141	.0000000013692	.9913	.000118956	.0004623	.000000069345
296.15	100	.9942	.00001132	.0000000013584	.9911	.000118932	.0004291	.000000064365
296.15	100	.9939	.00001131	.0000000013572	.9906	.000118872	.0004625	.000000069375
296.15	100	.9938	.00001148	.0000000013776	.991	.00011892	.0004497	.000000067455
296.15	100	.9934	.00001155	.000000001386	.9905	.00011886	.0004665	.000000069975
296.15	100	.9933	.00001173	.0000000014076	.9902	.000118824	.0003952	.00000005928
296.15	100	.9927	.00001165	.000000001398	.9912	.000118944	.0003732	.00000005598

System: triacetin + n-decane + water; phases: Liquid mixture 3, Liquid mixture 1, Liquid mixture 2
Property: Mole fraction of water (Liquid mixture 3); method: Titration method
Property: Mole fraction of n-decane (Liquid mixture 3); method: Titration method
Property: Mole fraction of water (Liquid mixture 1); method: Titration method
Property: Mole fraction of n-decane (Liquid mixture 1); method: Titration method
Property: Mole fraction of water (Liquid mixture 2); method: Titration method
Property: Mole fraction of n-decane (Liquid mixture 2); method: Titration method
Temperature, K	Pressure, kPa	Mole fraction of water	uncertainty	Mole fraction of n-decane	uncertainty	Mole fraction of water	uncertainty	Mole fraction of n-decane	uncertainty	Mole fraction of water	uncertainty	Mole fraction of n-decane	uncertainty
296.15	100	.994	.0001491	.00000933	.0000000011196	.000384	.0000000576	.992	.00011904	.326	.0000489	.00957	.0000011484
