Measured thermophysical data. Use of selective ionic liquids and ionic liquid/salt mixtures as entrainer in a (vapor + liquid) system to separate n-heptane from toluene
Source: J. Chem. Thermodyn., 2015, 10.1016/j.jct.2015.07.041
Compound 1: 1-ethyl-3-methylimidazolium thiocyanate, C7H11N3S, purity 98%
Compound 2: 1-butyl-3-methylimidazolium thiocyanate, C9H15N3S, purity 98%
Compound 3: heptane, C7H16, purity 99.5%
Compound 4: toluene, C7H8, purity 99.7%

System: toluene + heptane + 1-ethyl-3-methylimidazolium thiocyanate; phases: Gas, Liquid
Property: Mole fraction of heptane (Gas); method: Chromatography
Temperature, K	Mole fraction of 1-ethyl-3-methylimidazolium thiocyanate	Solvent: Mole fraction of heptane	Mole fraction of heptane	uncertainty
323.2	.9529	.0052	.4416	.004416
323.2	.9531	.0047	.3869	.003869
323.2	.9531	.0034	.3445	.003445
323.2	.9513	.0022	.2454	.002454
323.2	.9515	.0016	.2008	.002008
323.2	.9508	.0009	.1229	.001229
323.2	.9507	.0003	.0446	.000446
323.2	.9508	.0001	.0274	.000274
323.2	.9273	.0021	.2039	.002039
323.2	.9268	.0011	.1207	.001207
323.2	.9251	.0005	.0417	.000417
323.2	.925	.0002	.0285	.000285
323.2	.8929	.0016	.123	.00123
323.2	.8943	.0005	.0454	.000454
323.2	.894	.0002	.0291	.000291
323.2	.8517	.0017	.1263	.001263
323.2	.8676	.0006	.047	.00047
323.2	.8478	.0003	.0289	.000289
343.2	.9572	.0074	.2887	.002887
343.2	.9573	.0062	.2479	.002479
343.2	.9563	.0049	.2154	.002154
343.2	.9546	.0032	.1403	.001403
343.2	.9546	.0022	.1181	.001181
343.2	.9549	.001	.0683	.000683
343.2	.9537	.0004	.0246	.000246
343.2	.9546	.0001	.0151	.000151
343.2	.932	.0026	.1175	.001175
343.2	.9323	.0014	.0681	.000681
343.2	.9311	.0004	.0242	.000242
343.2	.9307	.0002	.0151	.000151
343.2	.9014	.0014	.0678	.000678
343.2	.902	.0005	.0245	.000245
343.2	.9012	.0002	.0154	.000154
343.2	.8385	.0019	.079	.00079
343.2	.8619	.0005	.0252	.000252
343.2	.84	.0002	.0182	.000182
363.2	.9598	.0107	.1863	.001863
363.2	.9587	.0072	.1635	.001635
363.2	.959	.0053	.139	.00139
363.2	.9493	.0035	.1026	.001026
363.2	.9585	.0024	.0722	.000722
363.2	.9578	.0011	.0416	.000416
363.2	.9586	.0002	.0149	.000149
363.2	.9571	.0001	.0091	.000091
363.2	.9375	.0023	.0723	.000723
363.2	.938	.0009	.0415	.000415
363.2	.9364	.0003	.0146	.000146
363.2	.9367	.0001	.009	.00009
363.2	.9122	.0011	.0402	.000402
363.2	.9112	.0004	.014	.00014
363.2	.9112	.0001	.0089	.000089
363.2	.879	.0011	.0411	.000411
363.2	.8737	.0004	.0147	.000147
363.2	.8943	.0001	.008	.00008

System: toluene + heptane + 1-ethyl-3-methylimidazolium thiocyanate; phases: Gas, Liquid
Property: Mole fraction of toluene (Gas); method: Chromatography
Temperature, K	Mole fraction of 1-ethyl-3-methylimidazolium thiocyanate	Solvent: Mole fraction of heptane	Mole fraction of toluene	uncertainty
323.2	.9529	.0052	.5584	.005584
323.2	.9531	.0047	.6131	.006131
323.2	.9531	.0034	.6555	.006555
323.2	.9513	.0022	.7546	.007546
323.2	.9515	.0016	.7992	.007992
323.2	.9508	.0009	.8771	.008771
323.2	.9507	.0003	.9554	.009554
323.2	.9508	.0001	.9726	.009726
323.2	.9273	.0021	.7961	.007961
323.2	.9268	.0011	.8793	.008793
323.2	.9251	.0005	.9583	.009583
323.2	.925	.0002	.9715	.009715
323.2	.8929	.0016	.877	.00877
323.2	.8943	.0005	.9546	.009546
323.2	.894	.0002	.9709	.009709
323.2	.8517	.0017	.8737	.008737
323.2	.8676	.0006	.953	.00953
323.2	.8478	.0003	.9711	.009711
343.2	.9572	.0074	.7113	.007113
343.2	.9573	.0062	.7521	.007521
343.2	.9563	.0049	.7846	.007846
343.2	.9546	.0032	.8597	.008597
343.2	.9546	.0022	.8819	.008819
343.2	.9549	.001	.9317	.009317
343.2	.9537	.0004	.9754	.009754
343.2	.9546	.0001	.9849	.009849
343.2	.932	.0026	.8825	.008825
343.2	.9323	.0014	.9319	.009319
343.2	.9311	.0004	.9758	.009758
343.2	.9307	.0002	.9849	.009849
343.2	.9014	.0014	.9322	.009322
343.2	.902	.0005	.9755	.009755
343.2	.9012	.0002	.9846	.009846
343.2	.8385	.0019	.921	.00921
343.2	.8619	.0005	.9748	.009748
343.2	.84	.0002	.9818	.009818
363.2	.9598	.0107	.8137	.008137
363.2	.9587	.0072	.8365	.008365
363.2	.959	.0053	.861	.00861
363.2	.9493	.0035	.8974	.008974
363.2	.9585	.0024	.9278	.009278
363.2	.9578	.0011	.9584	.009584
363.2	.9586	.0002	.9851	.009851
363.2	.9571	.0001	.9909	.009909
363.2	.9375	.0023	.9277	.009277
363.2	.938	.0009	.9585	.009585
363.2	.9364	.0003	.9854	.009854
363.2	.9367	.0001	.991	.00991
363.2	.9122	.0011	.9598	.009598
363.2	.9112	.0004	.986	.00986
363.2	.9112	.0001	.9911	.009911
363.2	.879	.0011	.9589	.009589
363.2	.8737	.0004	.9853	.009853
363.2	.8943	.0001	.992	.00992

System: toluene + heptane + 1-butyl-3-methylimidazolium thiocyanate; phases: Gas, Liquid
Property: Mole fraction of heptane (Gas); method: Chromatography
Temperature, K	Mole fraction of 1-butyl-3-methylimidazolium thiocyanate	Solvent: Mole fraction of heptane	Mole fraction of heptane	uncertainty
323.2	.9857	.0497	.7969	.007969
323.2	.9854	.0306	.6929	.006929
323.2	.9825	.0205	.6117	.006117
323.2	.981	.0106	.453	.00453
323.2	.9815	.0033	.2249	.002249
323.2	.9787	.0013	.1283	.001283
323.2	.9142	.0486	.7	.007
323.2	.9114	.0361	.6017	.006017
323.2	.9041	.0171	.4358	.004358
323.2	.9005	.0061	.2124	.002124
323.2	.8983	.0032	.1087	.001087
323.2	.8314	.0424	.5957	.005957
323.2	.8283	.0226	.4132	.004132
323.2	.8204	.0071	.206	.00206
323.2	.8181	.0037	.1108	.001108
323.2	.6723	.0325	.3868	.003868
323.2	.6686	.0101	.1888	.001888
323.2	.6686	.0046	.1073	.001073
343.2	.9845	.0546	.6779	.006779
343.2	.9834	.0364	.5653	.005653
343.2	.9809	.0218	.4622	.004622
343.2	.9811	.0115	.3007	.003007
343.2	.9792	.0045	.1263	.001263
343.2	.9793	.0015	.0722	.000722
343.2	.9187	.0419	.5736	.005736
343.2	.9147	.0286	.4577	.004577
343.2	.9108	.015	.3026	.003026
343.2	.9072	.0051	.1301	.001301
343.2	.9083	.0027	.0674	.000674
343.2	.8477	.0342	.4666	.004666
343.2	.8365	.0165	.306	.00306
343.2	.83	.006	.1301	.001301
343.2	.8275	.0027	.0726	.000726
343.2	.7359	.0206	.2901	.002901
343.2	.6805	.0076	.1416	.001416
343.2	.6841	.0037	.0725	.000725
363.2	.9867	.0497	.5432	.005432
363.2	.9855	.0293	.4281	.004281
363.2	.9857	.017	.3342	.003342
363.2	.9834	.0077	.2062	.002062
363.2	.9822	.0032	.085	.00085
363.2	.9812	.0015	.0437	.000437
363.2	.9273	.0371	.4384	.004384
363.2	.923	.023	.3359	.003359
363.2	.9175	.0135	.2017	.002017
363.2	.9162	.0042	.0827	.000827
363.2	.9118	.002	.0423	.000423
363.2	.856	.0266	.3336	.003336
363.2	.8471	.0149	.2002	.002002
363.2	.8435	.0046	.0828	.000828
363.2	.8389	.0022	.0435	.000435
363.2	.7068	.022	.222	.00222
363.2	.6972	.006	.1017	.001017
363.2	.6914	.003	.0512	.000512

System: toluene + heptane + 1-butyl-3-methylimidazolium thiocyanate; phases: Gas, Liquid
Property: Mole fraction of toluene (Gas); method: Chromatography
Temperature, K	Mole fraction of 1-butyl-3-methylimidazolium thiocyanate	Solvent: Mole fraction of heptane	Mole fraction of toluene	uncertainty
323.2	.9857	.0497	.2031	.002031
323.2	.9854	.0306	.3071	.003071
323.2	.9825	.0205	.3883	.003883
323.2	.981	.0106	.547	.00547
323.2	.9815	.0033	.7751	.007751
323.2	.9787	.0013	.8717	.008717
323.2	.9142	.0486	.3	.003
323.2	.9114	.0361	.3983	.003983
323.2	.9041	.0171	.5642	.005642
323.2	.9005	.0061	.7876	.007876
323.2	.8983	.0032	.8913	.008913
323.2	.8314	.0424	.4043	.004043
323.2	.8283	.0226	.5868	.005868
323.2	.8204	.0071	.794	.00794
323.2	.8181	.0037	.8892	.008892
323.2	.6723	.0325	.6132	.006132
323.2	.6686	.0101	.8112	.008112
323.2	.6686	.0046	.8927	.008927
343.2	.9845	.0546	.3221	.003221
343.2	.9834	.0364	.4347	.004347
343.2	.9809	.0218	.5378	.005378
343.2	.9811	.0115	.6993	.006993
343.2	.9792	.0045	.8737	.008737
343.2	.9793	.0015	.9278	.009278
343.2	.9187	.0419	.4264	.004264
343.2	.9147	.0286	.5423	.005423
343.2	.9108	.015	.6974	.006974
343.2	.9072	.0051	.8699	.008699
343.2	.9083	.0027	.9326	.009326
343.2	.8477	.0342	.5334	.005334
343.2	.8365	.0165	.694	.00694
343.2	.83	.006	.8699	.008699
343.2	.8275	.0027	.9274	.009274
343.2	.7359	.0206	.7099	.007099
343.2	.6805	.0076	.8584	.008584
343.2	.6841	.0037	.9275	.009275
363.2	.9867	.0497	.4568	.004568
363.2	.9855	.0293	.5719	.005719
363.2	.9857	.017	.6658	.006658
363.2	.9834	.0077	.7938	.007938
363.2	.9822	.0032	.915	.00915
363.2	.9812	.0015	.9563	.009563
363.2	.9273	.0371	.5616	.005616
363.2	.923	.023	.6641	.006641
363.2	.9175	.0135	.7983	.007983
363.2	.9162	.0042	.9173	.009173
363.2	.9118	.002	.9577	.009577
363.2	.856	.0266	.6664	.006664
363.2	.8471	.0149	.7998	.007998
363.2	.8435	.0046	.9172	.009172
363.2	.8389	.0022	.9565	.009565
363.2	.7068	.022	.778	.00778
363.2	.6972	.006	.8983	.008983
363.2	.6914	.003	.9488	.009488
