Measured thermophysical data. Measurement and prediction of dabigatran etexilate mesylate Form II solubility in mono-solvents and mixed solvents
Source: J. Chem. Thermodyn., 2016, 10.1016/j.jct.2016.07.048
Compound 1: Dabigatran etexilate mesylate, C35H45N7O8S, purity 99%
Compound 2: methanol, CH4O, purity 99.5%
Compound 3: ethanol, C2H6O, purity 99.7%
Compound 4: ethylene glycol, C2H6O2, purity 99.5%
Compound 5: N,N-dimethylformamide, C3H7NO, purity 99.5%
Compound 6: N,N-dimethylacetamide, C4H9NO, purity 99.5%

System: Dabigatran etexilate mesylate; phases: Crystal, Liquid, Air at 1 atmosphere
Property: Normal melting temperature, K (Crystal); method: DSC/DTA
Normal melting temperature, K	uncertainty
463.24	.5

System: Dabigatran etexilate mesylate; phases: Crystal, Liquid, Air at 1 atmosphere
Property: Molar enthalpy of transition or fusion, kJ/mol (Crystal); method: DSC
Molar enthalpy of transition or fusion, kJ/mol	uncertainty
64.53	1.2906

System: methanol + Dabigatran etexilate mesylate; phases: Liquid, Crystal
Fixed: Pressure, kPa = 100
Property: Mole fraction of Dabigatran etexilate mesylate (Liquid); method: UV spectrophotometry
Temperature, K	Mole fraction of Dabigatran etexilate mesylate	uncertainty
287.37	.0158	
292.2	.018	
297.95	.0224	
303.97	.0274	
308.88	.0333	
313.59	.0389	
318.4	.0471	
323.39	.055	

System: ethanol + Dabigatran etexilate mesylate; phases: Liquid, Crystal
Fixed: Pressure, kPa = 100
Property: Mole fraction of Dabigatran etexilate mesylate (Liquid); method: UV spectrophotometry
Temperature, K	Mole fraction of Dabigatran etexilate mesylate	uncertainty
287.37	.00092	
292.2	.00116	
297.95	.00153	
303.97	.00208	
308.88	.00267	
313.59	.00343	
318.4	.00458	
323.39	.00626	

System: ethylene glycol + Dabigatran etexilate mesylate; phases: Liquid, Crystal
Fixed: Pressure, kPa = 100
Property: Mole fraction of Dabigatran etexilate mesylate (Liquid); method: UV spectrophotometry
Temperature, K	Mole fraction of Dabigatran etexilate mesylate	uncertainty
287.37	.00425	
292.2	.00524	
297.95	.00619	
303.97	.00786	
308.88	.00961	
313.59	.0112	
318.4	.0143	
323.39	.0179	

System: N,N-dimethylformamide + Dabigatran etexilate mesylate; phases: Liquid, Crystal
Fixed: Pressure, kPa = 100
Property: Mole fraction of Dabigatran etexilate mesylate (Liquid); method: UV spectrophotometry
Temperature, K	Mole fraction of Dabigatran etexilate mesylate	uncertainty
287.37	.0217	
292.2	.0229	
297.95	.0246	
303.97	.0269	
308.88	.0294	
313.59	.0318	
318.4	.035	
323.39	.0385	

System: N,N-dimethylacetamide + Dabigatran etexilate mesylate; phases: Liquid, Crystal
Fixed: Pressure, kPa = 100
Property: Mole fraction of Dabigatran etexilate mesylate (Liquid); method: UV spectrophotometry
Temperature, K	Mole fraction of Dabigatran etexilate mesylate	uncertainty
287.37	.0228	
292.2	.0241	
297.95	.0264	
303.97	.0285	
308.88	.0311	
313.59	.0338	
318.4	.0372	
323.39	.0403	

System: ethanol + methanol + Dabigatran etexilate mesylate; phases: Liquid, Crystal
Fixed: Pressure, kPa = 100
Property: Mole fraction of Dabigatran etexilate mesylate (Liquid); method: UV spectrophotometry
Temperature, K	Solvent: Mole fraction of methanol	Mole fraction of Dabigatran etexilate mesylate	uncertainty
287.37	0	.00092	
287.37	.1035	.00126	
287.37	.1979	.00178	
287.37	.2986	.00243	
287.37	.3944	.00322	
287.37	.4968	.00425	
287.37	.5961	.00539	
287.37	.6931	.00731	
287.37	.7921	.00904	
287.37	.9174	.0134	
287.37	1	.0158	
292.2	0	.00116	
292.2	.1035	.00164	
292.2	.1979	.00213	
292.2	.2986	.00295	
292.2	.3944	.00382	
292.2	.4968	.00502	
292.2	.5961	.00653	
292.2	.6931	.00824	
292.2	.7921	.0112	
292.2	.9174	.0149	
292.2	1	.018	
297.95	0	.00153	
297.95	.1035	.002	
297.95	.1979	.00273	
297.95	.2986	.0035	
297.95	.3944	.00451	
297.95	.4968	.00593	
297.95	.5961	.00817	
297.95	.6931	.0108	
297.95	.7921	.0131	
297.95	.9174	.0202	
297.95	1	.0224	
303.97	0	.00208	
303.97	.1035	.00278	
303.97	.1979	.00358	
303.97	.2986	.00498	
303.97	.3944	.00596	
303.97	.4968	.00829	
303.97	.5961	.0104	
303.97	.6931	.0147	
303.97	.7921	.0171	
303.97	.9174	.0237	
303.97	1	.0274	
308.88	0	.00267	
308.88	.1035	.00348	
308.88	.1979	.00449	
308.88	.2986	.00599	
308.88	.3944	.00772	
308.88	.4968	.0102	
308.88	.5961	.0129	
308.88	.6931	.0169	
308.88	.7921	.0227	
308.88	.9174	.0276	
308.88	1	.0333	
313.59	0	.00343	
313.59	.1035	.00455	
313.59	.1979	.00582	
313.59	.2986	.00772	
313.59	.3944	.00992	
313.59	.4968	.0141	
313.59	.5961	.0174	
313.59	.6931	.0236	
313.59	.7921	.0299	
313.59	.9174	.0342	
313.59	1	.0389	
318.4	0	.00458	
318.4	.1035	.0061	
318.4	.1979	.00782	
318.4	.2986	.0107	
318.4	.3944	.0137	
318.4	.4968	.0164	
318.4	.5961	.0218	
318.4	.6931	.027	
318.4	.7921	.0336	
318.4	.9174	.041	
318.4	1	.0471	
323.39	0	.00626	
323.39	.1035	.00798	
323.39	.1979	.0105	
323.39	.2986	.0135	
323.39	.3944	.0189	
323.39	.4968	.0231	
323.39	.5961	.0287	
323.39	.6931	.0361	
323.39	.7921	.0432	
323.39	.9174	.0488	
323.39	1	.055	
