Measured thermophysical data. Solubility of carbon dioxide in a eutectic mixture of choline chloride  and glycerol at moderate pressures
Source: J. Chem. Thermodyn., 2013, 10.1016/j.jct.2012.08.025
Compound 1: carbon dioxide, CO2, purity 99.9%
Compound 2: 1-butyl-3-methylimidazolium tetrafluoroborate, C8H15BF4N2, purity 99%
Compound 3: choline hydrochloride, C5H14ClNO, purity 99%
Compound 4: glycerol, C3H8O3, purity 99%

System: glycerol + choline hydrochloride + carbon dioxide; phases: Gas, Liquid
Fixed: Solvent: Mole fraction of choline hydrochloride = .333
Property: Molality, mol/kg of carbon dioxide (Gas); method: thermogravimetric microbalance
Temperature, K	Pressure, kPa	Molality, mol/kg of carbon dioxide	uncertainty
303.15	187	.1449	.0001
303.15	616	.4678	.0001
303.15	1222	.9037	.0001
303.15	1995	1.4308	.0001
303.15	2976	2.0893	.0001
303.15	3977	2.7619	.0001
303.15	4963	3.2909	.0001
303.15	5863	3.6929	.0001
313.15	191	.1103	.0001
313.15	622	.3614	.0001
313.15	1239	.7149	.0001
313.15	2012	1.1604	.0001
313.15	2978	1.6209	.0001
313.15	4002	2.198	.0001
313.15	5040	2.7251	.0001
313.15	5991	3.0718	.0001
323.15	196	.0888	.0001
323.15	626	.2778	.0001
323.15	1271	.556	.0001
323.15	2071	.9068	.0001
323.15	3018	1.3235	.0001
323.15	4034	1.7528	.0001
323.15	5151	2.2747	.0001
323.15	6170	2.6508	.0001
333.15	201	.0717	.0001
333.15	636	.2143	.0001
333.15	1307	.4443	.0001
333.15	2131	.7249	.0001
333.15	3102	1.0545	.0001
333.15	4070	1.3811	.0001
333.15	5286	1.7926	.0001
333.15	6265	2.1243	.0001
343.15	203	.0538	.0001
343.15	649	.1721	.0001
343.15	1338	.3605	.0001
343.15	2171	.5765	.0001
343.15	3164	.8314	.0001
343.15	4197	1.0946	.0001
343.15	5308	1.3721	.0001
343.15	6347	1.601	.0001
