Measured thermophysical data. High-pressure phase behaviour of the system (CO2 + C.I. Disperse Orange 30 dye)
Source: J. Chem. Thermodyn., 2012, 10.1016/j.jct.2011.12.040
Compound 1: C. I. Disperse Orange 30, C19H17Cl2N5O4, purity 98%
Compound 2: carbon dioxide, CO2, purity 99.5%

System: carbon dioxide + C. I. Disperse Orange 30; phases: Fluid (supercritical or subcritical phases), Crystal
Property: Phase boundary pressure, kPa (Fluid (supercritical or subcritical phases)); method: Static-synthetic method
Temperature, K	Mole fraction of C. I. Disperse Orange 30	Phase boundary pressure, kPa	uncertainty
303.15	.00000655	11200	20
313.15	.00000655	10780	20
323.15	.00000655	10440	20
333.15	.00000655	9930	20
303.15	.00000684	12050	20
313.15	.00000684	11740	20
323.15	.00000684	10960	20
333.15	.00000684	10530	20
303.15	.000007	12550	20
313.15	.000007	12110	20
323.15	.000007	11680	20
333.15	.000007	11370	20
303.15	.00000782	13040	20
313.15	.00000782	12730	20
323.15	.00000782	12300	20
333.15	.00000782	11620	20
303.15	.00000858	13560	20
313.15	.00000858	13260	20
323.15	.00000858	12730	20
333.15	.00000858	12140	20
303.15	.00000931	14820	20
313.15	.00000931	14210	20
323.15	.00000931	13940	20
333.15	.00000931	13350	20
