Measured thermophysical data. Contributing to accurate high pressure viscosity measurements: Vibrating wire viscometer and falling body viscometer techniques
Source: J. Chem. Thermodyn., 2016, 10.1016/j.jct.2015.12.021
Compound 1: dodecane, C12H26, purity 99%
Compound 2: heptane, C7H16, purity 99.5%
Compound 3: toluene, C7H8, purity 99.8%
Compound 4: 1,2,4-trimethylbenzene, C9H12, purity 99.7%
Compound 5: 2,2,4-trimethylpentane, C8H18, purity 99.5%

System: dodecane; phases: Liquid
Property: Viscosity, Pa*s (Liquid); method: Vibrating wire viscometry
Temperature, K	Pressure, kPa	Viscosity, Pa*s	uncertainty
293.15	100	.0014907	
293.15	1000	.0015074	
293.15	5000	.0015864	
293.15	10000	.0016724	
293.15	20000	.0018769	
293.15	30000	.0020836	
293.15	40000	.0023101	
293.15	50000	.0025603	
293.15	60000	.0028216	
293.15	70000	.003112	
293.15	80000	.0034276	
293.15	100000	.0041175	
293.15	120000	.0049531	
293.15	140000	.0058158	
313.15	100	.0010641	
313.15	1000	.0010744	
313.15	5000	.0011244	
313.15	10000	.0012006	
313.15	20000	.0013242	
313.15	30000	.0014755	
313.15	40000	.0016251	
313.15	50000	.0017785	
313.15	60000	.0019457	
313.15	70000	.0021286	
313.15	80000	.0023197	
313.15	100000	.0027576	
313.15	120000	.0032313	
313.15	140000	.0037547	
333.15	100	.0008013	
333.15	1000	.0008127	
333.15	5000	.000855	
333.15	10000	.0008975	
333.15	20000	.0010008	
333.15	30000	.0010953	
333.15	40000	.0012161	
333.15	50000	.0013214	
333.15	60000	.0014401	
333.15	70000	.001576	
333.15	80000	.0017068	
333.15	100000	.001994	
333.15	120000	.0023016	
333.15	140000	.0026571	
353.15	100	.0006281	
353.15	1000	.0006372	
353.15	5000	.0006713	
353.15	10000	.0007053	
353.15	20000	.0007819	
353.15	30000	.0008694	
353.15	40000	.0009528	
353.15	50000	.0010366	
353.15	60000	.001123	
353.15	70000	.0012126	
353.15	80000	.0013124	
353.15	100000	.0015316	
353.15	120000	.0017568	
353.15	140000	.0020233	
373.15	100	.0005055	
373.15	1000	.0005149	
373.15	5000	.0005392	
373.15	10000	.0005743	
373.15	20000	.0006286	
373.15	30000	.0007003	
373.15	40000	.0007715	
373.15	50000	.0008425	
373.15	60000	.00091	
373.15	70000	.0009844	
373.15	80000	.0010656	
373.15	100000	.0012199	
373.15	120000	.0014019	
373.15	140000	.001588	

System: dodecane; phases: Liquid
Property: Viscosity, Pa*s (Liquid); method: Falling or rolling sphere viscometry
Temperature, K	Pressure, kPa	Viscosity, Pa*s	uncertainty
313.15	5000	.0011345	
313.15	10000	.0012184	
333.15	5000	.0008518	
333.15	10000	.000903	
333.15	20000	.0010019	
333.15	30000	.0011118	
333.15	40000	.0012227	
353.15	5000	.0006657	
353.15	10000	.0007047	
353.15	20000	.0007791	
353.15	30000	.0008651	
353.15	40000	.0009597	
353.15	60000	.0011212	

System: heptane; phases: Liquid
Property: Viscosity, Pa*s (Liquid); method: Falling or rolling sphere viscometry
Temperature, K	Pressure, kPa	Viscosity, Pa*s	uncertainty
293.15	5000	.0004359	
293.15	10000	.0004603	
293.15	20000	.0005074	
293.15	30000	.0005517	
293.15	40000	.0005949	
293.15	60000	.0006912	
293.15	80000	.0007864	
293.15	100000	.0009027	
293.15	120000	.0010307	
313.15	5000	.0003564	
313.15	10000	.0003756	
313.15	20000	.0004131	
313.15	30000	.0004518	
313.15	40000	.0004899	
313.15	60000	.0005683	
313.15	80000	.0006498	
313.15	100000	.0007309	
313.15	120000	.0008186	

System: heptane; phases: Liquid
Property: Viscosity, Pa*s (Liquid); method: Vibrating wire viscometry
Temperature, K	Pressure, kPa	Viscosity, Pa*s	uncertainty
293.15	100	.0004151	
293.15	1000	.0004202	
293.15	5000	.0004354	
293.15	10000	.0004579	
293.15	20000	.0005013	
293.15	30000	.0005459	
293.15	40000	.000595	
293.15	50000	.0006406	
293.15	60000	.0006927	
293.15	70000	.0007446	
293.15	80000	.0007965	
293.15	100000	.0009106	
293.15	120000	.0010284	
293.15	140000	.0011602	
298.15	100	.0003914	
298.15	1000	.0003962	
298.15	5000	.0004142	
298.15	10000	.0004329	
298.15	20000	.0004756	
298.15	30000	.0005175	
298.15	40000	.0005613	
298.15	50000	.0006081	
298.15	60000	.0006535	
298.15	70000	.0007026	
298.15	80000	.0007519	
298.15	100000	.0008572	
298.15	120000	.000972	
298.15	140000	.0010889	
313.15	100	.0003379	
313.15	1000	.0003412	
313.15	5000	.000354	
313.15	10000	.0003735	
313.15	20000	.0004074	
313.15	30000	.0004462	
313.15	40000	.0004806	
313.15	50000	.0005208	
313.15	60000	.0005563	
313.15	70000	.0005992	
313.15	80000	.00064	
313.15	100000	.0007259	
313.15	120000	.0008176	
313.15	140000	.0009137	
333.15	100	.0002821	
333.15	1000	.0002844	
333.15	5000	.0002965	
333.15	10000	.0003121	
333.15	20000	.0003415	
333.15	30000	.0003746	
333.15	40000	.0004061	
333.15	50000	.0004355	
333.15	60000	.0004681	
333.15	70000	.0005022	
333.15	80000	.0005337	
333.15	100000	.000603	
333.15	120000	.0006736	
333.15	140000	.0007509	
353.15	100	.0002406	
353.15	1000	.0002435	
353.15	5000	.0002549	
353.15	10000	.0002672	
353.15	20000	.0002957	
353.15	30000	.0003216	
353.15	40000	.0003493	
353.15	50000	.000373	
353.15	60000	.0004019	
353.15	70000	.0004304	
353.15	80000	.000457	
353.15	100000	.0005119	
353.15	120000	.0005735	
353.15	140000	.0006335	
363.15	100	.0002224	
363.15	1000	.0002254	
363.15	5000	.0002374	
363.15	10000	.0002493	
363.15	20000	.0002757	
363.15	30000	.0002996	
363.15	40000	.0003252	
363.15	50000	.0003504	
363.15	60000	.0003754	
363.15	70000	.0003978	
363.15	80000	.0004243	
363.15	100000	.0004782	
363.15	120000	.0005314	
363.15	140000	.0005865	

System: toluene; phases: Liquid
Property: Viscosity, Pa*s (Liquid); method: Vibrating wire viscometry
Temperature, K	Pressure, kPa	Viscosity, Pa*s	uncertainty
293.15	100	.0005907	
293.15	1000	.0005928	
293.15	5000	.0006152	
293.15	10000	.0006387	
293.15	20000	.0006881	
293.15	30000	.0007354	
293.15	40000	.0007913	
293.15	50000	.0008532	
293.15	60000	.000908	
293.15	70000	.0009632	
293.15	80000	.0010218	
293.15	100000	.0011493	
293.15	120000	.0012874	
293.15	140000	.0014558	
298.15	100	.0005555	
298.15	1000	.0005603	
298.15	5000	.0005772	
298.15	10000	.0006006	
298.15	20000	.0006478	
298.15	30000	.000692	
298.15	40000	.0007442	
298.15	50000	.0007983	
298.15	60000	.0008463	
298.15	70000	.0009027	
298.15	80000	.0009625	
298.15	100000	.0010811	
298.15	120000	.0012109	
298.15	140000	.0013488	
313.15	100	.000469	
313.15	1000	.0004746	
313.15	5000	.0004885	
313.15	10000	.0005046	
313.15	20000	.0005496	
313.15	30000	.0005914	
313.15	40000	.0006239	
313.15	50000	.0006704	
313.15	60000	.0007133	
313.15	70000	.0007572	
313.15	80000	.0008098	
313.15	100000	.0009082	
313.15	120000	.001009	
313.15	140000	.0011281	
323.15	100	.0004214	
323.15	1000	.0004238	
323.15	5000	.0004385	
323.15	10000	.0004551	
323.15	20000	.0004877	
323.15	30000	.0005293	
323.15	40000	.000565	
323.15	50000	.0006021	
323.15	60000	.0006377	
323.15	70000	.0006789	
323.15	80000	.0007322	
323.15	100000	.000809	
323.15	120000	.0009034	
323.15	140000	.0010041	
333.15	100	.0003804	
333.15	1000	.0003856	
333.15	5000	.0003986	
333.15	10000	.0004153	
333.15	20000	.0004495	
333.15	30000	.0004794	
333.15	40000	.0005135	
333.15	50000	.0005485	
333.15	60000	.0005835	
333.15	70000	.0006187	
333.15	80000	.0006579	
333.15	100000	.0007353	
333.15	120000	.0008176	
333.15	140000	.0009111	
348.15	100	.0003302	
348.15	1000	.0003361	
348.15	5000	.0003457	
348.15	10000	.0003588	
348.15	20000	.0003876	
348.15	30000	.000418	
348.15	40000	.0004485	
348.15	50000	.0004795	
348.15	60000	.0005089	
348.15	70000	.0005441	
348.15	80000	.0005721	
348.15	100000	.0006407	
348.15	120000	.0007088	
348.15	140000	.0007836	
353.15	100	.0003163	
353.15	1000	.0003177	
353.15	5000	.0003319	
353.15	10000	.0003449	
353.15	20000	.0003701	
353.15	30000	.0004006	
353.15	40000	.0004291	
353.15	50000	.000462	
353.15	60000	.0004919	
353.15	70000	.0005176	
353.15	80000	.0005478	
353.15	100000	.0006113	
353.15	120000	.0006825	
353.15	140000	.000755	
373.15	100	.0002667	
373.15	1000	.0002671	
373.15	5000	.0002782	
373.15	10000	.0002893	
373.15	20000	.000315	
373.15	30000	.0003401	
373.15	40000	.0003643	
373.15	50000	.0003876	
373.15	60000	.0004138	
373.15	70000	.0004372	
373.15	80000	.0004649	
373.15	100000	.0005193	

System: 1,2,4-trimethylbenzene; phases: Liquid
Property: Viscosity, Pa*s (Liquid); method: Vibrating wire viscometry
Temperature, K	Pressure, kPa	Viscosity, Pa*s	uncertainty
293.15	100	.0008929	
293.15	1000	.0009065	
293.15	5000	.0009417	
293.15	10000	.0009769	
293.15	20000	.001061	
293.15	30000	.0011479	
293.15	40000	.0012332	
293.15	50000	.0013362	
293.15	60000	.0014349	
293.15	70000	.0015664	
293.15	80000	.0016926	
293.15	100000	.0019518	
293.15	120000	.0022875	
293.15	140000	.0026681	
313.15	100	.0006989	
313.15	1000	.0007096	
313.15	5000	.0007359	
313.15	10000	.0007606	
313.15	20000	.0008203	
313.15	30000	.0008894	
313.15	40000	.0009528	
313.15	50000	.0010264	
313.15	60000	.0010996	
313.15	70000	.0011708	
313.15	80000	.0012493	
313.15	100000	.0014146	
313.15	120000	.0015986	
313.15	140000	.0018238	
333.15	100	.0005596	
333.15	1000	.0005646	
333.15	5000	.0005885	
333.15	10000	.0006066	
333.15	20000	.0006476	
333.15	30000	.0006942	
333.15	40000	.0007426	
333.15	50000	.0007922	
333.15	60000	.0008456	
333.15	70000	.0009004	
333.15	80000	.0009675	
333.15	100000	.0010938	
333.15	120000	.0012212	
333.15	140000	.0013427	
353.15	100	.0004527	
353.15	1000	.0004566	
353.15	5000	.0004711	
353.15	10000	.0004886	
353.15	20000	.0005283	
353.15	30000	.0005626	
353.15	40000	.0005993	
353.15	50000	.0006375	
353.15	60000	.0006768	
353.15	70000	.0007177	
353.15	80000	.0007606	
353.15	100000	.0008518	
353.15	120000	.0009515	
353.15	140000	.0010646	

System: 1,2,4-trimethylbenzene; phases: Liquid
Property: Viscosity, Pa*s (Liquid); method: Falling or rolling sphere viscometry
Temperature, K	Pressure, kPa	Viscosity, Pa*s	uncertainty
293.15	5000	.000913	
293.15	10000	.0009568	
293.15	20000	.001042	
293.15	30000	.001137	
293.15	40000	.0012242	
313.15	5000	.0007254	
313.15	10000	.0007531	
313.15	20000	.0008131	
313.15	30000	.0008704	
313.15	40000	.0009344	
313.15	60000	.0010697	
313.15	80000	.0012496	
333.15	5000	.0005819	
333.15	10000	.0006058	
333.15	20000	.0006529	
333.15	30000	.0007014	
333.15	40000	.0007504	
333.15	60000	.0008467	
333.15	80000	.0009594	
333.15	100000	.0010858	
333.15	120000	.0012282	
353.15	5000	.0004715	
353.15	10000	.000492	
353.15	20000	.000532	
353.15	30000	.000571	
353.15	40000	.0006125	
353.15	60000	.0006967	
353.15	80000	.0007819	
353.15	100000	.0008778	
353.15	120000	.0009727	

System: 2,2,4-trimethylpentane; phases: Liquid
Property: Viscosity, Pa*s (Liquid); method: Vibrating wire viscometry
Temperature, K	Pressure, kPa	Viscosity, Pa*s	uncertainty
293.15	100	.0005064	
293.15	1000	.00051	
293.15	5000	.0005399	
293.15	10000	.0005733	
293.15	20000	.0006366	
293.15	30000	.0007059	
293.15	40000	.0007817	
293.15	50000	.0008608	
293.15	60000	.0009567	
293.15	70000	.0010416	
293.15	80000	.0011268	
293.15	100000	.0013157	
293.15	120000	.001518	
293.15	140000	.0017391	
298.15	100	.0004746	
298.15	1000	.0004819	
298.15	5000	.000509	
298.15	10000	.0005388	
298.15	20000	.0006027	
298.15	30000	.0006672	
298.15	40000	.0007394	
298.15	50000	.0008154	
298.15	60000	.0008956	
298.15	70000	.0009815	
298.15	80000	.0010698	
298.15	100000	.0012345	
298.15	120000	.0014345	
298.15	140000	.001648	
313.15	100	.0004035	
313.15	1000	.0004114	
313.15	5000	.0004353	
313.15	10000	.0004633	
313.15	20000	.0005177	
313.15	30000	.0005775	
313.15	40000	.0006351	
313.15	50000	.0006902	
313.15	60000	.0007509	
313.15	70000	.0008173	
313.15	80000	.0008861	
313.15	100000	.001045	
313.15	120000	.0011953	
313.15	140000	.0013627	
323.15	100	.0003645	
323.15	1000	.0003694	
323.15	5000	.0003915	
323.15	10000	.0004157	
323.15	20000	.000464	
323.15	30000	.0005146	
323.15	40000	.0005714	
323.15	50000	.0006255	
323.15	60000	.0006832	
323.15	70000	.000742	
323.15	80000	.0007969	
323.15	100000	.0009249	
323.15	120000	.0010679	
323.15	140000	.0012102	
333.15	100	.0003265	
333.15	1000	.0003296	
333.15	5000	.0003515	
333.15	10000	.0003754	
333.15	20000	.0004216	
333.15	30000	.0004705	
333.15	40000	.0005232	
333.15	50000	.000579	
333.15	60000	.0006246	
333.15	70000	.0006779	
333.15	80000	.000728	
333.15	100000	.0008361	
333.15	120000	.0009606	
333.15	140000	.0010951	
348.15	100	.0002829	
348.15	1000	.0002863	
348.15	5000	.000306	
348.15	10000	.0003274	
348.15	20000	.0003692	
348.15	30000	.0004131	
348.15	40000	.0004565	
348.15	50000	.0005022	
348.15	60000	.0005476	
348.15	70000	.0006049	
348.15	80000	.0006507	
348.15	100000	.0007538	
348.15	120000	.000864	
348.15	140000	.000977	
353.15	100	.0002738	
353.15	1000	.0002748	
353.15	5000	.0002923	
353.15	10000	.0003175	
353.15	20000	.000357	
353.15	30000	.0003966	
353.15	40000	.0004379	
353.15	50000	.0004853	
353.15	60000	.0005294	
353.15	70000	.0005738	
353.15	80000	.0006288	
353.15	100000	.0007176	
353.15	120000	.0008245	
353.15	140000	.0009332	

System: 2,2,4-trimethylpentane; phases: Liquid
Property: Viscosity, Pa*s (Liquid); method: Falling or rolling sphere viscometry
Temperature, K	Pressure, kPa	Viscosity, Pa*s	uncertainty
293.15	5000	.0005412	
293.15	10000	.0005744	
293.15	20000	.0006401	
293.15	30000	.0007047	
293.15	40000	.0007738	
293.15	60000	.0009262	
293.15	80000	.0011148	
293.15	100000	.0012975	
313.15	5000	.0004251	
313.15	10000	.0004517	
313.15	20000	.0005129	
313.15	30000	.0005662	
313.15	40000	.0006128	
313.15	60000	.0007307	
313.15	80000	.0008553	
313.15	100000	.0010242	
313.15	120000	.0011845	
333.15	5000	.0003468	
333.15	10000	.00037	
333.15	20000	.0004153	
333.15	30000	.000459	
333.15	40000	.0005083	
333.15	60000	.0006083	
333.15	80000	.0006981	
333.15	100000	.0008101	
333.15	120000	.0009406	
