Measured thermophysical data. Experimental and computational thermochemical studies of 6-azauracil derivatives
Source: J. Chem. Thermodyn., 2016, 10.1016/j.jct.2015.12.020
Compound 1: 6-azauracil, C3H3N3O2, purity 98%
Compound 2: 6-azathymine, C4H5N3O2, purity 98%
Compound 3: 6-aza-2-thiothymine, C4H5N3OS, purity 98%
Compound 4: carbon dioxide, CO2
Compound 5: nitrogen, N2
Compound 6: water, H2O
Compound 7: oxygen, O2
Compound 8: sulfuric acid, H2O4S

System: 6-azauracil; phases: Crystal, Gas
Property: Molar enthalpy of vaporization or sublimation, kJ/mol (Crystal); method: Static calorimetry
Temperature, K	Molar enthalpy of vaporization or sublimation, kJ/mol	uncertainty
298.15	118.1	2

System: 6-azauracil; phases: Crystal, Gas
Property: Vapor or sublimation pressure, kPa (Crystal); method: Knudsen effusion method
Temperature, K	Vapor or sublimation pressure, kPa	uncertainty
377.16	.00012	
379.12	.000142	
383.16	.000227	
385.1	.000269	
389.15	.000413	
391.1	.000477	
393.1	.000575	
395.15	.000684	
397.13	.000812	
399.12	.000945	
377.16	.000109	
379.12	.000138	
381.1	.000167	
383.16	.000205	
385.1	.000252	
387.09	.000301	
389.15	.00037	
391.1	.000452	
393.1	.000538	
395.15	.00061	
397.13	.000756	
399.12	.000901	
377.16	.000109	
379.12	.000131	
381.1	.000164	
383.16	.000198	
385.1	.000229	
387.09	.000282	
389.15	.000355	
391.1	.000422	
393.1	.000515	
395.15	.000596	
397.13	.000711	
399.12	.000859	

System: 6-azauracil; phases: Gas, Crystal
Property: Molar enthalpy, kJ/mol (Gas); method: Drop calorimetry
Temperature, K	Molar enthalpy, kJ/mol	uncertainty
452.6	137.2	

System: 6-azathymine; phases: Crystal, Gas
Property: Molar enthalpy of vaporization or sublimation, kJ/mol (Crystal); method: Static calorimetry
Temperature, K	Molar enthalpy of vaporization or sublimation, kJ/mol	uncertainty
298.15	109.1	2.3

System: 6-azathymine; phases: Gas, Crystal
Property: Molar enthalpy, kJ/mol (Gas); method: Drop calorimetry
Temperature, K	Molar enthalpy, kJ/mol	uncertainty
427	128.4	

System: 6-aza-2-thiothymine; phases: Crystal, Gas
Property: Molar enthalpy of vaporization or sublimation, kJ/mol (Crystal); method: Static calorimetry
Temperature, K	Molar enthalpy of vaporization or sublimation, kJ/mol	uncertainty
298.15	120.1	2.8

System: 6-aza-2-thiothymine; phases: Gas, Crystal
Property: Molar enthalpy, kJ/mol (Gas); method: Drop calorimetry
Temperature, K	Molar enthalpy, kJ/mol	uncertainty
427	139.9	

Reaction: -1 6-azauracil + 3 carbon dioxide + 1.5 nitrogen + 1.5 water + -2.75 oxygen
Property: Specific internal energy of reaction at constant volume, J/g
-11733.67

Reaction: -1 6-azathymine + 4 carbon dioxide + 1.5 nitrogen + 2.5 water + -4.25 oxygen
Property: Specific internal energy of reaction at constant volume, J/g
-15474.36

Reaction: -1 6-aza-2-thiothymine + 1 sulfuric acid + 4 carbon dioxide + 1.5 nitrogen + 1.5 water + -6.25 oxygen
Property: Specific internal energy of reaction at constant volume, J/g
-19550.41
