Measured thermophysical data. Solubility of cefoxitin acid in different solvent systems
Source: J. Chem. Thermodyn., 2016, 10.1016/j.jct.2016.07.049
Compound 1: Cefoxitin, C16H17N3O7S2, purity 99.8%
Compound 2: methanol, CH4O, purity 99.5%
Compound 3: ethanol, C2H6O, purity 99.5%
Compound 4: n-propanol, C3H8O, purity 99.5%
Compound 5: isopropanol, C3H8O, purity 99.5%
Compound 6: ethyl acetate, C4H8O2, purity 99.5%
Compound 7: acetonitrile, C2H3N, purity 99.5%
Compound 8: water, H2O, purity 99.9%

System: methanol + Cefoxitin; phases: Liquid, Crystal
Fixed: Pressure, kPa = 100
Property: Mole fraction of Cefoxitin (Liquid); method: UV-VIS spectrophotometry
Temperature, K	Mole fraction of Cefoxitin	uncertainty
278.15	.005646	
283.15	.006575	
288.15	.007717	
293.15	.009194	
298.15	.01097	
303.15	.01289	
308.15	.01495	

System: ethyl acetate + Cefoxitin; phases: Liquid, Crystal
Fixed: Pressure, kPa = 100
Property: Mole fraction of Cefoxitin (Liquid); method: UV-VIS spectrophotometry
Temperature, K	Mole fraction of Cefoxitin	uncertainty
278.15	.0002289	
283.15	.0002412	
288.15	.0002571	
293.15	.0002668	
298.15	.0002825	
303.15	.0002964	
308.15	.0003198	

System: acetonitrile + Cefoxitin; phases: Liquid, Crystal
Fixed: Pressure, kPa = 100
Property: Mole fraction of Cefoxitin (Liquid); method: UV-VIS spectrophotometry
Temperature, K	Mole fraction of Cefoxitin	uncertainty
278.15	.0004521	
283.15	.0004914	
288.15	.0005278	
293.15	.0005795	
298.15	.0006206	
303.15	.0006773	
308.15	.0007602	

System: n-propanol + Cefoxitin; phases: Liquid, Crystal
Fixed: Pressure, kPa = 100
Property: Mole fraction of Cefoxitin (Liquid); method: UV-VIS spectrophotometry
Temperature, K	Mole fraction of Cefoxitin	uncertainty
278.15	.0002092	
283.15	.0002534	
288.15	.0002858	
293.15	.0003375	
298.15	.0003935	
303.15	.0004917	
308.15	.0005613	

System: isopropanol + Cefoxitin; phases: Liquid, Crystal
Fixed: Pressure, kPa = 100
Property: Mole fraction of Cefoxitin (Liquid); method: UV-VIS spectrophotometry
Temperature, K	Mole fraction of Cefoxitin	uncertainty
278.15	.000044	
283.15	.0000719	
288.15	.0001094	
293.15	.0001508	
298.15	.0001858	
303.15	.0002428	
308.15	.0003138	

System: ethanol + Cefoxitin; phases: Liquid, Crystal
Fixed: Pressure, kPa = 100
Property: Mole fraction of Cefoxitin (Liquid); method: UV-VIS spectrophotometry
Temperature, K	Mole fraction of Cefoxitin	uncertainty
278.15	.0004034	
283.15	.0004838	
288.15	.0006029	
293.15	.0007389	
298.15	.0008521	
303.15	.001028	
308.15	.001176	

System: methanol + water + Cefoxitin; phases: Liquid, Crystal of intercomponent compound 1
Fixed: Pressure, kPa = 100
Property: Mole fraction of Cefoxitin (Liquid); method: UV-VIS spectrophotometry
Mole fraction of methanol	Temperature, K	Mole fraction of Cefoxitin	uncertainty
0	278.15	.0000246	
0	283.15	.00003028	
0	288.15	.00004025	
0	293.15	.00005127	
0	298.15	.00006918	
0	303.15	.00008227	
0	308.15	.0001129	
.10129	278.15	.00005674	
.10129	283.15	.0000713	
.10128	288.15	.00009227	
.10128	293.15	.0001176	
.10127	298.15	.0001509	
.10126	303.15	.0001836	
.10125	308.15	.000233	
.20106	278.15	.0001086	
.20105	283.15	.0001318	
.20103	288.15	.0001648	
.20101	293.15	.0002177	
.20099	298.15	.0002729	
.20097	303.15	.0003279	
.20094	308.15	.0004094	
.29319	278.15	.0001949	
.29316	283.15	.0002323	
.29312	288.15	.0002987	
.29308	293.15	.0003787	
.29303	298.15	.0004603	
.29298	303.15	.0005508	
.29288	308.15	.0007085	
.40173	278.15	.000333	
.40169	283.15	.0003883	
.4016	288.15	.0004969	
.4015	293.15	.0006243	
.4014	298.15	.0007484	
.40129	303.15	.0008811	
.40109	308.15	.001131	
.49969	278.15	.0006099	
.49959	283.15	.000707	
.49942	288.15	.0008782	
.49919	293.15	.001107	
.49898	298.15	.001314	
.49876	303.15	.001544	
.49837	308.15	.001933	
.59826	278.15	.0008717	
.59812	283.15	.0009808	
.59784	288.15	.001219	
.59745	293.15	.001545	
.59714	298.15	.001805	
.5968	303.15	.002083	
.59613	308.15	.002648	

System: water + Cefoxitin; phases: Liquid, Crystal of intercomponent compound 1
Property: Mole fraction of Cefoxitin (Liquid); method: UV-VIS spectrophotometry
Temperature, K	Pressure, kPa	Mole fraction of Cefoxitin	uncertainty
278.15	100	.0000246	
283.15	100	.00003028	
288.15	100	.00004025	
293.15	100	.00005127	
298.15	100	.00006918	
303.15	100	.00008227	
308.15	100	.0001129	
