Measured thermophysical data. Evaluation of the polysubstituted pyridinium ionic liquid [hmmpy][Ntf2] as a  suitable solvent for desulfurization: Phase equilibria
Source: J. Chem. Thermodyn., 2010, 10.1016/j.jct.2010.01.005
Compound 1: toluene, C7H8, purity 99.5%
Compound 2: pentane, 2,2,4-trimethyl-, C8H18, purity 99.5%
Compound 3: thiophene, C4H4S, purity 99.5%
Compound 4: heptane, C7H16, purity 99.5%
Compound 5: 1-hexyl-3,5-dimethylpyridinium bis(trifluoromethylsulfonyl)imide, C15H22F6N2O4S2, purity 97%

System: 1-hexyl-3,5-dimethylpyridinium bis(trifluoromethylsulfonyl)imide; phases: Liquid
Fixed: Pressure, kPa = 101.325
Property: Mass density, kg/m3 (Liquid); method: Vibrating tube method
Temperature, K	Mass density, kg/m3	uncertainty
298.15	1328.14	.03

System: 1-hexyl-3,5-dimethylpyridinium bis(trifluoromethylsulfonyl)imide; phases: Liquid
Fixed: Pressure, kPa = 101.325
Property: Refractive index (Na D-line) (Liquid); method: Standard Abbe refractometry
Temperature, K	Refractive index (Na D-line)	uncertainty
298.15	1.44978	.00004

System: thiophene + heptane + 1-hexyl-3,5-dimethylpyridinium bis(trifluoromethylsulfonyl)imide; phases: Liquid mixture 1, Liquid mixture 2
Fixed: Pressure, kPa = 101.325
Property: Mole fraction of heptane (Liquid mixture 1); method: Chromatography
Property: Mole fraction of thiophene (Liquid mixture 2); method: Chromatography
Property: Mole fraction of heptane (Liquid mixture 2); method: Chromatography
Temperature, K	Mole fraction of thiophene	Mole fraction of heptane	uncertainty	Mole fraction of thiophene	uncertainty	Mole fraction of heptane	uncertainty
298.15	0	1	.006	0	.007	.165	.007
298.15	.061	.939	.006	.157	.007	.153	.007
298.15	.134	.866	.006	.273	.007	.146	.007
298.15	.22	.78	.006	.381	.007	.135	.007
298.15	.287	.711	.006	.436	.007	.14	.007
298.15	.371	.629	.006	.496	.007	.133	.007
298.15	.443	.557	.006	.554	.007	.123	.007
298.15	.595	.405	.006	.63	.007	.115	.007
298.15	.739	.261	.006	.695	.007	.107	.007
298.15	.843	.157	.006	.794	.007	.072	.007
298.15	1	0	.006	.918	.007	0	.007

System: thiophene + pentane, 2,2,4-trimethyl- + 1-hexyl-3,5-dimethylpyridinium bis(trifluoromethylsulfonyl)imide; phases: Liquid mixture 1, Liquid mixture 2
Fixed: Pressure, kPa = 101.325
Property: Mole fraction of pentane, 2,2,4-trimethyl- (Liquid mixture 1); method: Chromatography
Property: Mole fraction of thiophene (Liquid mixture 2); method: Chromatography
Property: Mole fraction of pentane, 2,2,4-trimethyl- (Liquid mixture 2); method: Chromatography
Temperature, K	Mole fraction of thiophene	Mole fraction of pentane, 2,2,4-trimethyl-	uncertainty	Mole fraction of thiophene	uncertainty	Mole fraction of pentane, 2,2,4-trimethyl-	uncertainty
298.15	0	1	.006	0	.007	.149	.007
298.15	.118	.882	.006	.31	.007	.142	.007
298.15	.283	.717	.006	.515	.007	.12	.007
298.15	.404	.596	.006	.575	.007	.107	.007
298.15	.545	.455	.006	.596	.007	.106	.007
298.15	.697	.303	.006	.667	.007	.09	.007
298.15	.818	.182	.006	.728	.007	.078	.007
298.15	.952	.048	.006	.873	.007	.03	.007
298.15	1	0	.006	.918	.007	0	.007

System: toluene + thiophene + 1-hexyl-3,5-dimethylpyridinium bis(trifluoromethylsulfonyl)imide; phases: Liquid mixture 1, Liquid mixture 2
Fixed: Pressure, kPa = 101.325
Property: Mole fraction of toluene (Liquid mixture 1); method: Chromatography
Property: Mole fraction of thiophene (Liquid mixture 2); method: Chromatography
Property: Mole fraction of toluene (Liquid mixture 2); method: Chromatography
Temperature, K	Mole fraction of thiophene	Mole fraction of toluene	uncertainty	Mole fraction of thiophene	uncertainty	Mole fraction of toluene	uncertainty
298.15	0	1	.006	0	.007	.83	.007
298.15	.097	.903	.006	.078	.007	.753	.007
298.15	.223	.777	.006	.184	.007	.657	.007
298.15	.308	.688	.006	.258	.007	.588	.007
298.15	.426	.574	.006	.352	.007	.496	.007
298.15	.538	.462	.006	.448	.007	.398	.007
298.15	.616	.384	.006	.517	.007	.34	.007
298.15	.678	.322	.006	.574	.007	.287	.007
298.15	.748	.252	.006	.644	.007	.232	.007
298.15	.882	.118	.006	.808	.007	.118	.007
298.15	1	0	.006	.918	.007	0	.007
