Measured thermophysical data. Ternary (liquid + liquid) equilibria of {bis(trifluoromethylsulfonyl)-amide based ionic liquids + butan-1-ol + water}
Source: J. Chem. Thermodyn., 2016, 10.1016/j.jct.2015.11.002
Compound 1: 1-butyl-1-methylpiperidinium bis(trifluoromethanesulfonyl)imide, C12H22F6N2O4S2, purity 99.0%
Compound 2: 1-(2-methoxyethyl)-1-methylpiperidinium bis(trifluoromethylsulfonyl)imide, C11H20F6N2O5S2, purity 99.5%
Compound 3: 1-(2-methoxyethyl)-1-methylpyrrolidinium bis((trifluoromethyl)sulfonyl)amide, C10H18F6N2O5S2, purity 99.5%
Compound 4: 1-butanol, C4H10O, purity 99.8%
Compound 5: water, H2O

System: 1-butanol + water + 1-butyl-1-methylpiperidinium bis(trifluoromethanesulfonyl)imide; phases: Liquid mixture 2, Liquid mixture 1
Fixed: Temperature, K = 298.15
Fixed: Pressure, kPa = 100
Property: Mole fraction of 1-butanol (Liquid mixture 2); method: Chromatography
Property: Mole fraction of 1-butanol (Liquid mixture 1); method: Chromatography
Property: Mole fraction of 1-butyl-1-methylpiperidinium bis(trifluoromethanesulfonyl)imide (Liquid mixture 1); method: Chromatography
Mole fraction of 1-butyl-1-methylpiperidinium bis(trifluoromethanesulfonyl)imide	Mole fraction of 1-butanol	uncertainty	Mole fraction of 1-butanol	uncertainty	Mole fraction of 1-butyl-1-methylpiperidinium bis(trifluoromethanesulfonyl)imide	uncertainty
.735	0	.002	0	.002	0	.002
.352	.296	.002	.014	.002	.001	.002
.347	.3	.002	.014	.002	.001	.002
.283	.335	.002	.015	.002	.001	.002
.275	.346	.002	.016	.002	.001	.002
.256	.354	.002	.016	.002	.001	.002
.166	.403	.002	.017	.002	.001	.002
.145	.41	.002	.017	.002	.001	.002
.089	.435	.002	.018	.002	.001	.002
.06	.445	.002	.018	.002	0	.002
.036	.453	.002	.018	.002	0	.002
.015	.462	.002	.018	.002	0	.002
0	.486	.002	.019	.002	0	.002
.692	.035	.002	0	.002	0	.002
.676	.044	.002	.003	.002	.001	.002
.569	.13	.002	.007	.002	.001	.002
.547	.147	.002	.008	.002	.001	.002
.492	.191	.002	.011	.002	.001	.002
.416	.248	.002	.013	.002	.001	.002

System: 1-butanol + water + 1-(2-methoxyethyl)-1-methylpiperidinium bis(trifluoromethylsulfonyl)imide; phases: Liquid mixture 2, Liquid mixture 1
Fixed: Temperature, K = 298.15
Fixed: Pressure, kPa = 100
Property: Mole fraction of 1-(2-methoxyethyl)-1-methylpiperidinium bis(trifluoromethylsulfonyl)imide (Liquid mixture 2); method: Chromatography
Property: Mole fraction of 1-butanol (Liquid mixture 1); method: Chromatography
Property: Mole fraction of 1-(2-methoxyethyl)-1-methylpiperidinium bis(trifluoromethylsulfonyl)imide (Liquid mixture 1); method: Chromatography
Mole fraction of 1-butanol	Mole fraction of 1-(2-methoxyethyl)-1-methylpiperidinium bis(trifluoromethylsulfonyl)imide	uncertainty	Mole fraction of 1-butanol	uncertainty	Mole fraction of 1-(2-methoxyethyl)-1-methylpiperidinium bis(trifluoromethylsulfonyl)imide	uncertainty
0	.648	.002	0	.002	0	.002
.477	.001	.002	.018	.002	.001	.002
.486	0	.002	.019	.002	0	.002
.283	.264	.002	.014	.002	.002	.002
.104	.518	.002	.007	.002	.002	.002
.169	.45	.002	.01	.002	.002	.002
.18	.425	.002	.011	.002	.002	.002
.198	.403	.002	.013	.002	.002	.002
.227	.357	.002	.013	.002	.002	.002
.23	.352	.002	.013	.002	.002	.002
.267	.3	.002	.014	.002	.002	.002
.352	.129	.002	.017	.002	.001	.002
.26	.309	.002	.015	.002	.002	.002
.272	.287	.002	.015	.002	.002	.002
.275	.273	.002	.015	.002	.001	.002
.297	.242	.002	.015	.002	.002	.002
.304	.221	.002	.015	.002	.001	.002
.299	.228	.002	.016	.002	.002	.002
.329	.175	.002	.016	.002	.001	.002
.383	.062	.002	.017	.002	.001	.002
.097	.534	.002	.006	.002	.002	.002
.392	.03	.002	.018	.002	.001	.002
.398	.017	.002	.018	.002	.001	.002
.398	.016	.002	.018	.002	0	.002
.402	.015	.002	.018	.002	.001	.002
.406	.011	.002	.018	.002	.001	.002

System: 1-butanol + water + 1-(2-methoxyethyl)-1-methylpyrrolidinium bis((trifluoromethyl)sulfonyl)amide; phases: Liquid mixture 1, Liquid mixture 2
Fixed: Temperature, K = 298.15
Fixed: Pressure, kPa = 100
Property: Mole fraction of 1-(2-methoxyethyl)-1-methylpyrrolidinium bis((trifluoromethyl)sulfonyl)amide (Liquid mixture 1); method: Chromatography
Property: Mole fraction of 1-butanol (Liquid mixture 2); method: Chromatography
Property: Mole fraction of 1-(2-methoxyethyl)-1-methylpyrrolidinium bis((trifluoromethyl)sulfonyl)amide (Liquid mixture 2); method: Chromatography
Mole fraction of 1-butanol	Mole fraction of 1-(2-methoxyethyl)-1-methylpyrrolidinium bis((trifluoromethyl)sulfonyl)amide	uncertainty	Mole fraction of 1-butanol	uncertainty	Mole fraction of 1-(2-methoxyethyl)-1-methylpyrrolidinium bis((trifluoromethyl)sulfonyl)amide	uncertainty
0	0	.002	0	.002	.638	.002
.019	.001	.002	.415	.002	.01	.002
.019	0	.002	.418	.002	.009	.002
.011	.002	.002	.171	.002	.419	.002
.019	0	.002	.418	.002	.008	.002
.019	0	.002	.486	.002	0	.002
.003	.001	.002	.038	.002	.591	.002
.004	.001	.002	.067	.002	.553	.002
.004	.001	.002	.072	.002	.549	.002
.008	.002	.002	.108	.002	.499	.002
.009	.002	.002	.104	.002	.496	.002
.016	.001	.002	.315	.002	.174	.002
.009	.002	.002	.134	.002	.47	.002
.009	.002	.002	.143	.002	.457	.002
.011	.002	.002	.189	.002	.402	.002
.012	.002	.002	.206	.002	.367	.002
.014	.002	.002	.235	.002	.314	.002
.014	.002	.002	.248	.002	.29	.002
.015	.002	.002	.26	.002	.268	.002
.016	.001	.002	.299	.002	.202	.002
.016	.001	.002	.315	.002	.176	.002
.017	.001	.002	.334	.002	.127	.002
.001	.001	.002	.02	.002	.62	.002
.017	.001	.002	.356	.002	.061	.002
.018	.001	.002	.361	.002	.054	.002
.018	.001	.002	.376	.002	.027	.002
.018	.001	.002	.4	.002	.014	.002
.019	.001	.002	.398	.002	.014	.002

System: 1-butanol + water; phases: Liquid mixture 1, Liquid mixture 2
Property: Mole fraction of 1-butanol (Liquid mixture 1); method: Chromatography
Temperature, K	Pressure, kPa	Mole fraction of 1-butanol	uncertainty
298.15	100	.019	.002

System: 1-butanol + water; phases: Liquid mixture 2, Liquid mixture 1
Property: Mole fraction of 1-butanol (Liquid mixture 2); method: Chromatography
Pressure, kPa	Temperature, K	Mole fraction of 1-butanol	uncertainty
100	298.15	.486	.002

System: water + 1-butyl-1-methylpiperidinium bis(trifluoromethanesulfonyl)imide; phases: Liquid mixture 2, Liquid mixture 1
Property: Mole fraction of 1-butyl-1-methylpiperidinium bis(trifluoromethanesulfonyl)imide (Liquid mixture 2); method: Chromatography
Pressure, kPa	Temperature, K	Mole fraction of 1-butyl-1-methylpiperidinium bis(trifluoromethanesulfonyl)imide	uncertainty
100	298.15	.735	.002

System: water + 1-(2-methoxyethyl)-1-methylpiperidinium bis(trifluoromethylsulfonyl)imide; phases: Liquid mixture 2, Liquid mixture 1
Property: Mole fraction of 1-(2-methoxyethyl)-1-methylpiperidinium bis(trifluoromethylsulfonyl)imide (Liquid mixture 2); method: Chromatography
Pressure, kPa	Temperature, K	Mole fraction of 1-(2-methoxyethyl)-1-methylpiperidinium bis(trifluoromethylsulfonyl)imide	uncertainty
100	298.15	.648	.002

System: water + 1-(2-methoxyethyl)-1-methylpyrrolidinium bis((trifluoromethyl)sulfonyl)amide; phases: Liquid mixture 2, Liquid mixture 1
Property: Mole fraction of 1-(2-methoxyethyl)-1-methylpyrrolidinium bis((trifluoromethyl)sulfonyl)amide (Liquid mixture 2); method: Chromatography
Pressure, kPa	Temperature, K	Mole fraction of 1-(2-methoxyethyl)-1-methylpyrrolidinium bis((trifluoromethyl)sulfonyl)amide	uncertainty
100	298.15	.638	.002
