Measured thermophysical data. Experimental thermochemical study of 3-acetyl-2-methyl-5-phenylthiophene
Source: J. Chem. Thermodyn., 2010, 10.1016/j.jct.2009.07.021
Compound 1: 3-acetyl-2-methyl-5-phenylthiophene, C13H12OS, purity 98%
Compound 2: sulfuric acid, H2O4S
Compound 3: carbon, C
Compound 4: carbon dioxide, CO2
Compound 5: water, H2O
Compound 6: oxygen, O2
Compound 7: sulfur, S
Compound 8: hydrogen, H2

System: 3-acetyl-2-methyl-5-phenylthiophene; phases: Crystal, Gas
Property: Vapor or sublimation pressure, kPa (Crystal); method: Knudsen effusion method
Temperature, K	Vapor or sublimation pressure, kPa	uncertainty
321.12	.0000603	
323.13	.000079	
325.21	.000102	
327.12	.00013	
329.16	.000162	
331.2	.00021	
333.12	.000259	
335.15	.000328	
336.13	.000366	
337.2	.000425	
338.15	.000461	
339.2	.000535	
321.12	.0000633	
323.13	.0000798	
325.21	.0000993	
327.12	.000128	
329.16	.00016	
331.2	.000202	
333.12	.000261	
335.15	.000322	
336.13	.000371	
337.2	.000414	
338.15	.000462	
339.2	.000522	
321.12	.0000605	
323.13	.0000773	
325.21	.0001	
327.12	.000126	
329.16	.000159	
331.2	.000204	
333.12	.000258	
335.15	.000323	
336.13	.000368	
337.2	.000409	
338.15	.00046	
339.2	.000515	

System: 3-acetyl-2-methyl-5-phenylthiophene; phases: Crystal, Gas
Property: Molar enthalpy of vaporization or sublimation, kJ/mol (Crystal); method: Clausius-Clapeyron Eq with Heat Capacity
Temperature, K	Molar enthalpy of vaporization or sublimation, kJ/mol	uncertainty
298.15	108.9	.4

System: 3-acetyl-2-methyl-5-phenylthiophene; phases: Gas
Property: Molar enthalpy, kJ/mol (Gas); method: Clausius-Clapeyron Eq
Temperature, K	Pressure, kPa	Molar enthalpy, kJ/mol	uncertainty
330.16	.000183	107.3	3

Reaction: 1 sulfuric acid + -1 3-acetyl-2-methyl-5-phenylthiophene + 13 carbon dioxide + 5 water + -17 oxygen
Property: Specific internal energy of reaction at constant volume, J/g
-33834.8

Reaction: -13 carbon + -1 sulfur + 1 3-acetyl-2-methyl-5-phenylthiophene + -6 hydrogen + -0.5 oxygen
Property: Molar enthalpy of reaction, kJ/mol
104.3

Reaction: -13 carbon + -1 sulfur + 1 3-acetyl-2-methyl-5-phenylthiophene + -6 hydrogen + -0.5 oxygen
Property: Molar enthalpy of reaction, kJ/mol
4.6
