Measured thermophysical data. Solvation of hydrocarbons in aqueous-organic mixtures
Source: J. Chem. Thermodyn., 2016, 10.1016/j.jct.2015.12.034
Compound 1: acetone, C3H6O, purity 99.9%
Compound 2: n-octane, C8H18, purity 99%
Compound 3: toluene, C7H8, purity 99.8%
Compound 4: acetonitrile, C2H3N, purity 99.8%
Compound 5: water, H2O, purity 99.8%

System: acetonitrile + n-octane + water; phases: Liquid
Fixed: Temperature, K = 298.15
Fixed: Pressure, kPa = 238
Fixed: Mole fraction of n-octane = 0
Property: Activity coefficient of n-octane (Liquid); method: Other
Solvent: Mole fraction of water	Activity coefficient of n-octane	uncertainty
0	52.3	
.1	87.1	
.2	130	
.3	214	
.4	343	
.5	616	
.6	1160	
.7	2774	
.75	4727	
.8	9781	

System: acetonitrile + n-octane + water; phases: Liquid
Fixed: Temperature, K = 298.15
Fixed: Pressure, kPa = 101
Fixed: Mole fraction of n-octane = 0
Property: Molar enthalpy of solution, kJ/mol (Liquid); method: Titration calorimetry
Solvent: Mole fraction of water	Molar enthalpy of solution, kJ/mol	uncertainty
0	13.4	
.1	13.9	
.2	14.1	
.25	14.1	
.3	14	
.33	14	
.4	12.8	
.5	11.9	
.6	10.7	
.67	10.3	
.7	10.5	
.75	11	
.8	12.1	

System: acetonitrile + toluene + water; phases: Liquid
Fixed: Temperature, K = 298.15
Fixed: Pressure, kPa = 238
Fixed: Mole fraction of toluene = 0
Property: Activity coefficient of toluene (Liquid); method: Other
Solvent: Mole fraction of water	Activity coefficient of toluene	uncertainty
0	3.95	
.1	4.87	
.2	6.48	
.3	9.6	
.4	13.1	
.5	21.6	
.6	35.6	
.7	73.5	
.75	123	
.8	211	
.85	509	
.9	1192	
.95	2958	

System: acetonitrile + toluene + water; phases: Liquid
Fixed: Temperature, K = 298.15
Fixed: Pressure, kPa = 101
Fixed: Mole fraction of toluene = 0
Property: Molar enthalpy of solution, kJ/mol (Liquid); method: Titration calorimetry
Solvent: Mole fraction of water	Molar enthalpy of solution, kJ/mol	uncertainty
0	3.1	
.1	3.7	
.2	4	
.3	4.2	
.4	4.2	
.5	4	
.6	3.7	
.7	4	
.8	6.2	
.85	8.9	
.9	11.7	

System: acetone + n-octane + water; phases: Liquid
Fixed: Temperature, K = 298.15
Fixed: Pressure, kPa = 238
Fixed: Mole fraction of n-octane = 0
Property: Activity coefficient of n-octane (Liquid); method: Other
Solvent: Mole fraction of water	Activity coefficient of n-octane	uncertainty
0	10.7	
.1	15.2	
.2	24.9	
.3	41.3	
.4	70.5	
.5	133	
.6	338	
.7	1092	
.75	2700	
.8	6930	

System: acetone + n-octane + water; phases: Liquid
Fixed: Temperature, K = 298.15
Fixed: Pressure, kPa = 101
Fixed: Mole fraction of n-octane = 0
Property: Molar enthalpy of solution, kJ/mol (Liquid); method: Titration calorimetry
Solvent: Mole fraction of water	Molar enthalpy of solution, kJ/mol	uncertainty
0	9.4	
.1	10.2	
.2	11	
.3	11.9	
.33	12.5	
.4	12.8	
.5	14.4	
.6	16.5	
.67	18.8	
.7	20.3	
.75	22.8	
.8	22	

System: acetone + toluene + water; phases: Liquid
Fixed: Temperature, K = 298.15
Fixed: Pressure, kPa = 238
Fixed: Mole fraction of toluene = 0
Property: Activity coefficient of toluene (Liquid); method: Other
Solvent: Mole fraction of water	Activity coefficient of toluene	uncertainty
0	2.01	
.1	2.37	
.2	3.06	
.3	4.29	
.4	6.3	
.5	10.7	
.6	19.8	
.7	45.4	
.75	91.1	
.8	163	
.85	407	
.9	934	
.95	2679	

System: acetone + toluene + water; phases: Liquid
Fixed: Temperature, K = 298.15
Fixed: Pressure, kPa = 101
Fixed: Mole fraction of toluene = 0
Property: Molar enthalpy of solution, kJ/mol (Liquid); method: Titration calorimetry
Solvent: Mole fraction of water	Molar enthalpy of solution, kJ/mol	uncertainty
0	1	
.1	1.7	
.2	2.2	
.3	3.3	
.4	3.6	
.5	4.8	
.6	6.3	
.7	8.6	
.75	10.3	
.8	11.9	
.9	14.2	

System: acetone + n-octane; phases: Liquid
Fixed: Pressure, kPa = 238
Fixed: Mole fraction of n-octane = 0
Property: Activity coefficient of n-octane (Liquid); method: Other
Temperature, K	Activity coefficient of n-octane	uncertainty
298.15	10.7	

System: acetone + n-octane; phases: Liquid
Fixed: Pressure, kPa = 101
Fixed: Mole fraction of n-octane = 0
Property: Molar enthalpy of solution, kJ/mol (Liquid); method: Titration calorimetry
Temperature, K	Molar enthalpy of solution, kJ/mol	uncertainty
298.15	9.4	

System: acetone + toluene; phases: Liquid
Fixed: Pressure, kPa = 238
Fixed: Mole fraction of toluene = 0
Property: Activity coefficient of toluene (Liquid); method: Other
Temperature, K	Activity coefficient of toluene	uncertainty
298.15	2.01	

System: acetone + toluene; phases: Liquid
Fixed: Pressure, kPa = 101
Fixed: Mole fraction of toluene = 0
Property: Molar enthalpy of solution, kJ/mol (Liquid); method: Titration calorimetry
Temperature, K	Molar enthalpy of solution, kJ/mol	uncertainty
298.15	1	

System: acetonitrile + n-octane; phases: Liquid
Fixed: Pressure, kPa = 238
Fixed: Mole fraction of n-octane = 0
Property: Activity coefficient of n-octane (Liquid); method: Other
Temperature, K	Activity coefficient of n-octane	uncertainty
298.15	52.3	

System: acetonitrile + n-octane; phases: Liquid
Fixed: Pressure, kPa = 101
Fixed: Mole fraction of n-octane = 0
Property: Molar enthalpy of solution, kJ/mol (Liquid); method: Titration calorimetry
Temperature, K	Molar enthalpy of solution, kJ/mol	uncertainty
298.15	13.4	

System: acetonitrile + toluene; phases: Liquid
Fixed: Pressure, kPa = 238
Fixed: Mole fraction of toluene = 0
Property: Activity coefficient of toluene (Liquid); method: Other
Temperature, K	Activity coefficient of toluene	uncertainty
298.15	3.95	

System: acetonitrile + toluene; phases: Liquid
Fixed: Pressure, kPa = 101
Fixed: Mole fraction of toluene = 0
Property: Molar enthalpy of solution, kJ/mol (Liquid); method: Titration calorimetry
Temperature, K	Molar enthalpy of solution, kJ/mol	uncertainty
298.15	3.1	
