Measured thermophysical data. Phase equilibria study of the binary systems (1-butyl-3-methylimidazolium tosylate ionic liquid + water, or organic solvent)
Source: J. Chem. Thermodyn., 2010, 10.1016/j.jct.2009.09.006
Compound 1: 1-butyl-3-methylimidazolium tosylate, C15H22N2O3S, purity 97%
Compound 2: ethanol, C2H6O
Compound 3: butan-1-ol, C4H10O
Compound 4: pentylcarbinol, C6H14O
Compound 5: 1-octanol, C8H18O
Compound 6: 1-decanol, C10H22O
Compound 7: n-hexane, C6H14
Compound 8: benzene, C6H6
Compound 9: toluene, C7H8
Compound 10: ethylbenzene, C8H10
Compound 11: propylbenzene, C9H12
Compound 12: thiophene, C4H4S
Compound 13: water, H2O

System: 1-butyl-3-methylimidazolium tosylate; phases: Crystal, Liquid, Gas
Property: Molar enthalpy of transition or fusion, kJ/mol (Crystal); method: DSC/DTA
Molar enthalpy of transition or fusion, kJ/mol	uncertainty
16.35	

System: 1-butyl-3-methylimidazolium tosylate; phases: Crystal, Liquid, Air at 1 atmosphere
Property: Normal melting temperature, K (Crystal); method: DSC/DTA
Normal melting temperature, K	uncertainty
330.16	.05

System: water + 1-butyl-3-methylimidazolium tosylate; phases: Liquid, Crystal
Fixed: Pressure, kPa = 101
Property: Solid-liquid equilibrium temperature, K (Liquid); method: Visual observation
Mole fraction of 1-butyl-3-methylimidazolium tosylate	Solid-liquid equilibrium temperature, K	uncertainty
0	273.15	.05
.0182	272	.05
.0316	270.75	.05
.0486	268.54	.05
.0607	266.79	.05
.072	265.41	.05
.082	264.39	.05
.0923	263.31	.05
.4581	278.1	.05
.5023	288.58	.05
.5249	292.35	.05
.5592	297.43	.05
.6163	303.14	.05
.6617	308.44	.05
.7001	312.31	.05
.7779	319	.05
.8159	321.85	.05
.8861	325.08	.05
.9384	327.37	.05
1	330.16	.05

System: water + 1-butyl-3-methylimidazolium tosylate; phases: Liquid, Crystal
Fixed: Pressure, kPa = 101
Property: Eutectic temperature, K (Liquid); method: Derived from phase diagram analysis
Mole fraction of 1-butyl-3-methylimidazolium tosylate	Eutectic temperature, K	uncertainty
.297	236.1	.5

System: ethanol + 1-butyl-3-methylimidazolium tosylate; phases: Liquid, Crystal
Fixed: Pressure, kPa = 101
Property: Solid-liquid equilibrium temperature, K (Liquid); method: Visual observation
Mole fraction of 1-butyl-3-methylimidazolium tosylate	Solid-liquid equilibrium temperature, K	uncertainty
.2441	241.14	.05
.2914	260.52	.05
.368	276.82	.05
.4302	285.69	.05
.4896	292.96	.05
.5494	299.83	.05
.6025	304.68	.05
.6458	308.97	.05
.6907	312.09	.05
.7759	318.51	.05
.8171	321.23	.05
.8932	325.41	.05
.9543	328.47	.05
1	330.16	.05

System: butan-1-ol + 1-butyl-3-methylimidazolium tosylate; phases: Liquid, Crystal
Fixed: Pressure, kPa = 101
Property: Solid-liquid equilibrium temperature, K (Liquid); method: Visual observation
Mole fraction of 1-butyl-3-methylimidazolium tosylate	Solid-liquid equilibrium temperature, K	uncertainty
.1614	240.59	.05
.1958	252.98	.05
.2472	262.44	.05
.2994	270.62	.05
.3601	280.61	.05
.4068	286.3	.05
.4498	291.12	.05
.4906	295.53	.05
.5383	300.93	.05
.5885	306.02	.05
.6509	311	.05
.7004	314.82	.05
.7969	320.38	.05
.8534	324.63	.05
.9377	328.3	.05
1	330.16	.05

System: pentylcarbinol + 1-butyl-3-methylimidazolium tosylate; phases: Liquid, Crystal
Fixed: Pressure, kPa = 101
Property: Solid-liquid equilibrium temperature, K (Liquid); method: Visual observation
Mole fraction of 1-butyl-3-methylimidazolium tosylate	Solid-liquid equilibrium temperature, K	uncertainty
.0966	236.26	.05
.1155	246	.05
.1313	249.95	.05
.1612	255.57	.05
.1838	259.4	.05
.2378	267	.05
.2914	275.17	.05
.3548	283.69	.05
.4124	292.33	.05
.4564	296.6	.05
.498	300.37	.05
.5627	304.31	.05
.61	307.32	.05
.6707	311.14	.05
.7324	315.33	.05
.8069	319.43	.05
.861	324.43	.05
.9145	326.92	.05
.9876	328.96	.05
1	330.16	.05

System: 1-octanol + 1-butyl-3-methylimidazolium tosylate; phases: Liquid, Crystal
Fixed: Pressure, kPa = 101
Property: Solid-liquid equilibrium temperature, K (Liquid); method: Visual observation
Mole fraction of 1-butyl-3-methylimidazolium tosylate	Solid-liquid equilibrium temperature, K	uncertainty
0	257.15	.05
.0532	258	.05
.0722	257.87	.05
.1008	257.81	.05
.1138	257.59	.05
.1553	264.75	.05
.204	273.72	.05
.2474	280.21	.05
.2893	285.36	.05
.3272	292.22	.05
.3878	299.35	.05
.4508	304.44	.05
.4812	307.33	.05
.5589	311.3	.05
.6346	315.83	.05
.7022	318.88	.05
.7379	321.03	.05
.851	325.74	.05
.9326	328.02	.05
.9796	329.44	.05
1	330.16	.05

System: 1-octanol + 1-butyl-3-methylimidazolium tosylate; phases: Liquid, Crystal
Fixed: Pressure, kPa = 101
Property: Eutectic temperature, K (Liquid); method: Derived from phase diagram analysis
Mole fraction of 1-butyl-3-methylimidazolium tosylate	Eutectic temperature, K	uncertainty
.123	258	.5

System: 1-decanol + 1-butyl-3-methylimidazolium tosylate; phases: Liquid, Crystal
Fixed: Pressure, kPa = 101
Property: Solid-liquid equilibrium temperature, K (Liquid); method: Visual observation
Mole fraction of 1-butyl-3-methylimidazolium tosylate	Solid-liquid equilibrium temperature, K	uncertainty
0	279.95	.05
.0174	279.74	.05
.0321	279.59	.05
.0497	279.12	.05
.0659	278.94	.05
.0937	278.4	.05
.1478	278.46	.05
.2151	282.82	.05
.2575	287.16	.05
.3103	293.44	.05
.3521	297.95	.05
.3926	302.69	.05
.4407	307.54	.05
.5004	310.85	.05
.563	314.67	.05
.6028	316.88	.05
.6619	318.66	.05
.7067	320.29	.05
.7569	322.22	.05
.8104	324.12	.05
.8535	325.55	.05
.9028	327.01	.05
.9449	328.44	.05
.9952	328.97	.05
1	330.16	.05

System: 1-decanol + 1-butyl-3-methylimidazolium tosylate; phases: Liquid, Crystal
Fixed: Pressure, kPa = 101
Property: Eutectic temperature, K (Liquid); method: Derived from phase diagram analysis
Mole fraction of 1-butyl-3-methylimidazolium tosylate	Eutectic temperature, K	uncertainty
.198	276.4	.5

System: n-hexane + 1-butyl-3-methylimidazolium tosylate; phases: Liquid, Crystal
Fixed: Pressure, kPa = 101
Property: Solid-liquid equilibrium temperature, K (Liquid); method: Visual observation
Mole fraction of 1-butyl-3-methylimidazolium tosylate	Solid-liquid equilibrium temperature, K	uncertainty
.9128	329.48	.05
.9196	329.48	.05
.9251	329.48	.05
.9306	329.48	.05
.9369	329.48	.05
.9462	329.48	.05
.9613	329.48	.05
.9684	329.48	.05
.9828	329.48	.05
1	330.16	.05

System: n-hexane + 1-butyl-3-methylimidazolium tosylate; phases: Liquid, Liquid
Fixed: Pressure, kPa = 101
Property: Liquid-liquid equilibrium temperature, K (Liquid); method: Visual observation
Mole fraction of 1-butyl-3-methylimidazolium tosylate	Liquid-liquid equilibrium temperature, K	uncertainty
.9128	355.11	.05
.9196	352.4	.05
.9251	350.26	.05
.9306	347.9	.05
.9369	345.11	.05
.9462	342.13	.05
.9613	337.16	.05
.9684	335.76	.05

System: benzene + 1-butyl-3-methylimidazolium tosylate; phases: Liquid, Crystal
Fixed: Pressure, kPa = 101
Property: Solid-liquid equilibrium temperature, K (Liquid); method: Visual observation
Mole fraction of 1-butyl-3-methylimidazolium tosylate	Solid-liquid equilibrium temperature, K	uncertainty
0	278.15	.05
.2366	293.05	.05
.2779	293.08	.05
.3072	293	.05
.3189	293.06	.05
.3385	293.02	.05
.3573	294.5	.05
.3745	296.23	.05
.3956	298.18	.05
.4364	300.29	.05
.4623	302.02	.05
.4918	303.6	.05
.5317	305.93	.05
.5684	308	.05
.6028	310.55	.05
.6406	313.53	.05
.6846	315.96	.05
.7136	318.2	.05
.7538	320.73	.05
.768	321.52	.05
.8502	324.99	.05
.9597	328.94	.05
1	330.16	.05

System: benzene + 1-butyl-3-methylimidazolium tosylate; phases: Liquid, Liquid
Fixed: Pressure, kPa = 101
Property: Liquid-liquid equilibrium temperature, K (Liquid); method: Visual observation
Mole fraction of 1-butyl-3-methylimidazolium tosylate	Liquid-liquid equilibrium temperature, K	uncertainty
.3114	345.48	.05
.3124	342.35	.05
.3141	337.89	.05
.3171	328.56	.05
.3189	321.82	.05
.3227	311.63	.05
.327	300.01	.05

System: toluene + 1-butyl-3-methylimidazolium tosylate; phases: Liquid, Crystal
Fixed: Pressure, kPa = 101
Property: Solid-liquid equilibrium temperature, K (Liquid); method: Visual observation
Mole fraction of 1-butyl-3-methylimidazolium tosylate	Solid-liquid equilibrium temperature, K	uncertainty
.0883	308.21	.05
.1284	308.21	.05
.1657	308.21	.05
.2117	308.21	.05
.2486	308.21	.05
.2934	308.21	.05
.3453	308.21	.05
.4105	308.21	.05
.4608	308.29	.05
.4653	308.49	.05
.5007	309.02	.05
.5288	310.15	.05
.5661	311.63	.05
.6104	312.84	.05
.6572	314.96	.05
.6949	317.11	.05
.7288	318.76	.05
.7661	320.59	.05
.8049	322.1	.05
.8469	323.74	.05
.8945	325.72	.05
.9385	327.54	.05
.9683	328.56	.05
1	330.16	.05

System: toluene + 1-butyl-3-methylimidazolium tosylate; phases: Liquid, Liquid
Fixed: Pressure, kPa = 101
Property: Liquid-liquid equilibrium temperature, K (Liquid); method: Visual observation
Mole fraction of 1-butyl-3-methylimidazolium tosylate	Liquid-liquid equilibrium temperature, K	uncertainty
.4195	352.36	.05
.4261	346.31	.05
.4326	339.19	.05
.4396	332.38	.05
.447	325.78	.05
.4529	316.54	.05
.4608	310.73	.05

System: ethylbenzene + 1-butyl-3-methylimidazolium tosylate; phases: Liquid, Crystal
Fixed: Pressure, kPa = 101
Property: Solid-liquid equilibrium temperature, K (Liquid); method: Visual observation
Mole fraction of 1-butyl-3-methylimidazolium tosylate	Solid-liquid equilibrium temperature, K	uncertainty
.4134	315.93	.05
.4998	316.01	.05
.5675	315.95	.05
.5861	315.99	.05
.6078	316.78	.05
.6338	317.8	.05
.6521	318.27	.05
.6701	319.05	.05
.7084	320.26	.05
.7523	322.23	.05
.8127	324.37	.05
.8586	326.31	.05
.898	327.76	.05
.9382	328.87	.05
1	330.16	.05

System: ethylbenzene + 1-butyl-3-methylimidazolium tosylate; phases: Liquid, Liquid
Fixed: Pressure, kPa = 101
Property: Liquid-liquid equilibrium temperature, K (Liquid); method: Visual observation
Mole fraction of 1-butyl-3-methylimidazolium tosylate	Liquid-liquid equilibrium temperature, K	uncertainty
.4781	358.87	.05
.4877	354.42	.05
.4998	350.13	.05
.5248	342.69	.05
.5407	333.63	.05
.5675	320.46	.05

System: propylbenzene + 1-butyl-3-methylimidazolium tosylate; phases: Liquid, Crystal
Fixed: Pressure, kPa = 101
Property: Solid-liquid equilibrium temperature, K (Liquid); method: Visual observation
Mole fraction of 1-butyl-3-methylimidazolium tosylate	Solid-liquid equilibrium temperature, K	uncertainty
.6342	320.58	.05
.7017	320.62	.05
.7478	320.56	.05
.7559	320.63	.05
.7863	321.48	.05
.8203	323.22	.05
.8657	324.74	.05
.9036	326.23	.05
.9381	327.85	.05
.9707	329.02	.05
.9783	329.43	.05
.9885	329.71	.05
1	330.16	.05

System: propylbenzene + 1-butyl-3-methylimidazolium tosylate; phases: Liquid, Liquid
Fixed: Pressure, kPa = 101
Property: Liquid-liquid equilibrium temperature, K (Liquid); method: Visual observation
Mole fraction of 1-butyl-3-methylimidazolium tosylate	Liquid-liquid equilibrium temperature, K	uncertainty
.7409	357.96	.05
.7478	345.38	.05
.7559	331.33	.05

System: thiophene + 1-butyl-3-methylimidazolium tosylate; phases: Liquid, Crystal
Fixed: Pressure, kPa = 101
Property: Solid-liquid equilibrium temperature, K (Liquid); method: Visual observation
Mole fraction of 1-butyl-3-methylimidazolium tosylate	Solid-liquid equilibrium temperature, K	uncertainty
.0634	236.28	.05
.1032	236.28	.05
.14	236.28	.05
.1524	236.28	.05
.1941	246.37	.05
.2427	257.96	.05
.2872	264.48	.05
.322	270.26	.05
.3591	275.91	.05
.3874	280.61	.05
.4259	287.32	.05
.4808	294.17	.05
.5657	303.03	.05
.6384	308.46	.05
.6939	312.45	.05
.7493	316.07	.05
.7944	318.4	.05
.8437	321.17	.05
.8886	324.19	.05
.9196	326.13	.05
.9795	328.84	.05
1	330.16	.05

System: thiophene + 1-butyl-3-methylimidazolium tosylate; phases: Liquid, Liquid
Fixed: Pressure, kPa = 101
Property: Liquid-liquid equilibrium temperature, K (Liquid); method: Visual observation
Mole fraction of 1-butyl-3-methylimidazolium tosylate	Liquid-liquid equilibrium temperature, K	uncertainty
.1492	325.77	.05
.1506	313.56	.05
.1557	281.46	.05
.1609	249.37	.05
