Measured thermophysical data. Physico-chemical properties of some electrolytes in water and aqueous sodiumdodecyl sulfate solutions at different temperatures
Source: J. Chem. Thermodyn., 2011, 10.1016/j.jct.2011.06.024
Compound 1: potassium chloride, ClK, purity 99%
Compound 2: potassium nitrate, KNO3, purity 99.5%
Compound 3: magnesium chloride, Cl2Mg, purity 98%
Compound 4: magnesium nitrate, MgN2O6, purity 99%
Compound 5: water, H2O, purity 99.9%
Compound 6: sodium lauryl sulfate, C12H25NaO4S, purity 99%

System: potassium chloride + water; phases: Liquid
Fixed: Pressure, kPa = 101
Property: Viscosity, Pa*s (Liquid); method: Capillary tube (Ostwald; Ubbelohde) method
Temperature, K	Molality, mol/kg of potassium chloride	Viscosity, Pa*s	uncertainty
303.15	.003209	.0008063	.000008063
303.15	.003885	.0008068	.000008068
303.15	.004985	.0008076	.000008076
303.15	.006959	.0008088	.000008088
303.15	.008075	.0008094	.000008094
303.15	.009511	.0008102	.000008102
308.15	.003209	.0007279	.000007279
308.15	.003885	.0007284	.000007284
308.15	.004985	.0007292	.000007292
308.15	.006959	.0007304	.000007304
308.15	.008075	.0007286	.000007286
308.15	.009511	.0007316	.000007316
313.15	.003209	.0006616	.000006616
313.15	.003885	.0006621	.000006621
313.15	.004985	.0006629	.000006629
313.15	.006959	.0006641	.000006641
313.15	.008075	.0006647	.000006647
313.15	.009511	.0006655	.000006655
318.15	.003209	.0006045	.000006045
318.15	.003885	.0006051	.000006051
318.15	.004985	.0006059	.000006059
318.15	.006959	.0006071	.000006071
318.15	.008075	.0006077	.000006077
318.15	.009511	.0006086	.000006086
323.15	.003209	.0005552	.000005552
323.15	.003885	.0005557	.000005557
323.15	.004985	.0005566	.000005566
323.15	.006959	.0005578	.000005578
323.15	.008075	.0005584	.000005584
323.15	.009511	.0005592	.000005592

System: water + potassium nitrate; phases: Liquid
Fixed: Pressure, kPa = 101
Property: Viscosity, Pa*s (Liquid); method: Capillary tube (Ostwald; Ubbelohde) method
Temperature, K	Molality, mol/kg of potassium nitrate	Viscosity, Pa*s	uncertainty
303.15	.003067	.0008152	.000008152
303.15	.003997	.0008175	.000008175
303.15	.005019	.000819	.00000819
303.15	.006997	.0008217	.000008217
303.15	.008615	.0008244	.000008244
303.15	.010325	.0008263	.000008263
308.15	.003067	.0007365	.000007365
308.15	.003997	.0007382	.000007382
308.15	.005019	.000731	.00000731
308.15	.006997	.0007433	.000007433
308.15	.008615	.0007449	.000007449
308.15	.010325	.0007472	.000007472
313.15	.003067	.0006691	.000006691
313.15	.003997	.0006705	.000006705
313.15	.005019	.0006722	.000006722
313.15	.006997	.0006752	.000006752
313.15	.008615	.0006775	.000006775
313.15	.010325	.0006782	.000006782
318.15	.003067	.0006139	.000006139
318.15	.003997	.0006157	.000006157
318.15	.005019	.0006178	.000006178
318.15	.006997	.000621	.00000621
318.15	.008615	.0006231	.000006231
318.15	.010325	.0006253	.000006253
323.15	.003067	.0005658	.000005658
323.15	.003997	.000568	.00000568
323.15	.005019	.0005701	.000005701
323.15	.006997	.0005737	.000005737
323.15	.008615	.0005761	.000005761
323.15	.010325	.0005785	.000005785

System: water + magnesium chloride; phases: Liquid
Fixed: Pressure, kPa = 101
Property: Viscosity, Pa*s (Liquid); method: Capillary tube (Ostwald; Ubbelohde) method
Temperature, K	Molality, mol/kg of magnesium chloride	Viscosity, Pa*s	uncertainty
303.15	.003022	.0008039	.000008039
303.15	.004	.0008323	.000008323
303.15	.005	.0008483	.000008483
303.15	.007	.0008693	.000008693
303.15	.007995	.0008885	.000008885
303.15	.008994	.0009112	.000009112
308.15	.003022	.0007343	.000007343
308.15	.004	.0007545	.000007545
308.15	.005	.0007723	.000007723
308.15	.007	.0007896	.000007896
308.15	.007995	.0008071	.000008071
308.15	.008994	.0008198	.000008198
313.15	.003022	.0006675	.000006675
313.15	.004	.0006865	.000006865
313.15	.005	.0007031	.000007031
313.15	.007	.0007195	.000007195
313.15	.007995	.0007366	.000007366
313.15	.008994	.0007601	.000007601
318.15	.003022	.0006213	.000006213
318.15	.004	.0006301	.000006301
318.15	.005	.0006466	.000006466
318.15	.007	.0006648	.000006648
318.15	.007995	.0006804	.000006804
318.15	.008994	.0006989	.000006989
323.15	.003022	.0005775	.000005775
323.15	.004	.0005975	.000005975
323.15	.005	.0006196	.000006196
323.15	.007	.0006244	.000006244
323.15	.007995	.0006481	.000006481
323.15	.008994	.0006697	.000006697

System: water + magnesium nitrate; phases: Liquid
Fixed: Pressure, kPa = 101
Property: Viscosity, Pa*s (Liquid); method: Capillary tube (Ostwald; Ubbelohde) method
Temperature, K	Molality, mol/kg of magnesium nitrate	Viscosity, Pa*s	uncertainty
303.15	.003029	.0008036	.000008036
303.15	.004005	.0008293	.000008293
303.15	.005059	.0008454	.000008454
303.15	.007003	.0008685	.000008685
303.15	.008141	.0008903	.000008903
303.15	.009263	.0009014	.000009014
308.15	.003029	.0007327	.000007327
308.15	.004005	.000751	.00000751
308.15	.005059	.0007688	.000007688
308.15	.007003	.0007895	.000007895
308.15	.008141	.0008097	.000008097
308.15	.009263	.0008156	.000008156
313.15	.003029	.0006665	.000006665
313.15	.004005	.0006847	.000006847
313.15	.005059	.0007021	.000007021
313.15	.007003	.000721	.00000721
313.15	.008141	.0007356	.000007356
313.15	.009263	.0007458	.000007458
318.15	.003029	.0006195	.000006195
318.15	.004005	.0006272	.000006272
318.15	.005059	.0006449	.000006449
318.15	.007003	.0006635	.000006635
318.15	.008141	.0006813	.000006813
318.15	.009263	.0006958	.000006958
323.15	.003029	.0005575	.000005575
323.15	.004005	.0005773	.000005773
323.15	.005059	.0005927	.000005927
323.15	.007003	.0006106	.000006106
323.15	.008141	.0006176	.000006176
323.15	.009263	.0006305	.000006305

System: sodium lauryl sulfate + potassium chloride + water; phases: Liquid
Fixed: Pressure, kPa = 101
Property: Viscosity, Pa*s (Liquid); method: Capillary tube (Ostwald; Ubbelohde) method
Temperature, K	Solvent: Molality, mol/kg of sodium lauryl sulfate	Molality, mol/kg of potassium chloride	Viscosity, Pa*s	uncertainty
303.15	.007	0	.0008017	.000008017
303.15	.007	.002978	.0008051	.000008051
303.15	.007	.004022	.0008057	.000008057
303.15	.007	.004926	.0008063	.000008063
303.15	.007	.00709	.0008073	.000008073
303.15	.007	.008173	.0008079	.000008079
303.15	.007	.00892	.0008082	.000008082
308.15	.007	0	.0007228	.000007228
308.15	.007	.002978	.0007262	.000007262
308.15	.007	.004022	.0007267	.000007267
308.15	.007	.004926	.0007272	.000007272
308.15	.007	.00709	.0007283	.000007283
308.15	.007	.008173	.0007288	.000007288
308.15	.007	.00892	.0007291	.000007291
313.15	.007	0	.0006582	.000006582
313.15	.007	.002978	.0006618	.000006618
313.15	.007	.004022	.0006625	.000006625
313.15	.007	.004926	.000663	.00000663
313.15	.007	.00709	.0006641	.000006641
313.15	.007	.008173	.0006646	.000006646
313.15	.007	.00892	.0006649	.000006649
318.15	.007	0	.0006009	.000006009
318.15	.007	.002978	.0006046	.000006046
318.15	.007	.004022	.0006052	.000006052
318.15	.007	.004926	.0006058	.000006058
318.15	.007	.00709	.0006069	.000006069
318.15	.007	.008173	.0006074	.000006074
318.15	.007	.00892	.0006078	.000006078
323.15	.007	0	.0005513	.000005513
323.15	.007	.002978	.0005549	.000005549
323.15	.007	.004022	.0005556	.000005556
323.15	.007	.004926	.0005561	.000005561
323.15	.007	.00709	.0005571	.000005571
323.15	.007	.008173	.0005576	.000005576
323.15	.007	.00892	.0005579	.000005579
303.15	.01	0	.0008025	.000008025
303.15	.01	.003401	.0008088	.000008088
303.15	.01	.00444	.0008101	.000008101
303.15	.01	.005199	.000811	.00000811
303.15	.01	.006969	.0008128	.000008128
303.15	.01	.008215	.0008138	.000008138
303.15	.01	.01004	.0008154	.000008154
308.15	.01	0	.0007285	.000007285
308.15	.01	.003401	.0007346	.000007346
308.15	.01	.00444	.0007355	.000007355
308.15	.01	.005199	.0007363	.000007363
308.15	.01	.006969	.0007378	.000007378
308.15	.01	.008215	.0007392	.000007392
308.15	.01	.01004	.0007404	.000007404
313.15	.01	0	.0006577	.000006577
313.15	.01	.003401	.0006632	.000006632
313.15	.01	.00444	.0006646	.000006646
313.15	.01	.005199	.000665	.00000665
313.15	.01	.006969	.0006667	.000006667
313.15	.01	.008215	.0006675	.000006675
313.15	.01	.01004	.0006689	.000006689
318.15	.01	0	.0006026	.000006026
318.15	.01	.003401	.0006082	.000006082
318.15	.01	.00444	.0006091	.000006091
318.15	.01	.005199	.00061	.0000061
318.15	.01	.006969	.0006112	.000006112
318.15	.01	.008215	.0006124	.000006124
318.15	.01	.01004	.0006137	.000006137
323.15	.01	0	.0005575	.000005575
323.15	.01	.003401	.000563	.00000563
323.15	.01	.00444	.000564	.00000564
323.15	.01	.005199	.0005647	.000005647
323.15	.01	.006969	.0005661	.000005661
323.15	.01	.008215	.0005672	.000005672
323.15	.01	.01004	.0005683	.000005683

System: sodium lauryl sulfate + water + potassium nitrate; phases: Liquid
Fixed: Pressure, kPa = 101
Property: Viscosity, Pa*s (Liquid); method: Capillary tube (Ostwald; Ubbelohde) method
Temperature, K	Solvent: Molality, mol/kg of sodium lauryl sulfate	Molality, mol/kg of potassium nitrate	Viscosity, Pa*s	uncertainty
303.15	.007	.003067	.0008063	.000008063
303.15	.007	.003997	.0008071	.000008071
303.15	.007	.005019	.000808	.00000808
303.15	.007	.006998	.0008093	.000008093
303.15	.007	.008616	.0008104	.000008104
303.15	.007	.010325	.0008114	.000008114
308.15	.007	.003067	.000727	.00000727
308.15	.007	.003997	.0007278	.000007278
308.15	.007	.005019	.0007284	.000007284
308.15	.007	.006998	.0007296	.000007296
308.15	.007	.008616	.0007305	.000007305
308.15	.007	.010325	.0007316	.000007316
313.15	.007	.003067	.0006623	.000006623
313.15	.007	.003997	.0006629	.000006629
313.15	.007	.005019	.0006637	.000006637
313.15	.007	.006998	.0006648	.000006648
313.15	.007	.008616	.0006657	.000006657
313.15	.007	.010325	.0006665	.000006665
318.15	.007	.003067	.0006047	.000006047
318.15	.007	.003997	.0006054	.000006054
318.15	.007	.005019	.0006061	.000006061
318.15	.007	.006998	.000607	.00000607
318.15	.007	.008616	.0006078	.000006078
318.15	.007	.010325	.0006086	.000006086
323.15	.007	.003067	.0005549	.000005549
323.15	.007	.003997	.0005556	.000005556
323.15	.007	.005019	.0005561	.000005561
323.15	.007	.006998	.0005572	.000005572
323.15	.007	.008616	.000558	.00000558
323.15	.007	.010325	.0005586	.000005586
303.15	.01	.003023	.0008077	.000008077
303.15	.01	.003891	.0008086	.000008086
303.15	.01	.005008	.0008094	.000008094
303.15	.01	.006894	.0008116	.000008116
303.15	.01	.008147	.0008124	.000008124
303.15	.01	.008906	.000813	.00000813
308.15	.01	.003023	.0007337	.000007337
308.15	.01	.003891	.0007347	.000007347
308.15	.01	.005008	.000736	.00000736
308.15	.01	.006894	.0007376	.000007376
308.15	.01	.008147	.0007385	.000007385
308.15	.01	.008906	.0007389	.000007389
313.15	.01	.003023	.0006627	.000006627
313.15	.01	.003891	.0006635	.000006635
313.15	.01	.005008	.0006643	.000006643
313.15	.01	.006894	.000666	.00000666
313.15	.01	.008147	.000667	.00000667
313.15	.01	.008906	.0006676	.000006676
318.15	.01	.003023	.0006074	.000006074
318.15	.01	.003891	.0006084	.000006084
318.15	.01	.005008	.0006092	.000006092
318.15	.01	.006894	.0006105	.000006105
318.15	.01	.008147	.0006117	.000006117
318.15	.01	.008906	.0006118	.000006118
323.15	.01	.003023	.0005624	.000005624
323.15	.01	.003891	.0005632	.000005632
323.15	.01	.005008	.0005641	.000005641
323.15	.01	.006894	.0005656	.000005656
323.15	.01	.008147	.0005661	.000005661
323.15	.01	.008906	.000567	.00000567

System: sodium lauryl sulfate + water + magnesium chloride; phases: Liquid
Fixed: Pressure, kPa = 101
Property: Viscosity, Pa*s (Liquid); method: Capillary tube (Ostwald; Ubbelohde) method
Temperature, K	Solvent: Molality, mol/kg of sodium lauryl sulfate	Molality, mol/kg of magnesium chloride	Viscosity, Pa*s	uncertainty
303.15	.007	.002997	.0008064	.000008064
303.15	.007	.003999	.0008076	.000008076
303.15	.007	.005	.0008083	.000008083
303.15	.007	.007	.0008098	.000008098
303.15	.007	.007962	.0008107	.000008107
303.15	.007	.008996	.0008115	.000008115
303.15	.007	.009872	.0008122	.000008122
308.15	.007	.002997	.0007274	.000007274
308.15	.007	.003999	.0007284	.000007284
308.15	.007	.005	.0007292	.000007292
308.15	.007	.007	.0007307	.000007307
308.15	.007	.007962	.0007314	.000007314
308.15	.007	.008996	.0007321	.000007321
308.15	.007	.009872	.0007328	.000007328
313.15	.007	.002997	.0006629	.000006629
313.15	.007	.003999	.0006638	.000006638
313.15	.007	.005	.0006648	.000006648
313.15	.007	.007	.000666	.00000666
313.15	.007	.007962	.0006669	.000006669
313.15	.007	.008996	.0006675	.000006675
313.15	.007	.009872	.0006682	.000006682
318.15	.007	.002997	.0006053	.000006053
318.15	.007	.003999	.0006062	.000006062
318.15	.007	.005	.0006069	.000006069
318.15	.007	.007	.0006082	.000006082
318.15	.007	.007962	.000609	.00000609
318.15	.007	.008996	.0006095	.000006095
318.15	.007	.009872	.0006107	.000006107
323.15	.007	.002997	.0005559	.000005559
323.15	.007	.003999	.0005567	.000005567
323.15	.007	.005	.0005575	.000005575
323.15	.007	.007	.000559	.00000559
323.15	.007	.007962	.0005594	.000005594
323.15	.007	.008996	.000558	.00000558
323.15	.007	.009872	.0005608	.000005608
303.15	.01	.003007	.0008088	.000008088
303.15	.01	.003997	.0008103	.000008103
303.15	.01	.004963	.0008113	.000008113
303.15	.01	.007003	.0008134	.000008134
303.15	.01	.008001	.0008144	.000008144
303.15	.01	.009	.0008155	.000008155
303.15	.01	.009895	.0008163	.000008163
308.15	.01	.003007	.000735	.00000735
308.15	.01	.003997	.0007361	.000007361
308.15	.01	.004963	.0007373	.000007373
308.15	.01	.007003	.0007393	.000007393
308.15	.01	.008001	.0007403	.000007403
308.15	.01	.009	.0007413	.000007413
308.15	.01	.009895	.0007418	.000007418
313.15	.01	.003007	.0006639	.000006639
313.15	.01	.003997	.000665	.00000665
313.15	.01	.004963	.0006661	.000006661
313.15	.01	.007003	.0006679	.000006679
313.15	.01	.008001	.000669	.00000669
313.15	.01	.009	.0006698	.000006698
313.15	.01	.009895	.0006705	.000006705
318.15	.01	.003007	.0006086	.000006086
318.15	.01	.003997	.0006097	.000006097
318.15	.01	.004963	.0006108	.000006108
318.15	.01	.007003	.0006125	.000006125
318.15	.01	.008001	.0006134	.000006134
318.15	.01	.009	.0006142	.000006142
318.15	.01	.009895	.0006148	.000006148
323.15	.01	.003007	.0005632	.000005632
323.15	.01	.003997	.0005642	.000005642
323.15	.01	.004963	.000565	.00000565
323.15	.01	.007003	.0005668	.000005668
323.15	.01	.008001	.0005676	.000005676
323.15	.01	.009	.0005683	.000005683
323.15	.01	.009895	.0005692	.000005692

System: sodium lauryl sulfate + water + magnesium nitrate; phases: Liquid
Fixed: Pressure, kPa = 101
Property: Viscosity, Pa*s (Liquid); method: Capillary tube (Ostwald; Ubbelohde) method
Temperature, K	Solvent: Molality, mol/kg of sodium lauryl sulfate	Molality, mol/kg of magnesium nitrate	Viscosity, Pa*s	uncertainty
303.15	.007	.003007	.0008092	.000008092
303.15	.007	.004006	.0008107	.000008107
303.15	.007	.005006	.0008121	.000008121
303.15	.007	.006932	.0008145	.000008145
303.15	.007	.008001	.0008158	.000008158
303.15	.007	.009021	.0008171	.000008171
308.15	.007	.003007	.0007297	.000007297
308.15	.007	.004006	.0007313	.000007313
308.15	.007	.005006	.0007324	.000007324
308.15	.007	.006932	.0007346	.000007346
308.15	.007	.008001	.0007359	.000007359
308.15	.007	.009021	.0007369	.000007369
313.15	.007	.003007	.000665	.00000665
313.15	.007	.004006	.0006638	.000006638
313.15	.007	.005006	.0006673	.000006673
313.15	.007	.006932	.0006694	.000006694
313.15	.007	.008001	.0006707	.000006707
313.15	.007	.009021	.0006716	.000006716
318.15	.007	.003007	.0006073	.000006073
318.15	.007	.004006	.0006085	.000006085
318.15	.007	.005006	.0006096	.000006096
318.15	.007	.006932	.0006115	.000006115
318.15	.007	.008001	.0006125	.000006125
318.15	.007	.009021	.0006135	.000006135
323.15	.007	.003007	.0005573	.000005573
323.15	.007	.004006	.0005584	.000005584
323.15	.007	.005006	.0005594	.000005594
323.15	.007	.006932	.0005613	.000005613
323.15	.007	.008001	.0005621	.000005621
323.15	.007	.009021	.0005631	.000005631
303.15	.01	.003	.0008105	.000008105
303.15	.01	.004006	.0008121	.000008121
303.15	.01	.005	.0008136	.000008136
303.15	.01	.007001	.0008165	.000008165
303.15	.01	.008053	.0008181	.000008181
303.15	.01	.008967	.0008192	.000008192
308.15	.01	.003	.0007361	.000007361
308.15	.01	.004006	.0007374	.000007374
308.15	.01	.005	.0007389	.000007389
308.15	.01	.007001	.0007414	.000007414
308.15	.01	.008053	.0007428	.000007428
308.15	.01	.008967	.0007442	.000007442
313.15	.01	.003	.0006646	.000006646
313.15	.01	.004006	.000666	.00000666
313.15	.01	.005	.0006673	.000006673
313.15	.01	.007001	.0006698	.000006698
313.15	.01	.008053	.0006709	.000006709
313.15	.01	.008967	.000672	.00000672
318.15	.01	.003	.0006097	.000006097
318.15	.01	.004006	.000611	.00000611
318.15	.01	.005	.0006122	.000006122
318.15	.01	.007001	.0006147	.000006147
318.15	.01	.008053	.0006158	.000006158
318.15	.01	.008967	.0006168	.000006168
323.15	.01	.003	.0005639	.000005639
323.15	.01	.004006	.0005653	.000005653
323.15	.01	.005	.0005667	.000005667
323.15	.01	.007001	.0005689	.000005689
323.15	.01	.008053	.0005699	.000005699
323.15	.01	.008967	.0005709	.000005709

System: sodium lauryl sulfate + water; phases: Liquid
Property: Viscosity, Pa*s (Liquid); method: Capillary tube (Ostwald; Ubbelohde) method
Temperature, K	Molality, mol/kg of sodium lauryl sulfate	Pressure, kPa	Viscosity, Pa*s	uncertainty
303.15	.007	101	.0008017	.000008017
308.15	.007	101	.0007228	.000007228
313.15	.007	101	.0006582	.000006582
318.15	.007	101	.0006009	.000006009
323.15	.007	101	.0005513	.000005513
303.15	.01	101	.0008025	.000008025
308.15	.01	101	.0007285	.000007285
313.15	.01	101	.0006577	.000006577
318.15	.01	101	.0006026	.000006026
323.15	.01	101	.0005575	.000005575
