Measured thermophysical data. Thermodynamics of mixing for binary mixtures of 1-octanol and 1-decanol with n-dodecane and ternary mixture of (TBP + 1-octanol + dodecane) at T = (298.15 to 323.15) K
Source: J. Chem. Thermodyn., 2015, 10.1016/j.jct.2015.06.029
Compound 1: tri-n-butyl phosphate, C12H27O4P, purity 94%
Compound 2: 1-octanol, C8H18O, purity 96%
Compound 3: 1-decanol, C10H22O, purity 96%
Compound 4: dodecane, C12H26, purity 99%
Compound 5: water, H2O

System: tri-n-butyl phosphate; phases: Liquid
Property: Mass density, kg/m3 (Liquid); method: Vibrating tube method
Temperature, K	Pressure, kPa	Mass density, kg/m3	uncertainty
298.15	100	972.82	1
303.15	100	968.5	1
308.15	100	964.18	1
313.15	100	959.86	1
318.15	100	955.53	1
323.15	100	951.2	1

System: tri-n-butyl phosphate; phases: Liquid
Fixed: Frequency, MHz = 3
Property: Speed of sound, m/s (Liquid); method: Sing-around technique in a fixed-path interferometer
Temperature, K	Pressure, kPa	Speed of sound, m/s	uncertainty
298.15	100	1265	.5
303.15	100	1248	.5
308.15	100	1232	.5
313.15	100	1215	.5
318.15	100	1198	.5
323.15	100	1182	.5

System: 1-octanol; phases: Liquid
Property: Mass density, kg/m3 (Liquid); method: Vibrating tube method
Temperature, K	Pressure, kPa	Mass density, kg/m3	uncertainty
298.15	100	822.28	1
303.15	100	818.79	1
308.15	100	815.27	1
313.15	100	811.73	1
318.15	100	808.17	1
323.15	100	804.58	1

System: 1-octanol; phases: Liquid
Fixed: Frequency, MHz = 3
Property: Speed of sound, m/s (Liquid); method: Sing-around technique in a fixed-path interferometer
Temperature, K	Pressure, kPa	Speed of sound, m/s	uncertainty
298.15	100	1348	.5
303.15	100	1331	.5
308.15	100	1314	.5
313.15	100	1297	.5
318.15	100	1281	.5
323.15	100	1264	.5

System: 1-decanol; phases: Liquid
Property: Mass density, kg/m3 (Liquid); method: Vibrating tube method
Temperature, K	Pressure, kPa	Mass density, kg/m3	uncertainty
298.15	100	827.21	1
303.15	100	823.76	1
308.15	100	820.31	1
313.15	100	816.83	1
318.15	100	813.34	1
323.15	100	809.82	1

System: 1-decanol; phases: Liquid
Fixed: Frequency, MHz = 3
Property: Speed of sound, m/s (Liquid); method: Sing-around technique in a fixed-path interferometer
Temperature, K	Pressure, kPa	Speed of sound, m/s	uncertainty
298.15	100	1380	.5
303.15	100	1363	.5
308.15	100	1346	.5
313.15	100	1329	.5
318.15	100	1312	.5
323.15	100	1296	.5

System: dodecane; phases: Liquid
Property: Mass density, kg/m3 (Liquid); method: Vibrating tube method
Temperature, K	Pressure, kPa	Mass density, kg/m3	uncertainty
298.15	100	745.62	1
303.15	100	741.98	1
308.15	100	738.34	1
313.15	100	734.69	1
318.15	100	731.03	1
323.15	100	727.37	1

System: dodecane; phases: Liquid
Fixed: Frequency, MHz = 3
Property: Speed of sound, m/s (Liquid); method: Sing-around technique in a fixed-path interferometer
Temperature, K	Pressure, kPa	Speed of sound, m/s	uncertainty
298.15	100	1279	.5
303.15	100	1259	.5
308.15	100	1240	.5
313.15	100	1221	.5
318.15	100	1203	.5
323.15	100	1184	.5

System: water; phases: Liquid
Fixed: Pressure, kPa = 101.325
Property: Mass density, kg/m3 (Liquid); method: Vibrating tube method
Temperature, K	Mass density, kg/m3	uncertainty
298.15	997.04	1

System: water; phases: Liquid
Fixed: Pressure, kPa = 101.325
Property: Speed of sound, m/s (Liquid); method: Sing-around technique in a fixed-path interferometer
Temperature, K	Speed of sound, m/s	uncertainty
298.15	1498	.5

System: 1-octanol + dodecane; phases: Liquid
Fixed: Pressure, kPa = 100
Property: Mass density, kg/m3 (Liquid); method: Vibrating tube method
Temperature, K	Mole fraction of 1-octanol	Mass density, kg/m3	uncertainty
298.15	.051	748.02	1
298.15	.101	750.64	1
298.15	.198	756.11	1
298.15	.302	762.43	1
298.15	.399	768.81	1
298.15	.501	776.09	1
298.15	.599	783.63	1
298.15	.7	792.11	1
298.15	.8	801.25	1
298.15	.901	811.32	1
298.15	.95	816.5	1
303.15	.051	744.34	1
303.15	.101	746.96	1
303.15	.198	752.42	1
303.15	.302	758.75	1
303.15	.399	765.14	1
303.15	.501	772.45	1
303.15	.599	779.99	1
303.15	.7	788.5	1
303.15	.8	797.67	1
303.15	.901	807.78	1
303.15	.95	812.99	1
308.15	.051	740.65	1
308.15	.101	743.26	1
308.15	.198	748.72	1
308.15	.302	755.06	1
308.15	.399	761.46	1
308.15	.501	768.78	1
308.15	.599	776.35	1
308.15	.7	784.88	1
308.15	.8	794.08	1
308.15	.901	804.23	1
308.15	.95	809.45	1
313.15	.051	736.96	1
313.15	.101	739.55	1
313.15	.198	745	1
313.15	.302	751.35	1
313.15	.399	757.76	1
313.15	.501	765.1	1
313.15	.599	772.68	1
313.15	.7	781.24	1
313.15	.8	790.46	1
313.15	.901	800.65	1
313.15	.95	805.9	1
318.15	.051	733.25	1
318.15	.101	735.83	1
318.15	.198	741.27	1
318.15	.302	747.62	1
318.15	.399	754.04	1
318.15	.501	761.39	1
318.15	.599	768.99	1
318.15	.7	777.57	1
318.15	.8	786.81	1
318.15	.901	797.05	1
318.15	.95	802.32	1
323.15	.051	729.53	1
323.15	.101	732.09	1
323.15	.198	737.52	1
323.15	.302	743.87	1
323.15	.399	750.29	1
323.15	.501	757.65	1
323.15	.599	765.27	1
323.15	.7	773.87	1
323.15	.8	783.14	1
323.15	.901	793.41	1
323.15	.95	798.7	1
298.15	1	822.28	1
303.15	1	818.79	1
308.15	1	815.27	1
313.15	1	811.73	1
318.15	1	808.17	1
323.15	1	804.58	1
298.15	0	745.62	1
303.15	0	741.98	1
308.15	0	738.34	1
313.15	0	734.69	1
318.15	0	731.03	1
323.15	0	727.37	1

System: 1-octanol + dodecane; phases: Liquid
Fixed: Pressure, kPa = 100
Fixed: Frequency, MHz = 3
Property: Speed of sound, m/s (Liquid); method: Sing-around technique in a fixed-path interferometer
Temperature, K	Mole fraction of 1-octanol	Speed of sound, m/s	uncertainty
298.15	.051	1278	.5
298.15	.101	1279	.5
298.15	.198	1282	.5
298.15	.302	1286	.5
298.15	.399	1291	.5
298.15	.501	1297	.5
298.15	.599	1304	.5
298.15	.7	1313	.5
298.15	.8	1323	.5
298.15	.901	1335	.5
298.15	.95	1341	.5
303.15	.051	1259	.5
303.15	.101	1260	.5
303.15	.198	1263	.5
303.15	.302	1267	.5
303.15	.399	1272	.5
303.15	.501	1279	.5
303.15	.599	1286	.5
303.15	.7	1295	.5
303.15	.8	1305	.5
303.15	.901	1317	.5
303.15	.95	1324	.5
308.15	.051	1240	.5
308.15	.101	1241	.5
308.15	.198	1244	.5
308.15	.302	1249	.5
308.15	.399	1254	.5
308.15	.501	1260	.5
308.15	.599	1268	.5
308.15	.7	1277	.5
308.15	.8	1288	.5
308.15	.901	1300	.5
308.15	.95	1307	.5
313.15	.051	1221	.5
313.15	.101	1222	.5
313.15	.198	1225	.5
313.15	.302	1230	.5
313.15	.399	1235	.5
313.15	.501	1242	.5
313.15	.599	1250	.5
313.15	.7	1259	.5
313.15	.8	1270	.5
313.15	.901	1283	.5
313.15	.95	1290	.5
318.15	.051	1202	.5
318.15	.101	1203	.5
318.15	.198	1207	.5
318.15	.302	1211	.5
318.15	.399	1217	.5
318.15	.501	1224	.5
318.15	.599	1232	.5
318.15	.7	1241	.5
318.15	.8	1253	.5
318.15	.901	1266	.5
318.15	.95	1273	.5
323.15	.051	1184	.5
323.15	.101	1185	.5
323.15	.198	1188	.5
323.15	.302	1193	.5
323.15	.399	1199	.5
323.15	.501	1206	.5
323.15	.599	1214	.5
323.15	.7	1224	.5
323.15	.8	1235	.5
323.15	.901	1249	.5
323.15	.95	1256	.5
298.15	1	1348	.5
303.15	1	1331	.5
308.15	1	1314	.5
313.15	1	1297	.5
318.15	1	1281	.5
323.15	1	1264	.5
298.15	0	1279	.5
303.15	0	1259	.5
308.15	0	1240	.5
313.15	0	1221	.5
318.15	0	1203	.5
323.15	0	1184	.5

System: 1-decanol + dodecane; phases: Liquid
Fixed: Pressure, kPa = 100
Property: Mass density, kg/m3 (Liquid); method: Vibrating tube method
Temperature, K	Mole fraction of 1-decanol	Mass density, kg/m3	uncertainty
298.15	.053	748.89	1
298.15	.101	752.15	1
298.15	.2	759.14	1
298.15	.297	766.32	1
298.15	.406	774.63	1
298.15	.499	782.06	1
298.15	.598	790.26	1
298.15	.701	799.01	1
298.15	.795	807.45	1
298.15	.901	817.23	1
298.15	.95	822.13	1
303.15	.053	745.21	1
303.15	.101	748.47	1
303.15	.2	755.48	1
303.15	.297	762.68	1
303.15	.406	771.01	1
303.15	.499	778.46	1
303.15	.598	786.69	1
303.15	.701	795.47	1
303.15	.795	803.94	1
303.15	.901	813.75	1
303.15	.95	818.67	1
308.15	.053	741.53	1
308.15	.101	744.78	1
308.15	.2	751.81	1
308.15	.297	759.02	1
308.15	.406	767.37	1
308.15	.499	774.85	1
308.15	.598	783.1	1
308.15	.701	791.91	1
308.15	.795	800.42	1
308.15	.901	810.27	1
308.15	.95	815.2	1
313.15	.053	737.84	1
313.15	.101	741.09	1
313.15	.2	748.12	1
313.15	.297	755.35	1
313.15	.406	763.72	1
313.15	.499	771.22	1
313.15	.598	779.5	1
313.15	.701	788.34	1
313.15	.795	796.88	1
313.15	.901	806.76	1
313.15	.95	811.71	1
318.15	.053	734.14	1
318.15	.101	737.38	1
318.15	.2	744.41	1
318.15	.297	751.65	1
318.15	.406	760.05	1
318.15	.499	767.58	1
318.15	.598	775.88	1
318.15	.701	784.75	1
318.15	.795	793.31	1
318.15	.901	803.24	1
318.15	.95	808.2	1
323.15	.053	730.43	1
323.15	.101	733.65	1
323.15	.2	740.68	1
323.15	.297	747.94	1
323.15	.406	756.36	1
323.15	.499	763.91	1
323.15	.598	772.24	1
323.15	.701	781.14	1
323.15	.795	789.73	1
323.15	.901	799.69	1
323.15	.95	804.67	1
298.15	0	745.62	1
303.15	0	741.98	1
308.15	0	738.34	1
313.15	0	734.69	1
318.15	0	731.03	1
323.15	0	727.37	1
298.15	1	827.21	1
303.15	1	823.76	1
308.15	1	820.31	1
313.15	1	816.83	1
318.15	1	813.34	1
323.15	1	809.82	1

System: 1-decanol + dodecane; phases: Liquid
Fixed: Pressure, kPa = 100
Fixed: Frequency, MHz = 3
Property: Speed of sound, m/s (Liquid); method: Sing-around technique in a fixed-path interferometer
Temperature, K	Mole fraction of 1-decanol	Speed of sound, m/s	uncertainty
298.15	.053	1280	.5
298.15	.101	1283	.5
298.15	.2	1290	.5
298.15	.297	1297	.5
298.15	.406	1307	.5
298.15	.499	1316	.5
298.15	.598	1326	.5
298.15	.701	1338	.5
298.15	.795	1351	.5
298.15	.901	1365	.5
298.15	.95	1373	.5
303.15	.053	1261	.5
303.15	.101	1264	.5
303.15	.2	1271	.5
303.15	.297	1278	.5
303.15	.406	1288	.5
303.15	.499	1297	.5
303.15	.598	1308	.5
303.15	.701	1320	.5
303.15	.795	1333	.5
303.15	.901	1348	.5
303.15	.95	1355	.5
308.15	.053	1242	.5
308.15	.101	1245	.5
308.15	.2	1252	.5
308.15	.297	1259	.5
308.15	.406	1269	.5
308.15	.499	1279	.5
308.15	.598	1290	.5
308.15	.701	1302	.5
308.15	.795	1315	.5
308.15	.901	1330	.5
308.15	.95	1338	.5
313.15	.053	1223	.5
313.15	.101	1226	.5
313.15	.2	1233	.5
313.15	.297	1241	.5
313.15	.406	1251	.5
313.15	.499	1261	.5
313.15	.598	1272	.5
313.15	.701	1285	.5
313.15	.795	1298	.5
313.15	.901	1313	.5
313.15	.95	1321	.5
318.15	.053	1204	.5
318.15	.101	1207	.5
318.15	.2	1214	.5
318.15	.297	1223	.5
318.15	.406	1233	.5
318.15	.499	1243	.5
318.15	.598	1254	.5
318.15	.701	1267	.5
318.15	.795	1280	.5
318.15	.901	1296	.5
318.15	.95	1304	.5
323.15	.053	1186	.5
323.15	.101	1189	.5
323.15	.2	1196	.5
323.15	.297	1204	.5
323.15	.406	1215	.5
323.15	.499	1225	.5
323.15	.598	1237	.5
323.15	.701	1250	.5
323.15	.795	1263	.5
323.15	.901	1279	.5
323.15	.95	1287	.5
298.15	0	1279	.5
303.15	0	1259	.5
308.15	0	1240	.5
313.15	0	1221	.5
318.15	0	1203	.5
323.15	0	1184	.5
298.15	1	1380	.5
303.15	1	1363	.5
308.15	1	1346	.5
313.15	1	1329	.5
318.15	1	1312	.5
323.15	1	1296	.5

System: 1-octanol + dodecane + tri-n-butyl phosphate; phases: Liquid
Fixed: Pressure, kPa = 100
Property: Mass density, kg/m3 (Liquid); method: Vibrating tube method
Temperature, K	Mole fraction of tri-n-butyl phosphate	Mole fraction of 1-octanol	Mass density, kg/m3	uncertainty
298.15	.9	.05	957.72	1
298.15	.701	.15	925.43	1
298.15	.552	.348	911.16	1
298.15	.501	.2	884.33	1
298.15	.347	.452	869.85	1
298.15	.347	.05	835.06	1
298.15	.201	.401	825.83	1
298.15	.101	.75	829.34	1
298.15	.051	.15	767.06	1
303.15	.9	.05	953.44	1
303.15	.701	.15	921.26	1
303.15	.552	.348	907.09	1
303.15	.501	.2	880.28	1
303.15	.347	.452	865.93	1
303.15	.347	.05	831.11	1
303.15	.201	.401	822.01	1
303.15	.101	.75	825.67	1
303.15	.051	.15	763.33	1
308.15	.9	.05	949.17	1
308.15	.701	.15	917.09	1
308.15	.552	.348	903.01	1
308.15	.501	.2	876.23	1
308.15	.347	.452	862	1
308.15	.347	.05	827.15	1
308.15	.201	.401	818.17	1
308.15	.101	.75	821.98	1
308.15	.051	.15	759.6	1
313.15	.9	.05	944.89	1
313.15	.701	.15	912.91	1
313.15	.552	.348	898.93	1
313.15	.501	.2	872.17	1
313.15	.347	.452	858.05	1
313.15	.347	.05	823.19	1
313.15	.201	.401	814.33	1
313.15	.101	.75	818.27	1
313.15	.051	.15	755.85	1
318.15	.9	.05	940.61	1
318.15	.701	.15	908.73	1
318.15	.552	.348	894.84	1
318.15	.501	.2	868.1	1
318.15	.347	.452	854.1	1
318.15	.347	.05	819.22	1
318.15	.201	.401	810.46	1
318.15	.101	.75	814.54	1
318.15	.051	.15	752.09	1
323.15	.9	.05	936.32	1
323.15	.701	.15	904.54	1
323.15	.552	.348	890.75	1
323.15	.501	.2	864.02	1
323.15	.347	.452	850.13	1
323.15	.347	.05	815.24	1
323.15	.201	.401	806.59	1
323.15	.101	.75	810.79	1
323.15	.051	.15	748.32	1

System: 1-octanol + dodecane + tri-n-butyl phosphate; phases: Liquid
Fixed: Pressure, kPa = 100
Fixed: Frequency, MHz = 3
Property: Speed of sound, m/s (Liquid); method: Sing-around technique in a fixed-path interferometer
Temperature, K	Mole fraction of tri-n-butyl phosphate	Mole fraction of 1-octanol	Speed of sound, m/s	uncertainty
298.15	.9	.05	1264	.5
298.15	.701	.15	1262	.5
298.15	.552	.348	1272	.5
298.15	.501	.2	1261	.5
298.15	.347	.452	1278	.5
298.15	.347	.05	1256	.5
298.15	.201	.401	1278	.5
298.15	.101	.75	1311	.5
298.15	.051	.15	1276	.5
303.15	.9	.05	1246	.5
303.15	.701	.15	1245	.5
303.15	.552	.348	1255	.5
303.15	.501	.2	1243	.5
303.15	.347	.452	1260	.5
303.15	.347	.05	1237	.5
303.15	.201	.401	1260	.5
303.15	.101	.75	1294	.5
303.15	.051	.15	1257	.5
308.15	.9	.05	1229	.5
308.15	.701	.15	1228	.5
308.15	.552	.348	1238	.5
308.15	.501	.2	1226	.5
308.15	.347	.452	1243	.5
308.15	.347	.05	1219	.5
308.15	.201	.401	1242	.5
308.15	.101	.75	1276	.5
308.15	.051	.15	1238	.5
313.15	.9	.05	1213	.5
313.15	.701	.15	1211	.5
313.15	.552	.348	1221	.5
313.15	.501	.2	1209	.5
313.15	.347	.452	1226	.5
313.15	.347	.05	1202	.5
313.15	.201	.401	1225	.5
313.15	.101	.75	1259	.5
313.15	.051	.15	1220	.5
318.15	.9	.05	1196	.5
318.15	.701	.15	1194	.5
318.15	.552	.348	1204	.5
318.15	.501	.2	1192	.5
318.15	.347	.452	1209	.5
318.15	.347	.05	1184	.5
318.15	.201	.401	1207	.5
318.15	.101	.75	1242	.5
318.15	.051	.15	1201	.5
323.15	.9	.05	1179	.5
323.15	.701	.15	1177	.5
323.15	.552	.348	1187	.5
323.15	.501	.2	1175	.5
323.15	.347	.452	1192	.5
323.15	.347	.05	1166	.5
323.15	.201	.401	1190	.5
323.15	.101	.75	1225	.5
323.15	.051	.15	1183	.5
