Measured thermophysical data. Experimental thermochemical study of 2,5- and 2,6-dichloro-4-nitroanilines
Source: J. Chem. Thermodyn., 2009, 10.1016/j.jct.2009.04.012
Compound 1: benzenamine, 2,5-dichloro-4-nitro-, C6H4Cl2N2O2
Compound 2: 2,6-dichloro-4-nitroaniline, C6H4Cl2N2O2
Compound 3: hydrogen chloride, ClH
Compound 4: carbon dioxide, CO2
Compound 5: nitrogen, N2
Compound 6: water, H2O
Compound 7: oxygen, O2

System: benzenamine, 2,5-dichloro-4-nitro-; phases: Crystal, Gas
Property: Vapor or sublimation pressure, kPa (Crystal); method: Knudsen effusion method
Temperature, K	Vapor or sublimation pressure, kPa	uncertainty
352.274	.000096	
354.198	.000129	
356.139	.000151	
358.15	.000184	
360.187	.000247	
362.229	.000293	
364.202	.000349	
366.204	.000422	
368.174	.000546	
370.148	.000652	
372.167	.000775	
374.083	.000966	
352.274	.000101	
354.198	.000127	
356.139	.000153	
358.15	.000188	
360.187	.000244	
362.229	.000289	
364.202	.000357	
366.204	.000434	
368.174	.000543	
370.148	.000666	
372.167	.000779	
374.083	.000969	
352.274	.000098	
354.198	.000125	
356.139	.000154	
358.15	.000188	
360.187	.000241	
362.229	.00028	
364.202	.000362	
366.204	.000428	
368.174	.000529	
370.148	.000667	
372.167	.000774	
374.083	.000953	

System: 2,6-dichloro-4-nitroaniline; phases: Crystal, Gas
Property: Vapor or sublimation pressure, kPa (Crystal); method: Knudsen effusion method
Temperature, K	Vapor or sublimation pressure, kPa	uncertainty
344.165	.000108	
346.179	.00014	
348.138	.000168	
352.185	.000263	
354.153	.000311	
356.165	.000395	
358.166	.000494	
360.164	.000583	
362.13	.000725	
364.151	.000864	
366.173	.001066	
344.165	.000106	
346.179	.000135	
348.138	.000163	
350.159	.000202	
352.185	.000254	
354.153	.00031	
356.165	.000367	
358.166	.000468	
360.164	.000571	
362.13	.000711	
364.151	.000857	
366.173	.001037	
344.165	.000104	
346.179	.000136	
348.138	.000163	
350.159	.000203	
352.185	.000248	
354.153	.000311	
356.165	.000368	
358.166	.000464	
360.164	.000553	
362.13	.00071	
364.151	.000831	
366.173	.001012	

Reaction: -1 benzenamine, 2,5-dichloro-4-nitro- + 2 hydrogen chloride + 6 carbon dioxide + 1 nitrogen + 1 water + -5.5 oxygen
Property: Specific internal energy of reaction at constant volume, J/g
-13999.5

Reaction: -1 2,6-dichloro-4-nitroaniline + 2 hydrogen chloride + 6 carbon dioxide + 1 nitrogen + 1 water + -5.5 oxygen
Property: Specific internal energy of reaction at constant volume, J/g
-13894.7
