Measured thermophysical data. Ideal and non-ideal behaviour of {1-butyl-1-methylpyrrolydinium bis(trifluoromethylsulfonyl)imide + .gamma.-butyrolactone} binary mixtures
Source: J. Chem. Thermodyn., 2015, 10.1016/j.jct.2014.10.002
Compound 1: 1-butyl-1-methylpyrrolidinium bis(trifluoromethylsulfonyl)imide, C11H20F6N2O4S2, purity 99%
Compound 2: .gamma.-butyrylolactone, C4H6O2, purity 99%

System: 1-butyl-1-methylpyrrolidinium bis(trifluoromethylsulfonyl)imide; phases: Liquid
Property: Mass density, kg/m3 (Liquid); method: Vibrating tube method
Temperature, K	Pressure, kPa	Mass density, kg/m3	uncertainty
293.15	100	1399	.05
298.15	100	1394.57	.05
303.15	100	1390.02	.05
308.15	100	1385.48	.05
313.15	100	1380.93	.05
318.15	100	1376.28	.05
323.15	100	1371.64	.05

System: 1-butyl-1-methylpyrrolidinium bis(trifluoromethylsulfonyl)imide; phases: Liquid
Property: Viscosity, Pa*s (Liquid); method: Concentric cylinders viscometry
Temperature, K	Pressure, kPa	Viscosity, Pa*s	uncertainty
298.15	100	.07673	.0015346
303.15	100	.06167	.0012334
308.15	100	.05049	.0010098
313.15	100	.04173	.0008346
318.15	100	.03467	.0006934
323.15	100	.02948	.0005896

System: 1-butyl-1-methylpyrrolidinium bis(trifluoromethylsulfonyl)imide; phases: Liquid
Property: Electrical conductivity, S/m (Liquid); method: Direct current cell with electrodes
Temperature, K	Pressure, kPa	Electrical conductivity, S/m	uncertainty
298.15	100	.277	.004155
303.15	100	.338	.00507
308.15	100	.412	.00618
313.15	100	.491	.007365
318.15	100	.579	.008685
323.15	100	.672	.01008

System: .gamma.-butyrylolactone; phases: Liquid
Property: Mass density, kg/m3 (Liquid); method: Vibrating tube method
Temperature, K	Pressure, kPa	Mass density, kg/m3	uncertainty
293.15	100	1129.2	.05
298.15	100	1124.26	.05
303.15	100	1119.33	.05
308.15	100	1114.31	.05
313.15	100	1109.23	.05
318.15	100	1104.1	.05
323.15	100	1098.88	.05

System: .gamma.-butyrylolactone; phases: Liquid
Property: Viscosity, Pa*s (Liquid); method: Concentric cylinders viscometry
Temperature, K	Pressure, kPa	Viscosity, Pa*s	uncertainty
298.15	100	.00173	.0000346
303.15	100	.00163	.0000326
308.15	100	.00152	.0000304
313.15	100	.00142	.0000284
318.15	100	.00135	.000027
323.15	100	.0013	.000026

System: .gamma.-butyrylolactone; phases: Liquid
Property: Electrical conductivity, S/m (Liquid); method: Direct current cell with electrodes
Temperature, K	Pressure, kPa	Electrical conductivity, S/m	uncertainty
298.15	100	.001	.000015
303.15	100	.001	.000015
308.15	100	.001	.000015
313.15	100	.001	.000015
318.15	100	.001	.000015
323.15	100	.002	.00003

System: .gamma.-butyrylolactone + 1-butyl-1-methylpyrrolidinium bis(trifluoromethylsulfonyl)imide; phases: Liquid
Fixed: Pressure, kPa = 100
Property: Mass density, kg/m3 (Liquid); method: Vibrating tube method
Temperature, K	Mole fraction of 1-butyl-1-methylpyrrolidinium bis(trifluoromethylsulfonyl)imide	Mass density, kg/m3	uncertainty
293.15	0	1129.2	.05
293.15	.0254	1154.25	.05
293.15	.0491	1174.7	.05
293.15	.0957	1208.5	.05
293.15	.1948	1260.77	.05
293.15	.2407	1278.95	.05
293.15	.3054	1300.22	.05
293.15	.3455	1311.42	.05
293.15	.4015	1325.01	.05
293.15	.4921	1343.07	.05
293.15	.5514	1352.85	.05
293.15	.599	1359.75	.05
293.15	.6557	1367.06	.05
293.15	.7375	1376.11	.05
293.15	.7999	1382.11	.05
293.15	.8876	1389.67	.05
293.15	.9449	1394.4	.05
293.15	1	1399	.05
298.15	0	1124.26	.05
298.15	.0254	1149.35	.05
298.15	.0491	1169.82	.05
298.15	.0957	1203.66	.05
298.15	.1948	1256.04	.05
298.15	.2407	1274.26	.05
298.15	.3054	1295.56	.05
298.15	.3455	1306.78	.05
298.15	.4015	1320.38	.05
298.15	.4921	1338.48	.05
298.15	.5514	1348.28	.05
298.15	.599	1355.22	.05
298.15	.6557	1362.58	.05
298.15	.7375	1371.72	.05
298.15	.7999	1377.76	.05
298.15	.8876	1385.34	.05
298.15	.9449	1390.01	.05
298.15	1	1394.57	.05
303.15	0	1119.33	.05
303.15	.0254	1144.44	.05
303.15	.0491	1164.92	.05
303.15	.0957	1198.81	.05
303.15	.1948	1251.26	.05
303.15	.2407	1269.51	.05
303.15	.3054	1290.83	.05
303.15	.3455	1302.06	.05
303.15	.4015	1315.69	.05
303.15	.4921	1333.83	.05
303.15	.5514	1343.67	.05
303.15	.599	1350.65	.05
303.15	.6557	1358.06	.05
303.15	.7375	1367.24	.05
303.15	.7999	1373.31	.05
303.15	.8876	1380.85	.05
303.15	.9449	1385.52	.05
303.15	1	1390.02	.05
308.15	0	1114.31	.05
308.15	.0254	1139.44	.05
308.15	.0491	1159.95	.05
308.15	.0957	1193.89	.05
308.15	.1948	1246.42	.05
308.15	.2407	1264.7	.05
308.15	.3054	1286.07	.05
308.15	.3455	1297.31	.05
308.15	.4015	1310.97	.05
308.15	.4921	1329.16	.05
308.15	.5514	1339.03	.05
308.15	.599	1346.03	.05
308.15	.6557	1353.44	.05
308.15	.7375	1362.66	.05
308.15	.7999	1368.76	.05
308.15	.8876	1376.35	.05
308.15	.9449	1380.99	.05
308.15	1	1385.48	.05
313.15	0	1109.23	.05
313.15	.0254	1134.39	.05
313.15	.0491	1154.93	.05
313.15	.0957	1188.94	.05
313.15	.1948	1241.55	.05
313.15	.2407	1259.85	.05
313.15	.3054	1281.26	.05
313.15	.3455	1292.52	.05
313.15	.4015	1306.21	.05
313.15	.4921	1324.45	.05
313.15	.5514	1334.35	.05
313.15	.599	1341.37	.05
313.15	.6557	1348.8	.05
313.15	.7375	1358.04	.05
313.15	.7999	1364.16	.05
313.15	.8876	1371.82	.05
313.15	.9449	1376.44	.05
313.15	1	1380.93	.05
318.15	0	1104.1	.05
318.15	.0254	1129.29	.05
318.15	.0491	1149.85	.05
318.15	.0957	1183.89	.05
318.15	.1948	1236.6	.05
318.15	.2407	1254.92	.05
318.15	.3054	1276.38	.05
318.15	.3455	1287.66	.05
318.15	.4015	1301.38	.05
318.15	.4921	1319.66	.05
318.15	.5514	1329.58	.05
318.15	.599	1336.62	.05
318.15	.6557	1344.08	.05
318.15	.7375	1353.38	.05
318.15	.7999	1359.52	.05
318.15	.8876	1367.18	.05
318.15	.9449	1371.83	.05
318.15	1	1376.28	.05
323.15	0	1098.88	.05
323.15	.0254	1124.1	.05
323.15	.0491	1144.71	.05
323.15	.0957	1178.77	.05
323.15	.1948	1231.58	.05
323.15	.2407	1249.96	.05
323.15	.3054	1271.45	.05
323.15	.3455	1282.78	.05
323.15	.4015	1296.52	.05
323.15	.4921	1314.85	.05
323.15	.5514	1324.79	.05
323.15	.599	1331.86	.05
323.15	.6557	1339.34	.05
323.15	.7375	1348.67	.05
323.15	.7999	1354.83	.05
323.15	.8876	1362.54	.05
323.15	.9449	1367.19	.05
323.15	1	1371.64	.05

System: .gamma.-butyrylolactone + 1-butyl-1-methylpyrrolidinium bis(trifluoromethylsulfonyl)imide; phases: Liquid
Fixed: Pressure, kPa = 100
Property: Viscosity, Pa*s (Liquid); method: Concentric cylinders viscometry
Temperature, K	Mole fraction of 1-butyl-1-methylpyrrolidinium bis(trifluoromethylsulfonyl)imide	Viscosity, Pa*s	uncertainty
298.15	0	.00173	.0000346
298.15	.1	.00332	.0000664
298.15	.2003	.00531	.0001062
298.15	.2991	.00813	.0001626
298.15	.4001	.01203	.0002406
298.15	.4956	.01691	.0003382
298.15	.6004	.0245	.00049
298.15	.6996	.03419	.0006838
298.15	.7981	.04441	.0008882
298.15	.8925	.05852	.0011704
298.15	1	.07673	.0015346
303.15	0	.00163	.0000326
303.15	.1	.00304	.0000608
303.15	.2003	.00478	.0000956
303.15	.2991	.00718	.0001436
303.15	.4001	.01043	.0002086
303.15	.4956	.0145	.00029
303.15	.6004	.02078	.0004156
303.15	.6996	.02841	.0005682
303.15	.7981	.03667	.0007334
303.15	.8925	.04782	.0009564
303.15	1	.06167	.0012334
308.15	0	.00152	.0000304
308.15	.1	.00279	.0000558
308.15	.2003	.00435	.000087
308.15	.2991	.00639	.0001278
308.15	.4001	.00919	.0001838
308.15	.4956	.01258	.0002516
308.15	.6004	.01756	.0003512
308.15	.6996	.02393	.0004786
308.15	.7981	.03058	.0006116
308.15	.8925	.03922	.0007844
308.15	1	.05049	.0010098
313.15	0	.00142	.0000284
313.15	.1	.00257	.0000514
313.15	.2003	.00396	.0000792
313.15	.2991	.00575	.000115
313.15	.4001	.00816	.0001632
313.15	.4956	.01112	.0002224
313.15	.6004	.01537	.0003074
313.15	.6996	.02038	.0004076
313.15	.7981	.02609	.0005218
313.15	.8925	.03294	.0006588
313.15	1	.04173	.0008346
318.15	0	.00135	.000027
318.15	.1	.00238	.0000476
318.15	.2003	.0036	.000072
318.15	.2991	.00514	.0001028
318.15	.4001	.0072	.000144
318.15	.4956	.0097	.000194
318.15	.6004	.01326	.0002652
318.15	.6996	.01743	.0003486
318.15	.7981	.02228	.0004456
318.15	.8925	.02759	.0005518
318.15	1	.03467	.0006934
323.15	0	.0013	.000026
323.15	.1	.00221	.0000442
323.15	.2003	.00331	.0000662
323.15	.2991	.0047	.000094
323.15	.4001	.00644	.0001288
323.15	.4956	.00862	.0001724
323.15	.6004	.01155	.000231
323.15	.6996	.01524	.0003048
323.15	.7981	.01922	.0003844
323.15	.8925	.0231	.000462
323.15	1	.02948	.0005896

System: .gamma.-butyrylolactone + 1-butyl-1-methylpyrrolidinium bis(trifluoromethylsulfonyl)imide; phases: Liquid
Fixed: Pressure, kPa = 100
Property: Electrical conductivity, S/m (Liquid); method: Direct current cell with electrodes
Temperature, K	Mole fraction of 1-butyl-1-methylpyrrolidinium bis(trifluoromethylsulfonyl)imide	Electrical conductivity, S/m	uncertainty
298.15	0	.001	.000015
298.15	.0502	1.122	.01683
298.15	.1	1.46	.0219
298.15	.1491	1.55	.02325
298.15	.2003	1.466	.02199
298.15	.2991	1.243	.018645
298.15	.4001	.953	.014295
298.15	.4956	.726	.01089
298.15	.6004	.554	.00831
298.15	.6996	.468	.00702
298.15	.7981	.394	.00591
298.15	.8925	.329	.004935
298.15	1	.277	.004155
303.15	0	.001	.000015
303.15	.0502	1.219	.018285
303.15	.1	1.587	.023805
303.15	.1491	1.72	.0258
303.15	.2003	1.633	.024495
303.15	.2991	1.371	.020565
303.15	.4001	1.08	.0162
303.15	.4956	.818	.01227
303.15	.6004	.654	.00981
303.15	.6996	.545	.008175
303.15	.7981	.461	.006915
303.15	.8925	.381	.005715
303.15	1	.338	.00507
308.15	0	.001	.000015
308.15	.0502	1.31	.01965
308.15	.1	1.718	.02577
308.15	.1491	1.887	.028305
308.15	.2003	1.798	.02697
308.15	.2991	1.516	.02274
308.15	.4001	1.206	.01809
308.15	.4956	.92	.0138
308.15	.6004	.758	.01137
308.15	.6996	.638	.00957
308.15	.7981	.545	.008175
308.15	.8925	.459	.006885
308.15	1	.412	.00618
313.15	0	.001	.000015
313.15	.0502	1.405	.021075
313.15	.1	1.851	.027765
313.15	.1491	2.059	.030885
313.15	.2003	1.971	.029565
313.15	.2991	1.669	.025035
313.15	.4001	1.336	.02004
313.15	.4956	1.02	.0153
313.15	.6004	.865	.012975
313.15	.6996	.736	.01104
313.15	.7981	.621	.009315
313.15	.8925	.538	.00807
313.15	1	.491	.007365
318.15	0	.001	.000015
318.15	.0502	1.505	.022575
318.15	.1	1.987	.029805
318.15	.1491	2.23	.03345
318.15	.2003	2.142	.03213
318.15	.2991	1.834	.02751
318.15	.4001	1.451	.021765
318.15	.4956	1.154	.01731
318.15	.6004	.971	.014565
318.15	.6996	.812	.01218
318.15	.7981	.705	.010575
318.15	.8925	.616	.00924
318.15	1	.579	.008685
323.15	0	.002	.00003
323.15	.0502	1.602	.02403
323.15	.1	2.118	.03177
323.15	.1491	2.401	.036015
323.15	.2003	2.315	.034725
323.15	.2991	1.977	.029655
323.15	.4001	1.57	.02355
323.15	.4956	1.276	.01914
323.15	.6004	1.08	.0162
323.15	.6996	.905	.013575
323.15	.7981	.785	.011775
323.15	.8925	.713	.010695
323.15	1	.672	.01008
