Measured thermophysical data. Acoustic and thermodynamic properties of binary mixtures of 1-nonanol with  o-xylene, m-xylene, p-xylene, ethylbenzene and mesitylene at T = (298.15  and 308.15) K
Source: J. Chem. Thermodyn., 2013, 10.1016/j.jct.2012.10.023
Compound 1: 1-nonanol, C9H20O
Compound 2: 1,2-xylene, C8H10
Compound 3: m-xylene, C8H10
Compound 4: 1,4-xylene, C8H10
Compound 5: .alpha.-methyltoluene, C8H10
Compound 6: benzene, 1,3,5-trimethyl-, C9H12

System: 1-nonanol; phases: Liquid
Fixed: Pressure, kPa = 101.325
Property: Mass density, kg/m3 (Liquid); method: Vibrating tube method
Temperature, K	Mass density, kg/m3	uncertainty
298.15	824.271	
308.15	817.362	

System: 1-nonanol; phases: Liquid
Fixed: Pressure, kPa = 101.325
Property: Speed of sound, m/s (Liquid); method: Sing-around technique in a fixed-path interferometer
Temperature, K	Speed of sound, m/s	uncertainty
298.15	1363.08	
308.15	1330.37	

System: 1,2-xylene; phases: Liquid
Fixed: Pressure, kPa = 101.325
Property: Mass density, kg/m3 (Liquid); method: Vibrating tube method
Temperature, K	Mass density, kg/m3	uncertainty
298.15	875.363	
308.15	866.507	

System: 1,2-xylene; phases: Liquid
Fixed: Pressure, kPa = 101.325
Property: Speed of sound, m/s (Liquid); method: Sing-around technique in a fixed-path interferometer
Temperature, K	Speed of sound, m/s	uncertainty
298.15	1348.24	
308.15	1308.16	

System: m-xylene; phases: Liquid
Fixed: Pressure, kPa = 101.325
Property: Mass density, kg/m3 (Liquid); method: Vibrating tube method
Temperature, K	Mass density, kg/m3	uncertainty
298.15	859.867	
308.15	851.236	

System: m-xylene; phases: Liquid
Fixed: Pressure, kPa = 101.325
Property: Speed of sound, m/s (Liquid); method: Sing-around technique in a fixed-path interferometer
Temperature, K	Speed of sound, m/s	uncertainty
298.15	1320.08	
308.15	1279.11	

System: 1,4-xylene; phases: Liquid
Fixed: Pressure, kPa = 101.325
Property: Mass density, kg/m3 (Liquid); method: Vibrating tube method
Temperature, K	Mass density, kg/m3	uncertainty
298.15	856.609	
308.15	847.881	

System: 1,4-xylene; phases: Liquid
Fixed: Pressure, kPa = 101.325
Property: Speed of sound, m/s (Liquid); method: Sing-around technique in a fixed-path interferometer
Temperature, K	Speed of sound, m/s	uncertainty
298.15	1309.49	
308.15	1268.63	

System: .alpha.-methyltoluene; phases: Liquid
Fixed: Pressure, kPa = 101.325
Property: Mass density, kg/m3 (Liquid); method: Vibrating tube method
Temperature, K	Mass density, kg/m3	uncertainty
298.15	862.433	
308.15	853.607	

System: .alpha.-methyltoluene; phases: Liquid
Fixed: Pressure, kPa = 101.325
Property: Speed of sound, m/s (Liquid); method: Sing-around technique in a fixed-path interferometer
Temperature, K	Speed of sound, m/s	uncertainty
298.15	1318.57	
308.15	1277.51	

System: benzene, 1,3,5-trimethyl-; phases: Liquid
Fixed: Pressure, kPa = 101.325
Property: Mass density, kg/m3 (Liquid); method: Vibrating tube method
Temperature, K	Mass density, kg/m3	uncertainty
298.15	860.862	
308.15	852.659	

System: benzene, 1,3,5-trimethyl-; phases: Liquid
Fixed: Pressure, kPa = 101.325
Property: Speed of sound, m/s (Liquid); method: Sing-around technique in a fixed-path interferometer
Temperature, K	Speed of sound, m/s	uncertainty
298.15	1335.97	
308.15	1296.29	

System: 1,2-xylene + 1-nonanol; phases: Liquid
Fixed: Pressure, kPa = 101
Property: Mass density, kg/m3 (Liquid); method: Vibrating tube method
Temperature, K	Mole fraction of 1,2-xylene	Mass density, kg/m3	uncertainty
298.15	0	824.271	
298.15	.0653	826.644	
298.15	.136	829.283	
298.15	.1773	830.871	
298.15	.2281	832.869	
298.15	.2834	835.111	
298.15	.3463	837.756	
298.15	.4203	841.015	
298.15	.4761	843.593	
298.15	.5478	847.079	
298.15	.6327	851.482	
298.15	.7121	855.922	
298.15	.7974	861.062	
298.15	.8695	865.751	
298.15	.9287	869.902	
298.15	1	875.363	
308.15	0	817.362	
308.15	.0653	819.637	
308.15	.136	822.169	
308.15	.1773	823.694	
308.15	.2281	825.612	
308.15	.2834	827.766	
308.15	.3463	830.309	
308.15	.4203	833.448	
308.15	.4761	835.935	
308.15	.5478	839.304	
308.15	.6327	843.569	
308.15	.7121	847.884	
308.15	.7974	852.892	
308.15	.8695	857.475	
308.15	.9287	861.543	
308.15	1	866.507	

System: 1,2-xylene + 1-nonanol; phases: Liquid
Fixed: Pressure, kPa = 101
Property: Speed of sound, m/s (Liquid); method: Sing-around technique in a fixed-path interferometer
Temperature, K	Mole fraction of 1,2-xylene	Speed of sound, m/s	uncertainty
298.15	0	1363.08	
298.15	.0653	1361.74	
298.15	.136	1359.72	
298.15	.1773	1358.34	
298.15	.2281	1356.48	
298.15	.2834	1354.32	
298.15	.3463	1351.76	
298.15	.4203	1348.81	
298.15	.4761	1346.65	
298.15	.5478	1344.28	
298.15	.6327	1342.22	
298.15	.7121	1341.09	
298.15	.7974	1341.02	
298.15	.8695	1342.12	
298.15	.9287	1344.03	
298.15	1	1348.24	
308.15	0	1330.37	
308.15	.0653	1328.22	
308.15	.136	1325.47	
308.15	.1773	1323.69	
308.15	.2281	1321.38	
308.15	.2834	1318.78	
308.15	.3463	1315.8	
308.15	.4203	1312.46	
308.15	.4761	1310.05	
308.15	.5478	1307.29	
308.15	.6327	1304.66	
308.15	.7121	1303.02	
308.15	.7974	1302.28	
308.15	.8695	1302.81	
308.15	.9287	1304.27	
308.15	1	1308.16	

System: m-xylene + 1-nonanol; phases: Liquid
Fixed: Pressure, kPa = 101
Property: Mass density, kg/m3 (Liquid); method: Vibrating tube method
Temperature, K	Mole fraction of m-xylene	Mass density, kg/m3	uncertainty
298.15	0	824.271	
298.15	.066	826.04	
298.15	.127	827.699	
298.15	.1739	828.993	
298.15	.2461	831.027	
298.15	.2913	832.335	
298.15	.3635	834.482	
298.15	.4422	836.925	
298.15	.4872	838.383	
298.15	.5648	841.002	
298.15	.6251	843.155	
298.15	.6873	845.49	
298.15	.7713	848.867	
298.15	.8508	852.346	
298.15	.9284	856.073	
298.15	1	859.867	
308.15	0	817.362	
308.15	.066	819.011	
308.15	.127	820.562	
308.15	.1739	821.778	
308.15	.2461	823.695	
308.15	.2913	824.932	
308.15	.3635	826.964	
308.15	.4422	829.276	
308.15	.4872	830.658	
308.15	.5648	833.142	
308.15	.6251	835.189	
308.15	.6873	837.419	
308.15	.7713	840.659	
308.15	.8508	843.997	
308.15	.9284	847.58	
308.15	1	851.236	

System: m-xylene + 1-nonanol; phases: Liquid
Fixed: Pressure, kPa = 101
Property: Speed of sound, m/s (Liquid); method: Sing-around technique in a fixed-path interferometer
Temperature, K	Mole fraction of m-xylene	Speed of sound, m/s	uncertainty
298.15	0	1363.08	
298.15	.066	1360.23	
298.15	.127	1356.98	
298.15	.1739	1354.19	
298.15	.2461	1349.42	
298.15	.2913	1346.42	
298.15	.3635	1341.38	
298.15	.4422	1335.91	
298.15	.4872	1332.89	
298.15	.5648	1328.16	
298.15	.6251	1324.74	
298.15	.6873	1321.93	
298.15	.7713	1318.98	
298.15	.8508	1317.77	
298.15	.9284	1317.99	
298.15	1	1320.08	
308.15	0	1330.37	
308.15	.066	1326.55	
308.15	.127	1322.53	
308.15	.1739	1319.18	
308.15	.2461	1313.89	
308.15	.2913	1310.37	
308.15	.3635	1304.75	
308.15	.4422	1298.86	
308.15	.4872	1295.53	
308.15	.5648	1290.13	
308.15	.6251	1286.32	
308.15	.6873	1283.03	
308.15	.7713	1279.52	
308.15	.8508	1277.72	
308.15	.9284	1277.59	
308.15	1	1279.11	

System: 1,4-xylene + 1-nonanol; phases: Liquid
Fixed: Pressure, kPa = 101
Property: Mass density, kg/m3 (Liquid); method: Vibrating tube method
Temperature, K	Mole fraction of 1,4-xylene	Mass density, kg/m3	uncertainty
298.15	0	824.271	
298.15	.0611	825.819	
298.15	.1108	827.09	
298.15	.1652	828.491	
298.15	.226	830.074	
298.15	.2932	831.854	
298.15	.3651	833.819	
298.15	.4248	835.506	
298.15	.5023	837.784	
298.15	.558	839.499	
298.15	.6359	842.032	
298.15	.7123	844.678	
298.15	.7744	846.969	
298.15	.8514	850.015	
298.15	.9286	853.306	
298.15	1	856.609	
308.15	0	817.362	
308.15	.0611	818.805	
308.15	.1108	819.99	
308.15	.1652	821.297	
308.15	.226	822.774	
308.15	.2932	824.435	
308.15	.3651	826.271	
308.15	.4248	827.851	
308.15	.5023	829.988	
308.15	.558	831.601	
308.15	.6359	833.99	
308.15	.7123	836.494	
308.15	.7744	838.668	
308.15	.8514	841.569	
308.15	.9286	844.715	
308.15	1	847.881	

System: 1,4-xylene + 1-nonanol; phases: Liquid
Fixed: Pressure, kPa = 101
Property: Speed of sound, m/s (Liquid); method: Sing-around technique in a fixed-path interferometer
Temperature, K	Mole fraction of 1,4-xylene	Speed of sound, m/s	uncertainty
298.15	0	1363.08	
298.15	.0611	1360.09	
298.15	.1108	1357.14	
298.15	.1652	1353.42	
298.15	.226	1348.96	
298.15	.2932	1343.91	
298.15	.3651	1338.36	
298.15	.4248	1333.52	
298.15	.5023	1327.48	
298.15	.558	1323.32	
298.15	.6359	1318.09	
298.15	.7123	1313.75	
298.15	.7744	1310.96	
298.15	.8514	1308.92	
298.15	.9286	1307.99	
298.15	1	1309.49	
308.15	0	1330.37	
308.15	.0611	1326.26	
308.15	.1108	1322.59	
308.15	.1652	1318.23	
308.15	.226	1313.26	
308.15	.2932	1307.45	
308.15	.3651	1301.21	
308.15	.4248	1296.08	
308.15	.5023	1289.68	
308.15	.558	1285.22	
308.15	.6359	1279.62	
308.15	.7123	1274.75	
308.15	.7744	1271.65	
308.15	.8514	1268.98	
308.15	.9286	1267.98	
308.15	1	1268.63	

System: .alpha.-methyltoluene + 1-nonanol; phases: Liquid
Fixed: Pressure, kPa = 101
Property: Mass density, kg/m3 (Liquid); method: Vibrating tube method
Temperature, K	Mole fraction of .alpha.-methyltoluene	Mass density, kg/m3	uncertainty
298.15	0	824.271	
298.15	.0611	825.837	
298.15	.1285	827.606	
298.15	.1791	828.979	
298.15	.2466	830.861	
298.15	.3151	832.863	
298.15	.3717	834.594	
298.15	.4254	836.312	
298.15	.5007	838.858	
298.15	.5756	841.598	
298.15	.6411	844.187	
298.15	.7122	847.192	
298.15	.7798	850.293	
298.15	.8557	854.062	
298.15	.9341	858.405	
298.15	1	862.433	
308.15	0	817.362	
308.15	.0611	818.832	
308.15	.1285	820.495	
308.15	.1791	821.784	
308.15	.2466	823.552	
308.15	.3151	825.431	
308.15	.3717	827.054	
308.15	.4254	828.667	
308.15	.5007	831.059	
308.15	.5756	833.621	
308.15	.6411	836.032	
308.15	.7122	838.876	
308.15	.7798	841.821	
308.15	.8557	845.455	
308.15	.9341	849.669	
308.15	1	853.607	

System: .alpha.-methyltoluene + 1-nonanol; phases: Liquid
Fixed: Pressure, kPa = 101
Property: Speed of sound, m/s (Liquid); method: Sing-around technique in a fixed-path interferometer
Temperature, K	Mole fraction of .alpha.-methyltoluene	Speed of sound, m/s	uncertainty
298.15	0	1363.08	
298.15	.0611	1359.72	
298.15	.1285	1355.75	
298.15	.1791	1352.33	
298.15	.2466	1347.63	
298.15	.3151	1342.59	
298.15	.3717	1338.39	
298.15	.4254	1334.46	
298.15	.5007	1329.21	
298.15	.5756	1324.62	
298.15	.6411	1320.96	
298.15	.7122	1317.99	
298.15	.7798	1315.99	
298.15	.8557	1315.19	
298.15	.9341	1316.32	
298.15	1	1318.57	
308.15	0	1330.37	
308.15	.0611	1326.18	
308.15	.1285	1321.19	
308.15	.1791	1317.25	
308.15	.2466	1311.97	
308.15	.3151	1306.49	
308.15	.3717	1301.91	
308.15	.4254	1297.59	
308.15	.5007	1291.79	
308.15	.5756	1286.42	
308.15	.6411	1282.34	
308.15	.7122	1278.79	
308.15	.7798	1276.19	
308.15	.8557	1274.98	
308.15	.9341	1274.91	
308.15	1	1277.51	

System: benzene, 1,3,5-trimethyl- + 1-nonanol; phases: Liquid
Fixed: Pressure, kPa = 101
Property: Mass density, kg/m3 (Liquid); method: Vibrating tube method
Temperature, K	Mole fraction of benzene, 1,3,5-trimethyl-	Mass density, kg/m3	uncertainty
298.15	0	824.271	
298.15	.0696	826.211	
298.15	.1267	827.826	
298.15	.195	829.792	
298.15	.2375	831.043	
298.15	.3044	833.053	
298.15	.362	834.839	
298.15	.4358	837.211	
298.15	.5112	839.754	
298.15	.5777	842.112	
298.15	.6422	844.512	
298.15	.7091	847.143	
298.15	.7788	850.052	
298.15	.8571	853.546	
298.15	.9234	856.701	
298.15	1	860.862	
308.15	0	817.362	
308.15	.0696	819.181	
308.15	.1267	820.708	
308.15	.195	822.576	
308.15	.2375	823.768	
308.15	.3044	825.691	
308.15	.362	827.405	
308.15	.4358	829.683	
308.15	.5112	832.121	
308.15	.5777	834.381	
308.15	.6422	836.681	
308.15	.7091	839.209	
308.15	.7788	841.998	
308.15	.8571	845.418	
308.15	.9234	848.558	
308.15	1	852.659	

System: benzene, 1,3,5-trimethyl- + 1-nonanol; phases: Liquid
Fixed: Pressure, kPa = 101
Property: Speed of sound, m/s (Liquid); method: Sing-around technique in a fixed-path interferometer
Temperature, K	Mole fraction of benzene, 1,3,5-trimethyl-	Speed of sound, m/s	uncertainty
298.15	0	1363.08	
298.15	.0696	1360.86	
298.15	.1267	1358.82	
298.15	.195	1355.99	
298.15	.2375	1354.05	
298.15	.3044	1350.77	
298.15	.362	1347.82	
298.15	.4358	1344.12	
298.15	.5112	1340.51	
298.15	.5777	1337.46	
298.15	.6422	1335.19	
298.15	.7091	1333.28	
298.15	.7788	1332.39	
298.15	.8571	1332.42	
298.15	.9234	1333.36	
298.15	1	1335.97	
308.15	0	1330.37	
308.15	.0696	1327.28	
308.15	.1267	1324.62	
308.15	.195	1321.02	
308.15	.2375	1318.58	
308.15	.3044	1314.85	
308.15	.362	1311.39	
308.15	.4358	1307.39	
308.15	.5112	1303.29	
308.15	.5777	1300.05	
308.15	.6422	1297.48	
308.15	.7091	1295.21	
308.15	.7788	1293.67	
308.15	.8571	1293.06	
308.15	.9234	1293.84	
308.15	1	1296.29	
