Measured thermophysical data. (Liquid + liquid) equilibria for the ternary (water + acetic acid + toluene) system  at different temperatures: Experimental data and correlation
Source: J. Chem. Thermodyn., 2013, 10.1016/j.jct.2012.08.017
Compound 1: water, H2O, purity 99.9%
Compound 2: methylbenzene, C7H8, purity 99.5%
Compound 3: ethanoic acid, C2H4O2, purity 99.5%

System: ethanoic acid + methylbenzene + water; phases: Liquid mixture 2, Liquid mixture 1
Property: Mass fraction of methylbenzene (Liquid mixture 2); method: Titration method
Property: Mass fraction of water (Liquid mixture 1); method: Titration method
Property: Mass fraction of ethanoic acid (Liquid mixture 1); method: Titration method
Temperature, K	Pressure, kPa	Mass fraction of ethanoic acid	Mass fraction of methylbenzene	uncertainty	Mass fraction of water	uncertainty	Mass fraction of ethanoic acid	uncertainty
288.2	101.325	.0123	.9871	.001	.7875	.001	.2098	.001
298.2	101.325	.022	.977	.001	.7321	.001	.2657	.001
298.2	101.325	.0281	.9707	.001	.6898	.001	.3068	.001
298.2	101.325	.0396	.9587	.001	.6227	.001	.3682	.001
298.2	101.325	.0427	.9556	.001	.6055	.001	.3853	.001
298.2	101.325	.0586	.939	.001	.5317	.001	.4559	.001
298.2	101.325	.0664	.9308	.001	.5049	.001	.4822	.001
298.2	101.325	.0816	.915	.001	.4452	.001	.5355	.001
313.2	101.325	.016	.9828	.001	.7857	.001	.2124	.001
313.2	101.325	.0239	.9748	.001	.7354	.001	.2568	.001
313.2	101.325	.0313	.9671	.001	.6904	.001	.3028	.001
288.2	101.325	.0181	.9813	.001	.7472	.001	.2505	.001
313.2	101.325	.0417	.956	.001	.6334	.001	.3598	.001
313.2	101.325	.0488	.9483	.001	.5988	.001	.3939	.001
313.2	101.325	.0657	.93	.001	.5322	.001	.4587	.001
313.2	101.325	.0734	.9224	.001	.503	.001	.4847	.001
313.2	101.325	.0909	.9034	.001	.449	.001	.5361	.001
288.2	101.325	.0269	.9725	.001	.6885	.001	.3086	.001
288.2	101.325	.0323	.967	.001	.6552	.001	.3376	.001
288.2	101.325	.0411	.9579	.001	.6034	.001	.3875	.001
288.2	101.325	.0534	.9454	.001	.5446	.001	.445	.001
288.2	101.325	.058	.9402	.001	.5252	.001	.4636	.001
288.2	101.325	.0765	.921	.001	.4448	.001	.537	.001
298.2	101.325	.0124	.9868	.001	.7921	.001	.2064	.001
