Measured thermophysical data. Effect of temperature on the process of complex formation crown ether 15C5 with Na+ in the mixture of water with methanol
Source: J. Chem. Thermodyn., 2014, 10.1016/j.jct.2013.09.021
Compound 1: 15-crown-5 ether, C10H20O5
Compound 2: sodium iodide, INa
Compound 3: methanol, CH4O
Compound 4: water, H2O, purity 99.8%

System: methanol + sodium iodide + 15-crown-5 ether; phases: Liquid
Fixed: Pressure, kPa = 101
Fixed: Solvent: Amount concentration (molarity), mol/dm3 of sodium iodide = .05
Property: Molar enthalpy of solution, kJ/mol (Liquid); method: Isoperibol calorimetry
Molality, mol/kg of 15-crown-5 ether	Temperature, K	Molar enthalpy of solution, kJ/mol	uncertainty
.00155	293.15	-21.65	.04
.00466	298.15	-20.91	.04
.00225	303.15	-20.2	.05
.0028	308.15	-19.5	.04

System: sodium iodide + water + 15-crown-5 ether; phases: Liquid
Fixed: Pressure, kPa = 101
Fixed: Solvent: Amount concentration (molarity), mol/dm3 of sodium iodide = .05
Property: Molar enthalpy of solution, kJ/mol (Liquid); method: Isoperibol calorimetry
Molality, mol/kg of 15-crown-5 ether	Temperature, K	Molar enthalpy of solution, kJ/mol	uncertainty
.00383	293.15	-43.26	.04
.00492	298.15	-42.37	.05
.0038	303.15	-41.13	.05
.003	308.15	-40.11	.04
