Measured thermophysical data. Partial molar volumes of organic solutes in water. XXII. Cyclic ethers  at temperatures (298 to 573) K and pressures up to 30 MPa
Source: J. Chem. Thermodyn., 2010, 10.1016/j.jct.2009.11.005
Compound 1: tetramethylene oxide, C4H8O, purity 99%
Compound 2: 1,3-dioxolane, C3H6O2, purity 99%
Compound 3: tetrahydropyran, C5H10O, purity 99%
Compound 4: dioxane, C4H8O2, purity 99.5%
Compound 5: 1,3,5-trioxacyclohexane, C3H6O3, purity 99%
Compound 6: water, H2O, purity 99.5%

System: tetramethylene oxide + water; phases: Liquid
Fixed: Mole fraction of tetramethylene oxide = 0
Property: Partial molar volume, m3/mol of tetramethylene oxide (Liquid); method: Derived analytically
Temperature, K	Pressure, kPa	Partial molar volume, m3/mol of tetramethylene oxide	uncertainty
398.18	2030	.00008712	.0000002
423.17	2040	.00009109	.00000022
448.16	2060	.00009598	.00000038
473.18	2070	.00010164	.00000038
498.16	2990	.00010866	.00000032
523.14	5020	.00011745	.00000038
548.19	7050	.00013025	.00000038
573.18	10170	.00014827	.00000046
298.16	15040	.00007672	.00000014
318.16	15030	.00007797	.00000016
338.15	15040	.00007951	.00000016
358.18	15040	.0000814	.00000018
373.19	15030	.00008305	.0000002
398.18	15030	.00008615	.00000016
423.17	15060	.00008976	.00000022
448.17	15050	.00009409	.00000038
473.18	15030	.00009912	.0000003
498.17	15030	.00010531	.00000032
523.14	14990	.00011335	.00000038
548.2	15040	.00012446	.0000004
573.18	15030	.00014153	.00000044
298.16	30070	.00007651	.00000012
318.16	30060	.00007762	.00000016
338.15	30040	.000079	.00000014
358.17	30020	.00008072	.00000016
373.18	30040	.00008226	.00000018
398.18	30050	.00008511	.0000002
423.17	30050	.00008836	.00000022
448.16	30030	.00009224	.00000024
473.17	30040	.00009669	.00000028
498.17	30060	.00010183	.00000032
523.14	30030	.00010845	.0000003
548.2	30050	.00011671	.00000038
573.17	30030	.00012791	.00000042

System: 1,3-dioxolane + water; phases: Liquid
Fixed: Mole fraction of 1,3-dioxolane = 0
Property: Partial molar volume, m3/mol of 1,3-dioxolane (Liquid); method: Derived analytically
Temperature, K	Pressure, kPa	Partial molar volume, m3/mol of 1,3-dioxolane	uncertainty
398.18	2020	.00007501	.00000012
423.17	2040	.00007801	.00000014
448.16	2060	.00008128	.00000018
298.17	15030	.00006529	.00000014
318.16	15030	.0000669	.00000012
338.15	15040	.00006855	.00000012
358.17	15020	.00007031	.00000012
373.19	15040	.0000717	.00000012
398.18	15040	.00007422	.00000012
423.17	15010	.00007703	.00000014
448.17	15040	.00007999	.00000014
298.15	30060	.00006512	.0000001
318.16	30050	.00006659	.0000001
338.15	30040	.00006816	.00000012
358.17	30020	.00006978	.00000012
373.18	30040	.00007105	.00000012
398.18	30060	.00007341	.00000012
423.18	30050	.00007603	.00000014
448.17	30060	.00007865	.00000016

System: tetrahydropyran + water; phases: Liquid
Fixed: Mole fraction of tetrahydropyran = 0
Property: Partial molar volume, m3/mol of tetrahydropyran (Liquid); method: Derived analytically
Temperature, K	Pressure, kPa	Partial molar volume, m3/mol of tetrahydropyran	uncertainty
398.18	2030	.0001041	.00000022
423.17	2040	.00010883	.00000022
448.16	2060	.00011467	.0000004
473.18	2070	.0001213	.00000032
498.16	2990	.00012935	.00000034
523.14	5020	.00013945	.00000044
548.19	7050	.00015374	.00000044
573.18	10170	.00017414	.00000066
298.16	15040	.00009163	.00000016
318.16	15040	.00009304	.00000016
338.15	15050	.00009499	.00000022
358.18	15050	.00009724	.00000022
373.19	15030	.00009924	.00000022
398.18	15030	.00010299	.00000022
423.17	15060	.0001073	.00000022
448.17	15050	.00011225	.00000038
473.18	15030	.00011828	.0000003
498.17	15030	.00012544	.00000036
523.14	14990	.00013467	.0000004
548.2	15040	.00014699	.00000042
573.18	15020	.00016624	.00000064
298.16	30080	.00009144	.00000016
318.16	30060	.00009266	.00000016
338.15	30040	.00009441	.00000022
358.17	30020	.00009647	.00000022
373.18	30040	.0000983	.00000022
398.18	30050	.00010176	.0000002
423.18	30050	.00010567	.00000022
448.16	30030	.00011016	.00000028
473.17	30040	.00011543	.0000003
498.17	30060	.00012144	.00000034
523.14	30030	.00012912	.0000004
548.2	30040	.00013808	.0000004
573.17	30030	.00015039	.00000066

System: dioxane + water; phases: Liquid
Fixed: Mole fraction of dioxane = 0
Property: Partial molar volume, m3/mol of dioxane (Liquid); method: Derived analytically
Temperature, K	Pressure, kPa	Partial molar volume, m3/mol of dioxane	uncertainty
398.18	2020	.00009098	.00000012
423.17	2040	.00009425	.00000014
448.16	2060	.00009818	.00000014
473.18	2070	.00010282	.00000024
498.16	3000	.00010837	.00000018
523.14	5010	.00011537	.0000002
548.21	7080	.00012502	.00000022
573.18	10180	.0001384	.00000026
298.16	15030	.00008083	.00000012
318.16	15030	.00008248	.00000012
338.15	15050	.00008416	.00000012
358.17	15020	.00008593	.00000012
373.19	15040	.00008739	.00000012
398.18	15040	.00009008	.00000012
423.17	15020	.00009313	.00000014
448.17	15040	.0000967	.00000014
473.17	15030	.00010078	.00000024
498.16	15030	.00010576	.00000018
523.15	15020	.00011213	.0000002
548.21	15050	.00012077	.00000022
573.18	15070	.00013353	.00000024
298.16	30070	.0000806	.00000012
318.16	30050	.00008211	.00000012
338.15	30040	.00008364	.00000012
358.17	30020	.00008532	.00000012
373.18	30040	.00008667	.00000012
398.18	30060	.00008917	.00000012
423.18	30050	.00009199	.00000012
448.17	30060	.00009523	.00000014
473.17	30040	.00009884	.00000022
498.17	30060	.00010298	.00000022
523.15	30030	.00010836	.0000002
548.22	30020	.00011487	.0000002
573.17	30060	.0001235	.00000026

System: 1,3,5-trioxacyclohexane + water; phases: Liquid
Fixed: Mole fraction of 1,3,5-trioxacyclohexane = 0
Property: Partial molar volume, m3/mol of 1,3,5-trioxacyclohexane (Liquid); method: Derived analytically
Temperature, K	Pressure, kPa	Partial molar volume, m3/mol of 1,3,5-trioxacyclohexane	uncertainty
398.18	2020	.00007984	.00000014
423.17	2040	.0000827	.00000014
448.16	2050	.00008614	.00000016
473.18	2070	.00009013	.00000024
498.16	3000	.00009496	.00000018
298.16	15030	.00006964	.00000012
318.16	15030	.00007151	.00000014
338.15	15050	.00007332	.00000014
358.17	15020	.00007513	.00000014
373.19	15050	.00007657	.00000014
398.18	15030	.00007904	.00000014
423.17	15020	.00008179	.00000014
448.17	15040	.00008489	.00000014
473.17	15030	.00008849	.00000022
498.16	15030	.0000928	.00000018
298.16	30070	.0000695	.00000014
318.16	30050	.00007125	.00000014
338.15	30040	.00007293	.0000001
358.17	30010	.00007466	.00000014
373.18	30040	.00007603	.00000016
398.18	30060	.00007832	.00000014
423.18	30050	.00008087	.00000014
448.17	30060	.00008367	.00000014
473.17	30040	.00008689	.00000022
498.17	30060	.00009074	.00000022
