Measured thermophysical data. Thermophysical properties of two binary aqueous mixtures containing a pyridinium-based ionic liquid
Source: J. Chem. Thermodyn., 2016, 10.1016/j.jct.2016.04.003
Compound 1: 1-propylpyridinium tetrafluoroborate, C8H12BF4N, purity 98%
Compound 2: 1-butylpyridinium tetrafluoroborate, C9H14BF4N, purity 99%
Compound 3: water, H2O, purity 99.9%

System: 1-butylpyridinium tetrafluoroborate; phases: Liquid
Property: Refractive index (Na D-line) (Liquid); method: Standard Abbe refractometry
Temperature, K	Pressure, kPa	Refractive index (Na D-line)	uncertainty
293.15	99	1.44719	

System: water; phases: Liquid
Property: Mass density, kg/m3 (Liquid); method: Vibrating tube method
Temperature, K	Pressure, kPa	Mass density, kg/m3	uncertainty
293.15	99	998.21	
303.15	99	995.65	
313.15	99	992.2	
323.15	99	988.04	

System: water; phases: Liquid
Fixed: Frequency, MHz = 3
Property: Speed of sound, m/s (Liquid); method: Sing-around technique in a fixed-path interferometer
Temperature, K	Pressure, kPa	Speed of sound, m/s	uncertainty
293.15	99	1482.7	
303.15	99	1509.4	
313.15	99	1529.2	
323.15	99	1542.9	

System: water; phases: Liquid
Property: Refractive index (Na D-line) (Liquid); method: Standard Abbe refractometry
Temperature, K	Pressure, kPa	Refractive index (Na D-line)	uncertainty
293.15	99	1.33297	
303.15	99	1.33196	
313.15	99	1.33061	
323.15	99	1.32904	

System: water; phases: Liquid, Air at 1 atmosphere
Property: Surface tension liquid-gas, N/m (Liquid); method: Drop volume
Temperature, K	Surface tension liquid-gas, N/m	uncertainty
293.15	.0727	
303.15	.0711	
313.15	.0696	
323.15	.0678	

System: water; phases: Liquid
Property: Viscosity, Pa*s (Liquid); method: Capillary tube (Ostwald; Ubbelohde) method
Temperature, K	Pressure, kPa	Viscosity, Pa*s	uncertainty
293.15	99	.001002	
303.15	99	.000797	
313.15	99	.000653	
323.15	99	.000547	

System: water + 1-propylpyridinium tetrafluoroborate; phases: Liquid
Fixed: Pressure, kPa = 99
Property: Mass density, kg/m3 (Liquid); method: Vibrating tube method
Temperature, K	Mole fraction of 1-propylpyridinium tetrafluoroborate	Mass density, kg/m3	uncertainty
293.15	.0185	1034.4	
293.15	.0287	1050.5	
293.15	.0466	1074	
293.15	.0766	1103.9	
293.15	.0964	1119	
293.15	.2011	1169.1	
293.15	.2858	1191.6	
293.15	.3993	1211.3	
293.15	.4979	1223.2	
293.15	.5772	1230.6	
293.15	.6015	1232.5	
293.15	.6695	1237.6	
293.15	.7309	1241.4	
293.15	.7771	1244.2	
293.15	.8395	1247.6	
293.15	.9054	1251.2	
293.15	.9633	1254.5	
303.15	.0185	1030.5	
303.15	.0287	1046.1	
303.15	.0466	1068.7	
303.15	.0766	1097.8	
303.15	.0964	1112.5	
303.15	.2011	1161.7	
303.15	.2858	1184.2	
303.15	.3993	1203.8	
303.15	.4979	1215.7	
303.15	.5772	1223.1	
303.15	.6015	1225	
303.15	.6695	1230	
303.15	.7309	1233.9	
303.15	.7771	1236.7	
303.15	.8395	1240.2	
303.15	.9054	1243.9	
303.15	.9633	1247.3	
313.15	.0185	1026	
313.15	.0287	1041.1	
313.15	.0466	1063.1	
313.15	.0766	1091.4	
313.15	.0964	1105.8	
313.15	.2011	1154.3	
313.15	.2858	1176.6	
313.15	.3993	1196.3	
313.15	.4979	1208.2	
313.15	.5772	1215.5	
313.15	.6015	1217.5	
313.15	.6695	1222.5	
313.15	.7309	1226.5	
313.15	.7771	1229.4	
313.15	.8395	1232.9	
313.15	.9054	1236.7	
313.15	.9633	1240.1	
323.15	.0185	1020.8	
323.15	.0287	1035.6	
323.15	.0466	1057	
323.15	.0766	1084.7	
323.15	.0964	1098.9	
323.15	.2011	1146.9	
323.15	.2858	1169.2	
323.15	.3993	1189	
323.15	.4979	1200.9	
323.15	.5772	1208.2	
323.15	.6015	1210.1	
323.15	.6695	1215.1	
323.15	.7309	1219.2	
323.15	.7771	1222.1	
323.15	.8395	1225.8	
323.15	.9054	1229.6	
323.15	.9633	1233	
293.15	1	1256.7	
303.15	1	1249.5	
313.15	1	1242.4	
323.15	1	1235.3	
293.15	0	998.21	
303.15	0	995.65	
313.15	0	992.2	
323.15	0	988.04	

System: water + 1-propylpyridinium tetrafluoroborate; phases: Liquid
Fixed: Pressure, kPa = 99
Fixed: Frequency, MHz = 3
Property: Speed of sound, m/s (Liquid); method: Sing-around technique in a fixed-path interferometer
Temperature, K	Mole fraction of 1-propylpyridinium tetrafluoroborate	Speed of sound, m/s	uncertainty
293.15	.0185	1537.2	
293.15	.0287	1551	
293.15	.0466	1568.7	
293.15	.0766	1590.8	
293.15	.0964	1602.6	
293.15	.2011	1640.9	
293.15	.2858	1651.5	
293.15	.3993	1654.2	
293.15	.4979	1651.5	
293.15	.5772	1648.1	
293.15	.6015	1647.3	
293.15	.6695	1645.8	
293.15	.7309	1645.4	
293.15	.7771	1645.6	
293.15	.8395	1647.1	
293.15	.9054	1649.5	
293.15	.9633	1652.1	
303.15	.0185	1550.2	
303.15	.0287	1564	
303.15	.0466	1581.1	
303.15	.0766	1599.5	
303.15	.0964	1607.8	
303.15	.2011	1627.8	
303.15	.2858	1630.3	
303.15	.3993	1629.5	
303.15	.4979	1627.3	
303.15	.5772	1625.1	
303.15	.6015	1624.6	
303.15	.6695	1623.3	
303.15	.7309	1622.6	
303.15	.7771	1622.4	
303.15	.8395	1623	
303.15	.9054	1624.6	
303.15	.9633	1627.3	
313.15	.0185	1559	
313.15	.0287	1568.7	
313.15	.0466	1580.6	
313.15	.0766	1593	
313.15	.0964	1598.5	
313.15	.2011	1610.4	
313.15	.2858	1610.4	
313.15	.3993	1607.7	
313.15	.4979	1604.7	
313.15	.5772	1602.4	
313.15	.6015	1601.9	
313.15	.6695	1600.6	
313.15	.7309	1599.9	
313.15	.7771	1599.7	
313.15	.8395	1600.3	
313.15	.9054	1601.8	
313.15	.9633	1604.2	
323.15	.0185	1563.2	
323.15	.0287	1569.4	
323.15	.0466	1576.8	
323.15	.0766	1583.8	
323.15	.0964	1586.7	
323.15	.2011	1591.5	
323.15	.2858	1589.7	
323.15	.3993	1586	
323.15	.4979	1582.6	
323.15	.5772	1580	
323.15	.6015	1579.4	
323.15	.6695	1577.7	
323.15	.7309	1576.7	
323.15	.7771	1576.2	
323.15	.8395	1576.6	
323.15	.9054	1578.1	
323.15	.9633	1580.8	
293.15	1	1653.9	
303.15	1	1629.8	
313.15	1	1606.3	
323.15	1	1583.3	
293.15	0	1482.7	
303.15	0	1509.4	
313.15	0	1529.2	
323.15	0	1542.9	

System: water + 1-propylpyridinium tetrafluoroborate; phases: Liquid
Fixed: Pressure, kPa = 99
Property: Refractive index (Na D-line) (Liquid); method: Standard Abbe refractometry
Temperature, K	Mole fraction of 1-propylpyridinium tetrafluoroborate	Refractive index (Na D-line)	uncertainty
293.15	.0185	1.34795	
293.15	.0287	1.3549	
293.15	.0466	1.36529	
293.15	.0766	1.37888	
293.15	.0964	1.38592	
293.15	.2011	1.40941	
293.15	.2858	1.41984	
293.15	.3993	1.42862	
293.15	.4979	1.4337	
293.15	.5772	1.43677	
293.15	.6015	1.43757	
293.15	.6695	1.43957	
293.15	.7309	1.44111	
293.15	.7771	1.44212	
293.15	.8395	1.44335	
293.15	.9054	1.44449	
293.15	.9633	1.44537	
303.15	.0185	1.34613	
303.15	.0287	1.35282	
303.15	.0466	1.36297	
303.15	.0766	1.37637	
303.15	.0964	1.38337	
303.15	.2011	1.40683	
303.15	.2858	1.41727	
303.15	.3993	1.42604	
303.15	.4979	1.4311	
303.15	.5772	1.43415	
303.15	.6015	1.43495	
303.15	.6695	1.43694	
303.15	.7309	1.43847	
303.15	.7771	1.43948	
303.15	.8395	1.4407	
303.15	.9054	1.44183	
303.15	.9633	1.44271	
313.15	.0185	1.34407	
313.15	.0287	1.35055	
313.15	.0466	1.36049	
313.15	.0766	1.37374	
313.15	.0964	1.38071	
313.15	.2011	1.40419	
313.15	.2858	1.41465	
313.15	.3993	1.42343	
313.15	.4979	1.42848	
313.15	.5772	1.43152	
313.15	.6015	1.43233	
313.15	.6695	1.4343	
313.15	.7309	1.43583	
313.15	.7771	1.43685	
313.15	.8395	1.43806	
313.15	.9054	1.43918	
313.15	.9633	1.44006	
323.15	.0185	1.34187	
323.15	.0287	1.34817	
323.15	.0466	1.35792	
323.15	.0766	1.37105	
323.15	.0964	1.37801	
323.15	.2011	1.40152	
323.15	.2858	1.41202	
323.15	.3993	1.42083	
323.15	.4979	1.42588	
323.15	.5772	1.42891	
323.15	.6015	1.42971	
323.15	.6695	1.43169	
323.15	.7309	1.43321	
323.15	.7771	1.43422	
323.15	.8395	1.43543	
323.15	.9054	1.43656	
323.15	.9633	1.43742	
293.15	1	1.44588	
303.15	1	1.44322	
313.15	1	1.44057	
323.15	1	1.43793	
293.15	0	1.33297	
303.15	0	1.33196	
313.15	0	1.33061	
323.15	0	1.32904	

System: water + 1-propylpyridinium tetrafluoroborate; phases: Liquid, Air at 1 atmosphere
Property: Surface tension liquid-gas, N/m (Liquid); method: Drop volume
Temperature, K	Mole fraction of 1-propylpyridinium tetrafluoroborate	Surface tension liquid-gas, N/m	uncertainty
293.15	.028	.0585	
293.15	.0551	.0561	
293.15	.1008	.054	
293.15	.1522	.0527	
293.15	.1965	.052	
293.15	.2947	.0515	
293.15	.3451	.0514	
293.15	.3968	.0512	
293.15	.4779	.0511	
293.15	.5827	.0511	
293.15	.6846	.051	
293.15	.7861	.051	
293.15	.8862	.0511	
293.15	.9425	.0512	
303.15	.028	.0572	
303.15	.0551	.0548	
303.15	.1008	.0528	
303.15	.1522	.0516	
303.15	.1965	.0509	
303.15	.2947	.0506	
303.15	.3451	.0505	
303.15	.3968	.0503	
303.15	.4779	.0502	
303.15	.5827	.0503	
303.15	.6846	.0503	
303.15	.7861	.0503	
303.15	.8862	.0503	
303.15	.9425	.0504	
313.15	.028	.056	
313.15	.0551	.0537	
313.15	.1008	.0517	
313.15	.1522	.0505	
313.15	.1965	.0499	
313.15	.2947	.0498	
313.15	.3451	.0496	
313.15	.3968	.0495	
313.15	.4779	.0495	
313.15	.5827	.0496	
313.15	.6846	.0496	
313.15	.7861	.0496	
313.15	.8862	.0496	
313.15	.9425	.0497	
323.15	.028	.0545	
323.15	.0551	.0522	
323.15	.1008	.0504	
323.15	.1522	.0492	
323.15	.1965	.0486	
323.15	.2947	.0487	
323.15	.3451	.0486	
323.15	.3968	.0485	
323.15	.4779	.0485	
323.15	.5827	.0487	
323.15	.6846	.0487	
323.15	.7861	.0488	
323.15	.8862	.0489	
323.15	.9425	.0489	
293.15	1	.0513	
303.15	1	.0505	
313.15	1	.0498	
323.15	1	.049	
293.15	0	.0727	
303.15	0	.0711	
313.15	0	.0696	
323.15	0	.0678	

System: water + 1-propylpyridinium tetrafluoroborate; phases: Liquid
Fixed: Pressure, kPa = 99
Property: Viscosity, Pa*s (Liquid); method: Capillary tube (Ostwald; Ubbelohde) method
Temperature, K	Mole fraction of 1-propylpyridinium tetrafluoroborate	Viscosity, Pa*s	uncertainty
293.15	.0492	.001359	
293.15	.0952	.001827	
293.15	.1948	.002933	
293.15	.2588	.004438	
293.15	.3891	.008303	
293.15	.4894	.01336	
293.15	.5942	.01997	
293.15	.6952	.03313	
293.15	.7903	.05392	
293.15	.8982	.09709	
293.15	.943	.1242	
303.15	.0492	.001092	
303.15	.0952	.001278	
303.15	.1948	.002334	
303.15	.2588	.003141	
303.15	.3891	.006162	
303.15	.4894	.009757	
303.15	.5942	.01493	
303.15	.6952	.02256	
303.15	.7903	.03494	
303.15	.8982	.05866	
303.15	.943	.07068	
313.15	.0492	.000843	
313.15	.0952	.001122	
313.15	.1948	.001755	
313.15	.2588	.002326	
313.15	.3891	.004172	
313.15	.4894	.007412	
313.15	.5942	.01092	
313.15	.6952	.0162	
313.15	.7903	.02305	
313.15	.8982	.03515	
313.15	.943	.04335	
323.15	.0492	.000714	
323.15	.0952	.000889	
323.15	.1948	.001379	
323.15	.2588	.001808	
323.15	.3891	.003105	
323.15	.4894	.005345	
323.15	.5942	.008242	
323.15	.6952	.01205	
323.15	.7903	.01597	
323.15	.8982	.02399	
323.15	.943	.02838	
293.15	1	.16	
303.15	1	.09075	
313.15	1	.05602	
323.15	1	.03699	
293.15	0	.001002	
303.15	0	.000797	
313.15	0	.000653	
323.15	0	.000547	

System: water + 1-butylpyridinium tetrafluoroborate; phases: Liquid
Fixed: Pressure, kPa = 99
Property: Mass density, kg/m3 (Liquid); method: Vibrating tube method
Temperature, K	Mole fraction of 1-butylpyridinium tetrafluoroborate	Mass density, kg/m3	uncertainty
293.15	.0165	1028.6	
293.15	.0379	1058	
293.15	.0863	1100.2	
293.15	.101	1109.3	
293.15	.134	1125.6	
293.15	.243	1158.2	
293.15	.289	1167	
293.15	.3456	1175.6	
293.15	.4217	1184.5	
293.15	.5485	1195.4	
293.15	.6029	1199	
293.15	.7232	1205.7	
293.15	.8005	1209.3	
293.15	.8575	1211.7	
293.15	.9315	1214.5	
303.15	.0165	1025.3	
303.15	.0379	1053.9	
303.15	.0863	1094.8	
303.15	.101	1103.7	
303.15	.134	1119.5	
303.15	.243	1151.3	
303.15	.289	1159.9	
303.15	.3456	1168.3	
303.15	.4217	1177.2	
303.15	.5485	1188	
303.15	.6029	1191.7	
303.15	.7232	1198.5	
303.15	.8005	1202.2	
303.15	.8575	1204.6	
303.15	.9315	1207.6	
313.15	.0165	1021.2	
313.15	.0379	1049.2	
313.15	.0863	1089.2	
313.15	.101	1097.8	
313.15	.134	1113.3	
313.15	.243	1144.4	
313.15	.289	1152.9	
313.15	.3456	1161.3	
313.15	.4217	1170.1	
313.15	.5485	1180.9	
313.15	.6029	1184.6	
313.15	.7232	1191.6	
313.15	.8005	1195.3	
313.15	.8575	1197.8	
313.15	.9315	1200.9	
323.15	.0165	1016.5	
323.15	.0379	1043.9	
323.15	.0863	1083	
323.15	.101	1091.5	
323.15	.134	1106.6	
323.15	.243	1137.2	
323.15	.289	1145.6	
323.15	.3456	1153.8	
323.15	.4217	1162.6	
323.15	.5485	1173.4	
323.15	.6029	1177.2	
323.15	.7232	1184.2	
323.15	.8005	1188	
323.15	.8575	1190.6	
323.15	.9315	1193.8	
293.15	1	1217.1	
303.15	1	1210.3	
313.15	1	1203.7	
323.15	1	1196.7	
293.15	0	998.21	
303.15	0	995.65	
313.15	0	992.2	
323.15	0	988.04	

System: water + 1-butylpyridinium tetrafluoroborate; phases: Liquid
Fixed: Pressure, kPa = 99
Fixed: Frequency, MHz = 3
Property: Speed of sound, m/s (Liquid); method: Sing-around technique in a fixed-path interferometer
Temperature, K	Mole fraction of 1-butylpyridinium tetrafluoroborate	Speed of sound, m/s	uncertainty
293.15	.0165	1539	
293.15	.0379	1572.7	
293.15	.0863	1606.7	
293.15	.101	1612.3	
293.15	.134	1620.9	
293.15	.243	1630	
293.15	.289	1629.4	
293.15	.3456	1627.7	
293.15	.4217	1624.5	
293.15	.5485	1619.7	
293.15	.6029	1618	
293.15	.7232	1614.9	
293.15	.8005	1613.5	
293.15	.8575	1612.8	
293.15	.9315	1612	
303.15	.0165	1552	
303.15	.0379	1576.9	
303.15	.0863	1600.1	
303.15	.101	1603.2	
303.15	.134	1608.1	
303.15	.243	1610.7	
303.15	.289	1608.8	
303.15	.3456	1606.1	
303.15	.4217	1602.7	
303.15	.5485	1597.4	
303.15	.6029	1595.6	
303.15	.7232	1592.3	
303.15	.8005	1590.7	
303.15	.8575	1589.7	
303.15	.9315	1588.9	
313.15	.0165	1560	
313.15	.0379	1576.8	
313.15	.0863	1590.3	
313.15	.101	1591.9	
313.15	.134	1593.4	
313.15	.243	1590.6	
313.15	.289	1587.9	
313.15	.3456	1585	
313.15	.4217	1580.8	
313.15	.5485	1575.2	
313.15	.6029	1573.3	
313.15	.7232	1569.9	
313.15	.8005	1568.4	
313.15	.8575	1567.3	
313.15	.9315	1566.3	
323.15	.0165	1561.9	
323.15	.0379	1571.9	
323.15	.0863	1577.9	
323.15	.101	1577.7	
323.15	.134	1576.8	
323.15	.243	1569.9	
323.15	.289	1566.7	
323.15	.3456	1562.9	
323.15	.4217	1558.9	
323.15	.5485	1553.2	
323.15	.6029	1551.3	
323.15	.7232	1548	
323.15	.8005	1546.4	
323.15	.8575	1545.2	
323.15	.9315	1544.1	
293.15	1	1611.5	
303.15	1	1588.1	
313.15	1	1565.6	
323.15	1	1543.5	
293.15	0	1482.7	
303.15	0	1509.4	
313.15	0	1529.2	
323.15	0	1542.9	

System: water + 1-butylpyridinium tetrafluoroborate; phases: Liquid
Fixed: Pressure, kPa = 99
Property: Refractive index (Na D-line) (Liquid); method: Standard Abbe refractometry
Temperature, K	Mole fraction of 1-butylpyridinium tetrafluoroborate	Refractive index (Na D-line)	uncertainty
293.15	.0165	1.34819	
293.15	.0379	1.36348	
293.15	.0863	1.38639	
293.15	.101	1.39141	
293.15	.134	1.40063	
293.15	.243	1.41888	
293.15	.289	1.42371	
293.15	.3456	1.42826	
293.15	.4217	1.43287	
293.15	.5485	1.43815	
293.15	.6029	1.43987	
293.15	.7232	1.44283	
293.15	.8005	1.44431	
293.15	.8575	1.44526	
293.15	.9315	1.44633	
303.15	.0165	1.34644	
303.15	.0379	1.3612	
303.15	.0863	1.38392	
303.15	.101	1.38881	
303.15	.134	1.39805	
303.15	.243	1.41639	
303.15	.289	1.42115	
303.15	.3456	1.42571	
303.15	.4217	1.4303	
303.15	.5485	1.43558	
303.15	.6029	1.43726	
303.15	.7232	1.44021	
303.15	.8005	1.44168	
303.15	.8575	1.44261	
303.15	.9315	1.44368	
313.15	.0165	1.34468	
313.15	.0379	1.35896	
313.15	.0863	1.38128	
313.15	.101	1.38613	
313.15	.134	1.39527	
313.15	.243	1.41376	
313.15	.289	1.41853	
313.15	.3456	1.42304	
313.15	.4217	1.42763	
313.15	.5485	1.43295	
313.15	.6029	1.43463	
313.15	.7232	1.43755	
313.15	.8005	1.43905	
313.15	.8575	1.43999	
313.15	.9315	1.44105	
323.15	.0165	1.34263	
323.15	.0379	1.35635	
323.15	.0863	1.37835	
323.15	.101	1.38331	
323.15	.134	1.3926	
323.15	.243	1.41106	
323.15	.289	1.41585	
323.15	.3456	1.42041	
323.15	.4217	1.42496	
323.15	.5485	1.43025	
323.15	.6029	1.43194	
323.15	.7232	1.43489	
323.15	.8005	1.43637	
323.15	.8575	1.43731	
323.15	.9315	1.43838	
293.15	1	1.44719	
303.15	1	1.44454	
313.15	1	1.44191	
323.15	1	1.43923	
293.15	0	1.33297	
303.15	0	1.33196	
313.15	0	1.33061	
323.15	0	1.32904	

System: water + 1-butylpyridinium tetrafluoroborate; phases: Liquid, Air at 1 atmosphere
Property: Surface tension liquid-gas, N/m (Liquid); method: Drop volume
Temperature, K	Mole fraction of 1-butylpyridinium tetrafluoroborate	Surface tension liquid-gas, N/m	uncertainty
293.15	.0115	.0571	
293.15	.0185	.0543	
293.15	.0271	.0525	
293.15	.0372	.0513	
293.15	.0456	.0507	
293.15	.0942	.0492	
293.15	.1907	.0487	
293.15	.2846	.0483	
293.15	.34	.0483	
293.15	.3866	.048	
293.15	.486	.0477	
293.15	.5777	.0475	
293.15	.6943	.0473	
293.15	.7779	.047	
293.15	.835	.0468	
293.15	.925	.0468	
303.15	.0115	.0564	
303.15	.0185	.054	
303.15	.0271	.0521	
303.15	.0372	.051	
303.15	.0456	.0504	
303.15	.0942	.0491	
303.15	.1907	.0485	
303.15	.2846	.0481	
303.15	.34	.0479	
303.15	.3866	.0476	
303.15	.486	.0473	
303.15	.5777	.047	
303.15	.6943	.0467	
303.15	.7779	.0465	
303.15	.835	.0462	
303.15	.925	.0462	
313.15	.0115	.0555	
313.15	.0185	.053	
313.15	.0271	.0516	
313.15	.0372	.0503	
313.15	.0456	.0499	
313.15	.0942	.0485	
313.15	.1907	.0479	
313.15	.2846	.0477	
313.15	.34	.0476	
313.15	.3866	.0476	
313.15	.486	.047	
313.15	.5777	.0466	
313.15	.6943	.0462	
313.15	.7779	.0459	
313.15	.835	.0457	
313.15	.925	.0457	
323.15	.0115	.0545	
323.15	.0185	.052	
323.15	.0271	.0505	
323.15	.0372	.0495	
323.15	.0456	.0487	
323.15	.0942	.0477	
323.15	.1907	.0471	
323.15	.2846	.0469	
323.15	.34	.0466	
323.15	.3866	.0464	
323.15	.486	.0461	
323.15	.5777	.0458	
323.15	.6943	.0456	
323.15	.7779	.0453	
323.15	.835	.0451	
323.15	.925	.0451	
293.15	1	.0469	
303.15	1	.0463	
313.15	1	.0457	
323.15	1	.0451	
293.15	0	.0727	
303.15	0	.0711	
313.15	0	.0696	
323.15	0	.0678	

System: water + 1-butylpyridinium tetrafluoroborate; phases: Liquid
Fixed: Pressure, kPa = 99
Property: Viscosity, Pa*s (Liquid); method: Capillary tube (Ostwald; Ubbelohde) method
Temperature, K	Mole fraction of 1-butylpyridinium tetrafluoroborate	Viscosity, Pa*s	uncertainty
293.15	.047	.001379	
293.15	.095	.001806	
293.15	.2001	.003439	
293.15	.2912	.005459	
293.15	.4015	.0104	
293.15	.4807	.0152	
293.15	.5815	.02372	
293.15	.6641	.03453	
293.15	.7855	.06774	
293.15	.8875	.1211	
293.15	.9305	.1496	
293.15	.9705	.1896	
303.15	.047	.001082	
303.15	.095	.001333	
303.15	.2001	.002475	
303.15	.2912	.004217	
303.15	.4015	.007329	
303.15	.4807	.01067	
303.15	.5815	.01559	
303.15	.6641	.02231	
303.15	.7855	.04177	
303.15	.8875	.07276	
303.15	.9305	.09038	
303.15	.9705	.1065	
313.15	.047	.000845	
313.15	.095	.00116	
313.15	.2001	.001741	
313.15	.2912	.002929	
313.15	.4015	.005101	
313.15	.4807	.008106	
313.15	.5815	.01133	
313.15	.6641	.01502	
313.15	.7855	.02633	
313.15	.8875	.04404	
313.15	.9305	.05339	
313.15	.9705	.06374	
323.15	.047	.000708	
323.15	.095	.000867	
323.15	.2001	.001418	
323.15	.2912	.002295	
323.15	.4015	.003991	
323.15	.4807	.005631	
323.15	.5815	.007929	
323.15	.6641	.01077	
323.15	.7855	.01847	
323.15	.8875	.02732	
323.15	.9305	.03439	
323.15	.9705	.04041	
293.15	1	.2205	
303.15	1	.1195	
313.15	1	.0711	
323.15	1	.04556	
293.15	0	.001002	
303.15	0	.000797	
313.15	0	.000653	
323.15	0	.000547	
