Measured thermophysical data. Experimental and computational thermodynamic study of ortho-, meta-, and para-methylbenzamide
Source: J. Chem. Thermodyn., 2012, 10.1016/j.jct.2011.09.024
Compound 1: 2-methylbenzamide, C8H9NO, purity 99.6%
Compound 2: m-methylbenzamide, C8H9NO, purity 99.5%
Compound 3: benzamide, 4-methyl-, C8H9NO, purity 99.2%
Compound 4: carbon dioxide, CO2
Compound 5: nitrogen, diatomic, N2
Compound 6: water, H2O
Compound 7: oxygen, O2
Compound 8: hydrogen, H2
Compound 9: carbon, graphite, C

System: 2-methylbenzamide; phases: Crystal, Liquid, Air at 1 atmosphere
Property: Triple point temperature, K (Crystal); method: DSC/DTA
Triple point temperature, K	uncertainty
415.1	.1

System: 2-methylbenzamide; phases: Crystal, Liquid, Air at 1 atmosphere
Property: Molar enthalpy of transition or fusion, kJ/mol (Crystal); method: DSC/DTA
Molar enthalpy of transition or fusion, kJ/mol	uncertainty
22.9	.2

System: 2-methylbenzamide; phases: Crystal, Gas
Property: Vapor or sublimation pressure, kPa (Crystal); method: Knudsen effusion method
Temperature, K	Vapor or sublimation pressure, kPa	uncertainty
325.11	.00008	
327.19	.000104	
329.19	.000131	
331.1	.000162	
333.17	.00021	
335.18	.000259	
337.11	.000324	
339.18	.000411	
341.18	.000509	
343.11	.000631	
347.18	.000959	
325.11	.000081	
327.19	.000103	
329.19	.000129	
331.1	.000164	
333.17	.000206	
335.18	.000254	
337.11	.000322	
339.18	.000406	
341.18	.000498	
343.11	.000631	
345.18	.000779	
347.18	.00095	
325.11	.00008	
327.19	.000102	
329.19	.000128	
331.1	.000162	
333.17	.000201	
337.11	.000321	
339.18	.000396	
341.18	.000485	
343.11	.000616	
345.18	.000752	
347.18	.000926	

System: 2-methylbenzamide; phases: Crystal, Gas
Property: Molar enthalpy of vaporization or sublimation, kJ/mol (Crystal); method: Derived by Second law
Temperature, K	Molar enthalpy of vaporization or sublimation, kJ/mol	uncertainty
298.15	106.1	.3

System: m-methylbenzamide; phases: Crystal, Liquid, Air at 1 atmosphere
Property: Normal melting temperature, K (Crystal); method: DSC/DTA
Normal melting temperature, K	uncertainty
366.7	.1

System: m-methylbenzamide; phases: Crystal, Liquid, Air at 1 atmosphere
Property: Molar enthalpy of transition or fusion, kJ/mol (Crystal); method: DSC/DTA
Molar enthalpy of transition or fusion, kJ/mol	uncertainty
21.6	.1

System: m-methylbenzamide; phases: Crystal, Gas
Property: Vapor or sublimation pressure, kPa (Crystal); method: Knudsen effusion method
Temperature, K	Vapor or sublimation pressure, kPa	uncertainty
325.1	.000094	
327.18	.000121	
329.19	.000152	
331.11	.00019	
333.19	.000242	
337.1	.000378	
339.18	.000478	
343.09	.000754	
345.18	.000937	
347.18	.001173	
325.1	.000094	
327.18	.000121	
329.19	.000151	
331.11	.000189	
333.19	.000239	
335.19	.000296	
337.1	.000378	
339.18	.000476	
341.19	.000586	
345.18	.000917	
347.18	.001147	
325.1	.000094	
327.18	.000118	
329.19	.000148	
331.11	.000188	
333.19	.000237	
335.19	.000297	
337.1	.000377	
339.18	.000467	
341.19	.000585	
343.09	.000742	
345.18	.000918	
347.18	.001146	

System: m-methylbenzamide; phases: Crystal, Gas
Property: Molar enthalpy of vaporization or sublimation, kJ/mol (Crystal); method: Derived by Second law
Temperature, K	Molar enthalpy of vaporization or sublimation, kJ/mol	uncertainty
298.15	107.8	.3

System: benzamide, 4-methyl-; phases: Crystal, Liquid, Air at 1 atmosphere
Property: Normal melting temperature, K (Crystal); method: DSC/DTA
Normal melting temperature, K	uncertainty
433.2	.2

System: benzamide, 4-methyl-; phases: Crystal, Liquid, Air at 1 atmosphere
Property: Molar enthalpy of transition or fusion, kJ/mol (Crystal); method: DSC/DTA
Molar enthalpy of transition or fusion, kJ/mol	uncertainty
24.3	.2

System: benzamide, 4-methyl-; phases: Crystal, Gas
Property: Vapor or sublimation pressure, kPa (Crystal); method: Knudsen effusion method
Temperature, K	Vapor or sublimation pressure, kPa	uncertainty
339.1	.000116	
341.18	.000145	
343.18	.00018	
345.1	.000226	
349.18	.000352	
351.1	.000433	
353.17	.000536	
355.18	.000651	
357.09	.000804	
359.14	.000993	
361.18	.001202	
339.1	.000113	
341.18	.000145	
343.18	.00018	
345.1	.000223	
349.18	.000349	
351.1	.000432	
353.17	.000532	
355.18	.000652	
357.09	.000806	
359.14	.000999	
361.18	.001175	
339.1	.000115	
341.18	.000142	
343.18	.000177	
347.18	.000279	
349.18	.000346	
351.1	.000422	
353.17	.000517	
355.18	.000633	
357.09	.000789	
359.14	.000965	
361.18	.001171	

System: benzamide, 4-methyl-; phases: Crystal, Gas
Property: Molar enthalpy of vaporization or sublimation, kJ/mol (Crystal); method: Derived by Second law
Temperature, K	Molar enthalpy of vaporization or sublimation, kJ/mol	uncertainty
298.15	109.6	.3

Reaction: -1 2-methylbenzamide + 8 carbon dioxide + 0.5 nitrogen, diatomic + 4.5 water + -9.75 oxygen
Property: Specific internal energy of reaction at constant volume, J/g
-31050.9

Reaction: -1 m-methylbenzamide + 8 carbon dioxide + 0.5 nitrogen, diatomic + 4.5 water + -9.75 oxygen
Property: Specific internal energy of reaction at constant volume, J/g
-31006.6

Reaction: -1 benzamide, 4-methyl- + 8 carbon dioxide + 0.5 nitrogen, diatomic + 4.5 water + -9.75 oxygen
Property: Specific internal energy of reaction at constant volume, J/g
-30977.4

Reaction: 1 2-methylbenzamide + -4.5 hydrogen + -0.5 nitrogen, diatomic + -8 carbon, graphite + -0.5 oxygen
Property: Molar internal energy of reaction at constant volume, kJ/mol
-234.3

Reaction: 1 2-methylbenzamide + -4.5 hydrogen + -0.5 nitrogen, diatomic + -8 carbon, graphite + -0.5 oxygen
Property: Molar internal energy of reaction at constant volume, kJ/mol
-128.2

Reaction: 1 m-methylbenzamide + -4.5 hydrogen + -0.5 nitrogen, diatomic + -8 carbon, graphite + -0.5 oxygen
Property: Molar internal energy of reaction at constant volume, kJ/mol
-240.2

Reaction: 1 m-methylbenzamide + -4.5 hydrogen + -0.5 nitrogen, diatomic + -8 carbon, graphite + -0.5 oxygen
Property: Molar internal energy of reaction at constant volume, kJ/mol
-132.4

Reaction: 1 benzamide, 4-methyl- + -4.5 hydrogen + -0.5 nitrogen, diatomic + -8 carbon, graphite + -0.5 oxygen
Property: Molar internal energy of reaction at constant volume, kJ/mol
-244.2

Reaction: 1 benzamide, 4-methyl- + -4.5 hydrogen + -0.5 nitrogen, diatomic + -8 carbon, graphite + -0.5 oxygen
Property: Molar internal energy of reaction at constant volume, kJ/mol
-134.6
