Measured thermophysical data. In?uence of the pressure, temperature, cation and anion on the volumetric  properties of ionic liquids: New experimental values for two salts
Source: J. Chem. Thermodyn., 2013, 10.1016/j.jct.2012.10.004
Compound 1: 1-butyl-1-methylpyrrolidinium bis[(trifluoromethyl)sulfonyl]amide, C11H20F6N2O4S2
Compound 2: 1-(2-methoxyethyl)-1-methylpyrrolidinium trifluorotris(perfluoroethyl)phosphate(V), C14H18F18NOP

System: 1-butyl-1-methylpyrrolidinium bis[(trifluoromethyl)sulfonyl]amide; phases: Liquid
Property: Mass density, kg/m3 (Liquid); method: Vibrating tube method
Temperature, K	Pressure, kPa	Mass density, kg/m3	uncertainty
278.15	100	1415.1	.7
278.15	1000	1415.7	.7
278.15	10000	1421.5	.7
278.15	20000	1428	.7
278.15	40000	1439.8	.7
278.15	60000	1450.6	.7
278.15	80000	1460.8	.7
278.15	100000	1470.2	.7
278.15	120000	1479.1	.7
298.15	100	1395.2	.7
298.15	1000	1395.8	.7
298.15	10000	1401.8	.7
298.15	20000	1408.4	.7
298.15	40000	1420.7	.7
298.15	60000	1432.2	.7
298.15	80000	1442.8	.7
298.15	100000	1452.9	.7
298.15	120000	1462.9	.7
313.15	100	1381.6	.7
313.15	1000	1382.3	.7
313.15	10000	1388.8	.7
313.15	20000	1395.8	.7
313.15	40000	1408.7	.7
313.15	60000	1420.7	.7
313.15	80000	1431.6	.7
313.15	100000	1441.8	.7
313.15	120000	1451.8	.7
333.15	100	1364	.7
333.15	1000	1364.7	.7
333.15	10000	1371.6	.7
333.15	20000	1379	.7
333.15	40000	1392.6	.7
333.15	60000	1405.2	.7
333.15	80000	1416.6	.7
333.15	100000	1427.4	.7
333.15	120000	1437.6	.7
348.15	100	1351.1	.7
348.15	1000	1351.8	.7
348.15	10000	1359.1	.7
348.15	20000	1366.9	.7
348.15	40000	1381.1	.7
348.15	60000	1394	.7
348.15	80000	1405.9	.7
348.15	100000	1416.9	.7
348.15	120000	1427.5	.7
373.15	100	1330.5	5
373.15	1000	1330.8	5
373.15	10000	1338.6	5
373.15	20000	1347	5
373.15	40000	1362.2	5
373.15	60000	1375.9	5
373.15	80000	1388.3	5
373.15	100000	1399.9	5
373.15	120000	1410.9	5
398.15	100	1307.8	5
398.15	1000	1308.7	5
398.15	10000	1316.4	5
398.15	20000	1325.3	5
398.15	40000	1341.7	5
398.15	60000	1356.3	5
398.15	80000	1369.7	5
398.15	100000	1382	5
398.15	120000	1393.5	5

System: 1-(2-methoxyethyl)-1-methylpyrrolidinium trifluorotris(perfluoroethyl)phosphate(V); phases: Liquid
Property: Mass density, kg/m3 (Liquid); method: Vibrating tube method
Temperature, K	Pressure, kPa	Mass density, kg/m3	uncertainty
278.15	100	1654.6	.7
278.15	1000	1655.3	.7
278.15	10000	1662.3	.7
278.15	20000	1670	.7
278.15	40000	1684.4	.7
278.15	60000	1697.8	.7
278.15	80000	1710.1	.7
278.15	100000	1721.5	.7
278.15	120000	1731.8	.7
298.15	100	1630.8	.7
298.15	1000	1631.6	.7
298.15	10000	1639.6	.7
298.15	20000	1648	.7
298.15	40000	1663.3	.7
298.15	60000	1677.3	.7
298.15	80000	1690.4	.7
298.15	100000	1702.7	.7
298.15	120000	1714.2	.7
313.15	100	1614	.7
313.15	1000	1614.9	.7
313.15	10000	1623.3	.7
313.15	20000	1632.1	.7
313.15	40000	1648.1	.7
313.15	60000	1662.8	.7
313.15	80000	1676.4	.7
313.15	100000	1689.1	.7
313.15	120000	1700.9	.7
333.15	100	1592.1	.7
333.15	1000	1593.1	.7
333.15	10000	1602	.7
333.15	20000	1611.3	.7
333.15	40000	1628.3	.7
333.15	60000	1643.9	.7
333.15	80000	1658.2	.7
333.15	100000	1671.4	.7
333.15	120000	1683.5	.7
348.15	100	1575.8	.7
348.15	1000	1576.7	.7
348.15	10000	1586.2	.7
348.15	20000	1596	.7
348.15	40000	1613.9	.7
348.15	60000	1630.1	.7
348.15	80000	1644.9	.7
348.15	100000	1658.5	.7
348.15	120000	1671	.7
373.15	100	1549.2	5
373.15	1000	1549.9	5
373.15	10000	1560.2	5
373.15	20000	1570.8	5
373.15	40000	1590.2	5
373.15	60000	1607.3	5
373.15	80000	1622.9	5
373.15	100000	1637.3	5
373.15	120000	1650.6	5
398.15	100	1522.5	5
398.15	1000	1522.8	5
398.15	10000	1534	5
398.15	20000	1545.4	5
398.15	40000	1566.3	5
398.15	60000	1584.5	5
398.15	80000	1601	5
398.15	100000	1616.2	5
398.15	120000	1630.2	5
