Measured thermophysical data. Thermophysical properties of 1-methyl-3-methylimidazolium dimethylphosphate and 1-ethyl-3-methylimidazolium diethylphosphate
Source: J. Chem. Thermodyn., 2011, 10.1016/j.jct.2010.08.002
Compound 1: 1,3-dimethylimidazolium dimethylphosphate, C7H15N2O4P, purity 99%
Compound 2: 1-ethyl-3-methylimidazolium diethylphosphate, C10H21N2O4P, purity 99%

System: 1,3-dimethylimidazolium dimethylphosphate; phases: Liquid, Air at 1 atmosphere
Property: Mass density, kg/m3 (Liquid); method: densimeter (MYX-1)
Temperature, K	Mass density, kg/m3	uncertainty
293.15	1244	
298.15	1242	
303.15	1238.7	
308.15	1234.9	
313.15	1229.7	
318.15	1226.8	
323.15	1223.9	
328.15	1218.5	
333.15	1214.8	
338.15	1210.4	

System: 1,3-dimethylimidazolium dimethylphosphate; phases: Liquid, Air at 1 atmosphere
Property: Surface tension liquid-gas, N/m (Liquid); method: plate tensiometer
Temperature, K	Surface tension liquid-gas, N/m	uncertainty
293.15	.04742	
298.15	.04709	
303.15	.04711	
308.15	.04628	
313.15	.04511	
318.15	.04444	
323.15	.04301	
328.15	.04258	
333.15	.04188	
338.15	.04133	

System: 1-ethyl-3-methylimidazolium diethylphosphate; phases: Liquid, Air at 1 atmosphere
Property: Mass density, kg/m3 (Liquid); method: densimeter (MYX-1)
Temperature, K	Mass density, kg/m3	uncertainty
293.15	1141.3	
298.15	1140	
303.15	1132.1	
308.15	1129.7	
313.15	1125.1	
318.15	1120.4	
323.15	1118	
328.15	1112.9	
333.15	1111.1	
338.15	1108	

System: 1-ethyl-3-methylimidazolium diethylphosphate; phases: Liquid, Air at 1 atmosphere
Property: Surface tension liquid-gas, N/m (Liquid); method: plate tensiometer
Temperature, K	Surface tension liquid-gas, N/m	uncertainty
293.15	.0361	
298.15	.03588	
303.15	.03543	
308.15	.0353	
313.15	.03507	
318.15	.03461	
323.15	.03455	
328.15	.03421	
333.15	.03388	
338.15	.03375	
