Measured thermophysical data. Low temperature heat capacity of bulk and nanophase ZnO and Zn1-xCoxO wurtzite phases
Source: J. Chem. Thermodyn., 2013, 10.1016/j.jct.2013.01.004
Compound 1: zinc oxide, OZn, purity 99.99%
Compound 2: cobalt oxide, CoO

System: zinc oxide; phases: Crystal
Fixed: Pressure, kPa = 101.325
Property: Molar heat capacity at constant pressure, J/K/mol (Crystal); method: Thin-film microcalorimeter
Temperature, K	Molar heat capacity at constant pressure, J/K/mol	uncertainty
1.906	.0004	2
2.105	.0005	2
2.329	.0007	2
2.579	.0009	2
2.856	.0013	2
3.169	.0018	2
3.509	.0024	2
3.893	.0033	2
4.319	.0045	2
4.794	.0062	2
5.322	.0085	2
5.907	.0115	2
6.557	.0158	2
7.279	.0217	2
8.084	.0296	2
8.978	.0409	2
9.969	.0573	2
11.07	.0803	1
12.297	.1145	1
13.639	.1629	1
15.183	.237	1
16.824	.3415	1
18.657	.5019	1
20.675	.718	1
22.985	1.028	1
25.547	1.448	1
28.387	1.989	1
31.544	2.658	1
35.048	3.48	1
38.927	4.451	1
43.223	5.533	1
48.007	6.726	1
53.316	8.042	1
59.211	9.463	1
65.754	10.92	1
73.029	12.44	1
81.094	14.11	1
90.064	15.91	1
99.874	17.65	1
110.456	19.47	1
120.488	21.17	1
130.477	22.84	1
140.626	24.44	1
150.786	25.91	1
160.848	27.33	1
170.761	28.78	1
181.029	30.05	1
191.317	31.22	1
201.419	32.29	1
211.585	33.41	1
221.804	34.44	1
232	35.5	1
242.169	36.29	1
252.147	37.15	1
262.282	37.93	1
272.28	38.59	1
282.475	39.3	1
292.542	39.86	1
302.585	40.86	1

System: zinc oxide; phases: Crystal
Fixed: Pressure, kPa = 101.325
Property: Molar heat capacity at constant pressure, J/K/mol (Crystal); method: Thin-film microcalorimeter
Temperature, K	Molar heat capacity at constant pressure, J/K/mol	uncertainty
1	.00006	2
2	.0004	2
3	.0015	2
4	.0036	2
5	.007	2
6	.0121	2
7	.0193	2
8	.0288	2
9	.0414	2
10	.0577	1
11	.0785	1
12	.1048	1
13	.1378	1
14	.1786	1
15	.2282	1
16	.2876	1
17	.3576	1
18	.439	1
19	.5323	1
20	.6378	1
25	1.349	1
30	2.327	1
35	3.48	1
40	4.713	1
45	5.965	1
50	7.218	1
55	8.463	1
60	9.606	1
65	10.71	1
70	11.8	1
75	12.85	1
80	13.87	1
85	14.86	1
90	15.83	1
95	16.77	1
100	17.69	1
110	19.46	1
120	21.16	1
130	22.78	1
140	24.34	1
150	25.82	1
160	27.24	1
170	28.58	1
180	29.85	1
190	31.05	1
200	32.19	1
210	33.26	1
220	34.27	1
230	35.22	1
240	36.12	1
250	36.96	1
260	37.76	1
270	38.5	1
273.15	38.73	1
280	39.2	1
290	39.86	1
298.15	40.36	1
300	40.48	1

System: zinc oxide; phases: Crystal
Fixed: Pressure, kPa = 101.325
Property: Molar enthalpy, kJ/mol (Crystal); method: Other
Temperature, K	Molar enthalpy, kJ/mol	uncertainty
1	.00000001	.002
2	.0000002	.002
3	.0000011	.002
4	.0000036	.002
5	.0000087	.002
6	.0000181	.002
7	.0000336	.002
8	.0000574	.002
9	.0000922	.002
10	.0001414	.001
11	.0002091	.001
12	.0003003	.001
13	.000421	.001
14	.0005786	.001
15	.0007811	.001
16	.001038	.001
17	.00136	.001
18	.001757	.001
19	.002242	.001
20	.002826	.001
25	.007667	.001
30	.01676	.001
35	.03123	.001
40	.0517	.001
45	.07839	.001
50	.1114	.001
55	.1506	.001
60	.1959	.001
65	.2467	.001
70	.303	.001
75	.3646	.001
80	.4314	.001
85	.5033	.001
90	.58	.001
95	.6615	.001
100	.7477	.001
110	.9335	.001
120	1.137	.001
130	1.356	.001
140	1.592	.001
150	1.843	.001
160	2.108	.001
170	2.387	.001
180	2.68	.001
190	2.984	.001
200	3.3	.001
210	3.628	.001
220	3.965	.001
230	4.313	.001
240	4.67	.001
250	5.035	.001
260	5.409	.001
270	5.79	.001
273.15	5.912	.001
280	6.179	.001
290	6.574	.001
298.15	6.901	.001
300	6.976	.001

System: zinc oxide; phases: Crystal
Fixed: Pressure, kPa = 101.325
Property: Molar entropy, J/K/mol (Crystal); method: Other
Temperature, K	Molar entropy, J/K/mol	uncertainty
1	.00002	2
2	.0001	2
3	.0005	2
4	.0012	2
5	.0023	2
6	.004	2
7	.0064	2
8	.0096	2
9	.0136	2
10	.0188	1
11	.0252	1
12	.0332	1
13	.0428	1
14	.0545	1
15	.0684	1
16	.085	1
17	.1045	1
18	.1272	1
19	.1533	1
20	.1833	1
25	.3964	1
30	.7254	1
35	1.169	1
40	1.714	1
45	2.341	1
50	3.035	1
55	3.781	1
60	4.569	1
65	5.382	1
70	6.216	1
75	7.065	1
80	7.928	1
85	8.798	1
90	9.675	1
95	10.56	1
100	11.44	1
110	13.21	1
120	14.98	1
130	16.73	1
140	18.48	1
150	20.21	1
160	21.92	1
170	23.61	1
180	25.28	1
190	26.93	1
200	28.55	1
210	30.15	1
220	31.72	1
230	33.26	1
240	34.78	1
250	36.27	1
260	37.74	1
270	39.18	1
273.15	39.63	1
280	40.59	1
290	41.98	1
298.15	43.09	1
300	43.34	1

System: cobalt oxide + zinc oxide; phases: Crystal
Fixed: Pressure, kPa = 101
Fixed: Mole fraction of cobalt oxide = .176
Property: Molar heat capacity at constant pressure, J/K/mol (Crystal); method: Thin-film microcalorimeter
Temperature, K	Molar heat capacity at constant pressure, J/K/mol	uncertainty
1.899	.1327	2
1.915	.1335	2
2.039	.1379	2
2.093	.146	2
2.173	.151	2
2.311	.1596	2
2.398	.1626	2
2.552	.1724	2
2.583	.1775	2
2.765	.1887	2
2.808	.1854	2
2.998	.1938	2
3.109	.199	2
3.178	.2025	2
3.371	.2081	2
3.445	.2124	2
3.559	.2149	2
3.748	.2215	2
3.82	.2213	2
3.934	.2271	2
4.139	.2295	2
4.246	.2329	2
4.327	.2335	2
4.518	.2387	2
4.708	.2419	2
4.738	.2422	2
4.902	.2467	2
5.11	.2496	2
5.242	.2535	2
5.296	.2521	2
5.485	.2567	2
5.679	.2605	2
5.824	.2617	2
5.875	.262	2
6.067	.2664	2
6.257	.271	2
6.455	.2736	2
6.465	.2752	2
6.657	.2771	2
6.848	.2825	2
7.044	.2875	2
7.19	.2908	2
7.239	.2911	2
7.435	.2947	2
7.632	.2989	2
7.83	.3054	2
7.992	.3076	2
8.028	.3092	2
8.217	.3154	2
8.422	.3229	2
8.619	.3258	2
8.813	.3327	2
8.887	.334	2
9.018	.3391	2
9.216	.3453	2
9.402	.3522	2
9.611	.3587	2
9.808	.3646	2
9.878	.3692	2
10.344	.3842	1
10.764	.3995	1
10.979	.4151	1
11.265	.4243	1
11.653	.4414	1
12.143	.4697	1
12.196	.4727	1
12.719	.4977	1
13.106	.5229	1
13.584	.547	1
13.638	.5418	1
14.235	.5853	1
14.738	.6192	1
15.041	.6442	1
15.235	.6554	1
15.742	.6929	1
16.245	.7322	1
16.726	.7791	1
16.746	.7749	1
17.121	.7991	1
17.737	.8669	1
18.089	.9014	1
18.539	.9507	1
18.551	.9673	1
18.918	.9729	1
19.239	1.041	1
19.746	1.105	1
20.246	1.17	1
20.544	1.204	1
21.019	1.264	1
21.488	1.33	1
21.966	1.393	1
22.42	1.47	1
22.791	1.516	1
22.858	1.538	1
23.23	1.6	1
23.981	1.719	1
24.436	1.79	1
24.925	1.887	1
25.348	1.931	1
25.423	1.983	1
25.7	2.036	1
26.206	2.136	1
26.685	2.228	1
27.205	2.329	1
28.193	2.515	1
28.263	2.543	1
28.695	2.635	1
29.322	2.77	1
31.428	3.23	1
34.951	4.073	1
38.844	5.052	1
43.16	6.135	1
47.971	7.322	1
53.302	8.641	1
59.223	10.06	1
65.799	11.48	1
73.092	12.97	1
81.196	14.63	1
90.175	16.42	1
100.146	18.12	1
110.376	19.86	1
120.328	21.52	1
130.475	23.19	1
140.551	24.77	1
150.56	26.2	1
160.733	27.68	1
170.817	29.07	1
180.89	30.34	1
191.132	31.51	1
201.281	32.74	1
211.496	33.79	1
221.755	34.91	1
231.966	35.76	1
242.08	36.65	1
252.113	37.55	1
262.186	38.31	1
272.366	38.93	1
282.462	39.64	1
292.479	40.28	1
302.579	41.21	1

System: cobalt oxide + zinc oxide; phases: Crystal
Fixed: Pressure, kPa = 101
Fixed: Mole fraction of cobalt oxide = .176
Property: Molar heat capacity at constant pressure, J/K/mol (Crystal); method: Thin-film microcalorimeter
Temperature, K	Molar heat capacity at constant pressure, J/K/mol	uncertainty
1	.0702	2
2	.139	2
3	.1951	2
4	.2271	2
5	.2481	2
6	.2658	2
7	.2851	2
8	.3087	2
9	.338	2
10	.3731	1
11	.4141	1
12	.4606	1
13	.5129	1
14	.5714	1
15	.6371	1
16	.7116	1
17	.7967	1
18	.8925	1
19	1.003	1
20	1.126	1
25	1.906	1
30	2.906	1
35	4.058	1
40	5.299	1
45	6.58	1
50	7.855	1
55	9.092	1
60	10.21	1
65	11.33	1
70	12.4	1
75	13.42	1
80	14.41	1
85	15.36	1
90	16.29	1
95	17.19	1
100	18.08	1
110	19.81	1
120	21.49	1
130	23.11	1
140	24.67	1
150	26.17	1
160	27.59	1
170	28.94	1
180	30.22	1
190	31.43	1
200	32.56	1
210	33.63	1
220	34.64	1
230	35.59	1
240	36.48	1
250	37.32	1
260	38.11	1
270	38.86	1
273.15	39.09	1
280	39.57	1
290	40.23	1
298.15	40.75	1
300	40.87	1
