Measured thermophysical data. Phase equilibrium and activity coefficients in ternary systems at 298.15 K: RbCl/CsCl + ethylene carbonate + water
Source: J. Chem. Thermodyn., 2016, 10.1016/j.jct.2016.03.027
Compound 1: rubidium chloride, ClRb, purity 99.5%
Compound 2: cesium chloride, ClCs, purity 99.5%
Compound 3: ethylene carbonate, C3H4O3, purity 99.0%
Compound 4: water, H2O

System: water; phases: Liquid
Property: Mass density, kg/m3 (Liquid); method: Vibrating tube method
Temperature, K	Pressure, kPa	Mass density, kg/m3	uncertainty
298.15	100	997.03	

System: ethylene carbonate + water + rubidium chloride; phases: Liquid, Crystal
Fixed: Temperature, K = 298.15
Fixed: Pressure, kPa = 100
Property: Mass fraction of rubidium chloride (Liquid); method: Titration method
Mass fraction of ethylene carbonate	Mass fraction of rubidium chloride	uncertainty
0	.4869	
.0374	.4711	
.0668	.4577	
.1015	.4409	
.1354	.4247	
.1637	.4114	
.1877	.3984	
.2083	.387	
.2373	.3724	
.2412	.3715	
.2668	.3596	
.29	.34	
.9009	.0127	

System: ethylene carbonate + water + rubidium chloride; phases: Liquid mixture 1, Liquid mixture 2
Fixed: Temperature, K = 298.15
Fixed: Pressure, kPa = 100
Property: Mass fraction of rubidium chloride (Liquid mixture 1); method: Titration method
Mass fraction of ethylene carbonate	Mass fraction of rubidium chloride	uncertainty
.2888	.3338	
.2979	.3186	
.2986	.3197	
.3075	.306	
.3304	.2736	
.3559	.2429	
.3824	.2195	
.4084	.1977	
.437	.177	
.4566	.1642	
.4802	.1527	
.5191	.1341	
.5577	.1201	
.6009	.104	
.6783	.0795	
.6981	.073	
.7252	.0653	
.7694	.0526	
.7841	.0498	
.86	.024	

System: ethylene carbonate + water + rubidium chloride; phases: Liquid
Fixed: Pressure, kPa = 100
Fixed: Temperature, K = 298.15
Property: Activity coefficient of rubidium chloride (Liquid); method: Other
Solvent: Mass fraction of ethylene carbonate	Molality, mol/kg of rubidium chloride	Activity coefficient of rubidium chloride	uncertainty
0	.0516	.8086	
0	.0969	.763	
0	.1971	.707	
0	.2999	.6728	
0	.399	.6497	
0	.5895	.6191	
0	.7938	.5971	
0	.9966	.5814	
0	1.4877	.5575	
0	1.9904	.5442	
0	2.9819	.5344	
.1	.0465	.8261	
.1	.1003	.7762	
.1	.2026	.7243	
.1	.3002	.6921	
.1	.3977	.6673	
.1	.5992	.6276	
.1	.7939	.5976	
.1	1.0025	.5709	
.1	1.5036	.5216	
.1	2.0037	.4859	
.1	3.0004	.4408	
.2	.05	.8143	
.2	.1498	.7289	
.2	.197	.7034	
.2	.3016	.6597	
.2	.3975	.628	
.2	.5978	.5756	
.2	.8002	.5337	
.2	1.003	.4989	
.2	1.4969	.4339	
.2	2.0007	.3868	
.2	3.0058	.329	
.3	.0478	.7995	
.3	.1047	.7268	
.3	.2023	.6499	
.3	.2978	.5968	
.3	.4012	.5515	
.3	.5961	.4857	
.3	.8002	.4332	
.3	.9996	.3925	
.3	1.504	.3188	
.3	1.999	.2723	
.3	3.0002	.2222	
.4	.0513	.778	
.4	.0994	.7079	
.4	.2004	.6155	
.4	.2996	.5537	
.4	.3977	.5065	
.4	.6056	.4318	
.4	.7977	.381	
.4	1.0019	.3386	
.4	1.4989	.2661	
.4	1.9973	.2192	
.4	2.9998	.1655	

System: ethylene carbonate + water + rubidium chloride; phases: Liquid mixture 1, Liquid mixture 2
Fixed: Temperature, K = 298.15
Fixed: Pressure, kPa = 100
Property: Mass fraction of rubidium chloride (Liquid mixture 1); method: Titration method
Property: Mass fraction of ethylene carbonate (Liquid mixture 2); method: Titration method
Property: Mass fraction of rubidium chloride (Liquid mixture 2); method: Titration method
Mass fraction of ethylene carbonate	Mass fraction of rubidium chloride	uncertainty	Mass fraction of ethylene carbonate	uncertainty	Mass fraction of rubidium chloride	uncertainty
.9009	.0127	.0056	.29	.0056	.34	.0056
.8852	.0221	.0056	.3148	.0056	.3143	.0056
.8619	.0244	.0056	.34	.0056	.265	.0056
.8346	.0331	.0056	.3791	.0056	.2263	.0056
.7995	.045	.0056	.4261	.0056	.1861	.0056

System: ethylene carbonate + cesium chloride + water; phases: Liquid, Crystal
Fixed: Temperature, K = 298.15
Fixed: Pressure, kPa = 100
Property: Mass fraction of cesium chloride (Liquid); method: Titration method
Mass fraction of ethylene carbonate	Mass fraction of cesium chloride	uncertainty
0	.6568	
.0355	.6321	
.0544	.6205	
.0758	.6067	
.1101	.5855	
.1286	.5712	
.1481	.5591	
.1719	.5444	
.1954	.5268	
.2166	.5099	
.2343	.4994	
.2568	.4809	
.9081	.0055	

System: ethylene carbonate + cesium chloride + water; phases: Liquid mixture 1, Liquid mixture 2
Fixed: Temperature, K = 298.15
Fixed: Pressure, kPa = 100
Property: Mass fraction of cesium chloride (Liquid mixture 1); method: Titration method
Mass fraction of ethylene carbonate	Mass fraction of cesium chloride	uncertainty
.2638	.4664	
.2786	.4437	
.2938	.422	
.3047	.3966	
.3206	.3739	
.3383	.3519	
.3562	.3302	
.3788	.3075	
.4053	.2833	
.4335	.2607	
.4641	.238	
.4653	.238	
.4871	.2245	
.512	.2099	
.5365	.1966	
.5658	.1815	
.6009	.1648	
.6256	.1492	
.6451	.1406	
.6731	.1202	
.7079	.105	
.735	.0896	
.787	.0549	
.8043	.0503	

System: ethylene carbonate + cesium chloride + water; phases: Liquid
Fixed: Pressure, kPa = 100
Fixed: Temperature, K = 298.15
Property: Activity coefficient of cesium chloride (Liquid); method: Other
Solvent: Mass fraction of ethylene carbonate	Molality, mol/kg of cesium chloride	Activity coefficient of cesium chloride	uncertainty
0	.0991	.7509	
0	.1984	.6901	
0	.3028	.6511	
0	.3994	.6254	
0	.5961	.5887	
0	.7973	.563	
0	.9868	.5451	
0	1.5061	.5129	
0	2.0015	.4948	
0	3.0267	.4763	
.1	.0578	.8036	
.1	.0983	.7658	
.1	.2001	.7115	
.1	.303	.6791	
.1	.4174	.6543	
.1	.6015	.6269	
.1	.7886	.6076	
.1	.9895	.5925	
.1	1.504	.5682	
.1	2.511	.5478	
.1	2.992	.5442	
.2	.0523	.8043	
.2	.1047	.7512	
.2	.2991	.6606	
.2	.6048	.5979	
.2	.7394	.5806	
.2	1.006	.5549	
.2	1.4978	.5243	
.2	1.9932	.505	
.2	2.5018	.4917	
.2	3.0026	.4827	
.3	.0577	.7962	
.3	.0974	.7551	
.3	.2926	.6559	
.3	.5997	.5845	
.3	.7715	.5589	
.3	.9965	.5329	
.3	1.5002	.4924	
.3	1.9977	.4659	
.3	2.5051	.4472	
.3	3.0038	.4343	
.4	.0505	.8085	
.4	.105	.7519	
.4	.2944	.6546	
.4	.5924	.5752	
.4	.7946	.5385	
.4	.9968	.509	
.4	1.4926	.4555	
.4	1.9941	.4184	
.4	2.4915	.3929	
.4	2.997	.3753	

System: ethylene carbonate + cesium chloride + water; phases: Liquid mixture 1, Liquid mixture 2
Fixed: Temperature, K = 298.15
Fixed: Pressure, kPa = 100
Property: Mass fraction of cesium chloride (Liquid mixture 1); method: Titration method
Property: Mass fraction of ethylene carbonate (Liquid mixture 2); method: Titration method
Property: Mass fraction of cesium chloride (Liquid mixture 2); method: Titration method
Mass fraction of ethylene carbonate	Mass fraction of cesium chloride	uncertainty	Mass fraction of ethylene carbonate	uncertainty	Mass fraction of cesium chloride	uncertainty
.9081	.0055	.0056	.2568	.0056	.4809	.0056
.8934	.016	.0056	.2977	.0056	.4275	.0056
.881	.018	.0056	.3121	.0056	.3933	.0056
.8562	.026	.0056	.37	.0056	.32	.0056

System: ethylene carbonate + water; phases: Liquid
Fixed: Temperature, K = 298.15
Fixed: Pressure, kPa = 100
Property: Mass density, kg/m3 (Liquid); method: Vibrating tube method
Mass fraction of ethylene carbonate	Mass density, kg/m3	uncertainty
0	997.03	
.1	1026.64	
.2	1056.71	
.3	1087.25	
.4	1118.6	

System: ethylene carbonate + water; phases: Liquid, Crystal
Fixed: Pressure, kPa = 100
Property: Mass fraction of ethylene carbonate (Liquid); method: Titration method
Temperature, K	Mass fraction of ethylene carbonate	uncertainty
298.15	.919	

System: water + rubidium chloride; phases: Liquid, Crystal
Property: Mass fraction of rubidium chloride (Liquid); method: Titration method
Temperature, K	Pressure, kPa	Mass fraction of rubidium chloride	uncertainty
298.15	100	.4869	

System: water + rubidium chloride; phases: Liquid
Property: Activity coefficient of rubidium chloride (Liquid); method: Other
Molality, mol/kg of rubidium chloride	Pressure, kPa	Temperature, K	Activity coefficient of rubidium chloride	uncertainty
.0516	100	298.15	.8086	
.0969	100	298.15	.763	
.1971	100	298.15	.707	
.2999	100	298.15	.6728	
.399	100	298.15	.6497	
.5895	100	298.15	.6191	
.7938	100	298.15	.5971	
.9966	100	298.15	.5814	
1.4877	100	298.15	.5575	
1.9904	100	298.15	.5442	
2.9819	100	298.15	.5344	

System: cesium chloride + water; phases: Liquid, Crystal
Property: Mass fraction of cesium chloride (Liquid); method: Titration method
Temperature, K	Pressure, kPa	Mass fraction of cesium chloride	uncertainty
298.15	100	.6568	

System: cesium chloride + water; phases: Liquid
Property: Activity coefficient of cesium chloride (Liquid); method: Other
Molality, mol/kg of cesium chloride	Pressure, kPa	Temperature, K	Activity coefficient of cesium chloride	uncertainty
.0991	100	298.15	.7509	
.1984	100	298.15	.6901	
.3028	100	298.15	.6511	
.3994	100	298.15	.6254	
.5961	100	298.15	.5887	
.7973	100	298.15	.563	
.9868	100	298.15	.5451	
1.5061	100	298.15	.5129	
2.0015	100	298.15	.4948	
3.0267	100	298.15	.4763	
