Measured thermophysical data. Studies on thermodynamic properties of binary mixtures of hexan-1-ol with  halogenated compounds at T = (308.15 and 313.15) K
Source: J. Chem. Thermodyn., 2009, 10.1016/j.jct.2009.05.001
Compound 1: 1,2-dichloroethane, C2H4Cl2, purity 99.7%
Compound 2: 1,2-dibromoethane, C2H4Br2, purity 99.5%
Compound 3: 1,1,2,2-tetrachloroethane, C2H2Cl4, purity 99.4%
Compound 4: 1-hexanol, C6H14O, purity 99.7%

System: 1,2-dichloroethane + 1-hexanol; phases: Liquid
Fixed: Pressure, kPa = 101
Property: Mass density, kg/m3 (Liquid); method: Vibrating tube method
Temperature, K	Mole fraction of 1,2-dichloroethane	Mass density, kg/m3	uncertainty
308.15	0	808.056	.001
308.15	.037	817.675	.001
308.15	.0769	828.456	.001
308.15	.1499	848.617	.001
308.15	.2147	867.202	.001
308.15	.2935	891.704	.001
308.15	.3952	926.131	.001
308.15	.4532	947.081	.001
308.15	.5596	988.685	.001
308.15	.6113	1010.545	.001
308.15	.6971	1049.833	.001
308.15	.7791	1091.945	.001
308.15	.8563	1135.204	.001
308.15	.9335	1184.459	.001
308.15	.979	1215.342	.001
308.15	1	1230.878	.001
313.15	0	804.397	.001
313.15	.037	813.926	.001
313.15	.0769	824.595	.001
313.15	.1499	844.565	.001
313.15	.2147	863.005	.001
313.15	.2935	887.346	.001
313.15	.3952	921.594	.001
313.15	.4532	942.428	.001
313.15	.5596	983.815	.001
313.15	.6113	1005.545	.001
313.15	.6971	1044.501	.001
313.15	.7791	1086.131	.001
313.15	.8563	1128.796	.001
313.15	.9335	1177.403	.001
313.15	.979	1207.974	.001
313.15	1	1223.406	.001

System: 1,2-dichloroethane + 1-hexanol; phases: Liquid
Fixed: Pressure, kPa = 101
Property: Speed of sound, m/s (Liquid); method: Sing-around technique in a fixed-path interferometer
Temperature, K	Mole fraction of 1,2-dichloroethane	Speed of sound, m/s	uncertainty
308.15	0	1270.16	.01
308.15	.037	1262.44	.01
308.15	.0769	1254.56	.01
308.15	.1499	1240.09	.01
308.15	.2147	1226.85	.01
308.15	.2935	1212.48	.01
308.15	.3952	1195.07	.01
308.15	.4532	1185.41	.01
308.15	.5596	1169.34	.01
308.15	.6113	1161.95	.01
308.15	.6971	1153.45	.01
308.15	.7791	1148.76	.01
308.15	.8563	1148.05	.01
308.15	.9335	1151.08	.01
308.15	.979	1152.85	.01
308.15	1	1155.3	.01
313.15	0	1253.6	.01
313.15	.037	1246.07	.01
313.15	.0769	1238.47	.01
313.15	.1499	1223.15	.01
313.15	.2147	1210.06	.01
313.15	.2935	1195.82	.01
313.15	.3952	1177.8	.01
313.15	.4532	1167.55	.01
313.15	.5596	1151.46	.01
313.15	.6113	1144.62	.01
313.15	.6971	1135.81	.01
313.15	.7791	1131.2	.01
313.15	.8563	1129.05	.01
313.15	.9335	1128.88	.01
313.15	.979	1132.88	.01
313.15	1	1136.18	.01

System: 1,2-dibromoethane + 1-hexanol; phases: Liquid
Fixed: Pressure, kPa = 101
Property: Mass density, kg/m3 (Liquid); method: Vibrating tube method
Temperature, K	Mole fraction of 1,2-dibromoethane	Mass density, kg/m3	uncertainty
308.15	0	808.056	.001
308.15	.0402	845.2	.001
308.15	.0682	871.58	.001
308.15	.1276	929.152	.001
308.15	.2056	1008.302	.001
308.15	.2686	1075.321	.001
308.15	.3892	1211.591	.001
308.15	.4277	1258.283	.001
308.15	.5444	1406.533	.001
308.15	.6405	1539.272	.001
308.15	.7326	1676.75	.001
308.15	.8519	1871.877	.001
308.15	.9273	2006.874	.001
308.15	.9587	2066.136	.001
308.15	.9782	2104.454	.001
308.15	1	2148.196	.001
313.15	0	804.397	.001
313.15	.0402	841.335	.001
313.15	.0682	867.573	.001
313.15	.1276	924.828	.001
313.15	.2056	1003.545	.001
313.15	.2686	1070.191	.001
313.15	.3892	1205.721	.001
313.15	.4277	1252.152	.001
313.15	.5444	1399.601	.001
313.15	.6405	1531.625	.001
313.15	.7326	1668.382	.001
313.15	.8519	1862.549	.001
313.15	.9273	1996.951	.001
313.15	.9587	2055.976	.001
313.15	.9782	2094.137	.001
313.15	1	2137.692	.001

System: 1,2-dibromoethane + 1-hexanol; phases: Liquid
Fixed: Pressure, kPa = 101
Property: Speed of sound, m/s (Liquid); method: Sing-around technique in a fixed-path interferometer
Temperature, K	Mole fraction of 1,2-dibromoethane	Speed of sound, m/s	uncertainty
308.15	0	1270.16	.01
308.15	.0402	1246.83	.01
308.15	.0682	1231.5	.01
308.15	.1276	1200.8	.01
308.15	.2056	1163.78	.01
308.15	.2686	1136.45	.01
308.15	.3892	1090.37	.01
308.15	.4277	1076.97	.01
308.15	.5444	1041.17	.01
308.15	.6405	1016.47	.01
308.15	.7326	996.88	.01
308.15	.8519	978.58	.01
308.15	.9273	971.93	.01
308.15	.9587	970.13	.01
308.15	.9782	969.05	.01
308.15	1	968.69	.01
313.15	0	1253.6	.01
313.15	.0402	1230.66	.01
313.15	.0682	1215.27	.01
313.15	.1276	1184.83	.01
313.15	.2056	1148.2	.01
313.15	.2686	1121.19	.01
313.15	.3892	1075.62	.01
313.15	.4277	1062.5	.01
313.15	.5444	1027.06	.01
313.15	.6405	1003.01	.01
313.15	.7326	983.86	.01
313.15	.8519	966.15	.01
313.15	.9273	959.29	.01
313.15	.9587	957.92	.01
313.15	.9782	956.68	.01
313.15	1	956.08	.01

System: 1,1,2,2-tetrachloroethane + 1-hexanol; phases: Liquid
Fixed: Pressure, kPa = 101
Property: Mass density, kg/m3 (Liquid); method: Vibrating tube method
Temperature, K	Mole fraction of 1,1,2,2-tetrachloroethane	Mass density, kg/m3	uncertainty
308.15	0	808.056	.001
308.15	.0688	853.014	.001
308.15	.123	889.246	.001
308.15	.2457	973.918	.001
308.15	.3618	1057.579	.001
308.15	.4502	1123.791	.001
308.15	.5583	1208.043	.001
308.15	.6518	1283.923	.001
308.15	.7068	1329.981	.001
308.15	.7419	1360.062	.001
308.15	.7797	1392.95	.001
308.15	.8315	1438.915	.001
308.15	.8718	1475.702	.001
308.15	.9179	1518.392	.001
308.15	.9504	1549.355	.001
308.15	1	1597.746	.001
313.15	0	804.397	.001
313.15	.0688	849.095	.001
313.15	.123	885.104	.001
313.15	.2457	969.244	.001
313.15	.3618	1052.371	.001
313.15	.4502	1118.175	.001
313.15	.5583	1201.905	.001
313.15	.6518	1277.313	.001
313.15	.7068	1323.074	.001
313.15	.7419	1352.961	.001
313.15	.7797	1385.631	.001
313.15	.8315	1431.298	.001
313.15	.8718	1467.853	.001
313.15	.9179	1510.307	.001
313.15	.9504	1541.125	.001
313.15	1	1589.361	.001

System: 1,1,2,2-tetrachloroethane + 1-hexanol; phases: Liquid
Fixed: Pressure, kPa = 101
Property: Speed of sound, m/s (Liquid); method: Sing-around technique in a fixed-path interferometer
Temperature, K	Mole fraction of 1,1,2,2-tetrachloroethane	Speed of sound, m/s	uncertainty
308.15	0	1270.16	.01
308.15	.0688	1241.8	.01
308.15	.123	1220.65	.01
308.15	.2457	1176.38	.01
308.15	.3618	1138.56	.01
308.15	.4502	1112.17	.01
308.15	.5583	1082.71	.01
308.15	.6518	1060.01	.01
308.15	.7068	1047.93	.01
308.15	.7419	1040.71	.01
308.15	.7797	1033.47	.01
308.15	.8315	1024.41	.01
308.15	.8718	1018.04	.01
308.15	.9179	1012.15	.01
308.15	.9504	1009.13	.01
308.15	1	1008.93	.01
313.15	0	1253.6	.01
313.15	.0688	1225.26	.01
313.15	.123	1204.07	.01
313.15	.2457	1159.97	.01
313.15	.3618	1122.31	.01
313.15	.4502	1096	.01
313.15	.5583	1066.74	.01
313.15	.6518	1044.23	.01
313.15	.7068	1032.27	.01
313.15	.7419	1025.12	.01
313.15	.7797	1017.97	.01
313.15	.8315	1009.06	.01
313.15	.8718	1002.83	.01
313.15	.9179	997.14	.01
313.15	.9504	994.34	.01
313.15	1	994.15	.01
