Measured thermophysical data. Study of molecular interactions in the polar binary mixtures of N-methyl aniline and alcohols, using excess dielectric and thermodynamic parameters
Source: J. Chem. Thermodyn., 2012, 10.1016/j.jct.2011.10.028
Compound 1: aniline, N-methyl-, C7H9N, purity 99%
Compound 2: propyl alcohol, C3H8O, purity 99%
Compound 3: 2-propanol, C3H8O, purity 99%
Compound 4: benzene, C6H6, purity 99%

System: aniline, N-methyl-; phases: Liquid
Fixed: Pressure, kPa = 101.325
Property: Relative permittivity at zero frequency (Liquid); method: impedance analyzer
Temperature, K	Relative permittivity at zero frequency	uncertainty
300.15	5.878	

System: aniline, N-methyl-; phases: Liquid
Fixed: Pressure, kPa = 101.325
Property: Refractive index (Na D-line) (Liquid); method: Standard Abbe refractometry
Temperature, K	Refractive index (Na D-line)	uncertainty
300.15	1.566	

System: aniline, N-methyl-; phases: Liquid
Fixed: Pressure, kPa = 101.325
Property: Mass density, kg/m3 (Liquid); method: Pycnometric method
Temperature, K	Mass density, kg/m3	uncertainty
300.15	979.8	.1

System: propyl alcohol; phases: Liquid
Fixed: Pressure, kPa = 101.325
Property: Relative permittivity at zero frequency (Liquid); method: impedance analyzer
Temperature, K	Relative permittivity at zero frequency	uncertainty
300.15	20.678	

System: propyl alcohol; phases: Liquid
Fixed: Pressure, kPa = 101.325
Property: Refractive index (Na D-line) (Liquid); method: Standard Abbe refractometry
Temperature, K	Refractive index (Na D-line)	uncertainty
300.15	1.391	

System: propyl alcohol; phases: Liquid
Fixed: Pressure, kPa = 101.325
Property: Mass density, kg/m3 (Liquid); method: Pycnometric method
Temperature, K	Mass density, kg/m3	uncertainty
300.15	798.5	.1

System: 2-propanol; phases: Liquid
Fixed: Pressure, kPa = 101.325
Property: Relative permittivity at zero frequency (Liquid); method: impedance analyzer
Temperature, K	Relative permittivity at zero frequency	uncertainty
300.15	18.562	

System: 2-propanol; phases: Liquid
Fixed: Pressure, kPa = 101.325
Property: Refractive index (Na D-line) (Liquid); method: Standard Abbe refractometry
Temperature, K	Refractive index (Na D-line)	uncertainty
300.15	1.383	

System: 2-propanol; phases: Liquid
Fixed: Pressure, kPa = 101.325
Property: Mass density, kg/m3 (Liquid); method: Pycnometric method
Temperature, K	Mass density, kg/m3	uncertainty
300.15	779.2	.1
