Measured thermophysical data. Comprehensive thermophysical and thermochemical studies of vanillyl alcohol
Source: J. Chem. Thermodyn., 2016, 10.1016/j.jct.2016.07.015
Compound 1: vanillyl alcohol, C8H10O3, purity 99.4%
Compound 2: carbon dioxide, CO2
Compound 3: water, H2O
Compound 4: oxygen, O2

System: vanillyl alcohol; phases: Crystal, Gas
Property: Vapor or sublimation pressure, kPa (Crystal); method: Knudsen effusion method
Temperature, K	Vapor or sublimation pressure, kPa	uncertainty
332.19	.000113	
334.36	.0001466	
336.15	.0001867	
338.21	.0002403	
340.27	.0003122	
342.14	.0003916	
344.21	.000506	
346.27	.0006502	
348.13	.0008145	
350.15	.0010643	
332.19	.0001121	
334.36	.0001475	
336.15	.0001823	
338.21	.0002375	
340.27	.0003072	
342.14	.0003845	
344.21	.0005061	
346.27	.0006422	
348.13	.0008066	
350.15	.0010379	
332.19	.0001096	
334.36	.0001413	
336.15	.0001755	
338.21	.0002339	
340.27	.0002982	
342.14	.0003697	
344.21	.0004935	
346.27	.0006234	
348.13	.0007737	
350.15	.0010065	

Reaction: -1 vanillyl alcohol + 8 carbon dioxide + 5 water + -9 oxygen
Property: Specific internal energy of reaction at constant volume, J/g
-26145.24
