Measured thermophysical data. Isobaric (vapour-liquid) equilibria data for the binary system of glycidyl butyrate (1) and epichlorohydrin (2) at 100 kPa,88.66 kPa,56  kPa
Source: J. Chem. Thermodyn., 2012, 10.1016/j.jct.2012.01.005
Compound 1: glycidyl butyrate, C7H12O3, purity 99%
Compound 2: 1,2-epoxypropane, 3-chloro-, C3H5ClO, purity 99%

System: glycidyl butyrate; phases: Liquid
Fixed: Pressure, kPa = 101.325
Property: Mass density, kg/m3 (Liquid); method: Buoyancy - hydrostatic balance
Temperature, K	Mass density, kg/m3	uncertainty
298.15	1047	5.235

System: glycidyl butyrate; phases: Liquid
Fixed: Pressure, kPa = 101.325
Property: Refractive index (Na D-line) (Liquid); method: Standard Abbe refractometry
Temperature, K	Refractive index (Na D-line)	uncertainty
298.15	1.429	.001

System: glycidyl butyrate; phases: Liquid, Gas
Property: Vapor or sublimation pressure, kPa (Liquid); method: Closed cell (Static) method
Temperature, K	Vapor or sublimation pressure, kPa	uncertainty
471.15	100	.62
468.75	93.334	.62
466.55	87.334	.62
464.55	82.668	.62
460.45	74.669	.62
458.15	69.603	.62
453.85	62.67	.62
449.25	54.404	.62
444.25	46.671	.62
439.15	41.338	.62
434.15	36.405	.62
427.85	29.872	.62
420.25	23.873	.62
407.85	15.74	.62
467.15	88.66	.62
449.15	55.995	.62

System: 1,2-epoxypropane, 3-chloro-; phases: Liquid
Fixed: Pressure, kPa = 101.325
Property: Mass density, kg/m3 (Liquid); method: Buoyancy - hydrostatic balance
Temperature, K	Mass density, kg/m3	uncertainty
298.15	1175.9	5.8795

System: 1,2-epoxypropane, 3-chloro-; phases: Liquid
Fixed: Pressure, kPa = 101.325
Property: Refractive index (Na D-line) (Liquid); method: Standard Abbe refractometry
Temperature, K	Refractive index (Na D-line)	uncertainty
298.15	1.434	.001

System: 1,2-epoxypropane, 3-chloro-; phases: Liquid, Gas
Property: Vapor or sublimation pressure, kPa (Liquid); method: Visual
Temperature, K	Vapor or sublimation pressure, kPa	uncertainty
389.35	100	.62
384.15	88.66	.62
370.95	55.995	.62

System: 1,2-epoxypropane, 3-chloro- + glycidyl butyrate; phases: Gas, Liquid
Property: Mole fraction of glycidyl butyrate (Gas); method: Chromatography
Mole fraction of glycidyl butyrate	Pressure, kPa	Mole fraction of glycidyl butyrate	uncertainty
0	100	0	.0005
.1218	100	.0084	.0005
.2661	100	.0245	.0005
.3559	100	.0404	.0005
.4366	100	.0622	.0005
.501	100	.0816	.0005
.5485	100	.1088	.0005
.6259	100	.1409	.0005
.6723	100	.1883	.0005
.7155	100	.2212	.0005
.7461	100	.2717	.0005
.7939	100	.3415	.0005
.8405	100	.4083	.0005
.8552	100	.4526	.0005
.8798	100	.5166	.0005
.9098	100	.5887	.0005
.9352	100	.6553	.0005
.9715	100	.8358	.0005
1	100	1	.0005
0	88.66	0	.0005
.1221	88.66	.0058	.0005
.3774	88.66	.0409	.0005
.4512	88.66	.0548	.0005
.5259	88.66	.0858	.0005
.5979	88.66	.1103	.0005
.6434	88.66	.139	.0005
.6888	88.66	.1603	.0005
.7356	88.66	.1999	.0005
.7667	88.66	.2296	.0005
.8061	88.66	.3001	.0005
.8413	88.66	.3708	.0005
.8732	88.66	.4414	.0005
.9018	88.66	.5178	.0005
.9278	88.66	.6067	.0005
.949	88.66	.7332	.0005
.9781	88.66	.8863	.0005
1	88.66	1	.0005
0	55.995	0	.0005
.1086	55.995	.0078	.0005
.2866	55.995	.0346	.0005
.3419	55.995	.0485	.0005
.4432	55.995	.0729	.0005
.4765	55.995	.0913	.0005
.5176	55.995	.1113	.0005
.5847	55.995	.1413	.0005
.636	55.995	.1815	.0005
.6968	55.995	.2223	.0005
.7589	55.995	.3019	.0005
.8514	55.995	.4147	.0005
.9583	55.995	.6168	.0005
.9874	55.995	.7919	.0005
1	55.995	1	.0005

System: 1,2-epoxypropane, 3-chloro- + glycidyl butyrate; phases: Gas, Liquid
Property: Boiling temperature at pressure P, K (Gas); method: Visual
Mole fraction of glycidyl butyrate	Pressure, kPa	Boiling temperature at pressure P, K	uncertainty
0	100	389.35	.1
.1218	100	392.25	.1
.2661	100	397.15	.1
.3559	100	401.55	.1
.4366	100	406.05	.1
.501	100	410.75	.1
.5485	100	414.95	.1
.6259	100	419.05	.1
.6723	100	424.25	.1
.7155	100	429.95	.1
.7461	100	434.05	.1
.7939	100	439.55	.1
.8405	100	443.35	.1
.8552	100	447.05	.1
.8798	100	450.45	.1
.9098	100	454.25	.1
.9352	100	457.35	.1
.9715	100	465.35	.1
1	100	471.15	.1
0	88.66	384.15	.1
.1221	88.66	387.35	.1
.3774	88.66	396.05	.1
.4512	88.66	399.95	.1
.5259	88.66	404.25	.1
.5979	88.66	408.85	.1
.6434	88.66	412.45	.1
.6888	88.66	416.25	.1
.7356	88.66	420.55	.1
.7667	88.66	423.85	.1
.8061	88.66	431.15	.1
.8413	88.66	436.05	.1
.8732	88.66	440.85	.1
.9018	88.66	446.05	.1
.9278	88.66	450.25	.1
.949	88.66	456.25	.1
.9781	88.66	461.25	.1
1	88.66	467.15	.1
0	55.995	370.95	.1
.1086	55.995	372.75	.1
.2866	55.995	381.25	.1
.3419	55.995	385.15	.1
.4432	55.995	389.95	.1
.4765	55.995	396.05	.1
.5176	55.995	399.65	.1
.5847	55.995	403.85	.1
.636	55.995	407.05	.1
.6968	55.995	411.85	.1
.7589	55.995	416.75	.1
.8514	55.995	423.45	.1
.9583	55.995	432.95	.1
.9874	55.995	440.25	.1
1	55.995	449.15	.1
