Measured thermophysical data. Thermodynamic properties of caffeine: Reconciliation of available experimental data
Source: J. Chem. Thermodyn., 2008, 10.1016/j.jct.2008.07.002
Compound 1: caffeine, C8H10N4O2

System: caffeine; phases: Crystal 2, Gas
Property: Vapor or sublimation pressure, kPa (Crystal 2); method: Transpiration method
Temperature, K	Vapor or sublimation pressure, kPa	uncertainty
366.2	.00017	
373.3	.00033	
379.9	.00055	
383.9	.00077	
386.9	.00106	
389.8	.00128	
395.9	.00223	
400.9	.00338	
405	.00441	
406	.00525	
408	.00577	
410.1	.00693	

System: caffeine; phases: Crystal 1, Gas
Property: Vapor or sublimation pressure, kPa (Crystal 1); method: Transpiration method
Temperature, K	Vapor or sublimation pressure, kPa	uncertainty
420.2	.01448	
424.9	.02064	
430.1	.02868	
434.5	.03685	
