Measured thermophysical data. Volumetric properties of binary mixtures of (acetonitrile + amines) at several temperatures with application of the ERAS model
Source: J. Chem. Thermodyn., 2016, 10.1016/j.jct.2015.09.002
Compound 1: acetonitrile, C2H3N, purity 99.9%
Compound 2: n-propylamine, C3H9N, purity 99%
Compound 3: dipropylamine, C6H15N, purity 99%
Compound 4: n-butylamine, C4H11N, purity 99.5%
Compound 5: dibutylamine, C8H19N, purity 99.5%
Compound 6: tert-butylamine, C4H11N, purity 99%
Compound 7: triethylamine, C6H15N, purity 99%

System: acetonitrile; phases: Liquid
Property: Mass density, kg/m3 (Liquid); method: Vibrating tube method
Temperature, K	Pressure, kPa	Mass density, kg/m3	uncertainty
293.15	93.2	782.01	1
298.15	93.2	776.61	1
303.15	93.2	771.2	1
308.15	93.2	765.75	1

System: n-propylamine; phases: Liquid
Property: Mass density, kg/m3 (Liquid); method: Vibrating tube method
Temperature, K	Pressure, kPa	Mass density, kg/m3	uncertainty
293.15	93.2	716.48	1
298.15	93.2	711.21	1
303.15	93.2	705.88	1
308.15	93.2	700.62	1

System: dipropylamine; phases: Liquid
Property: Mass density, kg/m3 (Liquid); method: Vibrating tube method
Temperature, K	Pressure, kPa	Mass density, kg/m3	uncertainty
293.15	93.2	738.18	1
298.15	93.2	733.64	1
303.15	93.2	729.07	1
308.15	93.2	724.48	1

System: n-butylamine; phases: Liquid
Property: Mass density, kg/m3 (Liquid); method: Vibrating tube method
Temperature, K	Pressure, kPa	Mass density, kg/m3	uncertainty
293.15	93.2	737.12	1
298.15	93.2	732.33	1
303.15	93.2	727.51	1
308.15	93.2	722.66	1

System: dibutylamine; phases: Liquid
Property: Mass density, kg/m3 (Liquid); method: Vibrating tube method
Temperature, K	Pressure, kPa	Mass density, kg/m3	uncertainty
293.15	93.2	759.7	1
298.15	93.2	755.61	1
303.15	93.2	751.5	1
308.15	93.2	747.38	1

System: tert-butylamine; phases: Liquid
Property: Mass density, kg/m3 (Liquid); method: Vibrating tube method
Temperature, K	Pressure, kPa	Mass density, kg/m3	uncertainty
293.15	93.2	692.06	1
298.15	93.2	686.65	1
303.15	93.2	681.18	1
308.15	93.2	675.66	1

System: triethylamine; phases: Liquid
Property: Mass density, kg/m3 (Liquid); method: Vibrating tube method
Temperature, K	Pressure, kPa	Mass density, kg/m3	uncertainty
293.15	93.2	727.7	1
298.15	93.2	723.02	1
303.15	93.2	718.36	1
308.15	93.2	713.65	1

System: acetonitrile + n-propylamine; phases: Liquid
Fixed: Pressure, kPa = 93.2
Property: Mass density, kg/m3 (Liquid); method: Vibrating tube method
Temperature, K	Mole fraction of acetonitrile	Mass density, kg/m3	uncertainty
293.15	.0105	717.02	1
293.15	.0199	717.49	1
293.15	.0296	717.97	1
293.15	.0409	718.55	1
293.15	.0512	719.01	1
293.15	.061	719.48	1
293.15	.0707	719.96	1
293.15	.0809	720.48	1
293.15	.0895	720.87	1
293.15	.0993	721.35	1
293.15	.1493	723.85	1
293.15	.2006	726.46	1
293.15	.2499	729.08	1
293.15	.2998	731.77	1
293.15	.3507	734.55	1
293.15	.3993	737.38	1
293.15	.4479	740.27	1
293.15	.4988	743.34	1
293.15	.5486	746.55	1
293.15	.6017	750.02	1
293.15	.6499	753.32	1
293.15	.6998	756.86	1
293.15	.7501	760.68	1
293.15	.8001	764.57	1
293.15	.8487	768.54	1
293.15	.8995	772.9	1
293.15	.9089	773.68	1
293.15	.9201	774.65	1
293.15	.928	775.36	1
293.15	.9393	776.43	1
293.15	.9491	777.27	1
293.15	.9594	778.22	1
293.15	.9678	778.99	1
293.15	.9795	780.09	1
293.15	.9893	781.01	1
298.15	.0105	711.79	1
298.15	.0199	712.26	1
298.15	.0296	712.74	1
298.15	.0409	713.3	1
298.15	.0512	713.79	1
298.15	.061	714.26	1
298.15	.0707	714.7	1
298.15	.0809	715.23	1
298.15	.0895	715.66	1
298.15	.0993	716.14	1
298.15	.1493	718.65	1
298.15	.2006	721.27	1
298.15	.2499	723.91	1
298.15	.2998	726.59	1
298.15	.3507	729.34	1
298.15	.3993	732.18	1
298.15	.4479	735.05	1
298.15	.4988	738.1	1
298.15	.5486	741.33	1
298.15	.6017	744.77	1
298.15	.6499	748.08	1
298.15	.6998	751.61	1
298.15	.7501	755.4	1
298.15	.8001	759.28	1
298.15	.8487	763.25	1
298.15	.8995	767.55	1
298.15	.9089	768.32	1
298.15	.9201	769.28	1
298.15	.928	770	1
298.15	.9393	771.07	1
298.15	.9491	771.89	1
298.15	.9594	772.82	1
298.15	.9678	773.6	1
298.15	.9795	774.69	1
298.15	.9893	775.61	1
303.15	.0105	706.42	1
303.15	.0199	706.89	1
303.15	.0296	707.37	1
303.15	.0409	708.3	1
303.15	.0512	708.42	1
303.15	.061	708.9	1
303.15	.0707	709.38	1
303.15	.0809	710.24	1
303.15	.0895	710.31	1
303.15	.0993	710.79	1
303.15	.1493	713.34	1
303.15	.2006	715.97	1
303.15	.2499	718.64	1
303.15	.2998	721.31	1
303.15	.3507	724.05	1
303.15	.3993	726.9	1
303.15	.4479	729.77	1
303.15	.4988	732.79	1
303.15	.5486	736.02	1
303.15	.6017	739.46	1
303.15	.6499	742.76	1
303.15	.6998	746.49	1
303.15	.7501	750.19	1
303.15	.8001	754.03	1
303.15	.8487	757.85	1
303.15	.8995	762.15	1
303.15	.9089	762.93	1
303.15	.9201	763.89	1
303.15	.928	764.6	1
303.15	.9393	765.67	1
303.15	.9491	766.51	1
303.15	.9594	767.45	1
303.15	.9678	768.21	1
303.15	.9795	769.3	1
303.15	.9893	770.21	1
308.15	.0105	701.16	1
308.15	.0199	701.63	1
308.15	.0296	702.11	1
308.15	.0409	702.66	1
308.15	.0512	703.16	1
308.15	.061	703.65	1
308.15	.0707	704.14	1
308.15	.0809	704.64	1
308.15	.0895	705.06	1
308.15	.0993	705.55	1
308.15	.1493	708.1	1
308.15	.2006	710.75	1
308.15	.2499	713.3	1
308.15	.2998	715.96	1
308.15	.3507	718.82	1
308.15	.3993	721.58	1
308.15	.4479	724.44	1
308.15	.4988	727.56	1
308.15	.5486	730.68	1
308.15	.6017	734.16	1
308.15	.6499	737.45	1
308.15	.6998	740.98	1
308.15	.7501	744.7	1
308.15	.8001	748.54	1
308.15	.8487	752.47	1
308.15	.8995	756.72	1
308.15	.9089	757.54	1
308.15	.9201	758.5	1
308.15	.928	759.19	1
308.15	.9393	760.24	1
308.15	.9491	761.05	1
308.15	.9594	761.98	1
308.15	.9678	762.74	1
308.15	.9795	763.82	1
308.15	.9893	764.73	1
293.15	1	782.01	1
298.15	1	776.61	1
303.15	1	771.2	1
308.15	1	765.75	1
293.15	0	716.48	1
298.15	0	711.21	1
303.15	0	705.88	1
308.15	0	700.62	1

System: acetonitrile + dipropylamine; phases: Liquid
Fixed: Pressure, kPa = 93.2
Property: Mass density, kg/m3 (Liquid); method: Vibrating tube method
Temperature, K	Mole fraction of acetonitrile	Mass density, kg/m3	uncertainty
293.15	.0106	738.6	1
293.15	.0215	738.86	1
293.15	.0323	739.1	1
293.15	.0406	739.28	1
293.15	.0507	739.51	1
293.15	.0605	739.75	1
293.15	.0684	739.93	1
293.15	.0801	740.21	1
293.15	.0926	740.51	1
293.15	.101	740.71	1
293.15	.1493	741.88	1
293.15	.2009	743.16	1
293.15	.2547	744.47	1
293.15	.3001	745.65	1
293.15	.3514	747.06	1
293.15	.3995	748.45	1
293.15	.4556	750.19	1
293.15	.5008	751.71	1
293.15	.551	753.52	1
293.15	.6037	755.61	1
293.15	.6481	757.56	1
293.15	.6992	760.02	1
293.15	.7495	762.68	1
293.15	.7997	765.7	1
293.15	.8496	769.02	1
293.15	.9002	772.87	1
293.15	.9092	773.6	1
293.15	.9194	774.47	1
293.15	.9298	775.37	1
293.15	.9492	777.14	1
293.15	.9697	779.11	1
293.15	.9892	781.03	1
298.15	.0106	734.04	1
298.15	.0215	734.31	1
298.15	.0323	734.53	1
298.15	.0406	734.72	1
298.15	.0507	734.94	1
298.15	.0605	735.16	1
298.15	.0684	735.34	1
298.15	.0801	735.61	1
298.15	.0926	735.91	1
298.15	.101	736.11	1
298.15	.1493	737.23	1
298.15	.2009	738.47	1
298.15	.2547	739.78	1
298.15	.3001	740.94	1
298.15	.3514	742.32	1
298.15	.3995	743.68	1
298.15	.4556	745.39	1
298.15	.5008	746.88	1
298.15	.551	748.66	1
298.15	.6037	750.71	1
298.15	.6481	752.63	1
298.15	.6992	755.04	1
298.15	.7495	757.65	1
298.15	.7997	760.61	1
298.15	.8496	763.85	1
298.15	.9002	767.63	1
298.15	.9092	768.35	1
298.15	.9194	769.22	1
298.15	.9298	770.09	1
298.15	.9492	771.83	1
298.15	.9697	773.75	1
298.15	.9892	775.63	1
303.15	.0106	729.47	1
303.15	.0215	729.71	1
303.15	.0323	729.92	1
303.15	.0406	730.09	1
303.15	.0507	730.32	1
303.15	.0605	730.53	1
303.15	.0684	730.7	1
303.15	.0801	730.96	1
303.15	.0926	731.26	1
303.15	.101	731.45	1
303.15	.1493	732.56	1
303.15	.2009	733.79	1
303.15	.2547	735.06	1
303.15	.3001	736.2	1
303.15	.3514	737.55	1
303.15	.3995	738.88	1
303.15	.4556	740.57	1
303.15	.5008	742.02	1
303.15	.551	743.77	1
303.15	.6037	745.77	1
303.15	.6481	747.66	1
303.15	.6992	750.02	1
303.15	.7495	752.58	1
303.15	.7997	755.49	1
303.15	.8496	758.66	1
303.15	.9002	762.35	1
303.15	.9092	763.04	1
303.15	.9194	763.9	1
303.15	.9298	764.79	1
303.15	.9492	766.49	1
303.15	.9697	768.36	1
303.15	.9892	770.22	1
308.15	.0106	724.87	1
308.15	.0215	725.09	1
308.15	.0323	725.29	1
308.15	.0406	725.48	1
308.15	.0507	725.71	1
308.15	.0605	725.91	1
308.15	.0684	726.08	1
308.15	.0801	726.32	1
308.15	.0926	726.61	1
308.15	.101	726.79	1
308.15	.1493	727.89	1
308.15	.2009	729.06	1
308.15	.2547	730.34	1
308.15	.3001	731.45	1
308.15	.3514	732.77	1
308.15	.3995	734.07	1
308.15	.4556	735.71	1
308.15	.5008	737.15	1
308.15	.551	738.86	1
308.15	.6037	740.81	1
308.15	.6481	742.67	1
308.15	.6992	744.98	1
308.15	.7495	747.48	1
308.15	.7997	750.33	1
308.15	.8496	753.43	1
308.15	.9002	757.05	1
308.15	.9092	757.76	1
308.15	.9194	758.59	1
308.15	.9298	759.45	1
308.15	.9492	761.13	1
308.15	.9697	762.97	1
308.15	.9892	764.78	1
293.15	1	782.01	1
298.15	1	776.61	1
303.15	1	771.2	1
308.15	1	765.75	1
293.15	0	738.18	1
298.15	0	733.64	1
303.15	0	729.07	1
308.15	0	724.48	1

System: acetonitrile + n-butylamine; phases: Liquid
Fixed: Pressure, kPa = 93.2
Property: Mass density, kg/m3 (Liquid); method: Vibrating tube method
Temperature, K	Mole fraction of acetonitrile	Mass density, kg/m3	uncertainty
293.15	.0102	737.48	1
293.15	.0229	737.89	1
293.15	.0481	738.62	1
293.15	.0616	738.99	1
293.15	.2006	742.87	1
293.15	.35	747.75	1
293.15	.4	749.52	1
293.15	.4503	751.36	1
293.15	.5007	753.36	1
293.15	.5489	755.38	1
293.15	.6002	757.66	1
293.15	.6492	759.99	1
293.15	.6998	762.57	1
293.15	.7488	765.21	1
293.15	.7997	768.18	1
293.15	.85	771.3	1
293.15	.9004	774.67	1
293.15	.9188	775.96	1
293.15	.9498	778.23	1
293.15	.96	779.01	1
293.15	.9694	779.73	1
293.15	.9804	780.56	1
293.15	.9892	781.24	1
298.15	.0102	732.7	1
298.15	.0229	733.1	1
298.15	.0481	733.83	1
298.15	.0616	734.2	1
298.15	.2006	738.04	1
298.15	.35	742.84	1
298.15	.4	744.61	1
298.15	.4503	746.43	1
298.15	.5007	748.41	1
298.15	.5489	750.41	1
298.15	.6002	752.67	1
298.15	.6492	754.96	1
298.15	.6998	757.51	1
298.15	.7488	760.11	1
298.15	.7997	763.02	1
298.15	.85	766.08	1
298.15	.9004	769.4	1
298.15	.9188	770.66	1
298.15	.9498	772.9	1
298.15	.96	773.67	1
298.15	.9694	774.38	1
298.15	.9804	775.21	1
298.15	.9892	775.87	1
303.15	.0102	727.88	1
303.15	.0229	728.28	1
303.15	.0481	729.01	1
303.15	.0616	729.37	1
303.15	.2006	733.19	1
303.15	.35	737.89	1
303.15	.4	739.64	1
303.15	.4503	741.47	1
303.15	.5007	743.43	1
303.15	.5489	745.4	1
303.15	.6002	747.61	1
303.15	.6492	749.88	1
303.15	.6998	752.4	1
303.15	.7488	754.97	1
303.15	.7997	757.82	1
303.15	.85	760.83	1
303.15	.9004	764.09	1
303.15	.9188	765.33	1
303.15	.9498	767.54	1
303.15	.96	768.29	1
303.15	.9694	769	1
303.15	.9804	769.81	1
303.15	.9892	770.46	1
308.15	.0102	723.03	1
308.15	.0229	723.42	1
308.15	.0481	724.14	1
308.15	.0616	724.51	1
308.15	.2006	728.3	1
308.15	.35	732.98	1
308.15	.4	734.69	1
308.15	.4503	736.49	1
308.15	.5007	738.41	1
308.15	.5489	740.35	1
308.15	.6002	742.54	1
308.15	.6492	744.78	1
308.15	.6998	747.24	1
308.15	.7488	749.77	1
308.15	.7997	752.57	1
308.15	.85	755.54	1
308.15	.9004	758.76	1
308.15	.9188	759.98	1
308.15	.9498	762.15	1
308.15	.96	762.89	1
308.15	.9694	763.59	1
308.15	.9804	764.38	1
308.15	.9892	765.03	1
293.15	1	782.01	1
298.15	1	776.61	1
303.15	1	771.2	1
308.15	1	765.75	1
293.15	0	737.12	1
298.15	0	732.33	1
303.15	0	727.51	1
308.15	0	722.66	1

System: acetonitrile + dibutylamine; phases: Liquid
Fixed: Pressure, kPa = 93.2
Property: Mass density, kg/m3 (Liquid); method: Vibrating tube method
Temperature, K	Mole fraction of acetonitrile	Mass density, kg/m3	uncertainty
293.15	.0695	760.49	1
293.15	.081	760.6	1
293.15	.1023	760.85	1
293.15	.1527	761.32	1
293.15	.2029	761.82	1
293.15	.2499	762.19	1
293.15	.2996	762.67	1
293.15	.3542	763.23	1
293.15	.3978	763.73	1
293.15	.47	764.62	1
293.15	.4987	764.98	1
293.15	.5498	765.74	1
293.15	.6001	766.63	1
293.15	.6499	767.62	1
293.15	.6991	768.71	1
293.15	.7496	770.07	1
293.15	.8	771.64	1
293.15	.8494	773.46	1
293.15	.8994	775.72	1
293.15	.9293	777.27	1
293.15	.9394	777.86	1
293.15	.9498	778.5	1
293.15	.9596	779.13	1
293.15	.9699	779.82	1
293.15	.9799	780.54	1
293.15	.9897	781.26	1
298.15	.0695	756.33	1
298.15	.081	756.44	1
298.15	.1023	756.68	1
298.15	.1527	757.12	1
298.15	.2029	757.58	1
298.15	.2499	757.95	1
298.15	.2996	758.39	1
298.15	.3542	758.88	1
298.15	.3978	759.35	1
298.15	.47	760.17	1
298.15	.4987	760.52	1
298.15	.5498	761.23	1
298.15	.6001	762.05	1
298.15	.6499	762.97	1
298.15	.6991	763.99	1
298.15	.7496	765.28	1
298.15	.8	766.75	1
298.15	.8494	768.5	1
298.15	.8994	770.63	1
298.15	.9293	772.08	1
298.15	.9394	772.65	1
298.15	.9498	773.27	1
298.15	.9596	773.86	1
298.15	.9699	774.53	1
298.15	.9799	775.22	1
298.15	.9897	775.91	1
303.15	.0695	752.17	1
303.15	.081	752.27	1
303.15	.1023	752.5	1
303.15	.1527	752.9	1
303.15	.2029	753.32	1
303.15	.2499	753.65	1
303.15	.2996	754.06	1
303.15	.3542	754.51	1
303.15	.3978	754.95	1
303.15	.47	755.7	1
303.15	.4987	756.02	1
303.15	.5498	756.67	1
303.15	.6001	757.43	1
303.15	.6499	758.29	1
303.15	.6991	759.24	1
303.15	.7496	760.44	1
303.15	.8	761.82	1
303.15	.8494	763.47	1
303.15	.8994	765.48	1
303.15	.9293	766.87	1
303.15	.9394	767.41	1
303.15	.9498	768	1
303.15	.9596	768.55	1
303.15	.9699	769.19	1
303.15	.9799	769.85	1
303.15	.9897	770.51	1
308.15	.0695	748	1
308.15	.081	748.08	1
308.15	.1023	748.3	1
308.15	.1527	748.66	1
308.15	.2029	749.05	1
308.15	.2499	749.34	1
308.15	.2996	749.71	1
308.15	.3542	750.12	1
308.15	.3978	750.52	1
308.15	.47	751.19	1
308.15	.4987	751.49	1
308.15	.5498	752.09	1
308.15	.6001	752.78	1
308.15	.6499	753.59	1
308.15	.6991	754.46	1
308.15	.7496	755.59	1
308.15	.8	756.87	1
308.15	.8494	758.42	1
308.15	.8994	760.32	1
308.15	.9293	761.62	1
308.15	.9394	762.14	1
308.15	.9498	762.7	1
308.15	.9596	763.23	1
308.15	.9699	763.83	1
308.15	.9799	764.46	1
308.15	.9897	765.09	1
293.15	1	782.01	1
298.15	1	776.61	1
303.15	1	771.2	1
308.15	1	765.75	1
293.15	0	759.7	1
298.15	0	755.61	1
303.15	0	751.5	1
308.15	0	747.38	1

System: acetonitrile + tert-butylamine; phases: Liquid
Fixed: Pressure, kPa = 93.2
Property: Mass density, kg/m3 (Liquid); method: Vibrating tube method
Temperature, K	Mole fraction of acetonitrile	Mass density, kg/m3	uncertainty
293.15	.009	692.79	1
293.15	.0205	693.46	1
293.15	.0313	694.05	1
293.15	.0421	694.67	1
293.15	.0536	695.33	1
293.15	.0625	695.85	1
293.15	.0694	696.27	1
293.15	.0801	696.87	1
293.15	.0874	697.28	1
293.15	.1006	698.07	1
293.15	.1489	701.01	1
293.15	.2023	704.54	1
293.15	.2493	707.7	1
293.15	.3021	711.23	1
293.15	.3487	714.58	1
293.15	.3998	718.28	1
293.15	.4489	721.98	1
293.15	.501	726.15	1
293.15	.5485	730.26	1
293.15	.6009	735.01	1
293.15	.6494	739.58	1
293.15	.6932	743.94	1
293.15	.7494	749.81	1
293.15	.8001	755.58	1
293.15	.8497	761.5	1
293.15	.8984	767.7	1
293.15	.9093	769.13	1
293.15	.9202	770.57	1
293.15	.9292	771.83	1
293.15	.9401	773.34	1
293.15	.9501	774.73	1
293.15	.9599	776.15	1
293.15	.9699	777.57	1
293.15	.9795	778.96	1
293.15	.9892	780.39	1
298.15	.009	687.38	1
298.15	.0205	688.06	1
298.15	.0313	688.66	1
298.15	.0421	689.29	1
298.15	.0536	689.95	1
298.15	.0625	690.48	1
298.15	.0694	690.86	1
298.15	.0801	691.5	1
298.15	.0874	691.92	1
298.15	.1006	692.74	1
298.15	.1489	695.71	1
298.15	.2023	699.21	1
298.15	.2493	702.41	1
298.15	.3021	705.97	1
298.15	.3487	709.33	1
298.15	.3998	713.06	1
298.15	.4489	716.77	1
298.15	.501	720.91	1
298.15	.5485	725.04	1
298.15	.6009	729.79	1
298.15	.6494	734.35	1
298.15	.6932	738.74	1
298.15	.7494	744.57	1
298.15	.8001	750.29	1
298.15	.8497	756.2	1
298.15	.8984	762.38	1
298.15	.9093	763.81	1
298.15	.9202	765.25	1
298.15	.9292	766.5	1
298.15	.9401	768	1
298.15	.9501	769.38	1
298.15	.9599	770.78	1
298.15	.9699	772.2	1
298.15	.9795	773.59	1
298.15	.9892	775.01	1
303.15	.009	681.92	1
303.15	.0205	682.61	1
303.15	.0313	683.22	1
303.15	.0421	683.85	1
303.15	.0536	684.53	1
303.15	.0625	685.06	1
303.15	.0694	685.44	1
303.15	.0801	686.09	1
303.15	.0874	686.51	1
303.15	.1006	687.34	1
303.15	.1489	690.34	1
303.15	.2023	693.83	1
303.15	.2493	697.06	1
303.15	.3021	700.63	1
303.15	.3487	704	1
303.15	.3998	707.73	1
303.15	.4489	711.44	1
303.15	.501	715.64	1
303.15	.5485	719.77	1
303.15	.6009	724.53	1
303.15	.6494	729.08	1
303.15	.6932	733.46	1
303.15	.7494	739.28	1
303.15	.8001	744.99	1
303.15	.8497	750.87	1
303.15	.8984	757.02	1
303.15	.9093	758.46	1
303.15	.9202	759.88	1
303.15	.9292	761.11	1
303.15	.9401	762.61	1
303.15	.9501	763.99	1
303.15	.9599	765.38	1
303.15	.9699	766.79	1
303.15	.9795	768.17	1
303.15	.9892	769.59	1
308.15	.009	676.4	1
308.15	.0205	677.1	1
308.15	.0313	677.72	1
308.15	.0421	678.36	1
308.15	.0536	679.04	1
308.15	.0625	679.59	1
308.15	.0694	679.97	1
308.15	.0801	680.61	1
308.15	.0874	681.05	1
308.15	.1006	681.89	1
308.15	.1489	684.92	1
308.15	.2023	688.43	1
308.15	.2493	691.72	1
308.15	.3021	695.28	1
308.15	.3487	698.63	1
308.15	.3998	702.38	1
308.15	.4489	706.12	1
308.15	.501	710.33	1
308.15	.5485	714.47	1
308.15	.6009	719.22	1
308.15	.6494	723.75	1
308.15	.6932	728.14	1
308.15	.7494	733.95	1
308.15	.8001	739.64	1
308.15	.8497	745.51	1
308.15	.8984	751.64	1
308.15	.9093	753.06	1
308.15	.9202	754.48	1
308.15	.9292	755.72	1
308.15	.9401	757.2	1
308.15	.9501	758.56	1
308.15	.9599	759.96	1
308.15	.9699	761.36	1
308.15	.9795	762.72	1
308.15	.9892	764.14	1
293.15	1	782.01	1
298.15	1	776.61	1
303.15	1	771.2	1
308.15	1	765.75	1
293.15	0	692.06	1
298.15	0	686.65	1
303.15	0	681.18	1
308.15	0	675.66	1

System: acetonitrile + triethylamine; phases: Liquid
Fixed: Pressure, kPa = 93.2
Property: Mass density, kg/m3 (Liquid); method: Vibrating tube method
Temperature, K	Mole fraction of acetonitrile	Mass density, kg/m3	uncertainty
293.15	.0113	728.13	1
293.15	.0212	728.41	1
293.15	.03	728.67	1
293.15	.0406	728.98	1
293.15	.0502	729.23	1
293.15	.0591	729.48	1
293.15	.0701	729.78	1
293.15	.0842	730.18	1
293.15	.0944	730.47	1
293.15	.1013	730.66	1
293.15	.1519	732.16	1
293.15	.1991	733.6	1
293.15	.2501	735.21	1
293.15	.3018	736.94	1
293.15	.3505	738.65	1
293.15	.4003	740.52	1
293.15	.4482	742.43	1
293.15	.5002	744.69	1
293.15	.5511	747.1	1
293.15	.5995	749.58	1
293.15	.6499	752.4	1
293.15	.702	755.6	1
293.15	.7498	758.83	1
293.15	.7998	762.53	1
293.15	.85	766.68	1
293.15	.8994	771.19	1
293.15	.9095	772.21	1
293.15	.9199	773.25	1
293.15	.9293	774.23	1
293.15	.9402	775.35	1
293.15	.9495	776.36	1
293.15	.9591	777.43	1
293.15	.9685	778.48	1
293.15	.99	780.9	1
298.15	.0113	723.44	1
298.15	.0212	723.73	1
298.15	.03	723.97	1
298.15	.0406	724.28	1
298.15	.0502	724.53	1
298.15	.0591	724.77	1
298.15	.0701	725.07	1
298.15	.0842	725.45	1
298.15	.0944	725.73	1
298.15	.1013	725.97	1
298.15	.1519	727.46	1
298.15	.1991	728.85	1
298.15	.2501	730.39	1
298.15	.3018	732.07	1
298.15	.3505	733.76	1
298.15	.4003	735.58	1
298.15	.4482	737.48	1
298.15	.5002	739.7	1
298.15	.5511	742.08	1
298.15	.5995	744.55	1
298.15	.6499	747.32	1
298.15	.702	750.5	1
298.15	.7498	753.71	1
298.15	.7998	757.35	1
298.15	.85	761.45	1
298.15	.8994	765.92	1
298.15	.9095	766.93	1
298.15	.9199	767.97	1
298.15	.9293	768.93	1
298.15	.9402	770.05	1
298.15	.9495	771.03	1
298.15	.9591	772.08	1
298.15	.9685	773.13	1
298.15	.99	775.52	1
303.15	.0113	718.77	1
303.15	.0212	719.05	1
303.15	.03	719.29	1
303.15	.0406	719.6	1
303.15	.0502	719.84	1
303.15	.0591	720.06	1
303.15	.0701	720.35	1
303.15	.0842	720.73	1
303.15	.0944	721.02	1
303.15	.1013	721.24	1
303.15	.1519	722.63	1
303.15	.1991	723.99	1
303.15	.2501	725.53	1
303.15	.3018	727.17	1
303.15	.3505	728.84	1
303.15	.4003	730.62	1
303.15	.4482	732.49	1
303.15	.5002	734.68	1
303.15	.5511	737.03	1
303.15	.5995	739.43	1
303.15	.6499	742.18	1
303.15	.702	745.3	1
303.15	.7498	748.42	1
303.15	.7998	752.07	1
303.15	.85	756.13	1
303.15	.8994	760.59	1
303.15	.9095	761.6	1
303.15	.9199	762.63	1
303.15	.9293	763.58	1
303.15	.9402	764.69	1
303.15	.9495	765.7	1
303.15	.9591	766.69	1
303.15	.9685	767.72	1
303.15	.99	770.1	1
308.15	.0113	714.06	1
308.15	.0212	714.32	1
308.15	.03	714.57	1
308.15	.0406	714.86	1
308.15	.0502	715.1	1
308.15	.0591	715.32	1
308.15	.0701	715.6	1
308.15	.0842	715.97	1
308.15	.0944	716.24	1
308.15	.1013	716.48	1
308.15	.1519	717.85	1
308.15	.1991	719.16	1
308.15	.2501	720.64	1
308.15	.3018	722.25	1
308.15	.3505	723.88	1
308.15	.4003	725.63	1
308.15	.4482	727.48	1
308.15	.5002	729.63	1
308.15	.5511	731.95	1
308.15	.5995	734.36	1
308.15	.6499	737.06	1
308.15	.702	740.16	1
308.15	.7498	743.28	1
308.15	.7998	746.81	1
308.15	.85	750.82	1
308.15	.8994	755.2	1
308.15	.9095	756.23	1
308.15	.9199	757.25	1
308.15	.9293	758.19	1
308.15	.9402	759.29	1
308.15	.9495	760.33	1
308.15	.9591	761.27	1
308.15	.9685	762.31	1
308.15	.99	764.64	1
293.15	1	782.01	1
298.15	1	776.61	1
303.15	1	771.2	1
308.15	1	765.75	1
293.15	0	727.7	1
298.15	0	723.02	1
303.15	0	718.36	1
308.15	0	713.65	1
