Measured thermophysical data. Viscosity measurements of hydrogen at high temperatures up to 573 K by a curved vibrating wire method
Source: J. Chem. Thermodyn., 2015, 10.1016/j.jct.2015.04.028
Compound 1: hydrogen, H2
Compound 2: nitrogen, N2
Compound 3: helium, He

System: hydrogen; phases: Gas
Property: Viscosity, Pa*s (Gas); method: Vibrating wire viscometry
Pressure, kPa	Temperature, K	Viscosity, Pa*s	uncertainty
102.8	296.26	.0000089	.0000001246
111	322.56	.00000941	.00000013174
111.6	373.12	.00001041	.00000014574
111.4	472.13	.00001209	.00000016926
98.9	573.48	.00001416	.00000019824
305.3	296.26	.00000897	.00000012558
302.4	322.56	.00000946	.00000013244
301.2	373.12	.00001047	.00000014658
298.9	472.13	.00001214	.00000016996
298.2	573.48	.0000142	.0000001988
501	296.26	.000009	.000000126
502	322.56	.00000949	.00000013286
503.1	373.12	.00001048	.00000014672
500.1	472.13	.00001215	.0000001701
503	573.48	.00001427	.00000019978
700.6	296.26	.00000902	.00000012628
698	322.56	.00000951	.00000013314
701.4	373.12	.0000105	.000000147
701.1	472.13	.00001216	.00000017024
701.6	573.48	.00001425	.0000001995

System: nitrogen; phases: Gas
Property: Viscosity, Pa*s (Gas); method: Vibrating wire viscometry
Pressure, kPa	Temperature, K	Viscosity, Pa*s	uncertainty
99.9	296.26	.00001766	.00000024724
109.8	322.56	.00001884	.00000026376
111.2	373.12	.00002104	.00000029456
110.2	472.1	.00002498	.00000034972
111.7	572.98	.00002864	.00000040096
312.6	296.26	.00001773	.00000024822
307.3	322.56	.00001892	.00000026488
300.6	373.12	.00002109	.00000029526
309.7	472.1	.000025	.00000035
316.1	572.98	.00002867	.00000040138
500.9	297.05	.00001783	.00000024962
500.7	322.56	.00001899	.00000026586
503.2	373.12	.00002119	.00000029666
505.8	472.1	.00002509	.00000035126
502	572.98	.00002871	.00000040194
700.9	297.05	.00001789	.00000025046
701.2	322.56	.00001904	.00000026656
694.5	373.12	.00002121	.00000029694
703.4	472.1	.00002513	.00000035182
703.4	572.98	.00002868	.00000040152

System: helium; phases: Gas
Property: Viscosity, Pa*s (Gas); method: Vibrating wire viscometry
Pressure, kPa	Temperature, K	Viscosity, Pa*s	uncertainty
100.3	296.26	.00001964	.00000027496
110.1	322.56	.00002084	.00000029176
111.6	373.12	.00002307	.00000032298
111.5	472.08	.00002712	.00000037968
111.1	572.96	.00003107	.00000043498
332.1	296.26	.00001983	.00000027762
306.5	322.56	.00002096	.00000029344
307.1	373.12	.00002314	.00000032396
313.7	472.08	.00002727	.00000038178
309.7	572.96	.00003119	.00000043666
500.3	296.26	.00001979	.00000027706
521.2	322.56	.00002101	.00000029414
504.2	373.12	.00002318	.00000032452
504.9	472.08	.00002725	.0000003815
514.3	572.96	.00003119	.00000043666
716	296.26	.00001982	.00000027748
723	322.56	.000021	.000000294
698.5	373.12	.00002322	.00000032508
717.7	472.08	.00002732	.00000038248
721.7	572.96	.00003123	.00000043722
