Measured thermophysical data. Thermophysical properties of {R-fenchone + ethanol} at several temperatures and pressures
Source: J. Chem. Thermodyn., 2014, 10.1016/j.jct.2013.09.024
Compound 1: ethanol, C2H6O
Compound 2: (-)-fenchone, C10H16O, purity 99.5%

System: ethanol; phases: Liquid
Property: Mass density, kg/m3 (Liquid); method: Vibrating tube method
Temperature, K	Pressure, kPa	Mass density, kg/m3	uncertainty
283.15	101	797.99	.04
298.15	101	785.2	.04
313.15	101	772.15	.04
328.15	101	758.71	.04
283.15	20000	813.3	.5
283.15	25000	816.8	.5
283.15	30000	820.2	.5
283.15	35000	823.4	.5
283.15	40000	826.6	.5
298.15	20000	801.7	.5
298.15	25000	805.4	.5
298.15	30000	809	.5
298.15	35000	812.5	.5
298.15	40000	815.8	.5
313.15	20000	790.1	.5
313.15	25000	794.1	.5
313.15	30000	797.8	.5
313.15	35000	801.5	.5
313.15	40000	805	.5
328.15	20000	778.1	.5
328.15	25000	782.4	.5
328.15	30000	786.4	.5
328.15	35000	790.3	.5
328.15	40000	794.1	.5

System: (-)-fenchone; phases: Liquid
Property: Mass density, kg/m3 (Liquid); method: Vibrating tube method
Temperature, K	Pressure, kPa	Mass density, kg/m3	uncertainty
283.15	101	953.27	.04
298.15	101	940.67	.04
313.15	101	928.04	.04
328.15	101	915.39	.04
283.15	20000	965.6	.5
283.15	25000	968.5	.5
283.15	30000	971.3	.5
283.15	35000	974	.5
283.15	40000	976.6	.5
298.15	20000	954	.5
298.15	25000	957.1	.5
298.15	30000	960	.5
298.15	35000	962.9	.5
298.15	40000	965.7	.5
313.15	20000	942.3	.5
313.15	25000	945.6	.5
313.15	30000	948.7	.5
313.15	35000	951.8	.5
313.15	40000	954.7	.5
328.15	20000	930.8	.5
328.15	25000	934.2	.5
328.15	30000	937.6	.5
328.15	35000	940.9	.5
328.15	40000	944	.5

System: ethanol + (-)-fenchone; phases: Liquid
Fixed: Pressure, kPa = 101
Property: Excess molar enthalpy (molar enthalpy of mixing), kJ/mol (Liquid); method: Flow calorimetry
Temperature, K	Mole fraction of (-)-fenchone	Excess molar enthalpy (molar enthalpy of mixing), kJ/mol	uncertainty
283.15	.048	.175	.00525
283.15	.097	.337	.01011
283.15	.195	.588	.01764
283.15	.286	.768	.02304
283.15	.395	.914	.02742
283.15	.488	.963	.02889
283.15	.601	.96	.0288
283.15	.701	.878	.02634
283.15	.801	.719	.02157
283.15	.894	.437	.01311
283.15	.945	.238	.00714
298.15	.048	.199	.00597
298.15	.097	.382	.01146
298.15	.195	.666	.01998
298.15	.286	.876	.02628
298.15	.395	1.043	.03129
298.15	.488	1.109	.03327
298.15	.601	1.097	.03291
298.15	.701	1	.03
298.15	.801	.807	.02421
298.15	.894	.503	.01509
298.15	.945	.272	.00816
313.15	.048	.221	.00663
313.15	.097	.425	.01275
313.15	.195	.744	.02232
313.15	.286	.977	.02931
313.15	.395	1.163	.03489
313.15	.488	1.242	.03726
313.15	.601	1.219	.03657
313.15	.701	1.105	.03315
313.15	.801	.884	.02652
313.15	.894	.55	.0165
313.15	.945	.297	.00891
328.15	.048	.245	.00735
328.15	.097	.469	.01407
328.15	.195	.821	.02463
328.15	.286	1.08	.0324
328.15	.395	1.282	.03846
328.15	.488	1.365	.04095
328.15	.601	1.332	.03996
328.15	.701	1.198	.03594
328.15	.801	.95	.0285
328.15	.894	.586	.01758
328.15	.945	.318	.00954

System: ethanol + (-)-fenchone; phases: Liquid
Fixed: Pressure, kPa = 101
Property: Mass density, kg/m3 (Liquid); method: Vibrating tube method
Temperature, K	Mole fraction of (-)-fenchone	Mass density, kg/m3	uncertainty
283.15	0	797.99	.04
283.15	.0481	817.48	.04
283.15	.0985	834.96	.04
283.15	.2002	862.89	.04
283.15	.3002	883.74	.04
283.15	.4031	900.59	.04
283.15	.5012	913.56	.04
283.15	.5976	924.09	.04
283.15	.697	933.16	.04
283.15	.7897	940.31	.04
283.15	.899	947.57	.04
283.15	.9486	950.46	.04
283.15	1	953.27	.04
298.15	0	785.2	.04
298.15	.0481	804.6	.04
298.15	.0985	822.02	.04
298.15	.2002	849.9	.04
298.15	.3002	870.72	.04
298.15	.4031	887.59	.04
298.15	.5012	900.59	.04
298.15	.5976	911.15	.04
298.15	.697	920.28	.04
298.15	.7897	927.48	.04
298.15	.899	934.83	.04
298.15	.9486	937.77	.04
298.15	1	940.67	.04
313.15	0	772.15	.04
313.15	.0481	791.46	.04
313.15	.0985	808.84	.04
313.15	.2002	836.65	.04
313.15	.3002	857.52	.04
313.15	.4031	874.42	.04
313.15	.5012	887.46	.04
313.15	.5976	898.09	.04
313.15	.697	907.3	.04
313.15	.7897	914.58	.04
313.15	.899	922.06	.04
313.15	.9486	925.06	.04
313.15	1	928.04	.04
328.15	0	758.71	.04
328.15	.0481	777.95	.04
328.15	.0985	795.29	.04
328.15	.2002	823.07	.04
328.15	.3002	844.02	.04
328.15	.4031	861.01	.04
328.15	.5012	874.13	.04
328.15	.5976	884.87	.04
328.15	.697	894.19	.04
328.15	.7897	901.6	.04
328.15	.899	909.23	.04
328.15	.9486	912.33	.04
328.15	1	915.39	.04

System: ethanol + (-)-fenchone; phases: Liquid
Property: Mass density, kg/m3 (Liquid); method: Vibrating tube method
Temperature, K	Pressure, kPa	Mole fraction of (-)-fenchone	Mass density, kg/m3	uncertainty
283.15	20000	0	813.3	.5
283.15	20000	.051	833.5	.5
283.15	20000	.0992	849.7	.5
283.15	20000	.199	876.6	.5
283.15	20000	.301	897.5	.5
283.15	20000	.3968	913	.5
283.15	20000	.4976	926.2	.5
283.15	20000	.5924	936.5	.5
283.15	20000	.6956	945.8	.5
283.15	20000	.7942	953.4	.5
283.15	20000	.8929	959.7	.5
283.15	20000	.9454	962.8	.5
283.15	20000	1	965.6	.5
283.15	25000	0	816.8	.5
283.15	25000	.051	837	.5
283.15	25000	.0992	853.1	.5
283.15	25000	.199	879.9	.5
283.15	25000	.301	900.6	.5
283.15	25000	.3968	916.1	.5
283.15	25000	.4976	929.2	.5
283.15	25000	.5924	939.4	.5
283.15	25000	.6956	948.7	.5
283.15	25000	.7942	956.3	.5
283.15	25000	.8929	962.6	.5
283.15	25000	.9454	965.7	.5
283.15	25000	1	968.5	.5
283.15	30000	0	820.2	.5
283.15	30000	.051	840.3	.5
283.15	30000	.0992	856.3	.5
283.15	30000	.199	883	.5
283.15	30000	.301	903.7	.5
283.15	30000	.3968	919.1	.5
283.15	30000	.4976	932.2	.5
283.15	30000	.5924	942.3	.5
283.15	30000	.6956	951.6	.5
283.15	30000	.7942	959.1	.5
283.15	30000	.8929	965.5	.5
283.15	30000	.9454	968.5	.5
283.15	30000	1	971.3	.5
283.15	35000	0	823.4	.5
283.15	35000	.051	843.4	.5
283.15	35000	.0992	859.4	.5
283.15	35000	.199	886	.5
283.15	35000	.301	906.6	.5
283.15	35000	.3968	922	.5
283.15	35000	.4976	935	.5
283.15	35000	.5924	945.2	.5
283.15	35000	.6956	954.4	.5
283.15	35000	.7942	961.9	.5
283.15	35000	.8929	968.2	.5
283.15	35000	.9454	971.2	.5
283.15	35000	1	974	.5
283.15	40000	0	826.6	.5
283.15	40000	.051	846.5	.5
283.15	40000	.0992	862.5	.5
283.15	40000	.199	889	.5
283.15	40000	.301	909.5	.5
283.15	40000	.3968	924.8	.5
283.15	40000	.4976	937.8	.5
283.15	40000	.5924	947.9	.5
283.15	40000	.6956	957.1	.5
283.15	40000	.7942	964.6	.5
283.15	40000	.8929	970.9	.5
283.15	40000	.9454	973.8	.5
283.15	40000	1	976.6	.5
298.15	20000	0	801.7	.5
298.15	20000	.051	822	.5
298.15	20000	.0992	838	.5
298.15	20000	.199	864.9	.5
298.15	20000	.301	885.7	.5
298.15	20000	.3968	901.1	.5
298.15	20000	.4976	914.3	.5
298.15	20000	.5924	924.6	.5
298.15	20000	.6956	934	.5
298.15	20000	.7942	941.6	.5
298.15	20000	.8929	948.1	.5
298.15	20000	.9454	951.2	.5
298.15	20000	1	954	.5
298.15	25000	0	805.4	.5
298.15	25000	.051	825.6	.5
298.15	25000	.0992	841.6	.5
298.15	25000	.199	868.3	.5
298.15	25000	.301	889.1	.5
298.15	25000	.3968	904.4	.5
298.15	25000	.4976	917.6	.5
298.15	25000	.5924	927.8	.5
298.15	25000	.6956	937.1	.5
298.15	25000	.7942	944.7	.5
298.15	25000	.8929	951.1	.5
298.15	25000	.9454	954.2	.5
298.15	25000	1	957.1	.5
298.15	30000	0	809	.5
298.15	30000	.051	829.1	.5
298.15	30000	.0992	845	.5
298.15	30000	.199	871.7	.5
298.15	30000	.301	892.3	.5
298.15	30000	.3968	907.6	.5
298.15	30000	.4976	920.7	.5
298.15	30000	.5924	930.9	.5
298.15	30000	.6956	940.2	.5
298.15	30000	.7942	947.7	.5
298.15	30000	.8929	954.1	.5
298.15	30000	.9454	957.2	.5
298.15	30000	1	960	.5
298.15	35000	0	812.5	.5
298.15	35000	.051	832.5	.5
298.15	35000	.0992	848.3	.5
298.15	35000	.199	874.8	.5
298.15	35000	.301	895.4	.5
298.15	35000	.3968	910.6	.5
298.15	35000	.4976	923.7	.5
298.15	35000	.5924	933.9	.5
298.15	35000	.6956	943.2	.5
298.15	35000	.7942	950.6	.5
298.15	35000	.8929	957	.5
298.15	35000	.9454	960.1	.5
298.15	35000	1	962.9	.5
298.15	40000	0	815.8	.5
298.15	40000	.051	835.7	.5
298.15	40000	.0992	851.5	.5
298.15	40000	.199	877.9	.5
298.15	40000	.301	898.4	.5
298.15	40000	.3968	913.6	.5
298.15	40000	.4976	926.7	.5
298.15	40000	.5924	936.7	.5
298.15	40000	.6956	946	.5
298.15	40000	.7942	953.5	.5
298.15	40000	.8929	959.8	.5
298.15	40000	.9454	962.9	.5
298.15	40000	1	965.7	.5
313.15	20000	0	790.1	.5
313.15	20000	.051	810.1	.5
313.15	20000	.0992	826.1	.5
313.15	20000	.199	852.8	.5
313.15	20000	.301	873.6	.5
313.15	20000	.3968	889.1	.5
313.15	20000	.4976	902.4	.5
313.15	20000	.5924	912.6	.5
313.15	20000	.6956	922	.5
313.15	20000	.7942	929.7	.5
313.15	20000	.8929	936.3	.5
313.15	20000	.9454	939.4	.5
313.15	20000	1	942.3	.5
313.15	25000	0	794.1	.5
313.15	25000	.051	814	.5
313.15	25000	.0992	829.9	.5
313.15	25000	.199	856.5	.5
313.15	25000	.301	877.2	.5
313.15	25000	.3968	892.6	.5
313.15	25000	.4976	905.9	.5
313.15	25000	.5924	916	.5
313.15	25000	.6956	925.3	.5
313.15	25000	.7942	933	.5
313.15	25000	.8929	939.6	.5
313.15	25000	.9454	942.7	.5
313.15	25000	1	945.6	.5
313.15	30000	0	797.8	.5
313.15	30000	.051	817.7	.5
313.15	30000	.0992	833.6	.5
313.15	30000	.199	860	.5
313.15	30000	.301	880.6	.5
313.15	30000	.3968	895.9	.5
313.15	30000	.4976	909.2	.5
313.15	30000	.5924	919.2	.5
313.15	30000	.6956	928.5	.5
313.15	30000	.7942	936.1	.5
313.15	30000	.8929	942.7	.5
313.15	30000	.9454	945.8	.5
313.15	30000	1	948.7	.5
313.15	35000	0	801.5	.5
313.15	35000	.051	821.3	.5
313.15	35000	.0992	837.1	.5
313.15	35000	.199	863.5	.5
313.15	35000	.301	883.9	.5
313.15	35000	.3968	899.2	.5
313.15	35000	.4976	912.4	.5
313.15	35000	.5924	922.5	.5
313.15	35000	.6956	931.7	.5
313.15	35000	.7942	939.3	.5
313.15	35000	.8929	945.8	.5
313.15	35000	.9454	948.9	.5
313.15	35000	1	951.8	.5
313.15	40000	0	805	.5
313.15	40000	.051	824.8	.5
313.15	40000	.0992	840.5	.5
313.15	40000	.199	866.8	.5
313.15	40000	.301	887.1	.5
313.15	40000	.3968	902.4	.5
313.15	40000	.4976	915.5	.5
313.15	40000	.5924	925.5	.5
313.15	40000	.6956	934.7	.5
313.15	40000	.7942	942.3	.5
313.15	40000	.8929	948.8	.5
313.15	40000	.9454	951.9	.5
313.15	40000	1	954.7	.5
328.15	20000	0	778.1	.5
328.15	20000	.051	798	.5
328.15	20000	.0992	813.9	.5
328.15	20000	.199	840.6	.5
328.15	20000	.301	861.4	.5
328.15	20000	.3968	876.8	.5
328.15	20000	.4976	890.1	.5
328.15	20000	.5924	900.5	.5
328.15	20000	.6956	910.1	.5
328.15	20000	.7942	917.8	.5
328.15	20000	.8929	924.4	.5
328.15	20000	.9454	927.7	.5
328.15	20000	1	930.8	.5
328.15	25000	0	782.4	.5
328.15	25000	.051	802.1	.5
328.15	25000	.0992	818	.5
328.15	25000	.199	844.6	.5
328.15	25000	.301	865.3	.5
328.15	25000	.3968	880.6	.5
328.15	25000	.4976	893.7	.5
328.15	25000	.5924	904.1	.5
328.15	25000	.6956	913.7	.5
328.15	25000	.7942	921.3	.5
328.15	25000	.8929	927.9	.5
328.15	25000	.9454	931.2	.5
328.15	25000	1	934.2	.5
328.15	30000	0	786.4	.5
328.15	30000	.051	806.1	.5
328.15	30000	.0992	821.9	.5
328.15	30000	.199	848.3	.5
328.15	30000	.301	869	.5
328.15	30000	.3968	884.2	.5
328.15	30000	.4976	897.3	.5
328.15	30000	.5924	907.7	.5
328.15	30000	.6956	917.2	.5
328.15	30000	.7942	924.8	.5
328.15	30000	.8929	931.4	.5
328.15	30000	.9454	934.5	.5
328.15	30000	1	937.6	.5
328.15	35000	0	790.3	.5
328.15	35000	.051	810	.5
328.15	35000	.0992	825.7	.5
328.15	35000	.199	852	.5
328.15	35000	.301	872.5	.5
328.15	35000	.3968	887.7	.5
328.15	35000	.4976	900.8	.5
328.15	35000	.5924	911.1	.5
328.15	35000	.6956	920.6	.5
328.15	35000	.7942	928.1	.5
328.15	35000	.8929	934.7	.5
328.15	35000	.9454	937.8	.5
328.15	35000	1	940.9	.5
328.15	40000	0	794.1	.5
328.15	40000	.051	813.7	.5
328.15	40000	.0992	829.3	.5
328.15	40000	.199	855.5	.5
328.15	40000	.301	876	.5
328.15	40000	.3968	891.1	.5
328.15	40000	.4976	904.2	.5
328.15	40000	.5924	914.4	.5
328.15	40000	.6956	923.8	.5
328.15	40000	.7942	931.4	.5
328.15	40000	.8929	937.8	.5
328.15	40000	.9454	941	.5
328.15	40000	1	944	.5
