Measured thermophysical data. Phase equilibria of the systems of CsCl + HoCl3 + H2O and CsCl + HoCl3 + HCl (~10%) + H2O at T = 298.15 K and the thermodynamic and fluorescent properties of the new solid-phase compounds
Source: J. Chem. Thermodyn., 2016, 10.1016/j.jct.2016.02.023
Compound 1: cesium chloride, ClCs, purity 99.5%
Compound 2: holmium chloride, Cl3Ho, purity 99.99%
Compound 3: pentacesium holmium(III) chloride tetrahydrate, Cl8Cs5H8HoO4, purity 99.4%
Compound 4: dicesium holmium(III) chloride hexahydrate, Cl5Cs2H12HoO6, purity 99.5%
Compound 5: water, H2O, purity 99.9%
Compound 6: hydrogen chloride, ClH, purity 98%

System: cesium chloride + water + holmium chloride; phases: Liquid, Crystal
Fixed: Temperature, K = 298.15
Fixed: Pressure, kPa = 100
Property: Mass fraction of holmium chloride (Liquid); method: Titration method
Mass fraction of cesium chloride	Mass fraction of holmium chloride	uncertainty
.5744	.0779	
.514	.1464	
.4564	.2153	
.4272	.2662	
.4175	.2789	
.4197	.2786	

System: cesium chloride + water + holmium chloride; phases: Liquid, Crystal of intercomponent compound 1
Fixed: Temperature, K = 298.15
Fixed: Pressure, kPa = 100
Property: Mass fraction of holmium chloride (Liquid); method: Titration method
Mass fraction of cesium chloride	Mass fraction of holmium chloride	uncertainty
.4175	.2789	
.4197	.2786	
.3704	.3118	
.3453	.3277	
.3195	.3412	
.2972	.3561	
.2704	.3729	
.1923	.4219	
.197	.4208	
.1994	.4203	

System: cesium chloride + water + holmium chloride; phases: Liquid, Crystal of intercomponent compound 2
Fixed: Temperature, K = 298.15
Fixed: Pressure, kPa = 100
Property: Mass fraction of holmium chloride (Liquid); method: Titration method
Mass fraction of cesium chloride	Mass fraction of holmium chloride	uncertainty
.1923	.4219	
.197	.4208	
.1994	.4203	
.1641	.4317	
.0897	.4642	
0	.5015	

System: cesium chloride + water + holmium chloride; phases: Liquid, Crystal of intercomponent compound 1, Crystal
Fixed: Temperature, K = 298.15
Property: Mass fraction of cesium chloride (Liquid); method: Gravimetric method
Pressure, kPa	Mass fraction of cesium chloride	uncertainty
100	.4186	

System: cesium chloride + water + holmium chloride; phases: Liquid, Crystal of intercomponent compound 2, Crystal of intercomponent compound 1
Fixed: Temperature, K = 298.15
Property: Mass fraction of cesium chloride (Liquid); method: Gravimetric method
Pressure, kPa	Mass fraction of cesium chloride	uncertainty
100	.1962	

System: cesium chloride + water + holmium chloride; phases: Liquid, Crystal, Crystal of intercomponent compound 1
Fixed: Temperature, K = 298.15
Property: Mass fraction of holmium chloride (Liquid); method: Titration method
Pressure, kPa	Mass fraction of holmium chloride	uncertainty
100	.2787	

System: cesium chloride + water + holmium chloride; phases: Liquid, Crystal of intercomponent compound 1, Crystal of intercomponent compound 2
Fixed: Temperature, K = 298.15
Property: Mass fraction of holmium chloride (Liquid); method: Titration method
Pressure, kPa	Mass fraction of holmium chloride	uncertainty
100	.421	

System: pentacesium holmium(III) chloride tetrahydrate + water; phases: Liquid
Fixed: Temperature, K = 298.15
Fixed: Pressure, kPa = 100
Property: Molar enthalpy of solution, kJ/mol (Liquid); method: Power-compensation calorimetry
Mole fraction of pentacesium holmium(III) chloride tetrahydrate	Molar enthalpy of solution, kJ/mol	uncertainty
0	53.09	

System: dicesium holmium(III) chloride hexahydrate + water; phases: Liquid
Fixed: Temperature, K = 298.15
Fixed: Pressure, kPa = 100
Property: Molar enthalpy of solution, kJ/mol (Liquid); method: Power-compensation calorimetry
Mole fraction of dicesium holmium(III) chloride hexahydrate	Molar enthalpy of solution, kJ/mol	uncertainty
0	4.26	

System: water + holmium chloride; phases: Liquid, Crystal of intercomponent compound 1
Property: Mass fraction of holmium chloride (Liquid); method: Titration method
Temperature, K	Pressure, kPa	Mass fraction of holmium chloride	uncertainty
298.15	100	.5015	

System: hydrogen chloride + cesium chloride + water; phases: Liquid, Crystal
Fixed: Temperature, K = 298.15
Fixed: Pressure, kPa = 100
Property: Mass fraction of cesium chloride (Liquid); method: Gravimetric method
Mass fraction of hydrogen chloride	Mass fraction of cesium chloride	uncertainty
.1045	.4835	

System: hydrogen chloride + water + holmium chloride; phases: Liquid, Crystal of intercomponent compound 1
Fixed: Temperature, K = 298.15
Fixed: Pressure, kPa = 100
Property: Mass fraction of holmium chloride (Liquid); method: Titration method
Mass fraction of hydrogen chloride	Mass fraction of holmium chloride	uncertainty
.1145	.2991	
