Measured thermophysical data. Thermodynamic properties of 9-fluorenone: Mutual validation of experimental  and computational results
Source: J. Chem. Thermodyn., 2012, 10.1016/j.jct.2012.05.003
Compound 1: 9(9H)-fluorenone, C13H8O
Compound 2: carbon dioxide, CO2
Compound 3: water, H2O
Compound 4: oxygen, O2

System: 9(9H)-fluorenone; phases: Crystal, Liquid, Gas
Property: Triple point temperature, K (Crystal); method: Adiabatic calorimetry
Triple point temperature, K	uncertainty
356.524	.01

System: 9(9H)-fluorenone; phases: Crystal, Liquid, Gas
Property: Molar enthalpy of transition or fusion, kJ/mol (Crystal); method: Adiabatic calorimetry
Molar enthalpy of transition or fusion, kJ/mol	uncertainty
16.36	.01636

System: 9(9H)-fluorenone; phases: Crystal, Gas
Property: Molar heat capacity at saturation pressure, J/K/mol (Crystal); method: Vacuum adiabatic calorimetry
Temperature, K	Molar heat capacity at saturation pressure, J/K/mol	uncertainty
4.566	.4572954155	24.9433863
5.528	.7732449753	24.9433863
6.434	1.2222259287	24.9433863
7.474	1.8790684346	24.9433863
8.581	2.7105146446	24.9433863
9.685	3.7082500966	24.9433863
10.845	4.8722747906	4.15723105
12.11	6.2607899613	4.15723105
13.436	7.8571666845	4.15723105
14.969	9.6780338844	4.15723105
16.654	11.8231651062	4.15723105
18.489	14.1512144942	4.15723105
20.445	16.5540940411	4.15723105
22.621	19.2646086857	4.15723105
25.079	22.1912993449	4.15723105
27.785	25.3424804808	4.15723105
30.742	28.6350074724	.83144621
33.977	32.0522513955	.83144621
37.55	35.6108411743	.83144621
41.587	39.4022358919	.83144621
46.133	43.4513789346	.83144621
51.201	47.8497293855	.83144621
56.873	52.1981930638	.83144621
56.898	52.1815641396	.83144621
62.55	56.0893613266	.83144621
62.623	56.1641914855	.83144621
68.696	60.2964791492	.83144621
72.846	62.9571070212	.83144621
75.631	64.7364019106	.83144621
83.161	69.3758717624	.83144621
84.196	70.0160853441	.83144621
91.528	74.3229767119	.83144621
92.547	74.8634167484	.83144621
100.596	79.4613142897	.83144621
101.731	80.1597291061	.83144621
109.968	84.80751342	.83144621
119.464	90.0955113156	.83144621
129.351	95.7659744678	.83144621
139.363	101.5278967031	.83144621
149.345	107.422850332	.83144621
159.358	113.3344328851	.83144621
169.387	119.4039902181	.83144621
179.422	125.5234343237	.83144621
189.436	131.9338846028	.83144621
199.452	138.2778191851	.83144621
209.466	144.9293888651	.83144621
219.379	151.4811849999	.83144621
229.397	158.1660125283	.83144621
239.485	164.9173557535	.83144621
249.555	172.0345353111	.83144621
259.556	178.9105954678	.83144621
269.556	185.8365423971	.83144621
279.574	192.9204641063	.83144621
289.322	199.6385494831	.83144621
296.083	204.1449879413	.83144621
299.289	206.6808988818	.83144621
305.502	210.8713877802	.83144621
308.471	212.7421417527	.83144621
309.21	213.3657264102	.83144621
315.699	218.2130578145	.83144621
316.588	218.8865292446	.83144621
324.754	224.4904767	.83144621
325.298	224.823055184	.83144621
332.947	230.0362229207	.83144621
335.336	231.7490021133	.83144621
341.173	235.8314030044	.83144621
345.337	238.8495527467	.83144621
349.406	242.5245449949	.83144621

System: 9(9H)-fluorenone; phases: Liquid, Gas
Property: Molar heat capacity at saturation pressure, J/K/mol (Liquid); method: Vacuum adiabatic calorimetry
Temperature, K	Molar heat capacity at saturation pressure, J/K/mol	uncertainty
340.051	282.8247427936	.83144621
349.26	286.9986027678	.83144621
359.506	291.8209907858	.83144621
363.97	293.7333170688	.83144621
364.321	293.7832038414	.83144621
367.031	295.0054297701	.83144621
373.927	298.2646989133	.83144621
386.077	303.7522438993	.83144621
398.346	309.3063045821	.83144621
410.739	314.7772206439	.83144621
423.256	320.3728536372	.83144621
435.502	325.6941093812	.83144621
447.886	331.0070506631	.83144621
460.144	336.1204448546	.83144621
472.542	341.2504679703	.83144621
477.161	343.137850867	.83144621
487.828	347.3200253033	.83144621
490.733	348.6420247772	.83144621
499.621	352.1590422455	.83144621
505.436	354.6783242618	.83144621
509.992	356.2081852882	.83144621
518.819	359.9912655437	.83144621
519.256	360.182498172	.83144621

System: 9(9H)-fluorenone; phases: Crystal, Gas
Property: Molar heat capacity at saturation pressure, J/K/mol (Crystal); method: Vacuum adiabatic calorimetry
Temperature, K	Molar heat capacity at saturation pressure, J/K/mol	uncertainty
5	.5986412712	24.9433863
10	4.0158851943	4.15723105
20	16.0136540046	4.15723105
30	27.8201901866	.83144621
40	37.9388905623	.83144621
50	46.8270505472	.83144621
60	54.3848965961	.83144621
70	61.1445542834	.83144621
80	67.4552310173	.83144621
90	73.4333292672	.83144621
100	79.1370502678	.83144621
120	90.4114608754	.83144621
140	101.9103619597	.83144621
160	113.7252126038	.83144621
180	125.9058995803	.83144621
200	138.6519699796	.83144621
220	151.905222567	.83144621
240	165.2998210101	.83144621
260	179.2265450276	.83144621
280	193.0950678104	.83144621
298.15	205.8161948234	.83144621
300	207.113250911	.83144621
320	221.0067170801	.83144621
340	235.1828749606	.83144621
356.524	247.8624296631	.83144621

System: 9(9H)-fluorenone; phases: Crystal
Fixed: Pressure, kPa = 101.325
Property: Molar entropy, J/K/mol (Crystal); method: Vacuum adiabatic calorimetry
Temperature, K	Molar entropy, J/K/mol	uncertainty
5	.1995470904	24.9433863
10	1.4716597917	4.15723105
20	7.8072799119	4.15723105
30	16.5873518895	.83144621
40	26.0159519109	.83144621
50	35.4445519323	.83144621
60	44.6819193254	.83144621
70	53.5700793103	.83144621
80	62.1506041975	.83144621
90	70.4484373733	.83144621
100	78.4802077619	.83144621
120	93.9118494195	.83144621
140	108.7032774954	.83144621
160	123.0789824663	.83144621
180	137.1803101879	.83144621
200	151.0987197433	.83144621
220	164.9339846777	.83144621
240	178.7276773016	.83144621
260	192.5130554634	.83144621
280	206.2984336252	.83144621
298.15	218.8200135478	.83144621
300	220.1004407112	.83144621
320	233.9107622593	.83144621
340	247.7293982695	.83144621
356.524	259.1867270433	.83144621

System: 9(9H)-fluorenone; phases: Crystal
Fixed: Pressure, kPa = 101.325
Property: Molar enthalpy function {Hm(T)-Hm(0)}/T, J/K/mol (Crystal); method: Vacuum adiabatic calorimetry
Temperature, K	Molar enthalpy function {Hm(T)-Hm(0)}/T, J/K/mol	uncertainty
5	.1496603178	24.9433863
10	1.0891945351	4.15723105
20	5.4626015997	4.15723105
30	10.9917188962	.83144621
40	16.4958928064	.83144621
50	21.6841171568	.83144621
60	26.5314485611	.83144621
70	30.9963147088	.83144621
80	35.1618602209	.83144621
90	39.0862863321	.83144621
100	42.8028508908	.83144621
120	49.803627979	.83144621
140	56.4219398106	.83144621
160	62.8490190139	.83144621
180	69.1680102099	.83144621
200	75.4786869438	.83144621
220	81.8226215261	.83144621
240	88.2247573431	.83144621
260	94.6850943948	.83144621
280	101.2202616054	.83144621
298.15	107.1983598553	.83144621
300	107.8136300507	.83144621
320	114.4568852686	.83144621
340	121.1333983349	.83144621
356.524	126.712402404	.83144621

System: 9(9H)-fluorenone; phases: Liquid, Gas
Property: Molar heat capacity at saturation pressure, J/K/mol (Liquid); method: Vacuum adiabatic calorimetry
Temperature, K	Molar heat capacity at saturation pressure, J/K/mol	uncertainty
356.524	290.3992177667	.83144621
360	291.9706511036	.83144621
380	301.0084714063	.83144621
400	310.0379772469	.83144621
420	318.9178227697	.83144621
440	327.6480079747	.83144621
460	336.070558082	.83144621
480	344.21873094	.83144621
500	352.283759177	.83144621
520	360.4651898834	.83144621

System: 9(9H)-fluorenone; phases: Liquid
Fixed: Pressure, kPa = 101.325
Property: Molar entropy, J/K/mol (Liquid); method: Vacuum adiabatic calorimetry
Temperature, K	Molar entropy, J/K/mol	uncertainty
356.524	305.0742433732	.83144621
360	307.8928460251	.83144621
380	323.9231289539	.83144621
400	339.5958900124	.83144621
420	354.9360725869	.83144621
440	369.9769345258	.83144621
460	384.7267902912	.83144621
480	399.2022688073	.83144621
500	413.4199989983	.83144621
520	427.3882953263	.83144621

System: 9(9H)-fluorenone; phases: Liquid
Fixed: Pressure, kPa = 101.325
Property: Molar enthalpy function {Hm(T)-Hm(0)}/T, J/K/mol (Liquid); method: Vacuum adiabatic calorimetry
Temperature, K	Molar enthalpy function {Hm(T)-Hm(0)}/T, J/K/mol	uncertainty
356.524	172.5999187339	.83144621
360	173.7390000416	.83144621
380	180.1993370933	.83144621
400	186.4684415167	.83144621
420	192.562942236	.83144621
440	198.5077826375	.83144621
460	204.3029627212	.83144621
480	209.9651114113	.83144621
500	215.5025431699	.83144621
520	220.915257997	.83144621

System: 9(9H)-fluorenone; phases: Liquid, Gas
Property: Vapor or sublimation pressure, kPa (Liquid); method: Inclined piston gauge
Temperature, K	Vapor or sublimation pressure, kPa	uncertainty
368.125	.0161	.0004
378.124	.0308	.0004
388.122	.0562	.0004
398.12	.0987	.0004
408.117	.1672	.0004
418.115	.2744	.0004
428.113	.4382	.0006
438.113	.6825	.0006
448.112	1.0376	.0008
458.111	1.5437	.0008
468.111	2.2497	.001
478.11	3.2163	.0014
483.11	3.8206	.0016

System: 9(9H)-fluorenone; phases: Liquid, Gas
Property: Vapor or sublimation pressure, kPa (Liquid); method: Twin ebulliometer
Temperature, K	Vapor or sublimation pressure, kPa	uncertainty
464.96	2.0002	.0006
472.822	2.6663	.0006
493.202	5.3335	.0012
506.159	7.9994	.0016
515.858	10.666	.002
523.704	13.332	.002
531.857	16.665	.003
538.622	19.932	.003
547.526	25.021	.004
538.616	19.93	.004
547.521	25.02	.005
556.483	31.174	.006
565.494	38.561	.007
574.557	47.371	.009
583.672	57.812	.01
592.845	70.114	.012
602.068	84.526	.014
611.341	101.32	.02
620.667	120.78	.02
630.047	143.23	.02
639.472	169	.03
648.954	198.46	.03
658.48	231.99	.03
668.067	269.98	.04

Reaction: -1 9(9H)-fluorenone + 13 carbon dioxide + 4 water + -14.5 oxygen
Property: Specific internal energy of reaction at constant volume, J/g
-34680.5
