Measured thermophysical data. Polymorphism and thermodynamic functions of liquid crystalline material 4-cyano-3-fluorophenyl 4-butylbenzoate
Source: J. Chem. Thermodyn., 2012, 10.1016/j.jct.2012.03.031
Compound 1: 4-cyano-3-fluorophenyl 4-butylbenzoate, C18H16FNO2, purity 99.27%

System: 4-cyano-3-fluorophenyl 4-butylbenzoate; phases: Crystal 1, Liquid, Air at 1 atmosphere
Property: Triple point temperature, K (Crystal 1); method: Visual observation
Triple point temperature, K	uncertainty
288.43	.01

System: 4-cyano-3-fluorophenyl 4-butylbenzoate; phases: Crystal 2
Fixed: Pressure, kPa = 101.325
Property: Molar heat capacity at constant pressure, J/K/mol (Crystal 2); method: Small (less than 1 g) adiabatic calorimetry
Temperature, K	Molar heat capacity at constant pressure, J/K/mol	uncertainty
5.052	1.482	.004446
5.722	2.06	.00618
6.538	2.901	.008703
7.413	3.946	.011838
8.284	5.139	.015417
9.21	6.549	.019647
10.232	8.254	.024762
11.242	10.074	.030222
12.283	12.045	.036135
13.394	14.275	.042825
14.706	17	.051
16.196	20.27	.06081
17.727	23.69	.07107
19.395	27.53	.08259
21.11	31.48	.09444
22.827	35.46	.10638
24.528	39.3	.1179
26.203	43.02	.12906
27.888	47.05	.14115
29.582	50.91	.15273
31.27	54.58	.16374
32.731	57.73	.17319
34.083	60.65	.18195
35.579	63.81	.19143
37.108	67	.201
38.66	70.19	.21057
40.1	72.86	.21858
41.444	75.41	.22623
42.836	78.05	.23415
44.266	80.76	.24228
45.761	83.54	.25062
47.312	86.36	.25908
48.883	89.17	.26751
50.47	91.97	.27591
52.071	94.74	.28422
53.685	97.39	.29217
55.309	100.11	.30033
56.943	102.73	.30819
58.586	105.37	.31611
60.237	108.04	.32412
61.897	110.62	.33186
63.566	113.15	.33945
65.242	115.68	.34704
66.927	118.1	.3543
68.62	120.58	.36174
70.321	123.03	.36909
72.105	125.5	.3765
74.049	128.27	.38481
76.075	131.11	.39333
78.104	133.74	.40122
80.136	136.53	.40959
82.173	139.24	.41772
84.216	141.95	.42585
86.265	144.59	.43377
88.321	147.21	.44163
90.384	149.91	.44973
92.456	152.54	.45762
94.535	155.21	.46563
96.623	157.81	.47343
98.72	160.47	.48141
100.827	163.07	.48921
102.943	165.76	.49728
105.069	168.36	.50508
107.207	170.99	.51297
109.355	173.6	.5208
111.514	176.31	.52893
113.684	178.98	.53694
115.866	181.77	.54531
118.059	184.44	.55332
120.265	187.2	.5616
122.482	189.96	.56988
124.711	192.76	.57828
126.951	195.55	.58665
129.203	198.34	.59502
131.467	201.3	.6039
133.743	204.25	.61275
136.032	207.21	.62163
138.332	210.2	.6306
140.643	213.3	.6399
142.966	216.4	.6492
145.3	219.62	.65886
147.647	221.78	.66534
150.004	226.25	.67875
152.371	229.33	.68799
154.75	232.46	.69738
157.141	235.73	.70719
159.544	238.88	.71664
161.96	242.01	.72603
164.388	245.1	.7353
166.829	248.12	.74436
169.282	251.2	.7536
171.749	254.25	.76275
174.229	257.27	.77181
176.721	260.38	.78114
179.226	263.65	.79095
181.743	266.86	.80058
184.273	270.08	.81024
186.816	273.41	.82023
189.372	276.6	.8298
191.94	279.67	.83901
194.523	282.72	.84816
197.118	285.61	.85683
199.726	288.75	.86625
202.347	291.75	.87525
204.982	294.58	.88374
207.63	297.45	.89235
210.291	300.38	.90114
212.965	303.2	.9096
215.653	306.03	.91809
218.354	308.99	.92697
221.068	311.55	.93465
223.796	314.36	.94308
226.537	317.16	.95148
229.29	320.04	.96012
232.057	322.55	.96765
234.836	325.57	.97671
237.626	328.79	.98637
240.426	332.92	.99876
243.238	336.05	1.00815

System: 4-cyano-3-fluorophenyl 4-butylbenzoate; phases: Crystal 1
Fixed: Pressure, kPa = 101.325
Property: Molar heat capacity at constant pressure, J/K/mol (Crystal 1); method: Small (less than 1 g) adiabatic calorimetry
Temperature, K	Molar heat capacity at constant pressure, J/K/mol	uncertainty
5.07	1.127	.003381
5.747	1.591	.004773
6.573	2.293	.006879
7.456	3.2	.0096
8.384	4.319	.012957
9.353	5.638	.016914
10.307	7.064	.021192
11.263	8.608	.025824
12.227	10.254	.030762
13.238	12.074	.036222
14.324	14.112	.042336
15.466	16.317	.048951
16.762	18.951	.056853
18.401	22.4	.0672
20.069	25.94	.07782
21.528	29.12	.08736
23.05	32.44	.09732
24.67	35.93	.10779
26.337	39.52	.11856
27.956	43.27	.12981
29.493	46.73	.14019
30.971	49.89	.14967
32.252	52.59	.15777
33.421	55.02	.16506
34.661	57.7	.1731
35.956	60.42	.18126
37.292	63.17	.18951
38.661	65.91	.19773
40.053	68.62	.20586
41.464	71.35	.21405
42.889	74.07	.22221
44.325	76.76	.23028
45.769	79.44	.23832
47.219	82.08	.24624
48.674	84.74	.25422
50.133	87.32	.26196
51.596	89.81	.26943
53.063	92.27	.27681
54.532	94.7	.2841
56.005	97.07	.29121
57.48	99.44	.29832
58.958	101.75	.30525
60.44	104.07	.31221
61.925	106.31	.31893
63.414	108.62	.32586
64.908	110.74	.33222
66.405	112.9	.3387
67.907	115.02	.34506
69.413	117.19	.35157
70.924	119.27	.35781
72.44	121.32	.36396
73.962	123.47	.37041
75.488	125.48	.37644
77.021	127.52	.38256
78.559	129.55	.38865
80.103	131.58	.39474
81.654	133.56	.40068
83.21	135.55	.40665
84.773	137.59	.41277
86.343	139.51	.41853
87.92	141.49	.42447
89.504	143.41	.43023
91.096	145.38	.43614
92.694	147.26	.44178
94.3	149.22	.44766
95.914	151.12	.45336
97.535	153.02	.45906
99.165	154.93	.46479
100.802	156.84	.47052
102.448	158.74	.47622
104.102	160.69	.48207
105.764	162.57	.48771
107.434	164.48	.49344
109.112	166.36	.49908
110.799	168.33	.50499
112.496	170.17	.51051
114.2	172.16	.51648
115.913	174.07	.52221
117.635	175.95	.52785
119.365	177.93	.53379
121.104	179.82	.53946
122.851	181.85	.54555
124.607	182.88	.54864
126.371	185.75	.55725
128.144	187.6	.5628
129.925	189.59	.56877
131.715	191.62	.57486
133.514	193.32	.57996
135.403	195.42	.58626
137.368	197.54	.59262
139.316	199.71	.59913
141.246	201.94	.60582
143.16	203.97	.61191
145.058	206.05	.61815
146.94	208.17	.62451
148.809	210.18	.63054
150.662	212.24	.63672
152.502	214.29	.64287
154.329	216.32	.64896
156.143	218.31	.65493
157.945	220.33	.66099
159.735	222.37	.66711
161.514	224.35	.67305
163.281	226.23	.67869
164.864	227.97	.68391
166.267	229.58	.68874
167.662	231.21	.69363
169.052	232.8	.6984
170.435	234.45	.70335
171.811	235.91	.70773
173.182	237.49	.71247
174.547	239.04	.71712
175.906	240.69	.72207
177.259	242.06	.72618
178.606	243.74	.73122
179.948	245.46	.73638
181.285	246.9	.7407
182.617	248.29	.74487
183.943	249.95	.74985
185.265	251.54	.75462
186.581	253	.759
187.893	254.44	.76332
189.2	256.01	.76803
190.502	257.62	.77286
191.799	259.15	.77745
193.092	260.81	.78243
194.381	262.195	.786585
195.666	263.756	.791268
196.945	265.241	.795723
198.22	266.885	.800655
199.49	268.586	.805758
200.756	270.112	.810336
202.017	271.805	.815415
203.273	273.358	.820074
204.526	275.01	.82503
205.774	276.69	.83007
207.017	278.34	.83502
208.257	279.95	.83985
209.493	281.68	.84504
210.725	283.2	.8496
211.952	284.9	.8547
213.177	286.42	.85926
214.397	288	.864
215.615	289.65	.86895
216.828	291.26	.87378
218.037	292.84	.87852
219.244	294.47	.88341
220.446	296.21	.88863
221.645	297.64	.89292
222.841	299.23	.89769
224.033	300.76	.90228
225.222	302.28	.90684
226.407	303.96	.91188
227.589	305.68	.91704
228.768	307.52	.92256
229.943	309.12	.92736
231.116	310.59	.93177
232.285	312.29	.93687
233.451	313.85	.94155
234.613	315.48	.94644
235.773	317.02	.95106
236.93	318.75	.95625
238.083	320.42	.96126
239.233	322.04	.96612
240.38	323.67	.97101
241.524	325.48	.97644
242.665	327.48	.98244
243.803	328.63	.98589
246.071	331.47	.99441
247.201	333.06	.99918
248.328	334.82	1.00446
249.452	336.63	1.00989
250.573	338.23	1.01469
251.692	339.75	1.01925
252.808	341.78	1.02534
253.921	343.44	1.03032
255.031	345.42	1.03626
256.138	347.42	1.04226
257.242	349.12	1.04736
258.343	350.75	1.05225
259.441	352.9	1.0587
260.537	354.79	1.06437
261.629	356.59	1.06977
262.718	358.59	1.07577
263.803	360.46	1.08138
264.886	362.63	1.08789
265.965	364.99	1.09497
267.04	367.18	1.10154
268.112	369.24	1.10772
269.18	371.72	1.11516
270.245	373.77	1.12131
271.308	375.16	1.12548
272.369	378.43	1.13529
273.424	380.54	1.14162
274.474	383.84	1.15152
275.526	385.34	1.15602
276.576	389.76	1.16928
277.623	392.5	1.1775
278.666	396.43	1.18929
279.705	398.5	1.1955
4.918	1.032	.003096
5.575	1.448	.004344
6.284	2.011	.006033
7.108	2.802	.008406
8.006	3.815	.011445
8.948	5.034	.015102
9.931	6.451	.019353
10.876	7.93	.02379
11.813	9.492	.028476
12.814	11.219	.033657
13.895	13.256	.039768
15.069	15.489	.046467
16.426	18.212	.054636
18.051	21.6	.0648
19.835	25.4	.0762
21.581	29.19	.08757
23.281	32.87	.09861
24.934	36.45	.10935
26.688	40.25	.12075
28.5	44.43	.13329
30.38	48.59	.14577
32.3	52.61	.15783
34.184	56.62	.16986
36.154	60.78	.18234
38.179	64.88	.19464
40.237	68.92	.20676
42.206	72.67	.21801
44.119	76.27	.22881
46.112	79.97	.23991
48.167	83.7	.2511
50.271	87.41	.26223
52.413	91.07	.27321
54.587	94.68	.28404
56.79	98.21	.29463
58.966	101.63	.30489
61.093	104.91	.31473
63.201	108.1	.3243
65.296	111.15	.33345
67.38	114.12	.34236
69.456	117	.351
71.526	119.9	.3597
73.593	122.75	.36825
75.658	125.55	.37665
77.722	128.25	.38475
79.788	130.94	.39282
81.855	133.65	.40095
83.926	136.28	.40884
86.001	138.9	.4167
88.19	141.58	.42474
90.49	144.38	.43314
92.788	147.14	.44142
95.086	149.9	.4497
97.383	152.62	.45786
99.683	155.3	.4659
101.985	157.93	.47379
104.292	160.64	.48192
106.603	163.27	.48981
108.92	165.88	.49764
111.244	168.49	.50547
113.574	171.15	.51345
115.912	173.74	.52122
118.258	176.37	.52911
120.613	178.97	.53691
122.976	181.61	.54483
125.349	184.23	.55269
127.732	186.92	.56076
130.125	189.53	.56859
132.528	192.14	.57642
134.942	194.79	.58437
137.367	197.39	.59217
139.803	200.05	.60015
142.251	202.81	.60843
144.709	205.52	.61656
147.179	208.18	.62454
149.659	210.87	.63261
152.151	213.41	.64023
154.654	216.65	.64995
157.166	219.23	.65769
159.69	222.08	.66624
162.226	224.93	.67479
164.774	227.75	.68325
167.333	230.64	.69192
169.905	233.56	.70068
172.489	236.43	.70929
175.085	239.43	.71829
177.693	242.43	.72729
180.314	245.52	.73656
182.947	248.51	.74553
185.592	251.57	.75471
188.249	254.7	.7641
190.918	257.87	.77361
193.601	261.01	.78303
196.295	264.21	.79263
199.001	267.79	.80337
201.718	271.16	.81348
204.445	274.73	.82419
207.182	278.39	.83517
209.93	282.11	.84633
212.689	285.7	.8571
215.459	289.41	.86823
218.239	293.08	.87924
221.031	296.79	.89037
223.833	300.59	.90177
226.645	304.49	.91347
229.468	308.62	.92586
232.301	312.7	.9381
235.144	316.89	.95067
238.053	321.4	.9642
241.041	326.21	.97863
244.066	330.21	.99063
247.126	334.86	1.00458
250.22	339.88	1.01964
253.348	344.81	1.03443
256.508	349.77	1.04931
259.7	354.86	1.06458
262.923	359.67	1.07901
266.176	364.4	1.0932
269.457	369.89	1.10967
272.757	379.8	1.1394
276.078	388.45	1.16535
279.42	397.42	1.19226
281.468	402.8	1.2084
282.224	405.47	1.21641
282.987	408.97	1.22691
283.748	414.38	1.24314
284.503	422.32	1.26696
285.25	436.88	1.31064
285.978	474.25	1.42275

System: 4-cyano-3-fluorophenyl 4-butylbenzoate; phases: Liquid
Fixed: Pressure, kPa = 101.325
Property: Molar heat capacity at constant pressure, J/K/mol (Liquid); method: Small (less than 1 g) adiabatic calorimetry
Temperature, K	Molar heat capacity at constant pressure, J/K/mol	uncertainty
289.236	479.05	1.43715
289.967	476.93	1.43079
290.699	476.25	1.42875
291.67	476.45	1.42935
293.115	477.07	1.43121
295.035	477.7	1.4331
297.426	478.84	1.43652
294.475	476.74	1.43022
297.165	477.75	1.43325
299.873	478.89	1.43667
302.597	480.42	1.44126
305.338	481.47	1.44441
308.097	482.84	1.44852
310.871	484.5	1.4535
313.662	486.08	1.45824
316.468	487.53	1.46259
319.29	489.61	1.46883
322.128	491.52	1.47456
324.982	493.16	1.47948
327.851	495.06	1.48518
330.736	496.98	1.49094
333.636	498.96	1.49688
336.551	500.86	1.50258
339.482	502.59	1.50777
342.426	504.71	1.51413
345.386	506.48	1.51944
348.361	508.66	1.52598
351.349	510.81	1.53243
354.351	513	1.539
357.368	514.97	1.54491
360.398	517.24	1.55172
291.803	475.34	1.42602

System: 4-cyano-3-fluorophenyl 4-butylbenzoate; phases: Liquid
Fixed: Pressure, kPa = 101.325
Property: Molar heat capacity at constant pressure, J/K/mol (Liquid); method: Vacuum adiabatic calorimetry
Temperature, K	Molar heat capacity at constant pressure, J/K/mol	uncertainty
290	473.62	1.42086
298.15	478.16	1.43448
300	478.96	1.43688
310	483.98	1.45194
320	490.09	1.47027
330	496.49	1.48947
340	502.96	1.50888
350	509.84	1.52952

System: 4-cyano-3-fluorophenyl 4-butylbenzoate; phases: Crystal 2
Fixed: Pressure, kPa = 101.325
Property: Molar heat capacity at constant pressure, J/K/mol (Crystal 2); method: Vacuum adiabatic calorimetry
Temperature, K	Molar heat capacity at constant pressure, J/K/mol	uncertainty
5	1.44	.00432
10	7.87	.02361
20	28.93	.08679
30	51.82	.15546
40	72.67	.21801
50	91.14	.27342
60	107.66	.32298
70	122.57	.36771
80	136.34	.40902
90	149.41	.44823
100	162.05	.48615
110	174.41	.52323
120	186.87	.56061
130	199.38	.59814
140	212.43	.63729
150	226.24	.67872
160	239.47	.71841
170	252.09	.75627
180	264.63	.79389
190	277.35	.83205
200	289.06	.86718
210	300.06	.90018
220	310.55	.93165
230	320.68	.96204
240	332.29	.99687

System: 4-cyano-3-fluorophenyl 4-butylbenzoate; phases: Crystal 1
Fixed: Pressure, kPa = 101.325
Property: Molar heat capacity at constant pressure, J/K/mol (Crystal 1); method: Vacuum adiabatic calorimetry
Temperature, K	Molar heat capacity at constant pressure, J/K/mol	uncertainty
5	1.08	.00324
10	6.56	.01968
20	25.75	.07725
30	47.75	.14325
40	68.45	.20535
50	86.93	.26079
60	103.22	.30966
70	117.76	.35328
80	131.22	.39366
90	143.78	.43134
100	155.66	.46698
110	167.09	.50127
120	178.29	.53487
130	189.39	.56817
140	200.27	.60081
150	211.22	.63366
160	222.43	.66729
170	233.66	.70098
180	245.15	.73545
190	256.78	.77034
200	269.03	.80709
210	282.2	.8466
220	295.42	.88626
230	309.39	.92817
240	324.53	.97359
250	339.52	1.01856
260	355.31	1.06593
270	371.52	1.11456
280	397.19	1.19157
