Measured thermophysical data. Effect of water content on the equilibrium pressure of (carbon dioxide + decane and + decalin) from T = (313.15 to 333.15) K
Source: J. Chem. Thermodyn., 2013, 10.1016/j.jct.2013.05.015
Compound 1: carbon dioxide, CO2, purity 99.9%
Compound 2: ethanol, C2H6O, purity 99.8%
Compound 3: decane, C10H22, purity 99%
Compound 4: water, H2O
Compound 5: decalin, C10H18, purity 99%

System: ethanol + carbon dioxide; phases: Liquid, Gas
Property: Vapor or sublimation pressure, kPa (Liquid); method: Closed cell (Static) method
Temperature, K	Mole fraction of carbon dioxide	Vapor or sublimation pressure, kPa	uncertainty
313.15	.259	3840	10
313.15	.268	3990	10
313.15	.512	6130	10
313.15	.518	6340	10
313.15	.709	6670	10
313.15	.712	6880	10
333.15	.259	5070	10
333.15	.268	5190	10
333.15	.512	8420	10
333.15	.518	8530	10
333.15	.709	10050	10
333.15	.712	10010	10

System: decane + carbon dioxide + water; phases: Gas, Liquid
Property: Vapor or sublimation pressure, kPa (Gas); method: Closed cell (Static) method
Temperature, K	Mole fraction of carbon dioxide	Solvent: Mass fraction of water	Vapor or sublimation pressure, kPa	uncertainty
323.15	.904	.01	9430	10
313.15	.905	.05	7950	10
323.15	.905	.05	9430	10
313.15	.905	.1	8060	10
323.15	.905	.1	9460	10

System: decalin + carbon dioxide + water; phases: Gas, Liquid
Property: Vapor or sublimation pressure, kPa (Gas); method: Closed cell (Static) method
Temperature, K	Mole fraction of carbon dioxide	Solvent: Mass fraction of water	Vapor or sublimation pressure, kPa	uncertainty
313.15	.798	.01	11590	10
313.15	.901	.01	8320	10
323.15	.798	.01	12790	10
323.15	.901	.01	10570	10
333.15	.798	.01	14420	10
333.15	.901	.01	12540	10
313.15	.853	.05	9930	10
313.15	.901	.05	8020	10
323.15	.853	.05	11090	10
323.15	.901	.05	10550	10
333.15	.853	.05	13320	10
333.15	.901	.05	12510	10
313.15	.8	.1	11000	10
313.15	.902	.1	8440	10
323.15	.8	.1	12450	10
323.15	.902	.1	10430	10
