Measured thermophysical data. Separation of benzene from alkanes by solvent extraction with 1-ethylpyridinium ethylsulfate ionic liquid
Source: J. Chem. Thermodyn., 2010, 10.1016/j.jct.2010.04.022
Compound 1: 1-ethylpyridinium ethylsulfate, C9H15NO4S
Compound 2: n-hexane, C6H14, purity 99%
Compound 3: heptane, C7H16, purity 99.5%
Compound 4: benzene, C6H6, purity 99.8%

System: 1-ethylpyridinium ethylsulfate; phases: Liquid
Fixed: Pressure, kPa = 101.325
Property: Mass density, kg/m3 (Liquid); method: Vibrating tube method
Temperature, K	Mass density, kg/m3	uncertainty
298.15	1252	.026

System: 1-ethylpyridinium ethylsulfate; phases: Liquid
Fixed: Pressure, kPa = 101.325
Property: Refractive index (Na D-line) (Liquid); method: Standard Abbe refractometry
Temperature, K	Refractive index (Na D-line)	uncertainty
298.15	1.50525	.00004

System: benzene + n-hexane + 1-ethylpyridinium ethylsulfate; phases: Liquid
Fixed: Pressure, kPa = 101
Property: Mass density, kg/m3 (Liquid); method: Vibrating tube method
Temperature, K	Mole fraction of n-hexane	Mole fraction of benzene	Mass density, kg/m3	uncertainty
283.15	.007	0	1259.82	.026
283.15	.006	.05	1252.86	.026
283.15	.006	.099	1244.6	.026
283.15	.004	.204	1225.58	.026
283.15	.002	.252	1216.75	.026
283.15	0	.335	1198.57	.026
298.15	.008	0	1249.78	.026
298.15	.007	.05	1242.5	.026
298.15	.006	.1	1234.89	.026
298.15	.005	.202	1215.62	.026
298.15	.003	.248	1206.63	.026
298.15	.002	.3	1195.68	.026
298.15	0	.406	1171.69	.026

System: benzene + n-hexane + 1-ethylpyridinium ethylsulfate; phases: Liquid mixture 1, Liquid mixture 2
Fixed: Pressure, kPa = 101
Property: Mole fraction of benzene (Liquid mixture 1); method: Cloud point method
Temperature, K	Mole fraction of n-hexane	Mole fraction of benzene	uncertainty
283.15	.007	0	.007
283.15	.006	.05	.007
283.15	.006	.099	.007
283.15	.004	.204	.007
283.15	.002	.252	.007
283.15	0	.335	.007
298.15	.008	0	.007
298.15	.007	.05	.007
298.15	.006	.1	.007
298.15	.005	.202	.007
298.15	.003	.248	.007
298.15	.002	.3	.007
298.15	0	.406	.007

System: benzene + n-hexane + 1-ethylpyridinium ethylsulfate; phases: Liquid mixture 1, Liquid mixture 2
Property: Mole fraction of n-hexane (Liquid mixture 1); method: Density calibration data
Property: Mole fraction of benzene (Liquid mixture 2); method: Density calibration data
Property: Mole fraction of n-hexane (Liquid mixture 2); method: Density calibration data
Temperature, K	Pressure, kPa	Mole fraction of benzene	Mole fraction of n-hexane	uncertainty	Mole fraction of benzene	uncertainty	Mole fraction of n-hexane	uncertainty
283.15	1	.111	.889	.007	.061	.007	.006	.007
283.15	1	.184	.816	.007	.094	.007	.006	.007
283.15	1	.252	.748	.007	.122	.007	.005	.007
283.15	1	.314	.686	.007	.147	.007	.005	.007
283.15	1	.382	.618	.007	.173	.007	.005	.007
283.15	1	.454	.546	.007	.198	.007	.005	.007
283.15	1	.53	.47	.007	.22	.007	.004	.007
283.15	1	.596	.404	.007	.24	.007	.004	.007
283.15	1	.668	.332	.007	.263	.007	.004	.007
298.15	1	.112	.888	.007	.055	.007	.007	.007
298.15	1	.174	.826	.007	.084	.007	.007	.007
298.15	1	.249	.751	.007	.15	.007	.007	.007
298.15	1	.32	.68	.007	.142	.007	.006	.007
298.15	1	.377	.623	.007	.165	.007	.006	.007
298.15	1	.456	.544	.007	.194	.007	.006	.007
298.15	1	.527	.473	.007	.221	.007	.006	.007
298.15	1	.591	.409	.007	.239	.007	.005	.007
298.15	1	.75	.25	.007	.289	.007	.004	.007

System: benzene + heptane + 1-ethylpyridinium ethylsulfate; phases: Liquid
Fixed: Pressure, kPa = 101
Property: Mass density, kg/m3 (Liquid); method: Vibrating tube method
Temperature, K	Mole fraction of heptane	Mole fraction of benzene	Mass density, kg/m3	uncertainty
283.15	.007	0	1260.51	.026
283.15	.006	.051	1252.61	.026
283.15	.003	.146	1236.38	.026
283.15	.003	.198	1226.6	.026
283.15	.003	.243	1217.77	.026
283.15	.001	.295	1207.12	.026
283.15	0	.335	1198.57	.026
298.15	.007	0	1250.63	.026
298.15	.007	.048	1242.01	.026
298.15	.005	.098	1233.87	.026
298.15	.003	.201	1215.97	.026
298.15	.003	.251	1206.96	.026
298.15	.001	.354	1184.6	.026
298.15	0	.406	1171.69	.026

System: benzene + heptane + 1-ethylpyridinium ethylsulfate; phases: Liquid mixture 1, Liquid mixture 2
Fixed: Pressure, kPa = 101
Property: Mole fraction of benzene (Liquid mixture 1); method: Cloud point method
Temperature, K	Mole fraction of heptane	Mole fraction of benzene	uncertainty
283.15	.007	0	.007
283.15	.006	.051	.007
283.15	.003	.146	.007
283.15	.003	.198	.007
283.15	.003	.243	.007
283.15	.001	.295	.007
283.15	0	.335	.007
298.15	.007	0	.007
298.15	.007	.048	.007
298.15	.005	.098	.007
298.15	.003	.201	.007
298.15	.003	.251	.007
298.15	.001	.354	.007
298.15	0	.406	.007

System: benzene + heptane + 1-ethylpyridinium ethylsulfate; phases: Liquid mixture 1, Liquid mixture 2
Property: Mole fraction of heptane (Liquid mixture 1); method: Density calibration data
Property: Mole fraction of benzene (Liquid mixture 2); method: Density calibration data
Property: Mole fraction of heptane (Liquid mixture 2); method: Density calibration data
Temperature, K	Pressure, kPa	Mole fraction of benzene	Mole fraction of heptane	uncertainty	Mole fraction of benzene	uncertainty	Mole fraction of heptane	uncertainty
283.15	1	.058	.942	.007	.029	.007	.005	.007
283.15	1	.134	.866	.007	.065	.007	.005	.007
283.15	1	.192	.808	.007	.09	.007	.005	.007
283.15	1	.255	.745	.007	.116	.007	.005	.007
283.15	1	.368	.632	.007	.159	.007	.004	.007
283.15	1	.462	.538	.007	.194	.007	.004	.007
283.15	1	.522	.478	.007	.215	.007	.004	.007
283.15	1	.585	.415	.007	.235	.007	.004	.007
283.15	1	.649	.351	.007	.254	.007	.003	.007
298.15	1	.059	.941	.007	.028	.007	.006	.007
298.15	1	.118	.882	.007	.054	.007	.006	.007
298.15	1	.17	.83	.007	.077	.007	.006	.007
298.15	1	.226	.774	.007	.1	.007	.006	.007
298.15	1	.311	.689	.007	.134	.007	.005	.007
298.15	1	.367	.633	.007	.155	.007	.005	.007
298.15	1	.456	.544	.007	.189	.007	.005	.007
298.15	1	.579	.421	.007	.232	.007	.004	.007
298.15	1	.654	.346	.007	.258	.007	.004	.007

System: n-hexane + 1-ethylpyridinium ethylsulfate; phases: Liquid
Property: Mass density, kg/m3 (Liquid); method: Vibrating tube method
Temperature, K	Mole fraction of n-hexane	Pressure, kPa	Mass density, kg/m3	uncertainty
283.15	.007	101	1259.82	.026
298.15	.008	101	1249.78	.026

System: n-hexane + 1-ethylpyridinium ethylsulfate; phases: Liquid mixture 1, Liquid mixture 2
Property: Mole fraction of n-hexane (Liquid mixture 1); method: Cloud point method
Temperature, K	Pressure, kPa	Mole fraction of n-hexane	uncertainty
283.15	101	.007	.007
298.15	101	.008	.007

System: benzene + 1-ethylpyridinium ethylsulfate; phases: Liquid
Property: Mass density, kg/m3 (Liquid); method: Vibrating tube method
Temperature, K	Mole fraction of benzene	Pressure, kPa	Mass density, kg/m3	uncertainty
283.15	.335	101	1198.57	.026
298.15	.406	101	1171.69	.026

System: benzene + 1-ethylpyridinium ethylsulfate; phases: Liquid mixture 1, Liquid mixture 2
Property: Mole fraction of benzene (Liquid mixture 1); method: Cloud point method
Temperature, K	Pressure, kPa	Mole fraction of benzene	uncertainty
283.15	101	.335	.007
298.15	101	.406	.007

System: benzene + n-hexane; phases: Liquid mixture 1, Liquid mixture 2
Property: Mole fraction of n-hexane (Liquid mixture 1); method: Density calibration data
Temperature, K	Pressure, kPa	Mole fraction of n-hexane	uncertainty
283.15	101.325	.889	.007
283.15	101.325	.816	.007
283.15	101.325	.748	.007
283.15	101.325	.686	.007
283.15	101.325	.618	.007
283.15	101.325	.546	.007
283.15	101.325	.47	.007
283.15	101.325	.404	.007
283.15	101.325	.332	.007
298.15	101.325	.888	.007
298.15	101.325	.826	.007
298.15	101.325	.751	.007
298.15	101.325	.68	.007
298.15	101.325	.623	.007
298.15	101.325	.544	.007
298.15	101.325	.473	.007
298.15	101.325	.409	.007
298.15	101.325	.25	.007

System: heptane + 1-ethylpyridinium ethylsulfate; phases: Liquid
Property: Mass density, kg/m3 (Liquid); method: Vibrating tube method
Temperature, K	Mole fraction of heptane	Pressure, kPa	Mass density, kg/m3	uncertainty
283.15	.007	101	1260.51	.026
298.15	.007	101	1250.63	.026

System: heptane + 1-ethylpyridinium ethylsulfate; phases: Liquid mixture 1, Liquid mixture 2
Property: Mole fraction of heptane (Liquid mixture 1); method: Cloud point method
Temperature, K	Pressure, kPa	Mole fraction of heptane	uncertainty
283.15	101	.007	.007
298.15	101	.007	.007

System: benzene + heptane; phases: Liquid mixture 1, Liquid mixture 2
Property: Mole fraction of heptane (Liquid mixture 1); method: Density calibration data
Temperature, K	Pressure, kPa	Mole fraction of heptane	uncertainty
283.15	101.325	.942	.007
283.15	101.325	.866	.007
283.15	101.325	.808	.007
283.15	101.325	.745	.007
283.15	101.325	.632	.007
283.15	101.325	.538	.007
283.15	101.325	.478	.007
283.15	101.325	.415	.007
283.15	101.325	.351	.007
298.15	101.325	.941	.007
298.15	101.325	.882	.007
298.15	101.325	.83	.007
298.15	101.325	.774	.007
298.15	101.325	.689	.007
298.15	101.325	.633	.007
298.15	101.325	.544	.007
298.15	101.325	.421	.007
298.15	101.325	.346	.007
