Measured thermophysical data. (Liquid + liquid) equilibria for the ternary system (water + dodecane + propylene glycol n-propyl ether)
Source: J. Chem. Thermodyn., 2012, 10.1016/j.jct.2011.11.013
Compound 1: water, H2O
Compound 2: n-dodecane, C12H26, purity 99%
Compound 3: 1-propoxy-2-propanol, C6H14O2

System: n-dodecane + 1-propoxy-2-propanol + water; phases: Liquid mixture 1, Liquid mixture 2
Fixed: Pressure, kPa = 101
Property: Mass fraction of water (Liquid mixture 1); method: Chromatography
Property: Mass fraction of water (Liquid mixture 2); method: Chromatography
Property: Mass fraction of 1-propoxy-2-propanol (Liquid mixture 2); method: Chromatography
Temperature, K	Mass fraction of 1-propoxy-2-propanol	Mass fraction of water	uncertainty	Mass fraction of water	uncertainty	Mass fraction of 1-propoxy-2-propanol	uncertainty
288.15	.0165	.0002	.0009	.9261	.0009	.0739	.0009
288.15	.051	.0005	.0009	.8649	.0009	.1351	.0009
288.15	.1013	.0016	.0009	.7943	.0009	.2057	.0009
288.15	.1527	.0034	.0009	.7416	.0009	.2584	.0009
288.15	.1895	.0053	.0009	.6771	.0009	.3229	.0009
288.15	.1992	.0059	.0009	.5999	.0009	.3947	.0009
288.15	.1994	.0059	.0009	.4978	.0009	.4865	.0009
288.15	.2005	.006	.0009	.3744	.0009	.5956	.0009
288.15	.2034	.0062	.0009	.3181	.0009	.6422	.0009
288.15	.2142	.0069	.0009	.2304	.0009	.7016	.0009
288.15	.2766	.0118	.0009	.1236	.0009	.7124	.0009
298.15	.2808	.0112	.0009	.7868	.0009	.2132	.0009
298.15	.2057	.0057	.0009	.808	.0009	.192	.0009
298.15	.1352	.0027	.0009	.8382	.0009	.1618	.0009
298.15	.0727	.0009	.0009	.8773	.0009	.1227	.0009
298.15	.0284	.0003	.0009	.9297	.0009	.0703	.0009
308.15	.0385	.0004	.0009	.9346	.0009	.0654	.0009
308.15	.0941	.0013	.0009	.8943	.0009	.1057	.0009
308.15	.1629	.0032	.0009	.8679	.0009	.1321	.0009
308.15	.2433	.0074	.0009	.8429	.0009	.1571	.0009
308.15	.3281	.0132	.0009	.8332	.0009	.1668	.0009
308.15	.4165	.0251	.0009	.8319	.0009	.1681	.0009
308.15	.4953	.0382	.0009	.8317	.0009	.1683	.0009
308.15	.5794	.0564	.0009	.8317	.0009	.1683	.0009
308.15	.6281	.0729	.0009	.8317	.0009	.1683	.0009
308.15	.6809	.0937	.0009	.8187	.0009	.1813	.0009
308.15	.7341	.1447	.0009	.8155	.0009	.1845	.0009
308.15	.6139	.3861	.0009	.749	.0009	.251	.0009

System: n-dodecane + 1-propoxy-2-propanol + water; phases: Liquid mixture 1, Liquid mixture 2
Fixed: Pressure, kPa = 101
Property: Mass fraction of 1-propoxy-2-propanol (Liquid mixture 1); method: Chromatography
Property: Mass fraction of water (Liquid mixture 2); method: Chromatography
Property: Mass fraction of 1-propoxy-2-propanol (Liquid mixture 2); method: Chromatography
Temperature, K	Mass fraction of water	Mass fraction of 1-propoxy-2-propanol	uncertainty	Mass fraction of water	uncertainty	Mass fraction of 1-propoxy-2-propanol	uncertainty
298.15	.0232	.3628	.0009	.122	.0009	.6899	.0009

System: n-dodecane + 1-propoxy-2-propanol + water; phases: Liquid mixture 2, Liquid mixture 1
Fixed: Pressure, kPa = 101
Property: Mass fraction of 1-propoxy-2-propanol (Liquid mixture 2); method: Chromatography
Property: Mass fraction of water (Liquid mixture 1); method: Chromatography
Property: Mass fraction of 1-propoxy-2-propanol (Liquid mixture 1); method: Chromatography
Temperature, K	Mass fraction of water	Mass fraction of 1-propoxy-2-propanol	uncertainty	Mass fraction of water	uncertainty	Mass fraction of 1-propoxy-2-propanol	uncertainty
298.15	.2118	.7019	.0009	.7548	.0009	.2452	.0009
298.15	.3002	.6673	.0009	.7449	.0009	.2551	.0009
