Measured thermophysical data. Determination and modeling for the solubility of Na2MoO4.2H2O in the (Na(+) + MoO4(2-)  + SO4(2-)) system
Source: J. Chem. Thermodyn., 2016, 10.1016/j.jct.2015.10.020
Compound 1: sodium sulfate, Na2O4S, purity 98.97%
Compound 2: sodium molybdate, MoNa2O4, purity 97.32%
Compound 3: water, H2O, purity 99.8%

System: sodium molybdate + water + sodium sulfate; phases: Liquid, Crystal of intercomponent compound 1
Fixed: Pressure, kPa = 100
Property: Molality, mol/kg of sodium molybdate (Liquid); method: plasma-optical emission spectrometry and ion chromotography
Temperature, K	Molality, mol/kg of sodium sulfate	Molality, mol/kg of sodium molybdate	uncertainty
293.15	0	3.1431	.035737047
293.15	.0889	3.0837	.035061669
293.15	.1783	3.0137	.034265769
293.15	.268	2.9586	.033639282
293.15	.3578	2.9295	.033308415
293.15	.4479	2.8906	.032866122
293.15	.5388	2.8326	.032206662
293.15	.6303	2.7649	.031436913
293.15	.7213	2.7317	.031059429
293.15	.8133	2.6743	.030406791
293.15	.9046	2.6479	.030106623
303.15	0	3.1774	.036127038
303.15	.0888	3.1123	.035386851
303.15	.1779	3.0623	.034818351
303.15	.2674	3.0111	.034236207
303.15	.357	2.9818	.033903066
303.15	.4472	2.9329	.033347073
303.15	.5375	2.8876	.032832012
303.15	.6293	2.8043	.031884891
303.15	.7197	2.784	.03165408
303.15	.8119	2.7172	.030894564
303.15	.9035	2.6791	.030461367
313.15	0	3.2299	.036723963
313.15	.0886	3.1735	.036082695
313.15	.1775	3.1184	.035456208
313.15	.2668	3.0752	.034965024
313.15	.3562	3.0418	.034585266
313.15	.4461	2.9939	.034040643
313.15	.5364	2.943	.03346191
313.15	.6276	2.871	.03264327
313.15	.7176	2.8581	.032496597
313.15	.8094	2.7927	.031752999
313.15	.9008	2.7539	.031311843
323.15	0	3.3095	.037629015
323.15	.0883	3.2417	.036858129
323.15	.177	3.1865	.036230505
323.15	.2659	3.1534	.035854158
323.15	.3551	3.1158	.035426646
323.15	.4448	3.0641	.034838817
323.15	.5345	3.0275	.034422675
323.15	.6255	2.9548	.033596076
323.15	.7152	2.9435	.033467595
323.15	.8068	2.8727	.032662599
323.15	.8977	2.8383	.032271471
333.15	0	3.3944	.038594328
333.15	.0881	3.3199	.037747263
333.15	.1764	3.2696	.037175352
333.15	.265	3.2406	.036845622
333.15	.3539	3.1998	.036381726
333.15	.443	3.1649	.035984913
333.15	.5323	3.1337	.035630169
333.15	.6226	3.0675	.034877475
333.15	.7124	3.039	.03455343
333.15	.804	2.9712	.033782544
343.15	0	3.4863	.039639231
343.15	.0877	3.4124	.038798988
343.15	.1757	3.3662	.038273694
343.15	.2639	3.3375	.037947375
343.15	.3525	3.2935	.037447095
343.15	.4408	3.2841	.037340217
343.15	.5298	3.247	.03691839
343.15	.6199	3.1747	.036096339
343.15	.7091	3.1527	.035846199
343.15	.8008	3.0813	.035034381
343.15	.8907	3.0343	.034499991

System: sodium molybdate + water; phases: Liquid, Crystal of intercomponent compound 1
Property: Molality, mol/kg of sodium molybdate (Liquid); method: plasma-optical emission spectrometry and ion chromotography
Temperature, K	Pressure, kPa	Molality, mol/kg of sodium molybdate	uncertainty
293.15	100	3.1431	.035737047
303.15	100	3.1774	.036127038
313.15	100	3.2299	.036723963
323.15	100	3.3095	.037629015
333.15	100	3.3944	.038594328
343.15	100	3.4863	.039639231
