Measured thermophysical data. Lattice potential energies and thermochemical properties of phase change materials (1-CnH2n+1NH3)2MnCl4(s) (n = 10 and 11)
Source: J. Chem. Thermodyn., 2014, 10.1016/j.jct.2014.01.009
Compound 1: tetrachlorobis(decylammonium) manganese II, C20H48Cl4MnN2
Compound 2: bis(undecylammonium) tetrachloromanganate(II), C22H52Cl4MnN2
Compound 3: water, H2O, purity 99%

System: tetrachlorobis(decylammonium) manganese II; phases: Crystal
Fixed: Pressure, kPa = 101.325
Property: Mass density, kg/m3 (Crystal); method: X-ray diffraction
Temperature, K	Mass density, kg/m3	uncertainty
298	1261	

System: bis(undecylammonium) tetrachloromanganate(II); phases: Crystal
Fixed: Pressure, kPa = 101.325
Property: Mass density, kg/m3 (Crystal); method: X-ray diffraction
Temperature, K	Mass density, kg/m3	uncertainty
293	1205	

System: water + tetrachlorobis(decylammonium) manganese II; phases: Liquid
Fixed: Pressure, kPa = 101
Fixed: Temperature, K = 298.15
Property: Molar enthalpy of solution, kJ/mol (Liquid); method: Isoperibol calorimetry
Molality, mol/kg of tetrachlorobis(decylammonium) manganese II	Molar enthalpy of solution, kJ/mol	uncertainty
.000209	31.22	
.000397	28.56	
.000597	26.08	
.000787	23.93	
.000982	22.82	
.001177	22.56	
.001368	22.47	
.001563	22.42	
.001768	22.39	
.001977	22.38	
.002349	22.38	
.002728	22.38	
.003133	22.36	
.003516	22.36	

System: water + bis(undecylammonium) tetrachloromanganate(II); phases: Liquid
Fixed: Pressure, kPa = 101
Fixed: Temperature, K = 298.15
Property: Molar enthalpy of solution, kJ/mol (Liquid); method: Isoperibol calorimetry
Molality, mol/kg of bis(undecylammonium) tetrachloromanganate(II)	Molar enthalpy of solution, kJ/mol	uncertainty
.000203	52.84	
.000549	50.25	
.000747	48.85	
.00096	47.43	
.00114	46.46	
.001275	46.13	
.001456	45.95	
.00166	45.87	
.001927	45.83	
.002172	45.82	
.002471	45.81	
.002912	45.81	
.003321	45.78	
.003771	45.78	
