Measured thermophysical data. Studies of mixing properties of binary systems of 2-propanol with hexadecane and squalane at T = (298.15, 303.15, and 308.15) K
Source: J. Chem. Thermodyn., 2009, 10.1016/j.jct.2008.07.010
Compound 1: 2-propanol, C3H8O, purity 99.5%
Compound 2: hexadecane, C16H34, purity 99%
Compound 3: 2,6,10,15,19,23-hexamethyltetracosane, C30H62, purity 99%

System: 2-propanol; phases: Liquid
Property: Mass density, kg/m3 (Liquid); method: Vibrating tube method
Temperature, K	Pressure, kPa	Mass density, kg/m3	uncertainty
298.15	101	781.152	.002
303.15	101	776.87	.002
308.15	101	772.511	.002

System: 2-propanol; phases: Liquid
Property: Speed of sound, m/s (Liquid); method: Sing-around technique in a fixed-path interferometer
Temperature, K	Pressure, kPa	Speed of sound, m/s	uncertainty
298.15	101	1139.33	.1
303.15	101	1122	.1
308.15	101	1104.5	.1
298.15	101	1139.3	.1

System: 2-propanol; phases: Liquid
Property: Viscosity, Pa*s (Liquid); method: Capillary tube (Ostwald; Ubbelohde) method
Temperature, K	Pressure, kPa	Viscosity, Pa*s	uncertainty
298.15	101	.002061	.000003
303.15	101	.001758	.000003
308.15	101	.001573	.000003

System: hexadecane; phases: Liquid
Property: Mass density, kg/m3 (Liquid); method: Vibrating tube method
Temperature, K	Pressure, kPa	Mass density, kg/m3	uncertainty
298.15	101	770.456	.002
303.15	101	766.981	.002
308.15	101	763.52	.002

System: hexadecane; phases: Liquid
Property: Speed of sound, m/s (Liquid); method: Sing-around technique in a fixed-path interferometer
Temperature, K	Pressure, kPa	Speed of sound, m/s	uncertainty
298.15	101	1338.61	.1
303.15	101	1320	.1
308.15	101	1301.7	.1

System: hexadecane; phases: Liquid
Property: Viscosity, Pa*s (Liquid); method: Capillary tube (Ostwald; Ubbelohde) method
Temperature, K	Pressure, kPa	Viscosity, Pa*s	uncertainty
298.15	101	.003041	.000003
303.15	101	.002706	.000003
308.15	101	.002409	.000003

System: 2,6,10,15,19,23-hexamethyltetracosane; phases: Liquid
Property: Mass density, kg/m3 (Liquid); method: Vibrating tube method
Temperature, K	Pressure, kPa	Mass density, kg/m3	uncertainty
298.15	101	805.122	.002
303.15	101	801.912	.002
308.15	101	798.709	.002

System: 2,6,10,15,19,23-hexamethyltetracosane; phases: Liquid
Property: Speed of sound, m/s (Liquid); method: Sing-around technique in a fixed-path interferometer
Temperature, K	Pressure, kPa	Speed of sound, m/s	uncertainty
298.15	101	1381.9	.1
303.15	101	1364.1	.1
308.15	101	1346.5	.1

System: 2,6,10,15,19,23-hexamethyltetracosane; phases: Liquid
Property: Viscosity, Pa*s (Liquid); method: Capillary tube (Ostwald; Ubbelohde) method
Temperature, K	Pressure, kPa	Viscosity, Pa*s	uncertainty
298.15	101	.028257	.000003
303.15	101	.022087	.000003
308.15	101	.017774	.000003

System: 2-propanol + hexadecane; phases: Liquid
Fixed: Pressure, kPa = 101
Property: Mass density, kg/m3 (Liquid); method: Vibrating tube method
Temperature, K	Mole fraction of 2-propanol	Mass density, kg/m3	uncertainty
298.15	0	770.456	.002
298.15	.0441	770.067	.002
298.15	.1285	769.792	.002
298.15	.1617	769.728	.002
298.15	.2294	769.59	.002
298.15	.2707	769.56	.002
298.15	.332	769.565	.002
298.15	.414	769.697	.002
298.15	.5064	770.039	.002
298.15	.6119	770.701	.002
298.15	.7008	771.594	.002
298.15	.762	772.47	.002
298.15	.8419	774.082	.002
298.15	.9188	776.284	.002
298.15	.9498	777.915	.002
298.15	1	781.152	.002
303.15	0	766.981	.002
303.15	.0441	766.622	.002
303.15	.1285	766.198	.002
303.15	.1617	766.093	.002
303.15	.2294	765.938	.002
303.15	.2707	765.896	.002
303.15	.332	765.88	.002
303.15	.414	765.976	.002
303.15	.5064	766.23	.002
303.15	.6119	766.793	.002
303.15	.7008	767.564	.002
303.15	.762	768.35	.002
303.15	.8419	769.888	.002
303.15	.9188	772.263	.002
303.15	.9498	773.694	.002
303.15	1	776.87	.002
308.15	0	763.52	.002
308.15	.0441	763.106	.002
308.15	.1285	762.606	.002
308.15	.1617	762.479	.002
308.15	.2294	762.287	.002
308.15	.2707	762.206	.002
308.15	.332	762.156	.002
308.15	.414	762.174	.002
308.15	.5064	762.374	.002
308.15	.6119	762.751	.002
308.15	.7008	763.551	.002
308.15	.762	764.298	.002
308.15	.8419	765.761	.002
308.15	.9188	768.061	.002
308.15	.9498	769.382	.002
308.15	1	772.511	.002

System: 2-propanol + hexadecane; phases: Liquid
Fixed: Pressure, kPa = 101
Property: Speed of sound, m/s (Liquid); method: Sing-around technique in a fixed-path interferometer
Temperature, K	Mole fraction of 2-propanol	Speed of sound, m/s	uncertainty
298.15	0	1338.61	.1
298.15	.0441	1334.17	.1
298.15	.1285	1325.54	.1
298.15	.1617	1321.75	.1
298.15	.2294	1314.83	.1
298.15	.2707	1310.07	.1
298.15	.332	1303.1	.1
298.15	.414	1293.49	.1
298.15	.5064	1280.28	.1
298.15	.6119	1263.23	.1
298.15	.7008	1245.86	.1
298.15	.762	1231.63	.1
298.15	.8419	1208.44	.1
298.15	.9188	1180.01	.1
298.15	.9498	1166.18	.1
298.15	1	1139.33	.1
303.15	0	1320	.1
303.15	.0441	1315.5	.1
303.15	.1285	1306.8	.1
303.15	.1617	1302.9	.1
303.15	.2294	1295.9	.1
303.15	.2707	1291.2	.1
303.15	.332	1284.1	.1
303.15	.414	1274.5	.1
303.15	.5064	1261.3	.1
303.15	.6119	1244.4	.1
303.15	.7008	1227.1	.1
303.15	.762	1212.9	.1
303.15	.8419	1189.9	.1
303.15	.9188	1161.6	.1
303.15	.9498	1148.3	.1
303.15	1	1122	.1
308.15	0	1301.7	.1
308.15	.0441	1297.1	.1
308.15	.1285	1288.2	.1
308.15	.1617	1284.7	.1
308.15	.2294	1277.2	.1
308.15	.2707	1272.5	.1
308.15	.332	1265.6	.1
308.15	.414	1255.6	.1
308.15	.5064	1242.7	.1
308.15	.6119	1225.5	.1
308.15	.7008	1208.2	.1
308.15	.762	1194	.1
308.15	.8419	1171.2	.1
308.15	.9188	1143.6	.1
308.15	.9498	1130.3	.1
308.15	1	1104.5	.1

System: 2-propanol + hexadecane; phases: Liquid
Fixed: Pressure, kPa = 101
Property: Viscosity, Pa*s (Liquid); method: Capillary tube (Ostwald; Ubbelohde) method
Temperature, K	Mole fraction of 2-propanol	Viscosity, Pa*s	uncertainty
298.15	0	.003041	.000003
298.15	.0441	.002867	.000003
298.15	.1285	.002654	.000003
298.15	.1617	.002601	.000003
298.15	.2294	.002531	.000003
298.15	.2707	.002504	.000003
298.15	.332	.00247	.000003
298.15	.414	.00243	.000003
298.15	.5064	.00236	.000003
298.15	.6119	.002242	.000003
298.15	.7008	.002123	.000003
298.15	.762	.002051	.000003
298.15	.8419	.001974	.000003
298.15	.9188	.00196	.000003
298.15	.9498	.001983	.000003
298.15	1	.002061	.000003
303.15	0	.002706	.000003
303.15	.0441	.002521	.000003
303.15	.1285	.002312	.000003
303.15	.1617	.002264	.000003
303.15	.2294	.002214	.000003
303.15	.2707	.002199	.000003
303.15	.332	.002176	.000003
303.15	.414	.002153	.000003
303.15	.5064	.00208	.000003
303.15	.6119	.00195	.000003
303.15	.7008	.001821	.000003
303.15	.762	.001723	.000003
303.15	.8419	.001628	.000003
303.15	.9188	.001608	.000003
303.15	.9498	.001647	.000003
303.15	1	.001758	.000003
308.15	0	.002409	.000003
308.15	.0441	.002231	.000003
308.15	.1285	.002034	.000003
308.15	.1617	.001989	.000003
308.15	.2294	.001944	.000003
308.15	.2707	.001928	.000003
308.15	.332	.00192	.000003
308.15	.414	.001904	.000003
308.15	.5064	.001843	.000003
308.15	.6119	.001719	.000003
308.15	.7008	.001599	.000003
308.15	.762	.00151	.000003
308.15	.8419	.001418	.000003
308.15	.9188	.001419	.000003
308.15	.9498	.001454	.000003
308.15	1	.001573	.000003

System: 2-propanol + 2,6,10,15,19,23-hexamethyltetracosane; phases: Liquid
Fixed: Pressure, kPa = 101
Property: Mass density, kg/m3 (Liquid); method: Vibrating tube method
Temperature, K	Mole fraction of 2-propanol	Mass density, kg/m3	uncertainty
298.15	0	805.122	.002
298.15	.0621	804.504	.002
298.15	.0949	804.196	.002
298.15	.1438	803.771	.002
298.15	.218	803.155	.002
298.15	.2865	802.572	.002
298.15	.3119	802.336	.002
298.15	.4022	801.467	.002
298.15	.5142	800.109	.002
298.15	.5952	798.83	.002
298.15	1	781.152	.002
303.15	0	801.912	.002
303.15	.0621	801.238	.002
303.15	.0949	800.909	.002
303.15	.1438	800.451	.002
303.15	.218	799.796	.002
303.15	.2865	799.185	.002
303.15	.3119	798.955	.002
303.15	.4022	798.03	.002
303.15	.5142	796.619	.002
303.15	.5952	795.275	.002
303.15	1	776.87	.002
308.15	0	798.709	.002
308.15	.0621	797.982	.002
308.15	.0949	797.625	.002
308.15	.1438	797.133	.002
308.15	.218	796.425	.002
308.15	.2865	795.767	.002
308.15	.3119	795.521	.002
308.15	.4022	794.563	.002
308.15	.5142	793.069	.002
308.15	.5952	791.676	.002
308.15	1	772.511	.002

System: 2-propanol + 2,6,10,15,19,23-hexamethyltetracosane; phases: Liquid
Fixed: Pressure, kPa = 101
Property: Speed of sound, m/s (Liquid); method: Sing-around technique in a fixed-path interferometer
Temperature, K	Mole fraction of 2-propanol	Speed of sound, m/s	uncertainty
298.15	0	1381.9	.1
298.15	.0621	1377.4	.1
298.15	.0949	1374.9	.1
298.15	.1438	1371.4	.1
298.15	.218	1366	.1
298.15	.2865	1360.2	.1
298.15	.3119	1358.2	.1
298.15	.4022	1349.5	.1
298.15	.5142	1336.4	.1
298.15	.5952	1324.5	.1
298.15	1	1139.3	.1
303.15	0	1364.1	.1
303.15	.0621	1359.1	.1
303.15	.0949	1356.8	.1
303.15	.1438	1353.3	.1
303.15	.218	1347.9	.1
303.15	.2865	1342.2	.1
303.15	.3119	1340	.1
303.15	.4022	1331.3	.1
303.15	.5142	1318.1	.1
303.15	.5952	1306.4	.1
303.15	1	1122	.1
308.15	0	1346.5	.1
308.15	.0621	1341.4	.1
308.15	.0949	1338.9	.1
308.15	.1438	1335.5	.1
308.15	.218	1330	.1
308.15	.2865	1324.2	.1
308.15	.3119	1321.9	.1
308.15	.4022	1313.3	.1
308.15	.5142	1299.9	.1
308.15	.5952	1288.1	.1
308.15	1	1104.5	.1

System: 2-propanol + 2,6,10,15,19,23-hexamethyltetracosane; phases: Liquid
Fixed: Pressure, kPa = 101
Property: Viscosity, Pa*s (Liquid); method: Capillary tube (Ostwald; Ubbelohde) method
Temperature, K	Mole fraction of 2-propanol	Viscosity, Pa*s	uncertainty
298.15	0	.028257	.000003
298.15	.0621	.024115	.000003
298.15	.0949	.022693	.000003
298.15	.1438	.021222	.000003
298.15	.218	.019647	.000003
298.15	.2865	.018498	.000003
298.15	.3119	.018105	.000003
298.15	.4022	.016679	.000003
298.15	.5142	.014336	.000003
298.15	.5952	.011766	.000003
298.15	1	.002061	.000003
303.15	0	.022087	.000003
303.15	.0621	.018753	.000003
303.15	.0949	.017686	.000003
303.15	.1438	.016627	.000003
303.15	.218	.015448	.000003
303.15	.2865	.014558	.000003
303.15	.3119	.014238	.000003
303.15	.4022	.013048	.000003
303.15	.5142	.011367	.000003
303.15	.5952	.009455	.000003
303.15	1	.001758	.000003
308.15	0	.017774	.000003
308.15	.0621	.015292	.000003
308.15	.0949	.014478	.000003
308.15	.1438	.013661	.000003
308.15	.218	.012745	.000003
308.15	.2865	.012032	.000003
308.15	.3119	.011762	.000003
308.15	.4022	.010837	.000003
308.15	.5142	.009424	.000003
308.15	.5952	.007904	.000003
308.15	1	.001573	.000003
