Measured thermophysical data. Solubility and thermodynamic function of a new anticancer drug ibrutinib in 2-(2-ethoxyethoxy)ethanol + water mixtures at different temperatures
Source: J. Chem. Thermodyn., 2015, 10.1016/j.jct.2015.04.014
Compound 1: ibrutinib, C25H24N6O2, purity 99%
Compound 2: water, H2O, purity 99.8%
Compound 3: 2-(2-ethoxyethoxy)ethanol, C6H14O3, purity 99.9%

System: 2-(2-ethoxyethoxy)ethanol + water + ibrutinib; phases: Liquid, Crystal
Fixed: Pressure, kPa = 100
Property: Mole fraction of ibrutinib (Liquid); method: UV spectrophotometry
Solvent: Mass fraction of 2-(2-ethoxyethoxy)ethanol	Temperature, K	Mole fraction of ibrutinib	uncertainty
0	298.15	.000000143	.0000000019162
.1	298.15	.000000524	.0000000070216
.2	298.15	.00000166	.000000022244
.3	298.15	.00000549	.000000073566
.4	298.15	.0000194	.00000025996
.5	298.15	.0000628	.00000084152
.6	298.15	.000213	.0000028542
.7	298.15	.000711	.0000095274
.8	298.15	.0024	.00003216
.9	298.15	.00797	.000106798
1	298.15	.0267	.00035778
0	303.15	.000000221	.0000000029614
.1	303.15	.000000784	.0000000105056
.2	303.15	.00000235	.00000003149
.3	303.15	.00000762	.000000102108
.4	303.15	.0000263	.00000035242
.5	303.15	.0000808	.00000108272
.6	303.15	.000264	.0000035376
.7	303.15	.000846	.0000113364
.8	303.15	.00287	.000038458
.9	303.15	.0089	.00011926
1	303.15	.0288	.00038592
0	308.15	.000000311	.0000000041674
.1	308.15	.00000102	.000000013668
.2	308.15	.00000315	.00000004221
.3	308.15	.0000101	.00000013534
.4	308.15	.0000328	.00000043952
.5	308.15	.000103	.0000013802
.6	308.15	.000332	.0000044488
.7	308.15	.00104	.000013936
.8	308.15	.00322	.000043148
.9	308.15	.0102	.00013668
1	308.15	.0318	.00042612
0	313.15	.000000413	.0000000055342
.1	313.15	.00000135	.00000001809
.2	313.15	.00000402	.000000053868
.3	313.15	.0000126	.00000016884
.4	313.15	.0000399	.00000053466
.5	313.15	.000123	.0000016482
.6	313.15	.000383	.0000051322
.7	313.15	.00124	.000016616
.8	313.15	.00372	.000049848
.9	313.15	.0112	.00015008
1	313.15	.0341	.00045694
0	323.15	.000000769	.0000000103046
.1	323.15	.00000232	.000000031088
.2	323.15	.00000679	.000000090986
.3	323.15	.0000207	.00000027738
.4	323.15	.0000607	.00000081338
.5	323.15	.000178	.0000023852
.6	323.15	.000536	.0000071824
.7	323.15	.0016	.00002144
.8	323.15	.00454	.000060836
.9	323.15	.0135	.0001809
1	323.15	.0392	.00052528

System: water + ibrutinib; phases: Liquid, Crystal
Property: Mole fraction of ibrutinib (Liquid); method: UV spectrophotometry
Temperature, K	Pressure, kPa	Mole fraction of ibrutinib	uncertainty
298.15	100	.000000143	.0000000019162
303.15	100	.000000221	.0000000029614
308.15	100	.000000311	.0000000041674
313.15	100	.000000413	.0000000055342
323.15	100	.000000769	.0000000103046

System: 2-(2-ethoxyethoxy)ethanol + ibrutinib; phases: Liquid, Crystal
Property: Mole fraction of ibrutinib (Liquid); method: UV spectrophotometry
Temperature, K	Pressure, kPa	Mole fraction of ibrutinib	uncertainty
298.15	100	.0267	.00035778
303.15	100	.0288	.00038592
308.15	100	.0318	.00042612
313.15	100	.0341	.00045694
323.15	100	.0392	.00052528
