Measured thermophysical data. Experimental and computational thermodynamics of pyrene and 1-pyrenecarboxaldehyde and their photophysical properties
Source: J. Chem. Thermodyn., 2015, 10.1016/j.jct.2015.07.008
Compound 1: pyrene, C16H10, purity 98.9%
Compound 2: 1-pyrenecarboxaldehyde, C17H10O, purity 99.3%
Compound 3: carbon dioxide, CO2
Compound 4: water, H2O
Compound 5: oxygen, O2

System: pyrene; phases: Crystal, Liquid, Air at 1 atmosphere
Property: Normal melting temperature, K (Crystal); method: DSC/DTA
Normal melting temperature, K	uncertainty
423.9	.1

System: pyrene; phases: Crystal, Liquid, Air at 1 atmosphere
Property: Molar enthalpy of transition or fusion, kJ/mol (Crystal); method: DSC
Molar enthalpy of transition or fusion, kJ/mol	uncertainty
17.4	.1

System: pyrene; phases: Crystal, Gas
Property: Vapor or sublimation pressure, kPa (Crystal); method: Knudsen effusion method
Temperature, K	Vapor or sublimation pressure, kPa	uncertainty
345.12	.000143	.00001
347.19	.000182	.00001
349.17	.000214	.00001
351.13	.000254	.00001
353.19	.000321	.00001
355.17	.000382	.00001
357.11	.00046	.00001
359.11	.000539	.00001
361.16	.000688	.00001
363.17	.000792	.00001
365.16	.000951	.00001
367.17	.001145	.00001
345.12	.000152	.00001
347.19	.000172	.00001
349.17	.000218	.00001
351.13	.000244	.00001
353.19	.000307	.00001
355.17	.000372	.00001
357.11	.000469	.00001
359.11	.000548	.00001
361.16	.000681	.00001
363.17	.0008	.00001
365.16	.000948	.00001
367.17	.001132	.00001
345.12	.000156	.00001
347.19	.000176	.00001
349.17	.000213	.00001
351.13	.000257	.00001
353.19	.000315	.00001
355.17	.000378	.00001
357.11	.000466	.00001
359.11	.000547	.00001
361.16	.000684	.00001
363.17	.000784	.00001
365.16	.000946	.00001
367.17	.001143	.00001

System: 1-pyrenecarboxaldehyde; phases: Crystal 1, Liquid, Air at 1 atmosphere
Property: Normal melting temperature, K (Crystal 1); method: DSC/DTA
Normal melting temperature, K	uncertainty
399.9	.1

System: 1-pyrenecarboxaldehyde; phases: Crystal 2, Crystal 1, Air at 1 atmosphere
Property: Triple point temperature, K (Crystal 2); method: DSC
Triple point temperature, K	uncertainty
340.4	.1

System: 1-pyrenecarboxaldehyde; phases: Crystal 1, Liquid, Air at 1 atmosphere
Property: Molar enthalpy of transition or fusion, kJ/mol (Crystal 1); method: DSC
Molar enthalpy of transition or fusion, kJ/mol	uncertainty
11	.1

System: 1-pyrenecarboxaldehyde; phases: Crystal 2, Crystal 1, Air at 1 atmosphere
Property: Molar enthalpy of transition or fusion, kJ/mol (Crystal 2); method: DSC
Molar enthalpy of transition or fusion, kJ/mol	uncertainty
2.8	.1

System: 1-pyrenecarboxaldehyde; phases: Crystal 1, Gas
Property: Vapor or sublimation pressure, kPa (Crystal 1); method: Knudsen effusion method
Temperature, K	Vapor or sublimation pressure, kPa	uncertainty
377.13	.000113	.00001
379.17	.00013	.00001
381.16	.000166	.00001
383.14	.000195	.00001
385.17	.000238	.00001
387.15	.000279	.00001
389.14	.000325	.00001
391.13	.000396	.00001
393.16	.000478	.00001
395.15	.000549	.00001
397.16	.000666	.00001
398.95	.000784	.00001
377.13	.000112	.00001
379.17	.000139	.00001
381.16	.000162	.00001
383.14	.000199	.00001
385.17	.000234	.00001
387.15	.000278	.00001
389.14	.000331	.00001
391.13	.000403	.00001
393.16	.000473	.00001
395.15	.00056	.00001
397.16	.000658	.00001
398.95	.000777	.00001
377.13	.00011	.00001
379.17	.000133	.00001
381.16	.000161	.00001
383.14	.000192	.00001
385.17	.00023	.00001
387.15	.000275	.00001
389.14	.000326	.00001
391.13	.000399	.00001
393.16	.000467	.00001
395.15	.000563	.00001
397.16	.000653	.00001
398.95	.000768	.00001

Reaction: -1 1-pyrenecarboxaldehyde + 17 carbon dioxide + 5 water + -19 oxygen
Property: Specific internal energy of reaction at constant volume, J/g
-35209.93
