Measured thermophysical data. Tar removal from biosyngas in the biomass gasification process. (Liquid + liquid)  equilibrium {water + solvent (paraxylene and methyl hexadecanoate) + model molecules of tar (benzene, toluene, phenol)}
Source: J. Chem. Thermodyn., 2012, 10.1016/j.jct.2011.12.009
Compound 1: benzene, C6H6, purity 99%
Compound 2: toluene, C7H8, purity 99%
Compound 3: 1,4-xylene, C8H10, purity 99%
Compound 4: carbolic acid, C6H6O, purity 99%
Compound 5: palmitic acid, methyl ester, C17H34O2, purity 97%
Compound 6: n-octane, C8H18, purity 99%
Compound 7: water, H2O, purity 99.8%

System: 1,4-xylene + water; phases: Liquid mixture 1, Liquid mixture 2
Property: Mole fraction of water (Liquid mixture 1); method: Titration method
Temperature, K	Pressure, kPa	Mole fraction of water	uncertainty
303.2	100	.00301	.02
323.2	100	.00468	.04
343.2	100	.0073	.32

System: 1,4-xylene + water; phases: Liquid mixture 2, Liquid mixture 1
Property: Mole fraction of 1,4-xylene (Liquid mixture 2); method: Chromatography
Temperature, K	Pressure, kPa	Mole fraction of 1,4-xylene	uncertainty
303.2	100	.0000328	.11
323.2	100	.0000387	.15
343.2	100	.0000507	.17

System: palmitic acid, methyl ester + water; phases: Liquid mixture 1, Liquid mixture 2
Property: Mole fraction of water (Liquid mixture 1); method: Titration method
Temperature, K	Pressure, kPa	Mole fraction of water	uncertainty
308.2	100	.0364	.08
323.2	100	.0393	.09
343.2	100	.0458	.25

System: palmitic acid, methyl ester + water; phases: Liquid mixture 2, Liquid mixture 1
Property: Mole fraction of palmitic acid, methyl ester (Liquid mixture 2); method: Chromatography
Temperature, K	Pressure, kPa	Mole fraction of palmitic acid, methyl ester	uncertainty
308.2	100	.000000942	.24
323.2	100	.00000134	.53
343.2	100	.00000218	.77

System: benzene + 1,4-xylene + water; phases: Liquid mixture 2, Liquid mixture 1
Property: Mole fraction of water (Liquid mixture 2); method: Titration method
Property: Mole fraction of benzene (Liquid mixture 1); method: Titration method
Property: Mole fraction of 1,4-xylene (Liquid mixture 1); method: Titration method
Temperature, K	Pressure, kPa	Mole fraction of benzene	Mole fraction of water	uncertainty	Mole fraction of benzene	uncertainty	Mole fraction of 1,4-xylene	uncertainty
303.2	100	.0701	.00301		.0000449		.0000328	
303.2	100	.0275	.00301		.0000163		.0000328	
303.2	100	.0072	.00301		.000004		.0000328	
323.2	100	.0643	.00468		.0000493		.0000387	
323.2	100	.0277	.00468		.0000203		.0000387	
323.2	100	.0071	.00468		.0000046		.0000387	
343.2	100	.0615	.0073		.0000559		.0000507	
343.2	100	.0276	.0073		.0000241		.0000507	
343.2	100	.007	.0073		.0000057		.0000507	

System: 1,4-xylene + toluene + water; phases: Liquid mixture 2, Liquid mixture 1
Property: Mole fraction of water (Liquid mixture 2); method: Titration method
Property: Mole fraction of 1,4-xylene (Liquid mixture 1); method: Titration method
Property: Mole fraction of toluene (Liquid mixture 1); method: Titration method
Temperature, K	Pressure, kPa	Mole fraction of toluene	Mole fraction of water	uncertainty	Mole fraction of 1,4-xylene	uncertainty	Mole fraction of toluene	uncertainty
303.2	100	.0597	.00301		.0000328		.00000747	
303.2	100	.0237	.00301		.0000328		.00000294	
303.2	100	.0065	.00301		.0000328		.00000083	
323.2	100	.0569	.00468		.0000387		.00000918	
323.2	100	.0238	.00468		.0000387		.00000385	
323.2	100	.0064	.00468		.0000387		.00000104	
343.2	100	.0561	.0073		.0000507		.00001151	
343.2	100	.0239	.0073		.0000507		.00000466	
343.2	100	.0064	.0073		.0000507		.00000122	

System: 1,4-xylene + carbolic acid + water; phases: Liquid mixture 2, Liquid mixture 1
Property: Mole fraction of water (Liquid mixture 2); method: Titration method
Property: Mole fraction of carbolic acid (Liquid mixture 1); method: Titration method
Property: Mole fraction of 1,4-xylene (Liquid mixture 1); method: Titration method
Temperature, K	Pressure, kPa	Mole fraction of carbolic acid	Mole fraction of water	uncertainty	Mole fraction of carbolic acid	uncertainty	Mole fraction of 1,4-xylene	uncertainty
303.2	100	.0385	.00301		.00313		.0000328	
303.2	100	.0147	.00301		.00146		.0000328	
303.2	100	.0032	.00301		.00034		.0000328	
323.2	100	.0377	.00468		.00256		.0000387	
323.2	100	.0151	.00468		.00122		.0000387	
323.2	100	.0037	.00468		.00033		.0000387	
343.2	100	.0371	.0073		.00223		.0000507	
343.2	100	.0152	.0073		.00112		.0000507	
343.2	100	.0038	.0073		.00028		.0000507	

System: benzene + palmitic acid, methyl ester + water; phases: Liquid mixture 2, Liquid mixture 1
Property: Mole fraction of water (Liquid mixture 2); method: Titration method
Property: Mole fraction of benzene (Liquid mixture 1); method: Titration method
Property: Mole fraction of palmitic acid, methyl ester (Liquid mixture 1); method: Titration method
Temperature, K	Pressure, kPa	Mole fraction of benzene	Mole fraction of water	uncertainty	Mole fraction of benzene	uncertainty	Mole fraction of palmitic acid, methyl ester	uncertainty
308.2	100	.135	.0364		.0000691		.000000942	
308.2	100	.063	.0364		.0000299		.000000942	
308.2	100	.0173	.0364		.000007		.000000942	
323.2	100	.131	.0393		.0000737		.00000134	
323.2	100	.0629	.0393		.0000319		.00000134	
323.2	100	.0173	.0393		.0000078		.00000134	
343.2	100	.125	.0458		.0000832		.00000218	
343.2	100	.0626	.0458		.0000379		.00000218	
343.2	100	.0173	.0458		.0000091		.00000218	

System: toluene + palmitic acid, methyl ester + water; phases: Liquid mixture 2, Liquid mixture 1
Property: Mole fraction of water (Liquid mixture 2); method: Titration method
Property: Mole fraction of toluene (Liquid mixture 1); method: Titration method
Property: Mole fraction of palmitic acid, methyl ester (Liquid mixture 1); method: Titration method
Temperature, K	Pressure, kPa	Mole fraction of toluene	Mole fraction of water	uncertainty	Mole fraction of toluene	uncertainty	Mole fraction of palmitic acid, methyl ester	uncertainty
308.2	100	.116	.0364		.0000134		.000000942	
308.2	100	.0533	.0364		.00000552		.000000942	
308.2	100	.015	.0364		.0000015		.000000942	
323.2	100	.116	.0393		.0000147		.00000134	
323.2	100	.0532	.0393		.00000608		.00000134	
323.2	100	.0151	.0393		.00000176		.00000134	
343.2	100	.113	.0458		.0000183		.00000218	
343.2	100	.0534	.0458		.00000756		.00000218	
343.2	100	.0152	.0458		.00000208		.00000218	

System: carbolic acid + palmitic acid, methyl ester + water; phases: Liquid mixture 1, Liquid mixture 2
Property: Mole fraction of palmitic acid, methyl ester (Liquid mixture 1); method: Titration method
Property: Mole fraction of carbolic acid (Liquid mixture 2); method: Titration method
Property: Mole fraction of water (Liquid mixture 2); method: Titration method
Temperature, K	Pressure, kPa	Mole fraction of carbolic acid	Mole fraction of palmitic acid, methyl ester	uncertainty	Mole fraction of carbolic acid	uncertainty	Mole fraction of water	uncertainty
308.2	100	.000865	.000000942		.101		.0364	
308.2	100	.000351	.000000942		.0465		.0364	
308.2	100	.000115	.000000942		.0117		.0364	
323.2	100	.000983	.00000134		.0985		.0393	
323.2	100	.000398	.00000134		.0461		.0393	
323.2	100	.000132	.00000134		.0115		.0393	
343.2	100	.00115	.00000218		.0957		.0458	
343.2	100	.00046	.00000218		.0449		.0458	
343.2	100	.000154	.00000218		.0111		.0458	
