Measured thermophysical data. Experimental thermochemical study of 4,5-dichloro-2-nitroaniline
Source: J. Chem. Thermodyn., 2009, 10.1016/j.jct.2009.05.013
Compound 1: 4,5-dichloro-2-nitroaniline, C6H4Cl2N2O2, purity 96%
Compound 2: hydrogen chloride, ClH
Compound 3: carbon dioxide, CO2
Compound 4: nitrogen, N2
Compound 5: water, H2O
Compound 6: oxygen, O2

System: 4,5-dichloro-2-nitroaniline; phases: Crystal, Gas
Property: Vapor or sublimation pressure, kPa (Crystal); method: Knudsen effusion method
Temperature, K	Vapor or sublimation pressure, kPa	uncertainty
351.325	.000199	
353.214	.000251	
357.236	.000364	
359.422	.000463	
361.446	.000565	
363.232	.000665	
365.49	.000831	
367.376	.000995	
351.325	.000196	
353.214	.000243	
355.25	.000288	
357.236	.000355	
359.422	.000453	
361.446	.000558	
363.232	.000673	
365.49	.000843	
367.376	.000996	
351.325	.000193	
353.214	.000239	
355.25	.000286	
359.422	.000452	
361.446	.000552	
363.232	.000675	
365.49	.000807	
367.376	.000976	

Reaction: -1 4,5-dichloro-2-nitroaniline + 2 hydrogen chloride + 6 carbon dioxide + 1 nitrogen + 1 water + -5.5 oxygen
Property: Specific internal energy of reaction at constant volume, J/g
-13931.5
