Measured thermophysical data. Density, speed of sound, viscosity, refractive index and surface tension  of N-methyl-2-pyrrolidone + diethanolamine (or triethanolamine)  from T = (293.15 to 323.15) K
Source: J. Chem. Thermodyn., 2013, 10.1016/j.jct.2013.01.020
Compound 1: 2,2',2''-nitrilotriethanol, C6H15NO3, purity 98%
Compound 2: 1-methylpyrrolidone, C5H9NO, purity 99%
Compound 3: iminodiethanol, C4H11NO2, purity 98%

System: 2,2',2''-nitrilotriethanol; phases: Liquid, Air at 1 atmosphere
Property: Surface tension liquid-gas, N/m (Liquid); method: Wilhelmy Plate Method
Temperature, K	Surface tension liquid-gas, N/m	uncertainty
298.15	.0461	.0004
293.15	.0464	.0004
303.15	.0459	.0004
313.15	.0452	.0004
323.15	.0444	.0004

System: 2,2',2''-nitrilotriethanol; phases: Liquid
Property: Mass density, kg/m3 (Liquid); method: Vibrating tube method
Temperature, K	Pressure, kPa	Mass density, kg/m3	uncertainty
293.15	101	1124.1	.2
303.15	101	1118.6	.2
313.15	101	1112.9	.2
323.15	101	1107.3	.2
298.15	101	1121.1	.2

System: 2,2',2''-nitrilotriethanol; phases: Liquid
Property: Speed of sound, m/s (Liquid); method: Sing-around technique in a fixed-path interferometer
Temperature, K	Pressure, kPa	Speed of sound, m/s	uncertainty
293.15	101	1628.8	1.2
303.15	101	1605.4	1.2
313.15	101	1588.1	1.2
323.15	101	1571.9	1.2
298.15	101	1618.4	1.2

System: 2,2',2''-nitrilotriethanol; phases: Liquid
Fixed: Pressure, kPa = 101.325
Property: Refractive index (Na D-line) (Liquid); method: Standard Abbe refractometry
Temperature, K	Refractive index (Na D-line)	uncertainty
293.15	1.4841	.001
303.15	1.482	.001
313.15	1.4798	.001
323.15	1.476	.001
298.15	1.4832	.001

System: 2,2',2''-nitrilotriethanol; phases: Liquid
Property: Viscosity, Pa*s (Liquid); method: Capillary tube (Ostwald; Ubbelohde) method
Temperature, K	Pressure, kPa	Viscosity, Pa*s	uncertainty
293.15	101	.9117	.045585
303.15	101	.403	.02015
313.15	101	.2041	.010205
323.15	101	.1085	.005425
298.15	101	.6064	.03032

System: 1-methylpyrrolidone; phases: Liquid, Air at 1 atmosphere
Property: Surface tension liquid-gas, N/m (Liquid); method: Wilhelmy Plate Method
Temperature, K	Surface tension liquid-gas, N/m	uncertainty
298.15	.0408	.0004
293.15	.0413	.0004
303.15	.0404	.0004
313.15	.0396	.0004
323.15	.0387	.0004

System: 1-methylpyrrolidone; phases: Liquid
Property: Mass density, kg/m3 (Liquid); method: Vibrating tube method
Temperature, K	Pressure, kPa	Mass density, kg/m3	uncertainty
293.15	101	1033.6	.2
303.15	101	1024.7	.2
313.15	101	1015.7	.2
323.15	101	1006.8	.2
298.15	101	1028.7	.2

System: 1-methylpyrrolidone; phases: Liquid
Property: Speed of sound, m/s (Liquid); method: Sing-around technique in a fixed-path interferometer
Temperature, K	Pressure, kPa	Speed of sound, m/s	uncertainty
293.15	101	1567.9	1.2
303.15	101	1529.7	1.2
313.15	101	1491.2	1.2
323.15	101	1454.6	1.2
298.15	101	1546.5	1.2

System: 1-methylpyrrolidone; phases: Liquid
Fixed: Pressure, kPa = 101.325
Property: Refractive index (Na D-line) (Liquid); method: Standard Abbe refractometry
Temperature, K	Refractive index (Na D-line)	uncertainty
293.15	1.4688	.001
303.15	1.4657	.001
313.15	1.4621	.001
323.15	1.4579	.001
293.15	1.4698	.001
313.15	1.4614	.001
323.15	1.4569	.001
298.15	1.4678	.001

System: 1-methylpyrrolidone; phases: Liquid
Property: Viscosity, Pa*s (Liquid); method: Capillary tube (Ostwald; Ubbelohde) method
Temperature, K	Pressure, kPa	Viscosity, Pa*s	uncertainty
293.15	101	.001899	.00009495
303.15	101	.001592	.0000796
313.15	101	.001353	.00006765
323.15	101	.00117	.0000585
298.15	101	.001714	.0000857

System: iminodiethanol; phases: Liquid, Gas
Property: Surface tension liquid-gas, N/m (Liquid); method: Wilhelmy Plate Method
Temperature, K	Surface tension liquid-gas, N/m	uncertainty
298.15	.047	.0004
293.15	.0472	.0004
303.15	.0465	.0004
313.15	.046	.0004
323.15	.0454	.0004

System: iminodiethanol; phases: Liquid
Property: Mass density, kg/m3 (Liquid); method: Vibrating tube method
Temperature, K	Pressure, kPa	Mass density, kg/m3	uncertainty
293.15	101	1096.4	.2
303.15	101	1090	.2
313.15	101	1083.5	.2
323.15	101	1077	.2
298.15	101	1093.2	.2

System: iminodiethanol; phases: Liquid
Property: Speed of sound, m/s (Liquid); method: Sing-around technique in a fixed-path interferometer
Temperature, K	Pressure, kPa	Speed of sound, m/s	uncertainty
293.15	101	1739	1.2
303.15	101	1711	1.2
313.15	101	1685.3	1.2
323.15	101	1660.7	1.2
298.15	101	1723.2	1.2

System: iminodiethanol; phases: Liquid
Fixed: Pressure, kPa = 101.325
Property: Refractive index (Na D-line) (Liquid); method: Standard Abbe refractometry
Temperature, K	Refractive index (Na D-line)	uncertainty
293.15	1.477	.001
303.15	1.4742	.001
313.15	1.472	.001
323.15	1.4679	.001
298.15	1.4758	.001

System: iminodiethanol; phases: Liquid
Property: Viscosity, Pa*s (Liquid); method: Capillary tube (Ostwald; Ubbelohde) method
Temperature, K	Pressure, kPa	Viscosity, Pa*s	uncertainty
293.15	101	.8415	.042075
303.15	101	.3657	.018285
313.15	101	.1798	.00899
323.15	101	.0897	.004485
298.15	101	.5672	.02836

System: 2,2',2''-nitrilotriethanol + 1-methylpyrrolidone; phases: Liquid
Fixed: Pressure, kPa = 101
Property: Mass density, kg/m3 (Liquid); method: Vibrating tube method
Temperature, K	Mole fraction of 1-methylpyrrolidone	Mass density, kg/m3	uncertainty
293.15	0	1124.1	.2
293.15	.1012	1116.7	.2
293.15	.2002	1109.4	.2
293.15	.3004	1101.7	.2
293.15	.4003	1094.2	.2
293.15	.4998	1085	.2
293.15	.6003	1075.9	.2
293.15	.7	1066.8	.2
293.15	.7997	1056.2	.2
293.15	.8994	1045.6	.2
293.15	1	1033.6	.2
303.15	0	1118.6	.2
303.15	.1012	1110.8	.2
303.15	.2002	1103.3	.2
303.15	.3004	1095.2	.2
303.15	.4003	1087.4	.2
303.15	.4998	1077.8	.2
303.15	.6003	1068.4	.2
303.15	.7	1059	.2
303.15	.7997	1048.1	.2
303.15	.8994	1037.1	.2
303.15	1	1024.7	.2
313.15	0	1112.9	.2
313.15	.1012	1105	.2
313.15	.2002	1097.1	.2
313.15	.3004	1088.7	.2
313.15	.4003	1080.5	.2
313.15	.4998	1070.6	.2
313.15	.6003	1060.9	.2
313.15	.7	1051.1	.2
313.15	.7997	1040	.2
313.15	.8994	1028.6	.2
313.15	1	1015.7	.2
323.15	0	1107.3	.2
323.15	.1012	1099	.2
323.15	.2002	1090.8	.2
323.15	.3004	1082	.2
323.15	.4003	1073.6	.2
323.15	.4998	1063.3	.2
323.15	.6003	1053.3	.2
323.15	.7	1043.2	.2
323.15	.7997	1031.9	.2
323.15	.8994	1020	.2
323.15	1	1006.8	.2

System: 2,2',2''-nitrilotriethanol + 1-methylpyrrolidone; phases: Liquid
Fixed: Pressure, kPa = 101
Property: Speed of sound, m/s (Liquid); method: Sing-around technique in a fixed-path interferometer
Temperature, K	Mole fraction of 1-methylpyrrolidone	Speed of sound, m/s	uncertainty
293.15	0	1628.8	1.2
293.15	.0728	1618.8	1.2
293.15	.1508	1611.2	1.2
293.15	.2354	1604.9	1.2
293.15	.3199	1599.7	1.2
293.15	.4141	1594.6	1.2
293.15	.5135	1589.2	1.2
293.15	.6225	1585.2	1.2
293.15	.7384	1579.6	1.2
293.15	.863	1573.5	1.2
293.15	1	1567.9	1.2
303.15	0	1605.4	1.2
303.15	.0728	1596	1.2
303.15	.1508	1588.9	1.2
303.15	.2354	1581.2	1.2
303.15	.3199	1574.3	1.2
303.15	.4141	1567.7	1.2
303.15	.5135	1560	1.2
303.15	.6225	1554.1	1.2
303.15	.7384	1546.1	1.2
303.15	.863	1537.6	1.2
303.15	1	1529.7	1.2
313.15	0	1588.1	1.2
313.15	.0728	1577.3	1.2
313.15	.1508	1568.3	1.2
313.15	.2354	1559.2	1.2
313.15	.3199	1551.1	1.2
313.15	.4141	1541.1	1.2
313.15	.5135	1531.2	1.2
313.15	.6225	1522.5	1.2
313.15	.7384	1511.2	1.2
313.15	.863	1501.5	1.2
313.15	1	1491.2	1.2
323.15	0	1571.9	1.2
323.15	.0728	1559.6	1.2
323.15	.1508	1548.4	1.2
323.15	.2354	1537.4	1.2
323.15	.3199	1526.8	1.2
323.15	.4141	1514.4	1.2
323.15	.5135	1502.5	1.2
323.15	.6225	1491.7	1.2
323.15	.7384	1478.6	1.2
323.15	.863	1466	1.2
323.15	1	1454.6	1.2

System: 2,2',2''-nitrilotriethanol + 1-methylpyrrolidone; phases: Liquid
Fixed: Pressure, kPa = 101
Property: Refractive index (Na D-line) (Liquid); method: Standard Abbe refractometry
Temperature, K	Mole fraction of 1-methylpyrrolidone	Refractive index (Na D-line)	uncertainty
293.15	0	1.4841	.001
293.15	.0728	1.4834	.001
293.15	.1508	1.4827	.001
293.15	.2354	1.4817	.001
293.15	.3199	1.4809	.001
293.15	.4141	1.4798	.001
293.15	.5135	1.4783	.001
293.15	.6225	1.4767	.001
293.15	.7384	1.4749	.001
293.15	.863	1.4727	.001
293.15	1	1.4688	.001
303.15	0	1.482	.001
303.15	.0728	1.4812	.001
303.15	.1508	1.4801	.001
303.15	.2354	1.4788	.001
303.15	.3199	1.4777	.001
303.15	.4141	1.4764	.001
303.15	.5135	1.4746	.001
303.15	.6225	1.473	.001
303.15	.7384	1.4713	.001
303.15	.863	1.4691	.001
303.15	1	1.4657	.001
313.15	0	1.4798	.001
313.15	.0728	1.4787	.001
313.15	.1508	1.4774	.001
313.15	.2354	1.4759	.001
313.15	.3199	1.4745	.001
313.15	.4141	1.473	.001
313.15	.5135	1.4713	.001
313.15	.6225	1.4695	.001
313.15	.7384	1.4673	.001
313.15	.863	1.4652	.001
313.15	1	1.4621	.001
323.15	0	1.476	.001
323.15	.0728	1.4757	.001
323.15	.1508	1.4744	.001
323.15	.2354	1.4728	.001
323.15	.3199	1.4714	.001
323.15	.4141	1.4698	.001
323.15	.5135	1.4679	.001
323.15	.6225	1.4658	.001
323.15	.7384	1.4636	.001
323.15	.863	1.4609	.001
323.15	1	1.4579	.001

System: 2,2',2''-nitrilotriethanol + 1-methylpyrrolidone; phases: Liquid
Fixed: Pressure, kPa = 101
Property: Viscosity, Pa*s (Liquid); method: Capillary tube (Ostwald; Ubbelohde) method
Temperature, K	Mole fraction of 1-methylpyrrolidone	Viscosity, Pa*s	uncertainty
293.15	0	.9117	.045585
293.15	.0728	.5729	.028645
293.15	.1508	.3374	.01687
293.15	.2354	.1624	.00812
293.15	.3199	.08429	.0042145
293.15	.4141	.04336	.002168
293.15	.5135	.02293	.0011465
293.15	.6225	.0112	.00056
293.15	.7384	.006152	.0003076
293.15	.863	.003354	.0001677
293.15	1	.001899	.00009495
303.15	0	.403	.02015
303.15	.0728	.2552	.01276
303.15	.1508	.1594	.00797
303.15	.2354	.08421	.0042105
303.15	.3199	.04761	.0023805
303.15	.4141	.02751	.0013755
303.15	.5135	.01493	.0007465
303.15	.6225	.008012	.0004006
303.15	.7384	.00462	.000231
303.15	.863	.002747	.00013735
303.15	1	.001592	.0000796
313.15	0	.2041	.010205
313.15	.0728	.1238	.00619
313.15	.1508	.07719	.0038595
313.15	.2354	.04761	.0023805
313.15	.3199	.0289	.001445
313.15	.4141	.01682	.000841
313.15	.5135	.01034	.000517
313.15	.6225	.005907	.00029535
313.15	.7384	.003554	.0001777
313.15	.863	.001892	.0000946
313.15	1	.001353	.00006765
323.15	0	.1085	.005425
323.15	.0728	.05697	.0028485
323.15	.1508	.04067	.0020335
323.15	.2354	.02954	.001477
323.15	.3199	.01875	.0009375
323.15	.4141	.01133	.0005665
323.15	.5135	.007604	.0003802
323.15	.6225	.004552	.0002276
323.15	.7384	.002766	.0001383
323.15	.863	.001497	.00007485
323.15	1	.00117	.0000585

System: 2,2',2''-nitrilotriethanol + 1-methylpyrrolidone; phases: Liquid, Air at 1 atmosphere
Property: Surface tension liquid-gas, N/m (Liquid); method: Wilhelmy Plate Method
Temperature, K	Mole fraction of 1-methylpyrrolidone	Surface tension liquid-gas, N/m	uncertainty
293.15	0	.0464	.0004
293.15	.0728	.0458	.0004
293.15	.1508	.0452	.0004
293.15	.2354	.0447	.0004
293.15	.3199	.0442	.0004
293.15	.4141	.0437	.0004
293.15	.5135	.0432	.0004
293.15	.6225	.0427	.0004
293.15	.7384	.0422	.0004
293.15	.863	.0417	.0004
293.15	1	.0413	.0004
303.15	0	.0459	.0004
303.15	.0728	.0453	.0004
303.15	.1508	.0449	.0004
303.15	.2354	.0443	.0004
303.15	.3199	.0438	.0004
303.15	.4141	.0433	.0004
303.15	.5135	.0427	.0004
303.15	.6225	.0421	.0004
303.15	.7384	.0416	.0004
303.15	.863	.041	.0004
303.15	1	.0404	.0004
313.15	0	.0452	.0004
313.15	.0728	.0447	.0004
313.15	.1508	.0441	.0004
313.15	.2354	.0436	.0004
313.15	.3199	.0429	.0004
313.15	.4141	.0425	.0004
313.15	.5135	.042	.0004
313.15	.6225	.0414	.0004
313.15	.7384	.0408	.0004
313.15	.863	.0401	.0004
313.15	1	.0396	.0004
323.15	0	.0444	.0004
323.15	.0728	.0439	.0004
323.15	.1508	.0433	.0004
323.15	.2354	.0428	.0004
323.15	.3199	.0422	.0004
323.15	.4141	.0417	.0004
323.15	.5135	.041	.0004
323.15	.6225	.0404	.0004
323.15	.7384	.0399	.0004
323.15	.863	.0393	.0004
323.15	1	.0387	.0004

System: iminodiethanol + 1-methylpyrrolidone; phases: Liquid
Fixed: Pressure, kPa = 101
Property: Mass density, kg/m3 (Liquid); method: Vibrating tube method
Temperature, K	Mole fraction of 1-methylpyrrolidone	Mass density, kg/m3	uncertainty
293.15	0	1096.4	.2
293.15	.1012	1089.2	.2
293.15	.2002	1082.4	.2
293.15	.3004	1075.4	.2
293.15	.4003	1068.7	.2
293.15	.4998	1062.1	.2
293.15	.6003	1055.6	.2
293.15	.7	1049.4	.2
293.15	.7997	1043.6	.2
293.15	.8994	1038.6	.2
293.15	1	1033.6	.2
303.15	0	1090	.2
303.15	.1012	1082.4	.2
303.15	.2002	1075.4	.2
303.15	.3004	1068.2	.2
303.15	.4003	1061.2	.2
303.15	.4998	1054.3	.2
303.15	.6003	1047.6	.2
303.15	.7	1041.1	.2
303.15	.7997	1035.1	.2
303.15	.8994	1029.9	.2
303.15	1	1024.7	.2
313.15	0	1083.5	.2
313.15	.1012	1075.7	.2
313.15	.2002	1068.3	.2
313.15	.3004	1060.8	.2
313.15	.4003	1053.5	.2
313.15	.4998	1046.4	.2
313.15	.6003	1039.5	.2
313.15	.7	1032.7	.2
313.15	.7997	1026.6	.2
313.15	.8994	1021.2	.2
313.15	1	1015.7	.2
323.15	0	1077	.2
323.15	.1012	1068.8	.2
323.15	.2002	1061.3	.2
323.15	.3004	1053.4	.2
323.15	.4003	1045.8	.2
323.15	.4998	1038.5	.2
323.15	.6003	1031.4	.2
323.15	.7	1024.4	.2
323.15	.7997	1018	.2
323.15	.8994	1012.5	.2
323.15	1	1006.8	.2

System: iminodiethanol + 1-methylpyrrolidone; phases: Liquid
Fixed: Pressure, kPa = 101
Property: Speed of sound, m/s (Liquid); method: Sing-around technique in a fixed-path interferometer
Temperature, K	Mole fraction of 1-methylpyrrolidone	Speed of sound, m/s	uncertainty
293.15	0	1739	1.2
293.15	.1012	1710.4	1.2
293.15	.2002	1686.3	1.2
293.15	.3004	1663.3	1.2
293.15	.4003	1643.5	1.2
293.15	.4998	1626.3	1.2
293.15	.6003	1608.7	1.2
293.15	.7	1592.9	1.2
293.15	.7997	1582.3	1.2
293.15	.8994	1575	1.2
293.15	1	1567.9	1.2
303.15	0	1711	1.2
303.15	.1012	1682.5	1.2
303.15	.2002	1658.8	1.2
303.15	.3004	1633.8	1.2
303.15	.4003	1612.6	1.2
303.15	.4998	1594.1	1.2
303.15	.6003	1575.9	1.2
303.15	.7	1558.1	1.2
303.15	.7997	1546.8	1.2
303.15	.8994	1538	1.2
303.15	1	1529.7	1.2
313.15	0	1685.3	1.2
313.15	.1012	1656.3	1.2
313.15	.2002	1631.3	1.2
313.15	.3004	1604.8	1.2
313.15	.4003	1582.3	1.2
313.15	.4998	1562.4	1.2
313.15	.6003	1543.2	1.2
313.15	.7	1524.2	1.2
313.15	.7997	1511.1	1.2
313.15	.8994	1500.8	1.2
313.15	1	1491.2	1.2
323.15	0	1660.7	1.2
323.15	.1012	1630.7	1.2
323.15	.2002	1603.5	1.2
323.15	.3004	1575.7	1.2
323.15	.4003	1552.1	1.2
323.15	.4998	1531	1.2
323.15	.6003	1510.5	1.2
323.15	.7	1490	1.2
323.15	.7997	1476.5	1.2
323.15	.8994	1464.5	1.2
323.15	1	1454.6	1.2

System: iminodiethanol + 1-methylpyrrolidone; phases: Liquid
Fixed: Pressure, kPa = 101
Property: Refractive index (Na D-line) (Liquid); method: Standard Abbe refractometry
Temperature, K	Mole fraction of 1-methylpyrrolidone	Refractive index (Na D-line)	uncertainty
293.15	0	1.477	.001
293.15	.1012	1.4764	.001
293.15	.2002	1.4758	.001
293.15	.3004	1.4749	.001
293.15	.4003	1.4742	.001
293.15	.4998	1.4735	.001
293.15	.6003	1.4728	.001
293.15	.7	1.4722	.001
293.15	.7997	1.4713	.001
293.15	.8994	1.4706	.001
293.15	1	1.4698	.001
303.15	0	1.4742	.001
303.15	.1012	1.4737	.001
303.15	.2002	1.473	.001
303.15	.3004	1.472	.001
303.15	.4003	1.471	.001
303.15	.4998	1.4703	.001
303.15	.6003	1.4692	.001
303.15	.7	1.4684	.001
303.15	.7997	1.4675	.001
303.15	.8994	1.4666	.001
303.15	1	1.4657	.001
313.15	0	1.472	.001
313.15	.1012	1.4702	.001
313.15	.2002	1.4694	.001
313.15	.3004	1.4682	.001
313.15	.4003	1.467	.001
313.15	.4998	1.4659	.001
313.15	.6003	1.4651	.001
313.15	.7	1.464	.001
313.15	.7997	1.4629	.001
313.15	.8994	1.4621	.001
313.15	1	1.4614	.001
323.15	0	1.4679	.001
323.15	.1012	1.4669	.001
323.15	.2002	1.4661	.001
323.15	.3004	1.4649	.001
323.15	.4003	1.4635	.001
323.15	.4998	1.4624	.001
323.15	.6003	1.4616	.001
323.15	.7	1.4602	.001
323.15	.7997	1.4591	.001
323.15	.8994	1.458	.001
323.15	1	1.4569	.001

System: iminodiethanol + 1-methylpyrrolidone; phases: Liquid
Fixed: Pressure, kPa = 101
Property: Viscosity, Pa*s (Liquid); method: Capillary tube (Ostwald; Ubbelohde) method
Temperature, K	Mole fraction of 1-methylpyrrolidone	Viscosity, Pa*s	uncertainty
293.15	0	.8415	.042075
293.15	.1012	.4572	.02286
293.15	.2002	.2222	.01111
293.15	.3004	.08535	.0042675
293.15	.4003	.05369	.0026845
293.15	.4998	.02776	.001388
293.15	.6003	.01621	.0008105
293.15	.7	.007618	.0003809
293.15	.7997	.004326	.0002163
293.15	.8994	.002841	.00014205
293.15	1	.001899	.00009495
303.15	0	.3657	.018285
303.15	.1012	.2116	.01058
303.15	.2002	.1062	.00531
303.15	.3004	.04736	.002368
303.15	.4003	.03119	.0015595
303.15	.4998	.01674	.000837
303.15	.6003	.009543	.00047715
303.15	.7	.005537	.00027685
303.15	.7997	.003448	.0001724
303.15	.8994	.002318	.0001159
303.15	1	.001592	.0000796
313.15	0	.1798	.00899
313.15	.1012	.1002	.00501
313.15	.2002	.06047	.0030235
313.15	.3004	.02826	.001413
313.15	.4003	.01932	.000966
313.15	.4998	.0106	.00053
313.15	.6003	.00575	.0002875
313.15	.7	.004107	.00020535
313.15	.7997	.002746	.0001373
313.15	.8994	.001927	.00009635
313.15	1	.001353	.00006765
323.15	0	.0897	.004485
323.15	.1012	.03839	.0019195
323.15	.2002	.02487	.0012435
323.15	.3004	.01759	.0008795
323.15	.4003	.01245	.0006225
323.15	.4998	.007513	.00037565
323.15	.6003	.003961	.00019805
323.15	.7	.00318	.000159
323.15	.7997	.002257	.00011285
323.15	.8994	.00163	.0000815
323.15	1	.00117	.0000585

System: iminodiethanol + 1-methylpyrrolidone; phases: Liquid, Air at 1 atmosphere
Property: Surface tension liquid-gas, N/m (Liquid); method: Wilhelmy Plate Method
Temperature, K	Mole fraction of 1-methylpyrrolidone	Surface tension liquid-gas, N/m	uncertainty
293.15	0	.0472	.0004
293.15	.1012	.0464	.0004
293.15	.2002	.0456	.0004
293.15	.3004	.0449	.0004
293.15	.4003	.0442	.0004
293.15	.4998	.0436	.0004
293.15	.6003	.0431	.0004
293.15	.7	.0425	.0004
293.15	.7997	.0421	.0004
293.15	.8994	.0416	.0004
293.15	1	.0413	.0004
303.15	0	.0465	.0004
303.15	.1012	.0457	.0004
303.15	.2002	.0449	.0004
303.15	.3004	.0442	.0004
303.15	.4003	.0437	.0004
303.15	.4998	.0428	.0004
303.15	.6003	.0422	.0004
303.15	.7	.0417	.0004
303.15	.7997	.0413	.0004
303.15	.8994	.0408	.0004
303.15	1	.0404	.0004
313.15	0	.046	.0004
313.15	.1012	.0453	.0004
313.15	.2002	.0444	.0004
313.15	.3004	.0436	.0004
313.15	.4003	.0429	.0004
313.15	.4998	.0422	.0004
313.15	.6003	.0417	.0004
313.15	.7	.0411	.0004
313.15	.7997	.0405	.0004
313.15	.8994	.04	.0004
313.15	1	.0396	.0004
323.15	0	.0454	.0004
323.15	.1012	.0446	.0004
323.15	.2002	.0437	.0004
323.15	.3004	.043	.0004
323.15	.4003	.0423	.0004
323.15	.4998	.0415	.0004
323.15	.6003	.0407	.0004
323.15	.7	.0401	.0004
323.15	.7997	.0395	.0004
323.15	.8994	.0391	.0004
323.15	1	.0387	.0004
