Measured thermophysical data. Partial molar volumes of organic solutes in water. XIX. Cyclic alcohols(aq)  at T = (298 to 573) K and at pressures up to 30 MPa
Source: J. Chem. Thermodyn., 2009, 10.1016/j.jct.2008.11.006
Compound 1: cyclopentanol, C5H10O, purity 99%
Compound 2: cyclohexanol, C6H12O, purity 99%
Compound 3: cycloheptanol, C7H14O, purity 97%
Compound 4: cyclooctanol, C8H16O, purity 98%
Compound 5: cyclohexylmethanol, C7H14O, purity 99%
Compound 6: 2-cyclohexylethanol, C8H16O, purity 99%
Compound 7: water, H2O

System: cyclopentanol + water; phases: Liquid
Property: Mass density, kg/m3 (Liquid); method: Vibrating tube method
Temperature, K	Pressure, kPa	Molality, mol/kg of cyclopentanol	Mass density, kg/m3	uncertainty
298.14	15010	.045324	-.1378	.003
298.14	15010	.045324	-.1415	.003
298.14	15010	.045324	-.1395	.003
298.14	15010	.045324	-.1386	.003
298.14	15010	.045324	-.1422	.003
298.14	15010	.045324	-.1395	.003
298.14	15010	.104916	-.3104	.003
298.14	15010	.104916	-.3103	.003
298.14	15010	.104916	-.3111	.003
298.14	15010	.104916	-.311	.003
298.14	15010	.104916	-.313	.003
298.14	15010	.215073	-.5844	.003
298.14	15010	.215073	-.5862	.003
298.14	15010	.215073	-.5859	.003
298.14	15010	.215073	-.5873	.003
298.14	15010	.215073	-.5868	.003
298.14	15010	.308765	-.7844	.003
298.14	15010	.308765	-.7817	.003
298.14	15010	.308765	-.784	.003
298.14	15010	.308765	-.786	.003
298.14	15010	.308765	-.784	.003
298.14	15010	.401524	-.9532	.003
298.14	15010	.401524	-.9548	.003
298.14	15010	.401524	-.9568	.003
298.14	15010	.401524	-.9561	.003
298.14	15010	.401524	-.9568	.003
298.14	30120	.045324	-.1625	.003
298.14	30120	.045324	-.1646	.003
298.14	30120	.045324	-.1643	.003
298.14	30120	.104916	-.3645	.003
298.14	30120	.104916	-.3664	.003
298.14	30120	.104916	-.3669	.003
298.14	30120	.215073	-.6969	.003
298.14	30120	.215073	-.6989	.003
298.14	30120	.215073	-.6987	.003
298.14	30120	.308765	-.9415	.003
298.14	30120	.308765	-.9436	.003
298.14	30120	.308765	-.945	.003
298.14	30120	.401524	-1.156	.003
298.14	30120	.401524	-1.1565	.003
298.14	30120	.401524	-1.1576	.003
318.17	15010	.045324	-.1558	.003
318.17	15010	.045324	-.1574	.003
318.17	15010	.045324	-.1585	.003
318.17	15010	.104916	-.3522	.003
318.17	15010	.104916	-.3552	.003
318.17	15010	.104916	-.3536	.003
318.17	15010	.215073	-.69	.003
318.17	15010	.215073	-.6898	.003
318.17	15010	.215073	-.6918	.003
318.17	15010	.308765	-.9555	.003
318.17	15010	.308765	-.9566	.003
318.17	15010	.308765	-.9564	.003
318.17	15010	.401524	-1.2025	.003
318.17	15010	.401524	-1.2044	.003
318.17	15010	.401524	-1.2042	.003
318.17	30030	.045324	-.1683	.003
318.17	30030	.045324	-.1708	.003
318.17	30030	.045324	-.1712	.003
318.17	30030	.104916	-.3841	.003
318.17	30030	.104916	-.3854	.003
318.17	30030	.104916	-.3876	.003
318.17	30030	.215073	-.7545	.003
318.17	30030	.215073	-.7572	.003
318.17	30030	.215073	-.7562	.003
318.17	30030	.308765	-1.0477	.003
318.17	30030	.308765	-1.0487	.003
318.17	30030	.308765	-1.0496	.003
318.17	30030	.401524	-1.3179	.003
318.17	30030	.401524	-1.3202	.003
318.17	30030	.401524	-1.3201	.003
338.16	15040	.05222	-.2084	.003
338.16	15040	.05222	-.2113	.003
338.16	15040	.05222	-.2124	.003
338.16	15040	.104916	-.4186	.003
338.16	15040	.104916	-.4207	.003
338.16	15040	.104916	-.4235	.003
338.16	15040	.215073	-.8419	.003
338.16	15040	.215073	-.8437	.003
338.16	15040	.215073	-.8447	.003
338.16	15040	.300638	-1.1589	.003
338.16	15040	.300638	-1.1614	.003
338.16	15040	.300638	-1.1625	.003
338.16	15040	.401524	-1.5242	.003
338.16	15040	.401524	-1.5264	.003
338.16	15040	.401524	-1.5287	.003
338.16	30020	.05222	-.2186	.003
338.16	30020	.05222	-.2229	.003
338.16	30020	.05222	-.2213	.003
338.16	30020	.10321	-.4266	.003
338.16	30020	.10321	-.4293	.003
338.16	30020	.10321	-.4319	.003
338.16	30020	.207988	-.8453	.003
338.16	30020	.207988	-.8472	.003
338.16	30020	.207988	-.8481	.003
338.16	30020	.300638	-1.2018	.003
338.16	30020	.300638	-1.2038	.003
338.16	30020	.300638	-1.2054	.003
338.16	30020	.401524	-1.5784	.003
338.16	30020	.401524	-1.5823	.003
338.16	30020	.401524	-1.5816	.003
358.16	15030	.05222	-.2485	.003
358.16	15030	.05222	-.2502	.003
358.16	15030	.05222	-.2515	.003
358.16	15030	.10321	-.4928	.003
358.16	15030	.10321	-.4962	.003
358.16	15030	.10321	-.4974	.003
358.16	15030	.207988	-.9903	.003
358.16	15030	.207988	-.9934	.003
358.16	15030	.207988	-.9945	.003
358.16	15030	.300638	-1.4239	.003
358.16	15030	.300638	-1.4277	.003
358.16	15030	.300638	-1.4295	.003
358.16	15030	.398036	-1.8765	.003
358.16	15030	.398036	-1.8777	.003
358.16	15030	.398036	-1.8799	.003
358.16	30090	.05222	-.2544	.003
358.16	30090	.05222	-.2551	.003
358.16	30090	.10321	-.4991	.003
358.16	30090	.10321	-.503	.003
358.16	30090	.10321	-.5024	.003
358.16	30090	.207988	-.9975	.003
358.16	30090	.207988	-.9993	.003
358.16	30090	.207988	-1.0012	.003
358.16	30090	.300638	-1.4322	.003
358.16	30090	.300638	-1.4335	.003
358.16	30090	.300638	-1.4346	.003
358.16	30090	.398036	-1.8799	.003
358.16	30090	.398036	-1.8825	.003
358.16	30090	.398036	-1.8836	.003
373.16	14970	.05222	-.2842	.003
373.16	14970	.05222	-.2858	.003
373.16	14970	.05222	-.2863	.003
373.16	14970	.10321	-.5678	.003
373.16	14970	.10321	-.5683	.003
373.16	14970	.10321	-.569	.003
373.16	14970	.207988	-1.1376	.003
373.16	14970	.207988	-1.1394	.003
373.16	14970	.207988	-1.1411	.003
373.16	14970	.300638	-1.6423	.003
373.16	14970	.300638	-1.6444	.003
373.16	14970	.300638	-1.6458	.003
373.16	14970	.398036	-2.1687	.003
373.16	14970	.398036	-2.1684	.003
373.16	14970	.398036	-2.1705	.003
373.16	29940	.05222	-.2844	.003
373.16	29940	.05222	-.2839	.003
373.16	29940	.05222	-.2851	.003
373.16	29940	.10321	-.5626	.003
373.16	29940	.10321	-.5625	.003
373.16	29940	.207988	-1.1258	.003
373.16	29940	.207988	-1.1275	.003
373.16	29940	.207988	-1.1277	.003
373.16	29940	.300638	-1.6237	.003
373.16	29940	.300638	-1.6241	.003
373.16	29940	.300638	-1.6252	.003
373.16	29940	.398036	-2.1381	.003
373.16	29940	.398036	-2.1408	.003
373.16	29940	.398036	-2.1403	.003
398.15	2010	.049879	-.3462	.003
398.15	2010	.049879	-.3486	.003
398.15	2010	.049879	-.3492	.003
398.15	2010	.10321	-.7178	.003
398.15	2010	.10321	-.7198	.003
398.15	2010	.10321	-.7206	.003
398.15	2010	.207988	-1.4429	.003
398.15	2010	.207988	-1.4446	.003
398.15	2010	.207988	-1.4456	.003
398.15	2010	.300638	-2.0866	.003
398.15	2010	.300638	-2.0879	.003
398.15	2010	.300638	-2.0886	.003
398.15	2010	.398036	-2.7592	.003
398.15	2010	.398036	-2.7604	.003
398.15	2010	.398036	-2.7612	.003
398.15	15010	.049879	-.3353	.003
398.15	15010	.049879	-.3376	.003
398.15	15010	.049879	-.3371	.003
398.15	15010	.092109	-.6206	.003
398.15	15010	.092109	-.622	.003
398.15	15010	.092109	-.6218	.003
398.15	15010	.199245	-1.3378	.003
398.15	15010	.199245	-1.3396	.003
398.15	15010	.199245	-1.3403	.003
398.15	15010	.299695	-2.0067	.003
398.15	15010	.299695	-2.0092	.003
398.15	15010	.299695	-2.01	.003
398.15	15010	.398036	-2.6608	.003
398.15	15010	.398036	-2.6621	.003
398.15	15010	.398036	-2.6631	.003
398.15	29960	.049879	-.3275	.003
398.15	29960	.049879	-.329	.003
398.15	29960	.049879	-.3284	.003
398.15	29960	.092109	-.603	.003
398.15	29960	.092109	-.6034	.003
398.15	29960	.092109	-.6051	.003
398.15	29960	.199245	-1.2992	.003
398.15	29960	.199245	-1.2991	.003
398.15	29960	.199245	-1.3003	.003
398.15	29960	.299695	-1.9453	.003
398.15	29960	.299695	-1.9458	.003
398.15	29960	.299695	-1.9466	.003
398.15	29960	.398036	-2.5743	.003
398.15	29960	.398036	-2.5752	.003
398.15	29960	.398036	-2.5768	.003
423.15	1980	.049879	-.4177	.003
423.15	1980	.049879	-.4183	.003
423.15	1980	.049879	-.4199	.003
423.15	1980	.092109	-.7703	.003
423.15	1980	.092109	-.7711	.003
423.15	1980	.092109	-.772	.003
423.15	1980	.199245	-1.6622	.003
423.15	1980	.199245	-1.6633	.003
423.15	1980	.199245	-1.6643	.003
423.15	1980	.299695	-2.4929	.003
423.15	1980	.299695	-2.4934	.003
423.15	1980	.299695	-2.4955	.003
423.15	1980	.393064	-3.2623	.003
423.15	1980	.393064	-3.2633	.003
423.15	1980	.393064	-3.2649	.003
423.16	14980	.049879	-.3976	.003
423.16	14980	.049879	-.3992	.003
423.16	14980	.049879	-.3999	.003
423.16	14980	.092109	-.7334	.003
423.16	14980	.092109	-.7354	.003
423.16	14980	.092109	-.737	.003
423.16	14980	.199245	-1.5835	.003
423.16	14980	.199245	-1.5857	.003
423.16	14980	.199245	-1.5867	.003
423.16	14980	.299695	-2.3746	.003
423.16	14980	.299695	-2.3764	.003
423.16	14980	.299695	-2.3778	.003
423.16	14980	.393064	-3.1053	.003
423.16	14980	.393064	-3.1069	.003
423.16	14980	.393064	-3.1093	.003
423.17	29990	.049879	-.3799	.003
423.17	29990	.049879	-.3816	.003
423.17	29990	.049879	-.383	.003
423.17	29990	.092109	-.7009	.003
423.17	29990	.092109	-.7026	.003
423.17	29990	.092109	-.7038	.003
423.17	29990	.199245	-1.5107	.003
423.17	29990	.199245	-1.5126	.003
423.17	29990	.199245	-1.5135	.003
423.17	29990	.299695	-2.2629	.003
423.17	29990	.299695	-2.2649	.003
423.17	29990	.299695	-2.265	.003
423.17	29990	.393064	-2.9575	.003
423.17	29990	.393064	-2.9594	.003
423.17	29990	.393064	-2.9601	.003
448.15	1980	.049879	-.4862	.003
448.15	1980	.049879	-.4895	.003
448.15	1980	.049879	-.4898	.003
448.15	1980	.092109	-.899	.003
448.15	1980	.092109	-.9014	.003
448.15	1980	.092109	-.9023	.003
448.15	1980	.199245	-1.9406	.003
448.15	1980	.199245	-1.9422	.003
448.15	1980	.199245	-1.9432	.003
448.15	1980	.299695	-2.907	.003
448.15	1980	.299695	-2.9089	.003
448.15	1980	.299695	-2.9101	.003
448.15	1980	.393064	-3.7999	.003
448.15	1980	.393064	-3.8021	.003
448.15	1980	.393064	-3.8041	.003
448.15	15000	.049879	-.4606	.003
448.15	15000	.049879	-.461	.003
448.15	15000	.049879	-.462	.003
448.15	15000	.092109	-.847	.003
448.15	15000	.092109	-.8477	.003
448.15	15000	.092109	-.8484	.003
448.15	15000	.199245	-1.8257	.003
448.15	15000	.199245	-1.8267	.003
448.15	15000	.199245	-1.8279	.003
448.15	15000	.299695	-2.7331	.003
448.15	15000	.299695	-2.7355	.003
448.15	15000	.299695	-2.7345	.003
448.15	15000	.393064	-3.5713	.003
448.15	15000	.393064	-3.5723	.003
448.15	15000	.393064	-3.5727	.003
448.15	29980	.049879	-.4328	.003
448.15	29980	.049879	-.434	.003
448.15	29980	.049879	-.4345	.003
448.15	29980	.092109	-.7972	.003
448.15	29980	.092109	-.8005	.003
448.15	29980	.092109	-.7982	.003
448.15	29980	.199245	-1.7171	.003
448.15	29980	.199245	-1.7187	.003
448.15	29980	.199245	-1.719	.003
448.15	29980	.299695	-2.5687	.003
448.15	29980	.299695	-2.5698	.003
448.15	29980	.299695	-2.5704	.003
448.15	29980	.393064	-3.3539	.003
448.15	29980	.393064	-3.3553	.003
448.15	29980	.393064	-3.3551	.003
473.16	1990	.047592	-.5369	.003
473.16	1990	.047592	-.5378	.003
473.16	1990	.047592	-.5384	.003
473.16	1990	.106567	-1.2003	.003
473.16	1990	.106567	-1.201	.003
473.16	1990	.106567	-1.2014	.003
473.16	1990	.20204	-2.2651	.003
473.16	1990	.20204	-2.2651	.003
473.16	1990	.20204	-2.2665	.003
473.16	1990	.288758	-3.2228	.003
473.16	1990	.288758	-3.2236	.003
473.16	1990	.393064	-4.3637	.003
473.16	1990	.393064	-4.3637	.003
473.15	14970	.047592	-.4968	.003
473.15	14970	.047592	-.4967	.003
473.15	14970	.047592	-.4986	.003
473.15	14970	.106567	-1.111	.003
473.15	14970	.106567	-1.1123	.003
473.15	14970	.106567	-1.1126	.003
473.15	14970	.20204	-2.0963	.003
473.15	14970	.20204	-2.0971	.003
473.15	14970	.20204	-2.0975	.003
473.15	14970	.288758	-2.9818	.003
473.15	14970	.288758	-2.9828	.003
473.15	14970	.288758	-2.9828	.003
473.15	14970	.393064	-4.0341	.003
473.15	14970	.393064	-4.0347	.003
473.15	14970	.393064	-4.0353	.003
473.15	30050	.047592	-.4614	.003
473.15	30050	.047592	-.4619	.003
473.15	30050	.047592	-.4613	.003
473.15	30050	.106567	-1.0295	.003
473.15	30050	.106567	-1.0306	.003
473.15	30050	.106567	-1.0315	.003
473.15	30050	.20204	-1.9413	.003
473.15	30050	.20204	-1.9421	.003
473.15	30050	.20204	-1.9426	.003
473.15	30050	.288758	-2.7593	.003
473.15	30050	.288758	-2.7602	.003
473.15	30050	.288758	-2.7609	.003
473.15	30050	.393064	-3.7307	.003
473.15	30050	.393064	-3.7312	.003
473.15	30050	.393064	-3.7325	.003
498.15	2940	.047592	-.6109	.003
498.15	2940	.047592	-.6147	.003
498.15	2940	.047592	-.6158	.003
498.15	2940	.106567	-1.3672	.003
498.15	2940	.106567	-1.3698	.003
498.15	2940	.106567	-1.3721	.003
498.15	2940	.20204	-2.5793	.003
498.15	2940	.20204	-2.5819	.003
498.15	2940	.20204	-2.5829	.003
498.15	2940	.288758	-3.6674	.003
498.15	2940	.288758	-3.6692	.003
498.15	2940	.288758	-3.6713	.003
498.15	2940	.393064	-4.9589	.003
498.15	2940	.393064	-4.9621	.003
498.15	2940	.393064	-4.9624	.003
498.16	15000	.047592	-.5601	.003
498.16	15000	.047592	-.5616	.003
498.16	15000	.047592	-.5628	.003
498.16	15000	.106567	-1.2495	.003
498.16	15000	.106567	-1.2505	.003
498.16	15000	.106567	-1.2531	.003
498.16	15000	.20204	-2.3552	.003
498.16	15000	.20204	-2.3556	.003
498.16	15000	.20204	-2.3565	.003
498.16	15000	.288758	-3.3448	.003
498.16	15000	.288758	-3.3463	.003
498.16	15000	.288758	-3.3476	.003
498.16	15000	.410868	-4.7196	.003
498.16	15000	.410868	-4.7214	.003
498.16	15000	.410868	-4.7223	.003
498.16	30000	.047592	-.5103	.003
498.16	30000	.047592	-.5121	.003
498.16	30000	.047592	-.5111	.003
498.16	30000	.106567	-1.1361	.003
498.16	30000	.106567	-1.1393	.003
498.16	30000	.106567	-1.1389	.003
498.16	30000	.20204	-2.141	.003
498.16	30000	.20204	-2.143	.003
498.16	30000	.20204	-2.1436	.003
498.16	30000	.288758	-3.0395	.003
498.16	30000	.288758	-3.0421	.003
498.16	30000	.288758	-3.0425	.003
498.16	30000	.410868	-4.2837	.003
498.16	30000	.410868	-4.2887	.003
498.16	30000	.410868	-4.2891	.003
523.14	5020	.047592	-.6966	.003
523.14	5020	.047592	-.6981	.003
523.14	5020	.047592	-.6982	.003
523.14	5020	.106567	-1.5528	.003
523.14	5020	.106567	-1.5536	.003
523.14	5020	.106567	-1.555	.003
523.14	5020	.20204	-2.9233	.003
523.14	5020	.20204	-2.9267	.003
523.14	5020	.20204	-2.9267	.003
523.14	5020	.288758	-4.1518	.003
523.14	5020	.288758	-4.1569	.003
523.14	5020	.288758	-4.1564	.003
523.14	5020	.410868	-5.8567	.003
523.14	5020	.410868	-5.8613	.003
523.14	5020	.410868	-5.8603	.003
523.15	14930	.047592	-.6281	.003
523.15	14930	.047592	-.6331	.003
523.15	14930	.106567	-1.4083	.003
523.15	14930	.106567	-1.4103	.003
523.15	14930	.106567	-1.4116	.003
523.15	14930	.20204	-2.6518	.003
523.15	14930	.20204	-2.6528	.003
523.15	14930	.20204	-2.6545	.003
523.15	14930	.288758	-3.7647	.003
523.15	14930	.288758	-3.7659	.003
523.15	14930	.288758	-3.7665	.003
523.15	14930	.410868	-5.3042	.003
523.15	14930	.410868	-5.3058	.003
523.15	14930	.410868	-5.3075	.003
523.15	29990	.047592	-.5595	.003
523.15	29990	.047592	-.5612	.003
523.15	29990	.047592	-.5598	.003
523.15	29990	.106567	-1.2473	.003
523.15	29990	.106567	-1.247	.003
523.15	29990	.106567	-1.2436	.003
523.15	29990	.20204	-2.3434	.003
523.15	29990	.20204	-2.3427	.003
523.15	29990	.20204	-2.3376	.003
523.15	29990	.288758	-3.3228	.003
523.15	29990	.288758	-3.3223	.003
523.15	29990	.288758	-3.3139	.003
523.15	29990	.410868	-4.6797	.003
523.15	29990	.410868	-4.6749	.003
523.15	29990	.410868	-4.6618	.003
548.16	7010	.049095	-.8384	.003
548.16	7010	.049095	-.8429	.003
548.16	7010	.049095	-.8413	.003
548.16	7010	.106567	-1.8049	.003
548.16	7010	.106567	-1.808	.003
548.16	7010	.106567	-1.8087	.003
548.16	7010	.200115	-3.3724	.003
548.16	7010	.200115	-3.3731	.003
548.16	7010	.200115	-3.3732	.003
548.16	7010	.288758	-4.8218	.003
548.16	7010	.288758	-4.8225	.003
548.16	7010	.288758	-4.8259	.003
548.16	7010	.410868	-6.7955	.003
548.16	7010	.410868	-6.7969	.003
548.16	7010	.410868	-6.799	.003
548.16	15020	.049095	-.7576	.003
548.16	15020	.049095	-.7542	.003
548.16	15020	.049095	-.7542	.003
548.16	15020	.100177	-1.5311	.003
548.16	15020	.100177	-1.5336	.003
548.16	15020	.100177	-1.533	.003
548.16	15020	.200115	-3.0302	.003
548.16	15020	.200115	-3.0298	.003
548.16	15020	.200115	-3.0305	.003
548.16	15020	.288758	-4.3239	.003
548.16	15020	.288758	-4.3231	.003
548.16	15020	.288758	-4.3257	.003
548.16	15020	.410868	-6.0877	.003
548.16	15020	.410868	-6.0871	.003
548.16	15020	.410868	-6.0889	.003
548.16	29990	.049095	-.6482	.003
548.16	29990	.049095	-.6472	.003
548.16	29990	.049095	-.6495	.003
548.16	29990	.100177	-1.3128	.003
548.16	29990	.100177	-1.3231	.003
548.16	29990	.100177	-1.3125	.003
548.16	29990	.200115	-2.5934	.003
548.16	29990	.200115	-2.6039	.003
548.16	29990	.200115	-2.5964	.003
548.16	29990	.307091	-3.9234	.003
548.16	29990	.307091	-3.9266	.003
548.16	29990	.307091	-3.9217	.003
548.16	29990	.410868	-5.1937	.003
548.16	29990	.410868	-5.2001	.003
548.16	29990	.410868	-5.1925	.003
573.18	9950	.049095	-1.0318	.003
573.18	9950	.049095	-1.0283	.003
573.18	9950	.049095	-1.0318	.003
573.18	9950	.100177	-2.0826	.003
573.18	9950	.100177	-2.0773	.003
573.18	9950	.100177	-2.0715	.003
573.18	9950	.200115	-4.1221	.003
573.18	9950	.200115	-4.1072	.003
573.18	9950	.200115	-4.0998	.003
573.18	9950	.307091	-6.2354	.003
573.18	9950	.307091	-6.215	.003
573.18	9950	.307091	-6.1999	.003
573.18	9950	.410868	-8.2217	.003
573.18	9950	.410868	-8.2063	.003
573.18	9950	.410868	-8.1933	.003

System: cyclohexanol + water; phases: Liquid
Property: Mass density, kg/m3 (Liquid); method: Vibrating tube method
Temperature, K	Pressure, kPa	Molality, mol/kg of cyclohexanol	Mass density, kg/m3	uncertainty
298.14	15000	.051332	-.1831	.003
298.14	15000	.051332	-.1864	.003
298.14	15000	.051332	-.1874	.003
298.14	15000	.093853	-.3275	.003
298.14	15000	.093853	-.3306	.003
298.14	15000	.093853	-.3321	.003
298.14	15000	.143259	-.4821	.003
298.14	15000	.143259	-.4826	.003
298.14	15000	.143259	-.4819	.003
298.14	15000	.198575	-.64	.003
298.14	15000	.198575	-.6432	.003
298.14	15000	.198575	-.6438	.003
298.14	15000	.286954	-.871	.003
298.14	15000	.286954	-.8704	.003
298.14	15000	.286954	-.8701	.003
298.14	30140	.051332	-.2146	.003
298.14	30140	.051332	-.2216	.003
298.14	30140	.051332	-.2213	.003
298.14	30140	.093853	-.3863	.003
298.14	30140	.093853	-.3888	.003
298.14	30140	.093853	-.3905	.003
298.14	30140	.143259	-.5686	.003
298.14	30140	.143259	-.5726	.003
298.14	30140	.143259	-.5725	.003
298.14	30140	.198575	-.7626	.003
298.14	30140	.198575	-.7646	.003
298.14	30140	.198575	-.767	.003
298.14	30140	.286954	-1.0394	.003
298.14	30140	.286954	-1.0406	.003
298.14	30140	.286954	-1.0408	.003
318.17	15040	.051332	-.2196	.003
318.17	15040	.051332	-.2231	.003
318.17	15040	.051332	-.222	.003
318.17	15040	.093853	-.395	.003
318.17	15040	.093853	-.3971	.003
318.17	15040	.093853	-.3972	.003
318.17	15040	.143259	-.5873	.003
318.17	15040	.143259	-.5899	.003
318.17	15040	.143259	-.59	.003
318.17	15040	.198575	-.7999	.003
318.17	15040	.198575	-.8001	.003
318.17	15040	.198575	-.8028	.003
318.17	15040	.286954	-1.1213	.003
318.17	15040	.286954	-1.1214	.003
318.17	15040	.286954	-1.1211	.003
318.17	30100	.051332	-.2338	.003
318.17	30100	.051332	-.2387	.003
318.17	30100	.051332	-.2403	.003
318.17	30100	.093853	-.4273	.003
318.17	30100	.093853	-.4301	.003
318.17	30100	.093853	-.43	.003
318.17	30100	.143259	-.6402	.003
318.17	30100	.143259	-.6413	.003
318.17	30100	.143259	-.6418	.003
318.17	30100	.198575	-.8705	.003
318.17	30100	.198575	-.8708	.003
318.17	30100	.198575	-.8727	.003
318.17	30100	.286954	-1.2216	.003
318.17	30100	.286954	-1.22	.003
318.17	30100	.286954	-1.2204	.003
338.16	15050	.051332	-.2644	.003
338.16	15050	.051332	-.2654	.003
338.16	15050	.051332	-.2656	.003
338.16	15050	.093853	-.4772	.003
338.16	15050	.093853	-.479	.003
338.16	15050	.093853	-.4796	.003
338.16	15050	.143259	-.7211	.003
338.16	15050	.143259	-.7212	.003
338.16	15050	.143259	-.7214	.003
338.16	15050	.198575	-.9908	.003
338.16	15050	.198575	-.9915	.003
338.16	15050	.198575	-.9921	.003
338.16	15050	.286954	-1.4149	.003
338.16	15050	.286954	-1.415	.003
338.16	15050	.286954	-1.4164	.003
338.16	30080	.055059	-.2913	.003
338.16	30080	.055059	-.2904	.003
338.16	30080	.093853	-.4913	.003
338.16	30080	.093853	-.494	.003
338.16	30080	.093853	-.4949	.003
338.16	30080	.143259	-.742	.003
338.16	30080	.143259	-.744	.003
338.16	30080	.143259	-.7444	.003
338.16	30080	.198575	-1.0217	.003
338.16	30080	.198575	-1.0238	.003
338.16	30080	.198575	-1.0241	.003
338.16	30080	.286954	-1.4577	.003
338.16	30080	.286954	-1.4568	.003
338.16	30080	.286954	-1.4599	.003
358.16	15040	.055059	-.3341	.003
358.16	15040	.055059	-.3357	.003
358.16	15040	.055059	-.3378	.003
358.16	15040	.096443	-.5841	.003
358.16	15040	.096443	-.5803	.003
358.16	15040	.096443	-.5822	.003
358.16	15040	.146662	-.8861	.003
358.16	15040	.146662	-.8913	.003
358.16	15040	.146662	-.8888	.003
358.16	15040	.205967	-1.243	.003
358.16	15040	.205967	-1.2529	.003
358.16	15040	.205967	-1.2531	.003
358.16	15040	.259451	-1.5629	.003
358.16	15040	.259451	-1.566	.003
358.16	15040	.259451	-1.5669	.003
358.16	29960	.055059	-.3318	.003
358.16	29960	.055059	-.3363	.003
358.16	29960	.096443	-.5818	.003
358.16	29960	.096443	-.5879	.003
358.16	29960	.096443	-.5887	.003
358.16	29960	.146662	-.8856	.003
358.16	29960	.146662	-.889	.003
358.16	29960	.146662	-.89	.003
358.16	29960	.205967	-1.2408	.003
358.16	29960	.205967	-1.2453	.003
358.16	29960	.205967	-1.2471	.003
358.16	29960	.259451	-1.5626	.003
358.16	29960	.259451	-1.566	.003
358.16	29960	.259451	-1.5673	.003
373.17	14950	.055059	-.3759	.003
373.17	14950	.055059	-.3783	.003
373.17	14950	.055059	-.3763	.003
373.17	14950	.096443	-.6608	.003
373.17	14950	.096443	-.6598	.003
373.17	14950	.096443	-.6624	.003
373.17	14950	.146662	-1.0062	.003
373.17	14950	.146662	-1.0094	.003
373.17	14950	.146662	-1.0088	.003
373.17	14950	.259451	-1.7788	.003
373.17	14950	.259451	-1.7831	.003
373.17	14950	.259451	-1.7813	.003
373.17	29970	.055059	-.3727	.003
373.17	29970	.055059	-.3753	.003
373.17	29970	.055059	-.3751	.003
373.17	29970	.096443	-.6544	.003
373.17	29970	.096443	-.6551	.003
373.17	29970	.096443	-.6558	.003
373.17	29970	.146662	-.9947	.003
373.17	29970	.146662	-.9973	.003
373.17	29970	.146662	-.9968	.003
373.17	29970	.205967	-1.3947	.003
373.17	29970	.205967	-1.3973	.003
373.17	29970	.205967	-1.3994	.003
373.17	29970	.259451	-1.7561	.003
373.17	29970	.259451	-1.7595	.003
373.17	29970	.259451	-1.76	.003
398.15	1990	.055059	-.4702	.003
398.15	1990	.055059	-.4727	.003
398.15	1990	.055059	-.4745	.003
398.15	1990	.096443	-.8228	.003
398.15	1990	.096443	-.8253	.003
398.15	1990	.096443	-.827	.003
398.15	1990	.146662	-1.2511	.003
398.15	1990	.146662	-1.2545	.003
398.15	1990	.146662	-1.2569	.003
398.15	1990	.205967	-1.7577	.003
398.15	1990	.205967	-1.7608	.003
398.15	1990	.205967	-1.7622	.003
398.15	1990	.259451	-2.2127	.003
398.15	1990	.259451	-2.2165	.003
398.15	1990	.259451	-2.2187	.003
398.14	15010	.052186	-.4313	.003
398.14	15010	.052186	-.4325	.003
398.14	15010	.052186	-.4338	.003
398.14	15010	.096443	-.7957	.003
398.14	15010	.096443	-.8001	.003
398.14	15010	.096443	-.7995	.003
398.14	15010	.146662	-1.2104	.003
398.14	15010	.146662	-1.2119	.003
398.14	15010	.146662	-1.2138	.003
398.14	15010	.205967	-1.6984	.003
398.14	15010	.205967	-1.7012	.003
398.14	15010	.205967	-1.7019	.003
398.14	15010	.259451	-2.1363	.003
398.14	15010	.259451	-2.1374	.003
398.14	15010	.259451	-2.139	.003
398.15	29990	.055059	-.4394	.003
398.15	29990	.055059	-.4429	.003
398.15	29990	.055059	-.4459	.003
398.15	29990	.096443	-.7711	.003
398.15	29990	.096443	-.7743	.003
398.15	29990	.096443	-.777	.003
398.15	29990	.146662	-1.1731	.003
398.15	29990	.146662	-1.1769	.003
398.15	29990	.146662	-1.1789	.003
398.15	29990	.205967	-1.6454	.003
398.15	29990	.205967	-1.65	.003
398.15	29990	.205967	-1.65	.003
398.15	29990	.259451	-2.0714	.003
398.15	29990	.259451	-2.0754	.003
398.15	29990	.259451	-2.0792	.003
423.15	2000	.052186	-.521	.003
423.15	2000	.052186	-.5255	.003
423.15	2000	.052186	-.5269	.003
423.15	2000	.106293	-1.0654	.003
423.15	2000	.106293	-1.0689	.003
423.15	2000	.106293	-1.0706	.003
423.15	2000	.150706	-1.5113	.003
423.15	2000	.150706	-1.5152	.003
423.15	2000	.205967	-2.0661	.003
423.15	2000	.205967	-2.0673	.003
423.15	2000	.257743	-2.5826	.003
423.15	2000	.257743	-2.5851	.003
423.17	14990	.052186	-.5019	.003
423.17	14990	.052186	-.5042	.003
423.17	14990	.052186	-.5047	.003
423.17	14990	.106293	-1.0211	.003
423.17	14990	.106293	-1.023	.003
423.17	14990	.106293	-1.0244	.003
423.17	14990	.150706	-1.4475	.003
423.17	14990	.150706	-1.4482	.003
423.17	14990	.150706	-1.4496	.003
423.17	14990	.201653	-1.9329	.003
423.17	14990	.201653	-1.9346	.003
423.17	14990	.201653	-1.9359	.003
423.17	14990	.257743	-2.4662	.003
423.17	14990	.257743	-2.4682	.003
423.17	14990	.257743	-2.4696	.003
423.17	30020	.052186	-.4782	.003
423.17	30020	.052186	-.4806	.003
423.17	30020	.052186	-.4811	.003
423.17	30020	.106293	-.9749	.003
423.17	30020	.106293	-.9766	.003
423.17	30020	.106293	-.9778	.003
423.17	30020	.150706	-1.3801	.003
423.17	30020	.150706	-1.3824	.003
423.17	30020	.150706	-1.3837	.003
423.17	30020	.201653	-1.843	.003
423.17	30020	.201653	-1.8461	.003
423.17	30020	.201653	-1.8474	.003
423.17	30020	.257743	-2.3522	.003
423.17	30020	.257743	-2.354	.003
423.17	30020	.257743	-2.3549	.003
448.15	1990	.052186	-.6058	.003
448.15	1990	.052186	-.607	.003
448.15	1990	.052186	-.607	.003
448.15	1990	.106293	-1.2302	.003
448.15	1990	.106293	-1.2316	.003
448.15	1990	.106293	-1.2319	.003
448.15	1990	.150706	-1.7417	.003
448.15	1990	.150706	-1.7425	.003
448.15	1990	.150706	-1.7433	.003
448.15	1990	.201653	-2.3262	.003
448.15	1990	.201653	-2.3273	.003
448.15	1990	.201653	-2.3278	.003
448.15	1990	.257743	-2.9642	.003
448.15	1990	.257743	-2.9646	.003
448.15	1990	.257743	-2.9659	.003
448.18	15020	.052186	-.5718	.003
448.18	15020	.052186	-.5718	.003
448.18	15020	.052186	-.5722	.003
448.18	15020	.106293	-1.1589	.003
448.18	15020	.106293	-1.1598	.003
448.18	15020	.106293	-1.16	.003
448.18	15020	.150706	-1.6411	.003
448.18	15020	.150706	-1.6415	.003
448.18	15020	.150706	-1.6418	.003
448.18	15020	.201653	-2.1904	.003
448.18	15020	.201653	-2.1904	.003
448.18	15020	.257743	-2.7881	.003
448.18	15020	.257743	-2.789	.003
448.15	29970	.052186	-.5347	.003
448.15	29970	.052186	-.5386	.003
448.15	29970	.052186	-.5396	.003
448.15	29970	.106293	-1.0906	.003
448.15	29970	.106293	-1.0927	.003
448.15	29970	.106293	-1.0943	.003
448.15	29970	.150706	-1.5451	.003
448.15	29970	.150706	-1.5475	.003
448.15	29970	.150706	-1.548	.003
448.15	29970	.201653	-2.064	.003
448.15	29970	.201653	-2.0641	.003
448.15	29970	.201653	-2.0654	.003
448.15	29970	.257743	-2.6264	.003
448.15	29970	.257743	-2.6283	.003
448.15	29970	.257743	-2.6291	.003
473.16	1990	.052186	-.6901	.003
473.16	1990	.052186	-.6875	.003
473.16	1990	.052186	-.688	.003
473.16	1990	.106293	-1.3946	.003
473.16	1990	.106293	-1.3954	.003
473.16	1990	.150706	-1.973	.003
473.16	1990	.150706	-1.9747	.003
473.16	1990	.201653	-2.6341	.003
473.16	1990	.201653	-2.6357	.003
473.16	1990	.257743	-3.3525	.003
473.16	1990	.257743	-3.3538	.003
473.16	1990	.257743	-3.3545	.003
473.16	15000	.052186	-.6356	.003
473.16	15000	.052186	-.6388	.003
473.16	15000	.052186	-.6364	.003
473.16	15000	.052186	-.6362	.003
473.16	15000	.052186	-.6373	.003
473.16	15000	.106293	-1.2943	.003
473.16	15000	.106293	-1.2923	.003
473.16	15000	.106293	-1.2918	.003
473.16	15000	.106293	-1.2914	.003
473.16	15000	.106293	-1.2916	.003
473.16	15000	.150706	-1.8301	.003
473.16	15000	.150706	-1.8342	.003
473.16	15000	.150706	-1.8291	.003
473.16	15000	.150706	-1.8293	.003
473.16	15000	.150706	-1.8294	.003
473.16	15000	.201653	-2.4423	.003
473.16	15000	.201653	-2.443	.003
473.16	15000	.201653	-2.4392	.003
473.16	15000	.201653	-2.4392	.003
473.16	15000	.201653	-2.4407	.003
473.16	15000	.257743	-3.1047	.003
473.16	15000	.257743	-3.1074	.003
473.16	15000	.257743	-3.104	.003
473.16	15000	.257743	-3.1043	.003
473.16	15000	.257743	-3.1049	.003
473.15	30030	.052186	-.5953	.003
473.15	30030	.052186	-.5911	.003
473.15	30030	.052186	-.591	.003
473.15	30030	.100625	-1.1331	.003
473.15	30030	.100625	-1.1379	.003
473.15	30030	.100625	-1.139	.003
473.15	30030	.155942	-1.7546	.003
473.15	30030	.155942	-1.757	.003
473.15	30030	.155942	-1.7582	.003
473.15	30030	.201653	-2.2628	.003
473.15	30030	.201653	-2.2635	.003
473.15	30030	.201653	-2.2649	.003
473.15	30030	.257743	-2.8773	.003
473.15	30030	.257743	-2.8785	.003
473.15	30030	.257743	-2.8797	.003
498.15	2970	.052186	-.7738	.003
498.15	2970	.052186	-.7758	.003
498.15	2970	.100625	-1.4876	.003
498.15	2970	.100625	-1.4883	.003
498.15	2970	.100625	-1.4905	.003
498.15	2970	.155942	-2.294	.003
498.15	2970	.155942	-2.2964	.003
498.15	2970	.155942	-2.2978	.003
498.15	2970	.201653	-2.956	.003
498.15	2970	.201653	-2.9579	.003
498.15	2970	.201653	-2.9598	.003
498.15	2970	.247138	-3.6099	.003
498.15	2970	.247138	-3.613	.003
498.15	2970	.247138	-3.6142	.003
498.16	15010	.052414	-.7124	.003
498.16	15010	.052414	-.7121	.003
498.16	15010	.052414	-.7117	.003
498.16	15010	.100625	-1.3612	.003
498.16	15010	.100625	-1.3613	.003
498.16	15010	.100625	-1.3609	.003
498.16	15010	.155942	-2.0983	.003
498.16	15010	.155942	-2.0986	.003
498.16	15010	.155942	-2.0991	.003
498.16	15010	.201197	-2.6966	.003
498.16	15010	.201197	-2.6978	.003
498.16	15010	.201197	-2.6971	.003
498.16	15010	.247138	-3.2992	.003
498.16	15010	.247138	-3.2986	.003
498.16	15010	.247138	-3.3004	.003
498.16	29970	.052186	-.6465	.003
498.16	29970	.052186	-.6444	.003
498.16	29970	.052186	-.646	.003
498.16	29970	.100625	-1.238	.003
498.16	29970	.100625	-1.2405	.003
498.16	29970	.100625	-1.2423	.003
498.16	29970	.155942	-1.9114	.003
498.16	29970	.155942	-1.9121	.003
498.16	29970	.155942	-1.911	.003
498.16	29970	.201197	-2.4557	.003
498.16	29970	.201197	-2.4566	.003
498.16	29970	.201197	-2.4581	.003
498.16	29970	.247138	-3.0037	.003
498.16	29970	.247138	-3.0058	.003
498.16	29970	.247138	-3.0062	.003
523.15	5050	.052414	-.8704	.003
523.15	5050	.052414	-.8734	.003
523.15	5050	.100625	-1.6625	.003
523.15	5050	.100625	-1.6646	.003
523.15	5050	.100625	-1.6654	.003
523.15	5050	.155942	-2.5654	.003
523.15	5050	.155942	-2.5677	.003
523.15	5050	.155942	-2.5701	.003
523.15	5050	.201197	-3.2992	.003
523.15	5050	.201197	-3.2969	.003
523.15	5050	.201197	-3.3028	.003
523.15	5050	.247138	-4.0361	.003
523.15	5050	.247138	-4.0374	.003
523.15	5050	.247138	-4.0391	.003
523.15	14960	.052414	-.7907	.003
523.15	14960	.052414	-.791	.003
523.15	14960	.052414	-.7929	.003
523.15	14960	.100625	-1.5106	.003
523.15	14960	.100625	-1.5127	.003
523.15	14960	.100625	-1.5132	.003
523.15	14960	.155942	-2.33	.003
523.15	14960	.155942	-2.3316	.003
523.15	14960	.155942	-2.3338	.003
523.15	14960	.201197	-2.9941	.003
523.15	14960	.201197	-2.995	.003
523.15	14960	.201197	-2.9958	.003
523.15	14960	.247138	-3.66	.003
523.15	14960	.247138	-3.6619	.003
523.15	14960	.247138	-3.6628	.003
523.15	29990	.052414	-.7029	.003
523.15	29990	.052414	-.7032	.003
523.15	29990	.052414	-.7047	.003
523.15	29990	.100625	-1.3406	.003
523.15	29990	.100625	-1.3426	.003
523.15	29990	.100625	-1.3423	.003
523.15	29990	.155942	-2.0656	.003
523.15	29990	.155942	-2.0712	.003
523.15	29990	.155942	-2.0688	.003
523.15	29990	.201197	-2.658	.003
523.15	29990	.201197	-2.6582	.003
523.15	29990	.201197	-2.6609	.003
523.15	29990	.247138	-3.2488	.003
523.15	29990	.247138	-3.2466	.003
523.15	29990	.247138	-3.2512	.003
548.16	7000	.052414	-1.0022	.003
548.16	7000	.052414	-1.0042	.003
548.16	7000	.052414	-1.0037	.003
548.16	7000	.052414	-1.0019	.003
548.16	7000	.100625	-1.911	.003
548.16	7000	.100625	-1.909	.003
548.16	7000	.100625	-1.9125	.003
548.16	7000	.100625	-1.9115	.003
548.16	7000	.155942	-2.9474	.003
548.16	7000	.155942	-2.9504	.003
548.16	7000	.155942	-2.9507	.003
548.16	7000	.155942	-2.9488	.003
548.16	7000	.201197	-3.7912	.003
548.16	7000	.201197	-3.7909	.003
548.16	7000	.201197	-3.7932	.003
548.16	7000	.201197	-3.7908	.003
548.16	7000	.247138	-4.6328	.003
548.16	7000	.247138	-4.6351	.003
548.16	7000	.247138	-4.6364	.003
548.16	7000	.247138	-4.6344	.003
548.15	15010	.052414	-.903	.003
548.15	15010	.052414	-.902	.003
548.15	15010	.052414	-.8997	.003
548.15	15010	.100625	-1.7186	.003
548.15	15010	.100625	-1.7194	.003
548.15	15010	.100625	-1.7202	.003
548.15	15010	.155942	-2.6498	.003
548.15	15010	.155942	-2.6537	.003
548.15	15010	.155942	-2.6525	.003
548.15	15010	.201197	-3.4083	.003
548.15	15010	.201197	-3.4079	.003
548.15	15010	.201197	-3.4096	.003
548.15	15010	.247138	-4.1622	.003
548.15	15010	.247138	-4.1648	.003
548.15	15010	.247138	-4.1649	.003
548.16	30050	.052414	-.7737	.003
548.16	30050	.052414	-.7733	.003
548.16	30050	.052414	-.7725	.003
548.16	30050	.100625	-1.4736	.003
548.16	30050	.100625	-1.4751	.003
548.16	30050	.100625	-1.4768	.003
548.16	30050	.136536	-1.9959	.003
548.16	30050	.136536	-2.0036	.003
548.16	30050	.136536	-1.9987	.003
548.16	30050	.201197	-2.917	.003
548.16	30050	.201197	-2.9206	.003
548.16	30050	.201197	-2.918	.003
548.16	30050	.247138	-3.5659	.003
548.16	30050	.247138	-3.5675	.003
548.16	30050	.247138	-3.5738	.003
573.19	9960	.101842	-2.3254	.003
573.19	9960	.101842	-2.3236	.003
573.19	9960	.101842	-2.3221	.003
573.19	9960	.136536	-3.1348	.003
573.19	9960	.136536	-3.1327	.003
573.19	9960	.136536	-3.1297	.003
573.19	9960	.201197	-4.5835	.003
573.19	9960	.201197	-4.5816	.003
573.19	9960	.201197	-4.5798	.003
573.19	9960	.272437	-6.1724	.003
573.19	9960	.272437	-6.1709	.003
573.19	9960	.272437	-6.1667	.003

System: cycloheptanol + water; phases: Liquid
Property: Mass density, kg/m3 (Liquid); method: Vibrating tube method
Temperature, K	Pressure, kPa	Molality, mol/kg of cycloheptanol	Mass density, kg/m3	uncertainty
298.14	15000	.052516	-.1716	.003
298.14	15000	.052516	-.1715	.003
298.14	15000	.052516	-.1722	.003
298.14	15000	.101006	-.3076	.003
298.14	15000	.101006	-.3091	.003
298.14	15000	.101006	-.308	.003
298.14	15000	.08757	-.2722	.003
298.14	15000	.08757	-.2727	.003
298.14	15000	.08757	-.2732	.003
298.14	15000	.068649	-.2189	.003
298.14	15000	.068649	-.219	.003
298.14	15000	.068649	-.2182	.003
298.14	30150	.052516	-.2094	.003
298.14	30150	.052516	-.2113	.003
298.14	30150	.052516	-.2118	.003
298.14	30150	.068649	-.2682	.003
298.14	30150	.068649	-.2677	.003
298.14	30150	.068649	-.2705	.003
298.14	30150	.08757	-.335	.003
298.14	30150	.08757	-.3361	.003
298.14	30150	.08757	-.3363	.003
298.14	30150	.101006	-.381	.003
298.14	30150	.101006	-.3832	.003
298.14	30150	.101006	-.3824	.003
318.17	15040	.052516	-.2196	.003
318.17	15040	.052516	-.2196	.003
318.17	15040	.052516	-.2228	.003
318.17	15040	.101006	-.4057	.003
318.17	15040	.101006	-.4053	.003
318.17	15040	.101006	-.4061	.003
318.17	15040	.08757	-.3543	.003
318.17	15040	.08757	-.3522	.003
318.17	15040	.08757	-.3548	.003
318.17	15040	.068649	-.2813	.003
318.17	15040	.068649	-.282	.003
318.17	15040	.068649	-.2804	.003
318.17	30100	.052516	-.2418	.003
318.17	30100	.052516	-.2425	.003
318.17	30100	.052516	-.2434	.003
318.17	30100	.101006	-.4498	.003
318.17	30100	.101006	-.4495	.003
318.17	30100	.101006	-.4514	.003
318.17	30100	.08757	-.3906	.003
318.17	30100	.08757	-.3924	.003
318.17	30100	.08757	-.3909	.003
318.17	30100	.068649	-.3126	.003
318.17	30100	.068649	-.3125	.003
318.17	30100	.068649	-.3132	.003
338.16	15050	.052516	-.2746	.003
338.16	15050	.052516	-.2748	.003
338.16	15050	.052516	-.2749	.003
338.16	15050	.101006	-.5173	.003
338.16	15050	.101006	-.5188	.003
338.16	15050	.101006	-.5187	.003
338.16	15050	.08757	-.4501	.003
338.16	15050	.08757	-.4501	.003
338.16	15050	.08757	-.4503	.003
338.16	15050	.068649	-.3552	.003
338.16	15050	.068649	-.3558	.003
338.16	15050	.068649	-.3566	.003
338.16	30100	.052516	-.2843	.003
338.16	30100	.052516	-.2849	.003
338.16	30100	.052516	-.285	.003
338.16	30100	.074997	-.3979	.003
338.16	30100	.074997	-.4	.003
338.16	30100	.074997	-.4015	.003
338.16	30100	.101006	-.5363	.003
338.16	30100	.101006	-.5375	.003
338.16	30100	.101006	-.5389	.003
338.16	30100	.068649	-.3678	.003
338.16	30100	.068649	-.3708	.003
338.16	30100	.068649	-.3708	.003
358.16	15040	.074997	-.4666	.003
358.16	15040	.074997	-.4773	.003
358.16	15040	.074997	-.4768	.003
358.16	15040	.060979	-.3862	.003
358.16	15040	.060979	-.3907	.003
358.16	15040	.060979	-.3788	.003
358.16	15040	.048173	-.3035	.003
358.16	15040	.048173	-.3061	.003
358.16	15040	.048173	-.3094	.003
358.16	15040	.099948	-.6317	.003
358.16	15040	.099948	-.6286	.003
358.16	15040	.099948	-.6347	.003
358.16	29980	.048173	-.3094	.003
358.16	29980	.060979	-.3907	.003
358.16	29980	.074997	-.4793	.003
358.16	29980	.074997	-.4783	.003
358.16	29980	.048173	-.3072	.003
358.16	29980	.099948	-.6367	.003
358.16	29980	.060979	-.3872	.003
358.16	29980	.099948	-.6343	.003
358.16	29980	.060979	-.386	.003
358.16	29980	.099948	-.6322	.003
358.16	29980	.074997	-.4739	.003
358.16	29980	.048173	-.3032	.003
373.17	14940	.074997	-.5433	.003
373.17	14940	.074997	-.5457	.003
373.17	14940	.074997	-.5461	.003
373.17	14940	.060979	-.4417	.003
373.17	14940	.060979	-.4419	.003
373.17	14940	.060979	-.4431	.003
373.17	14940	.048173	-.3492	.003
373.17	14940	.048173	-.351	.003
373.17	14940	.099948	-.7256	.003
373.17	14940	.099948	-.7255	.003
373.17	14940	.099948	-.7285	.003
373.17	29960	.074997	-.5387	.003
373.17	29960	.074997	-.541	.003
373.17	29960	.074997	-.5404	.003
373.17	29960	.060979	-.4391	.003
373.17	29960	.060979	-.4394	.003
373.17	29960	.060979	-.4393	.003
373.17	29960	.048173	-.3479	.003
373.17	29960	.048173	-.3482	.003
373.17	29960	.048173	-.3491	.003
373.17	29960	.099948	-.7181	.003
373.17	29960	.099948	-.7203	.003
373.17	29960	.099948	-.7206	.003
398.15	1990	.074997	-.6826	.003
398.15	1990	.074997	-.687	.003
398.15	1990	.074997	-.689	.003
398.15	1990	.060979	-.5573	.003
398.15	1990	.060979	-.5595	.003
398.15	1990	.060979	-.5608	.003
398.15	1990	.048173	-.4423	.003
398.15	1990	.048173	-.445	.003
398.15	1990	.048173	-.4463	.003
398.15	1990	.099948	-.9116	.003
398.15	1990	.099948	-.9142	.003
398.15	1990	.099948	-.9152	.003
398.14	15000	.060979	-.5374	.003
398.14	15000	.060979	-.5416	.003
398.14	15000	.060979	-.5406	.003
398.14	15000	.048173	-.4273	.003
398.14	15000	.048173	-.4305	.003
398.14	15000	.048173	-.4307	.003
398.14	15000	.099948	-.8842	.003
398.14	15000	.099948	-.8807	.003
398.14	15000	.099948	-.8845	.003
398.14	15000	.081101	-.7164	.003
398.14	15000	.081101	-.7185	.003
398.14	15000	.081101	-.7181	.003
398.15	29990	.074997	-.6414	.003
398.15	29990	.074997	-.646	.003
398.15	29990	.074997	-.6458	.003
398.15	29990	.060979	-.5224	.003
398.15	29990	.060979	-.5249	.003
398.15	29990	.060979	-.5261	.003
398.15	29990	.048173	-.4153	.003
398.15	29990	.048173	-.4166	.003
398.15	29990	.048173	-.419	.003
398.15	29990	.099948	-.8531	.003
398.15	29990	.099948	-.8555	.003
398.15	29990	.099948	-.8581	.003
423.15	2000	.048173	-.5222	.003
423.15	2000	.048173	-.5229	.003
423.15	2000	.060688	-.6542	.003
423.15	2000	.060688	-.6557	.003
423.15	2000	.081101	-.8742	.003
423.15	2000	.081101	-.8752	.003
423.15	2000	.101342	-1.0921	.003
423.15	2000	.101342	-1.0924	.003
423.17	14990	.052186	-.5383	.003
423.17	14990	.052186	-.5393	.003
423.17	14990	.052186	-.5404	.003
423.17	14990	.060688	-.6272	.003
423.17	14990	.060688	-.6284	.003
423.17	14990	.060688	-.6293	.003
423.17	14990	.081101	-.837	.003
423.17	14990	.081101	-.8381	.003
423.17	14990	.081101	-.8389	.003
423.17	14990	.101342	-1.0455	.003
423.17	14990	.101342	-1.047	.003
423.17	14990	.101342	-1.0474	.003
423.17	30020	.052186	-.5134	.003
423.17	30020	.052186	-.5158	.003
423.17	30020	.052186	-.5161	.003
423.17	30020	.060688	-.5978	.003
423.17	30020	.060688	-.5991	.003
423.17	30020	.060688	-.6	.003
423.17	30020	.081101	-.7988	.003
423.17	30020	.081101	-.7997	.003
423.17	30020	.081101	-.7999	.003
423.17	30020	.101342	-.9974	.003
423.17	30020	.101342	-.9984	.003
423.17	30020	.101342	-.999	.003
448.15	1990	.052186	-.6499	.003
448.15	1990	.052186	-.6508	.003
448.15	1990	.052186	-.6515	.003
448.15	1990	.060688	-.7569	.003
448.15	1990	.060688	-.7577	.003
448.15	1990	.060688	-.7585	.003
448.15	1990	.081101	-1.0091	.003
448.15	1990	.081101	-1.0099	.003
448.15	1990	.081101	-1.0109	.003
448.15	1990	.101342	-1.2596	.003
448.15	1990	.101342	-1.2608	.003
448.15	1990	.101342	-1.2612	.003
448.18	15010	.052186	-.6122	.003
448.18	15010	.052186	-.6125	.003
448.18	15010	.052186	-.6129	.003
448.18	15010	.060688	-.7121	.003
448.18	15010	.060688	-.7141	.003
448.18	15010	.060688	-.7131	.003
448.18	15010	.081101	-.9501	.003
448.18	15010	.081101	-.9504	.003
448.18	15010	.081101	-.9505	.003
448.18	15010	.101342	-1.1864	.003
448.18	15010	.101342	-1.1865	.003
448.18	15010	.101342	-1.1865	.003
448.15	29970	.052186	-.5765	.003
448.15	29970	.052186	-.5767	.003
448.15	29970	.052186	-.5779	.003
448.15	29970	.060688	-.6709	.003
448.15	29970	.060688	-.6716	.003
448.15	29970	.060688	-.672	.003
448.15	29970	.081101	-.8934	.003
448.15	29970	.081101	-.8959	.003
448.15	29970	.081101	-.8961	.003
448.15	29970	.101342	-1.1175	.003
448.15	29970	.101342	-1.1176	.003
448.15	29970	.101342	-1.1184	.003
473.16	1980	.052186	-.7349	.003
473.16	1980	.052186	-.7358	.003
473.16	1980	.052186	-.736	.003
473.16	1980	.060688	-.8564	.003
473.16	1980	.060688	-.8568	.003
473.16	1980	.060688	-.8577	.003
473.16	1980	.081101	-1.1414	.003
473.16	1980	.081101	-1.1426	.003
473.16	1980	.081101	-1.1433	.003
473.16	1980	.101342	-1.4253	.003
473.16	1980	.101342	-1.4264	.003
473.16	1980	.101342	-1.4261	.003
473.16	14990	.052186	-.679	.003
473.16	14990	.052186	-.6858	.003
473.16	14990	.060688	-.7901	.003
473.16	14990	.081101	-1.0551	.003
473.16	14990	.081101	-1.0548	.003
473.16	14990	.101342	-1.3203	.003
473.16	14990	.101342	-1.3186	.003
473.16	14990	.052186	-.6801	.003
473.16	14990	.052186	-.68	.003
473.16	14990	.052186	-.6806	.003
473.16	14990	.060688	-.7921	.003
473.16	14990	.060688	-.7924	.003
473.16	14990	.060688	-.793	.003
473.16	14990	.081101	-1.0558	.003
473.16	14990	.081101	-1.0562	.003
473.16	14990	.081101	-1.0559	.003
473.16	14990	.101342	-1.3179	.003
473.16	14990	.101342	-1.3185	.003
473.16	14990	.101342	-1.3195	.003
473.15	30040	.052186	-.6306	.003
473.15	30040	.052186	-.6316	.003
473.15	30040	.052186	-.6329	.003
473.15	30040	.060572	-.7324	.003
473.15	30040	.060572	-.7339	.003
473.15	30040	.060572	-.7346	.003
473.15	30040	.076732	-.9268	.003
473.15	30040	.076732	-.9282	.003
473.15	30040	.076732	-.9292	.003
473.15	30040	.103253	-1.2457	.003
473.15	30040	.103253	-1.2466	.003
473.15	30040	.103253	-1.2483	.003
498.15	2960	.052186	-.829	.003
498.15	2960	.052186	-.8299	.003
498.15	2960	.060572	-.9623	.003
498.15	2960	.060572	-.9614	.003
498.15	2960	.060572	-.9643	.003
498.15	2960	.076732	-1.2178	.003
498.15	2960	.076732	-1.2203	.003
498.15	2960	.076732	-1.2215	.003
498.15	2960	.103253	-1.6382	.003
498.15	2960	.103253	-1.6402	.003
498.15	2960	.103253	-1.6399	.003
498.16	15010	.047675	-.6924	.003
498.16	15010	.047675	-.6926	.003
498.16	15010	.047675	-.6931	.003
498.16	15010	.060572	-.8784	.003
498.16	15010	.060572	-.8789	.003
498.16	15010	.060572	-.8792	.003
498.16	15010	.076732	-1.1127	.003
498.16	15010	.076732	-1.113	.003
498.16	15010	.076732	-1.1129	.003
498.16	15010	.103253	-1.4956	.003
498.16	15010	.103253	-1.4955	.003
498.16	15010	.103253	-1.4965	.003
498.16	29960	.052186	-.6885	.003
498.16	29960	.052186	-.6905	.003
498.16	29960	.052186	-.6925	.003
498.16	29960	.060572	-.7998	.003
498.16	29960	.060572	-.801	.003
498.16	29960	.060572	-.8005	.003
498.16	29960	.076732	-1.0122	.003
498.16	29960	.076732	-1.0147	.003
498.16	29960	.076732	-1.0155	.003
498.16	29960	.103253	-1.3617	.003
498.16	29960	.103253	-1.3638	.003
498.16	29960	.103253	-1.3645	.003
523.15	5050	.047675	-.8616	.003
523.15	5050	.047675	-.8636	.003
523.15	5050	.047675	-.8669	.003
523.15	5050	.047675	-.8636	.003
523.15	5050	.047675	-.8634	.003
523.15	5050	.060572	-1.1	.003
523.15	5050	.060572	-1.1023	.003
523.15	5050	.060572	-1.1035	.003
523.15	5050	.076732	-1.4003	.003
523.15	5050	.076732	-1.4017	.003
523.15	5050	.076732	-1.3965	.003
523.15	5050	.103253	-1.8982	.003
523.15	5050	.103253	-1.8961	.003
523.15	5050	.103253	-1.9085	.003
523.15	14960	.047675	-.7799	.003
523.15	14960	.047675	-.7818	.003
523.15	14960	.047675	-.7824	.003
523.15	14960	.060572	-.9946	.003
523.15	14960	.060572	-.9959	.003
523.15	14960	.060572	-.9984	.003
523.15	14960	.076732	-1.2674	.003
523.15	14960	.076732	-1.2693	.003
523.15	14960	.076732	-1.2684	.003
523.15	14960	.103253	-1.7172	.003
523.15	14960	.103253	-1.72	.003
523.15	14960	.103253	-1.7173	.003
523.15	29990	.047675	-.6946	.003
523.15	29990	.047675	-.6935	.003
523.15	29990	.047675	-.6961	.003
523.15	29990	.060572	-.8872	.003
523.15	29990	.060572	-.888	.003
523.15	29990	.060572	-.8878	.003
523.15	29990	.076732	-1.1275	.003
523.15	29990	.076732	-1.1289	.003
523.15	29990	.076732	-1.1292	.003
523.15	29990	.103253	-1.5315	.003
523.15	29990	.103253	-1.5296	.003
523.15	29990	.103253	-1.5288	.003
548.16	7000	.047675	-1.0818	.003
548.16	7000	.047675	-1.0767	.003
548.16	7000	.047675	-1.0776	.003
548.16	7000	.047675	-1.0731	.003
548.16	7000	.060572	-1.3935	.003
548.16	7000	.060572	-1.3939	.003
548.16	7000	.060572	-1.3927	.003
548.16	7000	.060572	-1.3878	.003
548.16	7000	.076732	-1.7884	.003
548.16	7000	.076732	-1.7852	.003
548.16	7000	.076732	-1.7801	.003
548.16	7000	.076732	-1.787	.003
548.16	7000	.103253	-2.4773	.003
548.16	7000	.103253	-2.4761	.003
548.16	7000	.103253	-2.4724	.003
548.16	7000	.103253	-2.4693	.003
548.15	15010	.047675	-.9679	.003
548.15	15010	.047675	-.9661	.003
548.15	15010	.047675	-.9691	.003
548.15	15010	.060572	-1.2492	.003
548.15	15010	.060572	-1.251	.003
548.15	15010	.060572	-1.2517	.003
548.15	15010	.076732	-1.6108	.003
548.15	15010	.076732	-1.6114	.003
548.15	15010	.076732	-1.6129	.003
548.15	15010	.103253	-2.2237	.003
548.15	15010	.103253	-2.2291	.003
548.15	15010	.103253	-2.2282	.003
548.16	30050	.047675	-.8353	.003
548.16	30050	.047675	-.8393	.003
548.16	30050	.047675	-.8351	.003
548.16	30050	.076732	-1.3912	.003
548.16	30050	.076732	-1.3922	.003
548.16	30050	.076732	-1.3883	.003
548.16	30050	.061071	-1.0936	.003
548.16	30050	.061071	-1.0942	.003
548.16	30050	.061071	-1.0904	.003
548.16	30050	.099206	-1.8386	.003
548.16	30050	.099206	-1.8434	.003
548.16	30050	.099206	-1.8367	.003

System: cyclooctanol + water; phases: Liquid
Property: Mass density, kg/m3 (Liquid); method: Vibrating tube method
Temperature, K	Pressure, kPa	Molality, mol/kg of cyclooctanol	Mass density, kg/m3	uncertainty
298.14	15000	.009612	-.0305	.003
298.14	15000	.009612	-.0293	.003
298.14	15000	.009612	-.0296	.003
298.14	15000	.01977	-.0559	.003
298.14	15000	.01977	-.057	.003
298.14	15000	.01977	-.0571	.003
298.14	15000	.028315	-.0786	.003
298.14	15000	.028315	-.0785	.003
298.14	15000	.028315	-.077	.003
298.14	30160	.009612	-.0366	.003
298.14	30160	.009612	-.0368	.003
298.14	30160	.009612	-.0362	.003
298.14	30160	.01977	-.0718	.003
298.14	30160	.01977	-.072	.003
298.14	30160	.01977	-.0739	.003
298.14	30160	.028315	-.0999	.003
298.14	30160	.028315	-.1022	.003
298.14	30160	.028315	-.1016	.003
318.17	15040	.009612	-.0391	.003
318.17	15040	.009612	-.0409	.003
318.17	15040	.01977	-.078	.003
318.17	15040	.01977	-.0799	.003
318.17	15040	.01977	-.0786	.003
318.17	15040	.028315	-.1112	.003
318.17	15040	.028315	-.1108	.003
318.17	15040	.028315	-.1106	.003
318.17	30110	.009612	-.0432	.003
318.17	30110	.009612	-.0436	.003
318.17	30110	.009612	-.0447	.003
318.17	30110	.01977	-.0875	.003
318.17	30110	.01977	-.0882	.003
318.17	30110	.01977	-.0894	.003
318.17	30110	.028315	-.1238	.003
318.17	30110	.028315	-.1242	.003
318.17	30110	.028315	-.1235	.003
338.16	15050	.009612	-.0517	.003
338.16	15050	.01977	-.1032	.003
338.16	15050	.01977	-.1042	.003
338.16	15050	.01977	-.1042	.003
338.16	15050	.028315	-.1442	.003
338.16	15050	.028315	-.145	.003
338.16	15050	.028315	-.1459	.003
338.15	30080	.008629	-.0472	.003
338.15	30080	.009731	-.0529	.003
338.15	30080	.009731	-.0541	.003
338.15	30080	.019655	-.1021	.003
338.15	30080	.019655	-.1033	.003
338.15	30080	.02009	-.1082	.003
338.15	30080	.02009	-.1069	.003
338.15	30080	.028216	-.1471	.003
338.15	30080	.028216	-.1479	.003
358.16	15050	.008629	-.0544	.003
358.16	15050	.009731	-.063	.003
358.16	15050	.02009	-.1284	.003
358.16	15050	.028216	-.1786	.003
358.16	30080	.008629	-.0548	.003
358.16	30080	.009731	-.0631	.003
358.16	30080	.02009	-.1273	.003
358.16	30080	.028216	-.1798	.003
373.17	14940	.008664	-.0635	.003
373.17	14940	.017624	-.1301	.003
373.17	14940	.017624	-.1292	.003
373.17	14940	.017624	-.1287	.003
373.17	14940	.028216	-.208	.003
373.17	14940	.028216	-.2078	.003
373.17	14940	.028216	-.2068	.003
373.17	29950	.008664	-.0643	.003
373.17	29950	.008664	-.0633	.003
373.17	29950	.017624	-.129	.003
373.17	29950	.017624	-.1274	.003
373.17	29950	.017624	-.1314	.003
373.17	29950	.025804	-.187	.003
373.17	29950	.025804	-.1858	.003
373.17	29950	.025804	-.1902	.003
398.15	1990	.008664	-.0821	.003
398.15	1990	.008664	-.0862	.003
398.15	1990	.008664	-.0865	.003
398.15	1990	.017624	-.1695	.003
398.15	1990	.017624	-.1707	.003
398.15	1990	.017624	-.1719	.003
398.15	1990	.025804	-.2462	.003
398.15	1990	.025804	-.248	.003
398.15	1990	.025804	-.2495	.003
398.14	15000	.008664	-.0812	.003
398.14	15000	.008664	-.0833	.003
398.14	15000	.017624	-.1598	.003
398.14	15000	.017624	-.1633	.003
398.14	15000	.017624	-.1656	.003
398.14	15000	.025804	-.2366	.003
398.14	15000	.025804	-.2403	.003
398.14	15000	.025804	-.2409	.003
398.15	29980	.008664	-.0767	.003
398.15	29980	.008664	-.0806	.003
398.15	29980	.008664	-.0828	.003
398.15	29980	.017624	-.1575	.003
398.15	29980	.017624	-.1591	.003
398.15	29980	.017624	-.1606	.003
398.15	29980	.025804	-.2286	.003
398.15	29980	.025804	-.2294	.003
398.15	29980	.025804	-.2326	.003
423.15	1990	.008664	-.0993	.003
423.15	1990	.008664	-.1	.003
423.15	1990	.017624	-.2011	.003
423.15	1990	.017624	-.2024	.003
423.15	1990	.025804	-.2944	.003
423.15	1990	.025804	-.2957	.003
423.17	14980	.008664	-.0961	.003
423.17	14980	.008664	-.0974	.003
423.17	14980	.008664	-.0977	.003
423.17	14980	.017624	-.1937	.003
423.17	14980	.017624	-.1951	.003
423.17	14980	.017624	-.1961	.003
423.17	14980	.025804	-.2828	.003
423.17	14980	.025804	-.2852	.003
423.17	14980	.025804	-.2851	.003
423.17	30020	.008664	-.0902	.003
423.17	30020	.008664	-.0926	.003
423.17	30020	.008664	-.092	.003
423.17	30020	.017624	-.1839	.003
423.17	30020	.017624	-.1853	.003
423.17	30020	.017624	-.1852	.003
423.17	30020	.025804	-.2694	.003
423.17	30020	.025804	-.2712	.003
423.17	30020	.025804	-.2707	.003
448.15	1990	.008664	-.1165	.003
448.15	1990	.008664	-.1176	.003
448.15	1990	.008664	-.118	.003
448.15	1990	.018795	-.2503	.003
448.15	1990	.018795	-.2509	.003
448.15	1990	.018795	-.2522	.003
448.15	1990	.025804	-.3434	.003
448.15	1990	.025804	-.3439	.003
448.15	1990	.025804	-.3445	.003
448.18	15010	.009531	-.1203	.003
448.18	15010	.009531	-.1208	.003
448.18	15010	.009531	-.1212	.003
448.18	15010	.018795	-.2357	.003
448.18	15010	.018795	-.2361	.003
448.18	15010	.018795	-.2366	.003
448.18	15010	.028813	-.3599	.003
448.18	15010	.028813	-.3604	.003
448.18	15010	.028813	-.3603	.003
448.15	29970	.009531	-.1115	.003
448.15	29970	.009531	-.1131	.003
448.15	29970	.009531	-.1139	.003
448.15	29970	.018795	-.2206	.003
448.15	29970	.018795	-.2217	.003
448.15	29970	.018795	-.222	.003
448.15	29970	.028813	-.3373	.003
448.15	29970	.028813	-.3392	.003
448.15	29970	.028813	-.3398	.003
473.16	1970	.009531	-.1428	.003
473.16	1970	.009531	-.1436	.003
473.16	1970	.009531	-.1445	.003
473.16	1970	.018795	-.2825	.003
473.16	1970	.018795	-.2828	.003
473.16	1970	.018795	-.2842	.003
473.16	1970	.028813	-.4321	.003
473.16	1970	.028813	-.4322	.003
473.16	1970	.028813	-.4332	.003
473.16	14990	.009531	-.1342	.003
473.16	14990	.009531	-.1318	.003
473.16	14990	.009531	-.1327	.003
473.16	14990	.009531	-.1328	.003
473.16	14990	.018795	-.2609	.003
473.16	14990	.018795	-.2624	.003
473.16	14990	.018795	-.262	.003
473.16	14990	.018795	-.2607	.003
473.16	14990	.018795	-.2594	.003
473.16	14990	.028813	-.3998	.003
473.16	14990	.028813	-.4008	.003
473.16	14990	.028813	-.3993	.003
473.16	14990	.028813	-.3986	.003
473.16	14990	.028813	-.3999	.003
473.15	30040	.009531	-.1218	.003
473.15	30040	.009531	-.1235	.003
473.15	30040	.009531	-.1234	.003
473.15	30040	.018795	-.2412	.003
473.15	30040	.018795	-.2421	.003
473.15	30040	.018795	-.2436	.003
473.15	30040	.028813	-.3694	.003
473.15	30040	.028813	-.3711	.003
473.15	30040	.028813	-.3724	.003
498.15	2970	.009531	-.1627	.003
498.15	2970	.009531	-.1643	.003
498.15	2970	.009531	-.1653	.003
498.15	2970	.018795	-.3185	.003
498.15	2970	.018795	-.3204	.003
498.15	2970	.018795	-.3212	.003
498.15	2970	.028813	-.4861	.003
498.15	2970	.028813	-.4879	.003
498.15	2970	.028813	-.4887	.003
498.16	15010	.009531	-.148	.003
498.16	15010	.009531	-.1488	.003
498.16	15010	.009531	-.148	.003
498.16	15010	.018395	-.2835	.003
498.16	15010	.018395	-.285	.003
498.16	15010	.018395	-.285	.003
498.16	15010	.028813	-.4436	.003
498.16	15010	.028813	-.4437	.003
498.16	15010	.028813	-.4445	.003
498.15	29950	.009531	-.1349	.003
498.15	29950	.009531	-.1343	.003
498.15	29950	.009531	-.1346	.003
498.15	29950	.018795	-.2658	.003
498.15	29950	.018795	-.2648	.003
498.15	29950	.018795	-.2656	.003
498.15	29950	.028813	-.4036	.003
498.15	29950	.028813	-.4061	.003
498.15	29950	.028813	-.4056	.003
523.15	5050	.009634	-.184	.003
523.15	5050	.009634	-.1896	.003
523.15	5050	.009634	-.1874	.003
523.15	5050	.018395	-.3515	.003
523.15	5050	.018395	-.3534	.003
523.15	5050	.018395	-.353	.003
523.15	5050	.018395	-.3525	.003
523.15	5050	.028813	-.548	.003
523.15	5050	.028813	-.5504	.003
523.15	5050	.028813	-.5474	.003
523.15	5050	.028813	-.5424	.003
523.15	14960	.009634	-.1679	.003
523.15	14960	.009634	-.1696	.003
523.15	14960	.009634	-.1706	.003
523.15	14960	.018395	-.3199	.003
523.15	14960	.018395	-.3219	.003
523.15	14960	.018395	-.3235	.003
523.15	14960	.027071	-.4704	.003
523.15	14960	.027071	-.4719	.003
523.15	14960	.027071	-.4723	.003
523.15	29990	.009634	-.151	.003
523.15	29990	.009634	-.1511	.003
523.15	29990	.018395	-.2839	.003
523.15	29990	.018395	-.2852	.003
523.15	29990	.018395	-.2866	.003
523.15	29990	.027071	-.4202	.003
523.15	29990	.027071	-.4228	.003
523.15	29990	.027071	-.4195	.003
548.16	7000	.009634	-.2268	.003
548.16	7000	.009634	-.2276	.003
548.16	7000	.009634	-.2268	.003
548.16	7000	.018395	-.4313	.003
548.16	7000	.018395	-.4317	.003
548.16	7000	.018395	-.4314	.003
548.16	7000	.018395	-.432	.003
548.16	7000	.027071	-.6303	.003
548.16	7000	.027071	-.6335	.003
548.16	7000	.027071	-.6327	.003
548.16	7000	.027071	-.6307	.003
548.15	15010	.009634	-.2095	.003
548.15	15010	.009634	-.2097	.003
548.15	15010	.009634	-.2085	.003
548.15	15010	.018395	-.3911	.003
548.15	15010	.018395	-.3927	.003
548.15	15010	.018395	-.3917	.003
548.15	15010	.027071	-.5723	.003
548.15	15010	.027071	-.5733	.003
548.15	15010	.027071	-.5762	.003
548.16	30050	.009634	-.1868	.003
548.16	30050	.009634	-.1867	.003
548.16	30050	.009634	-.1841	.003
548.16	30050	.018395	-.3463	.003
548.16	30050	.018395	-.3471	.003
548.16	30050	.018395	-.3395	.003
548.16	30050	.027071	-.5046	.003
548.16	30050	.027071	-.5038	.003
548.16	30050	.027071	-.5031	.003

System: cyclohexylmethanol + water; phases: Liquid
Property: Mass density, kg/m3 (Liquid); method: Vibrating tube method
Temperature, K	Pressure, kPa	Molality, mol/kg of cyclohexylmethanol	Mass density, kg/m3	uncertainty
298.14	15010	.014608	-.0759	.003
298.14	15010	.014608	-.0793	.003
298.14	15010	.014608	-.0782	.003
298.14	15010	.014608	-.0778	.003
298.14	15010	.014608	-.078	.003
298.14	15010	.030078	-.1553	.003
298.14	15010	.030078	-.1585	.003
298.14	15010	.030078	-.1558	.003
298.14	15010	.030078	-.1564	.003
298.14	15010	.030078	-.1557	.003
298.14	15010	.045073	-.2267	.003
298.14	15010	.045073	-.2294	.003
298.14	15010	.045073	-.2313	.003
298.14	15010	.045073	-.2276	.003
298.14	15010	.045073	-.2286	.003
298.14	15010	.045073	-.2307	.003
298.14	30120	.014608	-.0871	.003
298.14	30120	.014608	-.0881	.003
298.14	30120	.014608	-.088	.003
298.14	30120	.030078	-.1759	.003
298.14	30120	.030078	-.1774	.003
298.14	30120	.030078	-.1777	.003
298.14	30120	.045073	-.2605	.003
298.14	30120	.045073	-.2598	.003
298.14	30120	.045073	-.2616	.003
318.17	15010	.014608	-.0953	.003
318.17	15010	.014608	-.0948	.003
318.17	15010	.014608	-.0945	.003
318.17	15010	.030078	-.1893	.003
318.17	15010	.030078	-.1909	.003
318.17	15010	.030078	-.1891	.003
318.17	15010	.045073	-.2777	.003
318.17	15010	.045073	-.2793	.003
318.17	15010	.045073	-.2781	.003
318.17	30030	.014608	-.0975	.003
318.17	30030	.014608	-.1001	.003
318.17	30030	.014608	-.0996	.003
318.17	30030	.030078	-.199	.003
318.17	30030	.030078	-.2012	.003
318.17	30030	.030078	-.2009	.003
318.17	30030	.045073	-.2946	.003
318.17	30030	.045073	-.2953	.003
318.17	30030	.045073	-.2956	.003
338.16	15040	.013856	-.1038	.003
338.16	15040	.013856	-.1056	.003
338.16	15040	.030078	-.2215	.003
338.16	15040	.030078	-.2226	.003
338.16	15040	.030078	-.2238	.003
338.16	15040	.042254	-.3087	.003
338.16	15040	.042254	-.3107	.003
338.16	15040	.042254	-.3122	.003
338.16	30030	.013856	-.1046	.003
338.16	30030	.013856	-.1059	.003
338.16	30030	.013856	-.106	.003
338.16	30030	.029138	-.2158	.003
338.16	30030	.029138	-.2175	.003
338.16	30030	.029138	-.2207	.003
338.16	30030	.042254	-.315	.003
338.16	30030	.042254	-.3156	.003
338.16	30030	.042254	-.3155	.003
358.16	15030	.013856	-.1126	.003
358.16	15030	.013856	-.1176	.003
358.16	15030	.013856	-.1229	.003
358.16	15030	.029138	-.2462	.003
358.16	15030	.029138	-.2489	.003
358.16	15030	.029138	-.2495	.003
358.16	15030	.042254	-.3602	.003
358.16	15030	.042254	-.3623	.003
358.16	15030	.042254	-.3554	.003
358.16	30100	.013856	-.1153	.003
358.16	30100	.013856	-.1186	.003
358.16	30100	.013856	-.1198	.003
358.16	30100	.029138	-.2485	.003
358.16	30100	.029138	-.2508	.003
358.16	30100	.029138	-.2498	.003
358.16	30100	.042254	-.3614	.003
358.16	30100	.042254	-.3629	.003
358.16	30100	.042254	-.3635	.003
373.19	15080	.015215	-.1453	.003
373.19	15080	.015215	-.1463	.003
373.19	15080	.015215	-.1468	.003
373.19	15080	.029153	-.2814	.003
373.19	15080	.029153	-.2808	.003
373.19	15080	.029153	-.2817	.003
373.19	15080	.044295	-.427	.003
373.19	15080	.044295	-.4266	.003
373.16	29930	.013856	-.1295	.003
373.16	29930	.013856	-.1315	.003
373.16	29930	.013856	-.1291	.003
373.16	29930	.029138	-.2757	.003
373.16	29930	.029138	-.2764	.003
373.16	29930	.029138	-.277	.003
373.16	29930	.042254	-.4003	.003
373.16	29930	.042254	-.4003	.003
373.16	29930	.042254	-.3992	.003
398.15	2010	.013604	-.1586	.003
398.15	2010	.013604	-.1591	.003
398.15	2010	.013604	-.1603	.003
398.15	2010	.029138	-.3411	.003
398.15	2010	.029138	-.3414	.003
398.15	2010	.029138	-.342	.003
398.15	2010	.042254	-.4939	.003
398.15	2010	.042254	-.4943	.003
398.15	2010	.042254	-.495	.003
398.14	15010	.013604	-.154	.003
398.14	15010	.013604	-.1544	.003
398.14	15010	.013604	-.1538	.003
398.14	15010	.028769	-.3253	.003
398.14	15010	.028769	-.3259	.003
398.14	15010	.028769	-.3263	.003
398.14	15010	.044711	-.5047	.003
398.14	15010	.044711	-.5067	.003
398.14	15010	.044711	-.5072	.003
398.15	29960	.013604	-.1505	.003
398.15	29960	.013604	-.1518	.003
398.15	29960	.013604	-.152	.003
398.15	29960	.028769	-.3169	.003
398.15	29960	.028769	-.3186	.003
398.15	29960	.028769	-.3182	.003
398.15	29960	.044711	-.4934	.003
398.15	29960	.044711	-.4932	.003
398.15	29960	.044711	-.4936	.003
423.15	1970	.013604	-.184	.003
423.15	1970	.013604	-.1852	.003
423.15	1970	.013604	-.1865	.003
423.15	1970	.028769	-.3887	.003
423.15	1970	.028769	-.3892	.003
423.15	1970	.028769	-.3906	.003
423.15	1970	.044711	-.6019	.003
423.15	1970	.044711	-.6032	.003
423.15	1970	.044711	-.6053	.003
423.16	14980	.013604	-.1751	.003
423.16	14980	.013604	-.1771	.003
423.16	14980	.013604	-.1784	.003
423.16	14980	.028769	-.3711	.003
423.16	14980	.028769	-.3722	.003
423.16	14980	.028769	-.3739	.003
423.16	14980	.044711	-.576	.003
423.16	14980	.044711	-.5783	.003
423.16	14980	.044711	-.5793	.003
423.17	29960	.013604	-.1698	.003
423.17	29960	.013604	-.1707	.003
423.17	29960	.013604	-.1727	.003
423.17	29960	.028769	-.3573	.003
423.17	29960	.028769	-.3584	.003
423.17	29960	.028769	-.3591	.003
423.17	29960	.044711	-.554	.003
423.17	29960	.044711	-.5561	.003
423.17	29960	.044711	-.5555	.003
448.15	1980	.013604	-.2076	.003
448.15	1980	.013604	-.2092	.003
448.15	1980	.013604	-.2102	.003
448.15	1980	.028769	-.438	.003
448.15	1980	.028769	-.4391	.003
448.15	1980	.028769	-.4399	.003
448.15	1980	.044711	-.6793	.003
448.15	1980	.044711	-.6802	.003
448.15	1980	.044711	-.6813	.003
448.15	15000	.013604	-.197	.003
448.15	15000	.013604	-.1984	.003
448.15	15000	.013604	-.1989	.003
448.15	15000	.028769	-.4149	.003
448.15	15000	.028769	-.4156	.003
448.15	15000	.028769	-.4165	.003
448.15	15000	.044711	-.6438	.003
448.15	15000	.044711	-.644	.003
448.15	15000	.044711	-.6449	.003
448.15	29980	.013604	-.1862	.003
448.15	29980	.013604	-.1873	.003
448.15	29980	.013604	-.1883	.003
448.15	29980	.028769	-.3928	.003
448.15	29980	.028769	-.3925	.003
448.15	29980	.028769	-.3938	.003
448.15	29980	.044711	-.6089	.003
448.15	29980	.044711	-.609	.003
448.15	29980	.044711	-.6099	.003
473.16	2000	.014202	-.2404	.003
473.16	2000	.014202	-.2413	.003
473.16	2000	.029771	-.504	.003
473.16	2000	.029771	-.5038	.003
473.16	2000	.041409	-.6994	.003
473.16	2000	.041409	-.6996	.003
473.15	14970	.014202	-.2237	.003
473.15	14970	.014202	-.2248	.003
473.15	14970	.014202	-.225	.003
473.15	14970	.029771	-.4694	.003
473.15	14970	.029771	-.4703	.003
473.15	14970	.029771	-.4714	.003
473.15	14970	.041409	-.652	.003
473.15	14970	.041409	-.653	.003
473.15	14970	.041409	-.6535	.003
473.15	30050	.014202	-.2104	.003
473.15	30050	.014202	-.21	.003
473.15	30050	.014202	-.2116	.003
473.15	30050	.029771	-.4384	.003
473.15	30050	.029771	-.4402	.003
473.15	30050	.029771	-.4409	.003
473.15	30050	.041409	-.6093	.003
473.15	30050	.041409	-.6099	.003
473.15	30050	.041409	-.6113	.003
498.15	2930	.014202	-.266	.003
498.15	2930	.014202	-.2665	.003
498.15	2930	.014202	-.2688	.003
498.15	2930	.029771	-.5555	.003
498.15	2930	.029771	-.5579	.003
498.15	2930	.029771	-.5594	.003
498.15	2930	.041409	-.7729	.003
498.15	2930	.041409	-.7746	.003
498.15	2930	.041409	-.7763	.003
498.16	15010	.014202	-.2446	.003
498.16	15010	.014202	-.2454	.003
498.16	15010	.014202	-.2466	.003
498.16	15010	.029771	-.5121	.003
498.16	15010	.029771	-.5137	.003
498.16	15010	.029771	-.5151	.003
498.16	15010	.041409	-.7115	.003
498.16	15010	.041409	-.713	.003
498.16	15010	.041409	-.7139	.003
498.15	30000	.014202	-.2248	.003
498.15	30000	.014202	-.2278	.003
498.15	30000	.014202	-.2231	.003
498.15	30000	.029771	-.4704	.003
498.15	30000	.029771	-.4716	.003
498.15	30000	.029771	-.4759	.003
498.15	30000	.041409	-.6527	.003
498.15	30000	.041409	-.6548	.003
498.15	30000	.041409	-.6547	.003
523.14	5020	.014202	-.2934	.003
523.14	5020	.014202	-.2927	.003
523.14	5020	.014202	-.2938	.003
523.14	5020	.029771	-.6104	.003
523.14	5020	.029771	-.6111	.003
523.14	5020	.029771	-.6115	.003
523.14	5020	.041409	-.8474	.003
523.14	5020	.041409	-.8501	.003
523.15	14920	.014202	-.2652	.003
523.15	14920	.014202	-.2659	.003
523.15	14920	.014202	-.2669	.003
523.15	14920	.029771	-.5571	.003
523.15	14920	.029771	-.5566	.003
523.15	14920	.029771	-.5586	.003
523.15	14920	.041409	-.7735	.003
523.15	14920	.041409	-.7754	.003
523.15	14920	.041409	-.7761	.003
523.15	29990	.014202	-.2397	.003
523.15	29990	.014202	-.242	.003
523.15	29990	.014202	-.24	.003
523.15	29990	.029771	-.496	.003
523.15	29990	.029771	-.4986	.003
523.15	29990	.029771	-.4976	.003
523.15	29990	.041409	-.6901	.003
523.15	29990	.041409	-.6901	.003
523.15	29990	.041409	-.692	.003
548.16	7010	.014202	-.3311	.003
548.16	7010	.014202	-.3282	.003
548.16	7010	.014202	-.3293	.003
548.16	7010	.029771	-.6788	.003
548.16	7010	.029771	-.6805	.003
548.16	7010	.029771	-.6813	.003
548.16	7010	.041409	-.9447	.003
548.16	7010	.041409	-.9427	.003
548.16	7010	.041409	-.9475	.003
548.16	15020	.015215	-.3173	.003
548.16	15020	.015215	-.3156	.003
548.16	15020	.015215	-.3174	.003
548.16	15020	.029153	-.6014	.003
548.16	15020	.029153	-.6011	.003
548.16	15020	.029153	-.6008	.003
548.16	15020	.044295	-.9099	.003
548.16	15020	.044295	-.9091	.003
548.16	15020	.044295	-.9083	.003
548.16	29980	.015215	-.2744	.003
548.16	29980	.015215	-.2763	.003
548.16	29980	.015215	-.2736	.003
548.16	29980	.029153	-.5195	.003
548.16	29980	.029153	-.5225	.003
548.16	29980	.029153	-.5193	.003
548.16	29980	.044295	-.7832	.003
548.16	29980	.044295	-.7848	.003
548.16	29980	.044295	-.7825	.003
573.18	9950	.015215	-.3965	.003
573.18	9950	.015215	-.3992	.003
573.18	9950	.015215	-.3987	.003
573.18	9950	.029153	-.7563	.003
573.18	9950	.029153	-.7565	.003
573.18	9950	.029153	-.7565	.003
573.18	9950	.044295	-1.1459	.003
573.18	9950	.044295	-1.1448	.003
573.18	9950	.044295	-1.1444	.003
573.19	15010	.015215	-.3564	.003
573.19	15010	.015215	-.3566	.003
573.19	15010	.015215	-.3562	.003
573.19	15010	.029153	-.6803	.003
573.19	15010	.029153	-.6793	.003
573.19	15010	.029153	-.6804	.003
573.19	15010	.044295	-1.0309	.003
573.19	15010	.044295	-1.0316	.003
573.19	15010	.044295	-1.0293	.003
573.19	30040	.015215	-.2826	.003
573.19	30040	.015215	-.2843	.003
573.19	30040	.015215	-.2874	.003
573.19	30040	.029153	-.5456	.003
573.19	30040	.029153	-.5466	.003
573.19	30040	.029153	-.5516	.003
573.19	30040	.044295	-.8305	.003
573.19	30040	.044295	-.8296	.003
573.19	30040	.044295	-.8289	.003

System: 2-cyclohexylethanol + water; phases: Liquid
Property: Mass density, kg/m3 (Liquid); method: Vibrating tube method
Temperature, K	Pressure, kPa	Molality, mol/kg of 2-cyclohexylethanol	Mass density, kg/m3	uncertainty
298.14	15010	.00688	-.0474	.003
298.14	15010	.00688	-.0489	.003
298.14	15010	.00688	-.0517	.003
298.14	15010	.00688	-.0503	.003
298.14	15010	.00688	-.0511	.003
298.14	15010	.00688	-.0512	.003
298.14	15010	.007624	-.0538	.003
298.14	15010	.007624	-.0543	.003
298.14	15010	.007624	-.0587	.003
298.14	15010	.007624	-.0562	.003
298.14	15010	.007624	-.0545	.003
298.14	15010	.007624	-.0552	.003
298.14	15010	.010505	-.0744	.003
298.14	15010	.010505	-.0755	.003
298.14	15010	.010505	-.0753	.003
298.14	15010	.010505	-.0755	.003
298.14	15010	.010505	-.0763	.003
298.14	15010	.010505	-.0762	.003
298.14	30130	.00688	-.054	.003
298.14	30130	.00688	-.0558	.003
298.14	30130	.00688	-.0553	.003
298.14	30130	.007624	-.0606	.003
298.14	30130	.007624	-.06	.003
298.14	30130	.007624	-.0623	.003
298.14	30130	.010505	-.0827	.003
298.14	30130	.010505	-.0822	.003
298.14	30130	.010505	-.0838	.003
318.17	15010	.00688	-.0614	.003
318.17	15010	.00688	-.0623	.003
318.17	15010	.00688	-.0628	.003
318.17	15010	.007624	-.0674	.003
318.17	15010	.007624	-.0681	.003
318.17	15010	.007624	-.0694	.003
318.17	15010	.010505	-.0931	.003
318.17	15010	.010505	-.0911	.003
318.17	15010	.010505	-.0929	.003
318.17	30040	.00688	-.0618	.003
318.17	30040	.00688	-.0633	.003
318.17	30040	.00688	-.0643	.003
318.17	30040	.007624	-.0695	.003
318.17	30040	.007624	-.0706	.003
318.17	30040	.007624	-.0693	.003
318.17	30040	.010505	-.0943	.003
318.17	30040	.010505	-.0959	.003
318.17	30040	.010505	-.096	.003
338.16	15040	.00688	-.0686	.003
338.16	15040	.00688	-.0699	.003
338.16	15040	.00688	-.0713	.003
338.16	15040	.007624	-.0761	.003
338.16	15040	.007624	-.0777	.003
338.16	15040	.007624	-.0786	.003
338.16	15040	.010505	-.1037	.003
338.16	15040	.010505	-.1057	.003
338.16	15040	.010505	-.1076	.003
338.16	30030	.006354	-.061	.003
338.16	30030	.006354	-.0634	.003
338.16	30030	.006354	-.0645	.003
338.16	30030	.007696	-.0769	.003
338.16	30030	.007696	-.0781	.003
338.16	30030	.007696	-.0768	.003
338.16	30030	.009593	-.0938	.003
338.16	30030	.009593	-.0957	.003
338.16	30030	.009593	-.0969	.003
358.16	15030	.006354	-.0685	.003
358.16	15030	.006354	-.0709	.003
358.16	15030	.006354	-.0771	.003
358.16	15030	.007696	-.0846	.003
358.16	15030	.007696	-.0843	.003
358.16	15030	.007696	-.0833	.003
358.16	15030	.009593	-.1065	.003
358.16	15030	.009593	-.1077	.003
358.16	15030	.009593	-.1139	.003
358.16	30100	.006354	-.0696	.003
358.16	30100	.006354	-.0707	.003
358.16	30100	.006354	-.072	.003
358.16	30100	.007696	-.0858	.003
358.16	30100	.007696	-.0877	.003
358.16	30100	.007696	-.0866	.003
358.16	30100	.009593	-.1073	.003
358.16	30100	.009593	-.1073	.003
358.16	30100	.009593	-.1086	.003
373.19	15080	.005995	-.0753	.003
373.19	15080	.005995	-.0769	.003
373.19	15080	.005995	-.0753	.003
373.19	15080	.006708	-.0846	.003
373.19	15080	.006708	-.0841	.003
373.19	15080	.006708	-.0844	.003
373.19	15080	.007945	-.0999	.003
373.19	15080	.007945	-.1004	.003
373.19	15080	.007945	-.1006	.003
373.16	29930	.006354	-.0787	.003
373.16	29930	.006354	-.0769	.003
373.16	29930	.006354	-.0798	.003
373.16	29930	.007696	-.0952	.003
373.16	29930	.007696	-.0936	.003
373.16	29930	.007696	-.0908	.003
373.16	29930	.009593	-.1181	.003
373.16	29930	.009593	-.1177	.003
373.16	29930	.009593	-.123	.003
398.15	2000	.006354	-.0975	.003
398.15	2000	.006354	-.0974	.003
398.15	2000	.006354	-.0978	.003
398.15	2000	.007696	-.1167	.003
398.15	2000	.007696	-.1172	.003
398.15	2000	.007696	-.1183	.003
398.15	2000	.009593	-.1454	.003
398.15	2000	.009593	-.1463	.003
398.15	2000	.009593	-.1465	.003
398.14	15010	.006213	-.091	.003
398.14	15010	.006213	-.0911	.003
398.14	15010	.006213	-.0926	.003
398.14	15010	.00668	-.0962	.003
398.14	15010	.00668	-.0986	.003
398.14	15010	.00668	-.0982	.003
398.14	15010	.007381	-.1077	.003
398.14	15010	.007381	-.1084	.003
398.14	15010	.007381	-.1094	.003
398.15	29950	.00668	-.0964	.003
398.15	29950	.00668	-.0968	.003
398.15	29950	.00668	-.0976	.003
398.15	29950	.007381	-.1057	.003
398.15	29950	.007381	-.1076	.003
398.15	29950	.007381	-.1082	.003
398.15	29950	.007696	-.1112	.003
398.15	29950	.007696	-.1106	.003
398.15	29950	.007696	-.1132	.003
423.15	1970	.006213	-.1076	.003
423.15	1970	.006213	-.1082	.003
423.15	1970	.006213	-.1097	.003
423.15	1970	.00668	-.1157	.003
423.15	1970	.00668	-.1166	.003
423.15	1970	.00668	-.1179	.003
423.15	1970	.007381	-.1283	.003
423.15	1970	.007381	-.1298	.003
423.15	1970	.007381	-.1307	.003
423.17	14980	.006213	-.1027	.003
423.17	14980	.006213	-.1036	.003
423.17	14980	.006213	-.1053	.003
423.17	14980	.00668	-.1103	.003
423.17	14980	.00668	-.1112	.003
423.17	14980	.00668	-.1129	.003
423.17	14980	.007381	-.124	.003
423.17	14980	.007381	-.1228	.003
423.17	14980	.007381	-.1243	.003
423.17	29990	.006213	-.0996	.003
423.17	29990	.006213	-.1003	.003
423.17	29990	.006213	-.1012	.003
423.17	29990	.00668	-.1069	.003
423.17	29990	.00668	-.108	.003
423.17	29990	.00668	-.1076	.003
423.17	29990	.007381	-.1181	.003
423.17	29990	.007381	-.119	.003
423.17	29990	.007381	-.1193	.003
448.15	1970	.006213	-.1197	.003
448.15	1970	.006213	-.1206	.003
448.15	1970	.006213	-.1218	.003
448.15	1970	.00668	-.1288	.003
448.15	1970	.00668	-.13	.003
448.15	1970	.00668	-.1309	.003
448.15	1970	.007381	-.1419	.003
448.15	1970	.007381	-.1435	.003
448.15	1970	.007381	-.1439	.003
448.15	15000	.006213	-.1144	.003
448.15	15000	.006213	-.1148	.003
448.15	15000	.006213	-.1155	.003
448.15	15000	.00668	-.1223	.003
448.15	15000	.00668	-.1231	.003
448.15	15000	.00668	-.1236	.003
448.15	15000	.007381	-.1354	.003
448.15	15000	.007381	-.1363	.003
448.15	15000	.007381	-.1368	.003
448.15	29980	.006213	-.1076	.003
448.15	29980	.006213	-.1067	.003
448.15	29980	.006213	-.1089	.003
448.15	29980	.00668	-.1156	.003
448.15	29980	.00668	-.1158	.003
448.15	29980	.00668	-.117	.003
448.15	29980	.007381	-.1283	.003
448.15	29980	.007381	-.1291	.003
448.15	29980	.007381	-.1286	.003
473.16	2000	.006213	-.1301	.003
473.16	2000	.006213	-.1326	.003
473.16	2000	.006506	-.1368	.003
473.16	2000	.006506	-.1369	.003
473.16	2000	.006804	-.1425	.003
473.16	2000	.006804	-.1437	.003
473.15	14980	.006213	-.1213	.003
473.15	14980	.006213	-.1224	.003
473.15	14980	.006213	-.1235	.003
473.15	14980	.006506	-.1273	.003
473.15	14980	.006506	-.1282	.003
473.15	14980	.006506	-.1289	.003
473.15	14980	.006804	-.133	.003
473.15	14980	.006804	-.1342	.003
473.15	14980	.006804	-.1351	.003
473.15	30050	.006241	-.1149	.003
473.15	30050	.006241	-.1156	.003
473.15	30050	.006241	-.1171	.003
473.15	30050	.006506	-.1206	.003
473.15	30050	.006506	-.1213	.003
473.15	30050	.006506	-.1219	.003
473.15	30050	.006804	-.1251	.003
473.15	30050	.006804	-.1268	.003
473.15	30050	.006804	-.1278	.003
498.15	2930	.006241	-.143	.003
498.15	2930	.006241	-.1452	.003
498.15	2930	.006241	-.1472	.003
498.15	2930	.006506	-.1481	.003
498.15	2930	.006506	-.1516	.003
498.15	2930	.006506	-.1535	.003
498.15	2930	.006804	-.1553	.003
498.15	2930	.006804	-.1571	.003
498.15	2930	.006804	-.159	.003
498.16	15010	.006241	-.1333	.003
498.16	15010	.006241	-.1339	.003
498.16	15010	.006241	-.1347	.003
498.16	15010	.006506	-.1385	.003
498.16	15010	.006506	-.1398	.003
498.16	15010	.006506	-.1403	.003
498.16	15010	.006804	-.1438	.003
498.16	15010	.006804	-.1455	.003
498.16	15010	.006804	-.1454	.003
498.15	29970	.006241	-.1235	.003
498.15	29970	.006241	-.1245	.003
498.15	29970	.006241	-.1214	.003
498.15	29970	.006506	-.1284	.003
498.15	29970	.006506	-.1301	.003
498.15	29970	.006506	-.1276	.003
498.15	29970	.006804	-.1343	.003
498.15	29970	.006804	-.1341	.003
498.15	29970	.006804	-.138	.003
523.14	5020	.006241	-.1591	.003
523.14	5020	.006241	-.1567	.003
523.14	5020	.006241	-.1572	.003
523.14	5020	.006506	-.1629	.003
523.14	5020	.006506	-.1628	.003
523.14	5020	.006506	-.1637	.003
523.14	5020	.006804	-.17	.003
523.14	5020	.006804	-.1708	.003
523.14	5020	.006804	-.1698	.003
523.15	14930	.006241	-.1423	.003
523.15	14930	.006241	-.1433	.003
523.15	14930	.006241	-.143	.003
523.15	14930	.006506	-.1478	.003
523.15	14930	.006506	-.146	.003
523.15	14930	.006506	-.1493	.003
523.15	14930	.006804	-.1535	.003
523.15	29980	.006241	-.1285	.003
523.15	29980	.006241	-.1244	.003
523.15	29980	.006241	-.1286	.003
523.15	29980	.006506	-.1329	.003
523.15	29980	.006506	-.133	.003
523.15	29980	.006506	-.1354	.003
523.15	29980	.006804	-.1396	.003
523.15	29980	.006804	-.1392	.003
523.15	29980	.006804	-.1398	.003
548.16	7010	.006241	-.1709	.003
548.16	7010	.006241	-.1726	.003
548.16	7010	.006241	-.1726	.003
548.16	7010	.006804	-.1826	.003
548.16	7010	.006804	-.1873	.003
548.16	7010	.006804	-.1884	.003
548.16	7010	.007945	-.2165	.003
548.16	7010	.007945	-.2186	.003
548.16	7010	.007945	-.2181	.003
548.16	15030	.006241	-.1566	.003
548.16	15030	.006241	-.1562	.003
548.16	15030	.006241	-.1565	.003
548.16	15030	.006708	-.1677	.003
548.16	15030	.006708	-.1686	.003
548.16	15030	.006708	-.1686	.003
548.16	15030	.007945	-.1988	.003
548.16	15030	.007945	-.1976	.003
548.16	15030	.007945	-.1977	.003
548.16	29980	.005995	-.1315	.003
548.16	29980	.005995	-.1309	.003
548.16	29980	.005995	-.1324	.003
548.16	29980	.006708	-.1477	.003
548.16	29980	.006708	-.1472	.003
548.16	29980	.006708	-.1474	.003
548.16	29980	.007945	-.1743	.003
548.16	29980	.007945	-.1737	.003
548.16	29980	.007945	-.1685	.003
573.18	9950	.005995	-.1854	.003
573.18	9950	.005995	-.1875	.003
573.18	9950	.005995	-.1892	.003
573.18	9950	.006708	-.2018	.003
573.18	9950	.006708	-.1991	.003
573.18	9950	.006708	-.2184	.003
573.18	9950	.007945	-.2433	.003
573.18	9950	.007945	-.2488	.003
573.18	9950	.007945	-.2481	.003
573.19	15010	.005995	-.1674	.003
573.19	15010	.005995	-.1675	.003
573.19	15010	.005995	-.1678	.003
573.19	15010	.006708	-.1894	.003
573.19	15010	.006708	-.189	.003
573.19	15010	.006708	-.1896	.003
573.19	15010	.007945	-.2212	.003
573.19	15010	.007945	-.2221	.003
573.19	15010	.007945	-.2234	.003
573.19	30040	.005995	-.1348	.003
573.19	30040	.005995	-.1368	.003
573.19	30040	.005995	-.1379	.003
573.19	30040	.006708	-.1499	.003
573.19	30040	.006708	-.1523	.003
573.19	30040	.006708	-.153	.003
573.19	30040	.007945	-.1783	.003
573.19	30040	.007945	-.1794	.003
573.19	30040	.007945	-.1818	.003
