Measured thermophysical data. Partition behaviour of benzoic acid in (water + n-dodecane) solutions  at T = (293.15 and 298.15) K
Source: J. Chem. Thermodyn., 2008, 10.1016/j.jct.2008.06.014
Compound 1: benzoic acid, C7H6O2, purity 99.5%
Compound 2: dodecane, C12H26, purity 99.5%
Compound 3: water, H2O

System: benzoic acid + dodecane + water; phases: Liquid mixture 1, Liquid mixture 2
Fixed: Pressure, kPa = 101
Property: Amount concentration (molarity), mol/dm3 of benzoic acid (Liquid mixture 1); method: Titration Method
Temperature, K	Amount concentration (molarity), mol/dm3 of water	Amount concentration (molarity), mol/dm3 of benzoic acid	uncertainty
293.15	.0225	.0866	.000866
293.15	.022	.0778	.000778
293.15	.0219	.0746	.000746
293.15	.0211	.0699	.000699
293.15	.0201	.0671	.000671
293.15	.0193	.0602	.000602
293.15	.0179	.0512	.000512
293.15	.0168	.0446	.000446
293.15	.0155	.0394	.000394
293.15	.0139	.0325	.000325
293.15	.0126	.0246	.000246
293.15	.0108	.0189	.000189
293.15	.00866	.0126	.000126
293.15	.00629	.00722	.0000722
298.15	.0241	.0774	.000774
298.15	.0233	.0717	.000717
298.15	.0225	.0655	.000655
298.15	.0213	.0597	.000597
298.15	.0188	.0477	.000477
298.15	.0174	.0401	.000401
298.15	.0148	.0313	.000313
298.15	.0138	.0281	.000281
298.15	.0115	.0182	.000182
298.15	.00931	.012	.00012
