Measured thermophysical data. Thermodynamic study of three pharmacologically significant drugs: Density,  viscosity, and refractive index measurements at different temperatures
Source: J. Chem. Thermodyn., 2009, 10.1016/j.jct.2008.09.016
Compound 1: sodium diclofenac, C14H10Cl2NNaO2, purity 99%
Compound 2: water, H2O

System: water + sodium diclofenac; phases: Liquid
Fixed: Pressure, kPa = 101
Property: Mass density, kg/m3 (Liquid); method: Vibrating tube method
Temperature, K	Molality, mol/kg of sodium diclofenac	Mass density, kg/m3	uncertainty
293.15	.0076	998.331	.01
293.15	.01	998.385	.01
293.15	.0125	998.445	.01
293.15	.0152	998.525	.01
293.15	.0175	998.605	.01
293.15	.02	998.695	.01
293.15	.025	998.911	.01
303.15	.0076	995.745	.01
303.15	.01	995.795	.01
303.15	.0125	995.851	.01
303.15	.0152	995.905	.01
303.15	.0175	995.973	.01
303.15	.02	996.075	.01
303.15	.025	996.239	.01
310.15	.0076	993.388	.01
310.15	.01	993.424	.01
310.15	.0125	993.475	.01
310.15	.0152	993.541	.01
310.15	.0175	993.591	.01
310.15	.02	993.661	.01
310.15	.025	993.851	.01
298.15	.0076	997.159	.01
298.15	.01	997.215	.01
298.15	.0125	997.261	.01
298.15	.0152	997.325	.01
298.15	.0175	997.405	.01
298.15	.02	997.505	.01
298.15	.025	997.691	.01
308.15	.0076	994.125	.01
308.15	.01	994.175	.01
308.15	.0125	994.221	.01
308.15	.0152	994.294	.01
308.15	.0175	994.351	.01
308.15	.02	994.436	.01
308.15	.025	994.595	.01
313.15	.0075	992.285	.01
313.15	.01	992.325	.01
313.15	.0125	992.375	.01
313.15	.0152	992.428	.01
313.15	.0175	992.481	.01
313.15	.02	992.545	.01
313.15	.025	992.725	.01
