Measured thermophysical data. Uncommon structure making/breaking behaviour of cholinium taurate in water
Source: J. Chem. Thermodyn., 2017, 10.1016/j.jct.2016.12.025
Compound 1: cholinium taurate, C7H20N2O4S
Compound 2: water, H2O

System: water + cholinium taurate; phases: Liquid
Fixed: Pressure, kPa = 100
Property: Mass density, kg/m3 (Liquid); method: Vibrating tube method
Temperature, K	Molality, mol/kg of cholinium taurate	Mass density, kg/m3	uncertainty
293.15	0	998.21	
293.15	.001691	998.27	
293.15	.002835	998.32	
293.15	.003906	998.37	
293.15	.00534	998.43	
293.15	.008046	998.56	
293.15	.008765	998.59	
293.15	.010984	998.69	
293.15	.014133	998.85	
293.15	.018854	999.09	
293.15	.020132	999.16	
293.15	.023782	999.36	
293.15	.028152	999.6	
298.15	0	997.05	
298.15	.001691	997.11	
298.15	.002835	997.16	
298.15	.003906	997.2	
298.15	.00534	997.26	
298.15	.008046	997.38	
298.15	.008765	997.41	
298.15	.010984	997.52	
298.15	.014133	997.66	
298.15	.018854	997.89	
298.15	.020132	997.96	
298.15	.023782	998.15	
298.15	.028152	998.38	
303.15	0	995.65	
303.15	.001691	995.69	
303.15	.002835	995.73	
303.15	.003906	995.76	
303.15	.00534	995.82	
303.15	.008046	995.92	
303.15	.008765	995.95	
303.15	.010984	996.04	
303.15	.014133	996.17	
303.15	.018854	996.38	
303.15	.020132	996.44	
303.15	.023782	996.62	
303.15	.028152	996.83	
308.15	0	994.04	
308.15	.001691	994.05	
308.15	.002835	994.07	
308.15	.003906	994.1	
308.15	.00534	994.14	
308.15	.008046	994.21	
308.15	.008765	994.24	
308.15	.010984	994.33	
308.15	.014133	994.45	
308.15	.018854	994.67	
308.15	.020132	994.74	
308.15	.023782	994.95	
308.15	.028152	995.19	
313.15	0	992.22	
313.15	.001691	992.22	
313.15	.002835	992.23	
313.15	.003906	992.24	
313.15	.00534	992.26	
313.15	.008046	992.33	
313.15	.008765	992.35	
313.15	.010984	992.42	
313.15	.014133	992.53	
313.15	.018854	992.74	
313.15	.020132	992.8	
313.15	.023782	993.01	
313.15	.028152	993.26	

System: water + cholinium taurate; phases: Liquid
Fixed: Pressure, kPa = 100
Property: Viscosity, Pa*s (Liquid); method: Capillary tube (Ostwald; Ubbelohde) method
Temperature, K	Molality, mol/kg of cholinium taurate	Viscosity, Pa*s	uncertainty
293.15	0	.001003	
293.15	.00169	.001014	
293.15	.00283	.001017	
293.15	.00391	.001019	
293.15	.00534	.001022	
293.15	.01098	.001028	
293.15	.02378	.001036	
293.15	.03531	.001041	
293.15	.05003	.001046	
293.15	.07643	.001052	
293.15	.09073	.001054	
298.15	0	.00089	
298.15	.00169	.000904	
298.15	.00283	.000907	
298.15	.00391	.00091	
298.15	.00534	.000913	
298.15	.01098	.000922	
298.15	.02378	.000932	
298.15	.03531	.000939	
298.15	.05003	.000946	
298.15	.07643	.000954	
298.15	.09073	.000958	
303.15	0	.000797	
303.15	.00169	.000811	
303.15	.00283	.000814	
303.15	.00391	.000817	
303.15	.00534	.00082	
303.15	.01098	.000828	
303.15	.02378	.000839	
303.15	.03531	.000846	
303.15	.05003	.000853	
303.15	.07643	.000861	
303.15	.09073	.000863	
308.15	0	.000719	
308.15	.00169	.000737	
308.15	.00283	.000742	
308.15	.00391	.000745	
308.15	.00534	.000749	
308.15	.01098	.00076	
308.15	.02378	.000771	
308.15	.03531	.000776	
308.15	.05003	.000781	
308.15	.07643	.000786	
308.15	.09073	.000789	
313.15	0	.000653	
313.15	.00169	.000675	
313.15	.00283	.00068	
313.15	.00391	.000684	
313.15	.00534	.000688	
313.15	.01098	.000699	
313.15	.02378	.000709	
313.15	.03531	.000715	
313.15	.05003	.00072	
313.15	.07643	.000723	
313.15	.09073	.000724	

System: water + cholinium taurate; phases: Liquid
Fixed: Pressure, kPa = 100
Property: Electrical conductivity, S/m (Liquid); method: Direct current cell with electrodes
Temperature, K	Molality, mol/kg of cholinium taurate	Electrical conductivity, S/m	uncertainty
293.15	.00302	.0198	
293.15	.00533	.0344	
293.15	.00751	.0476	
293.15	.01094	.0678	
293.15	.01407	.0861	
293.15	.01739	.1051	
293.15	.02002	.1193	
293.15	.02364	.1392	
293.15	.02796	.1616	
298.15	.00302	.0222	
298.15	.00533	.0383	
298.15	.00751	.0535	
298.15	.01094	.076	
298.15	.01407	.0962	
298.15	.01739	.1174	
298.15	.02002	.1332	
298.15	.02364	.1552	
298.15	.02796	.181	
303.15	.00302	.0248	
303.15	.00533	.043	
303.15	.00751	.0595	
303.15	.01094	.0855	
303.15	.01407	.1082	
303.15	.01739	.1314	
303.15	.02002	.1499	
303.15	.02364	.1744	
303.15	.02796	.203	
308.15	.00302	.0273	
308.15	.00533	.0472	
308.15	.00751	.0657	
308.15	.01094	.0937	
308.15	.01407	.1187	
308.15	.01739	.144	
308.15	.02002	.1642	
308.15	.02364	.1908	
308.15	.02796	.2215	
313.15	.00302	.0303	
313.15	.00533	.0525	
313.15	.00751	.0725	
313.15	.01094	.1041	
313.15	.01407	.1319	
313.15	.01739	.1592	
313.15	.02002	.1818	
313.15	.02364	.2119	
313.15	.02796	.2462	
