Measured thermophysical data. Determination and modeling of binary and ternary solid-liquid phase equilibrium for the systems formed by 1,8-dinitronaphthalene and 1,5-dinitronaphthalene and N-methyl-2-pyrrolidone
Source: J. Chem. Thermodyn., 2016, 10.1016/j.jct.2016.06.019
Compound 1: 1,8-dinitronaphthalene, C10H6N2O4, purity 98.5%
Compound 2: 1,5-dinitronaphthalene, C10H6N2O4, purity 97.4%
Compound 3: N-methyl-2-pyrrolidone, C5H9NO, purity 99.6%

System: 1,5-dinitronaphthalene + N-methyl-2-pyrrolidone; phases: Liquid, Crystal
Fixed: Pressure, kPa = 101.2
Property: Mole fraction of 1,5-dinitronaphthalene (Liquid); method: Chromatography
Temperature, K	Mole fraction of 1,5-dinitronaphthalene	uncertainty
293.15	.01014	
298.15	.0118	
303.15	.01374	
308.15	.01567	
313.15	.018	
318.15	.02119	
323.15	.02497	
328.15	.02932	
333.15	.03436	
338.15	.04027	
343.15	.04663	

System: 1,5-dinitronaphthalene + N-methyl-2-pyrrolidone; phases: Liquid, Crystal
Property: Mass fraction of 1,5-dinitronaphthalene (Liquid); method: Chromatography
Temperature, K	Pressure, kPa	Mass fraction of 1,5-dinitronaphthalene	uncertainty
313.15	101.2	.0388	
328.15	101.2	.0623	
343.15	101.2	.0972	

System: 1,8-dinitronaphthalene + N-methyl-2-pyrrolidone; phases: Liquid, Crystal
Fixed: Pressure, kPa = 101.2
Property: Mole fraction of 1,8-dinitronaphthalene (Liquid); method: Chromatography
Temperature, K	Mole fraction of 1,8-dinitronaphthalene	uncertainty
293.15	.08784	
298.15	.09796	
303.15	.1077	
308.15	.1181	
313.15	.1293	
318.15	.139	
323.15	.1509	
328.15	.1627	
333.15	.1752	
338.15	.1868	
343.15	.1995	

System: 1,8-dinitronaphthalene + N-methyl-2-pyrrolidone; phases: Liquid, Crystal
Property: Mass fraction of 1,8-dinitronaphthalene (Liquid); method: Chromatography
Temperature, K	Pressure, kPa	Mass fraction of 1,8-dinitronaphthalene	uncertainty
313.15	101.2	.246	
328.15	101.2	.2996	
343.15	101.2	.3542	

System: 1,8-dinitronaphthalene + 1,5-dinitronaphthalene + N-methyl-2-pyrrolidone; phases: Liquid, Crystal
Fixed: Pressure, kPa = 101.2
Property: Mass fraction of 1,8-dinitronaphthalene (Liquid); method: Chromatography
Temperature, K	Mass fraction of 1,5-dinitronaphthalene	Mass fraction of 1,8-dinitronaphthalene	uncertainty
313.15	0	.246	
313.15	.0063	.2386	
313.15	.0152	.2317	
313.15	.023	.2277	
313.15	.0272	.2261	
328.15	0	.2996	
328.15	.0125	.2902	
328.15	.0223	.2874	
328.15	.0293	.2806	
328.15	.0399	.273	
343.15	0	.3542	
343.15	.0066	.3401	
343.15	.0208	.3271	
343.15	.0381	.3234	
343.15	.062	.32	

System: 1,8-dinitronaphthalene + 1,5-dinitronaphthalene + N-methyl-2-pyrrolidone; phases: Liquid, Crystal
Fixed: Pressure, kPa = 101.2
Property: Mass fraction of 1,5-dinitronaphthalene (Liquid); method: Chromatography
Temperature, K	Mass fraction of 1,8-dinitronaphthalene	Mass fraction of 1,5-dinitronaphthalene	uncertainty
313.15	.2261	.0272	
313.15	.1991	.0287	
313.15	.1743	.0298	
313.15	.1413	.031	
313.15	.1061	.0324	
313.15	.0548	.0347	
313.15	0	.0388	
328.15	.273	.0399	
328.15	.2269	.0432	
328.15	.1927	.0454	
328.15	.1565	.0489	
328.15	.1167	.0505	
328.15	.0528	.0553	
328.15	0	.0623	
343.15	.32	.062	
343.15	.2815	.0652	
343.15	.2415	.0686	
343.15	.1891	.0731	
343.15	.1112	.081	
343.15	.0551	.0879	
343.15	0	.0972	

System: 1,8-dinitronaphthalene + 1,5-dinitronaphthalene + N-methyl-2-pyrrolidone; phases: Liquid, Crystal, Crystal
Fixed: Pressure, kPa = 101.2
Property: Mass fraction of 1,8-dinitronaphthalene (Liquid); method: Chromatography
Temperature, K	Mass fraction of 1,8-dinitronaphthalene	uncertainty
313.15	.2261	
328.15	.273	
343.15	.32	

System: 1,8-dinitronaphthalene + 1,5-dinitronaphthalene + N-methyl-2-pyrrolidone; phases: Liquid, Crystal, Crystal
Fixed: Pressure, kPa = 101.2
Property: Mass fraction of 1,5-dinitronaphthalene (Liquid); method: Chromatography
Temperature, K	Mass fraction of 1,5-dinitronaphthalene	uncertainty
313.15	.0272	
328.15	.0399	
343.15	.062	
