Measured thermophysical data. Thermodynamic characterization of the mixture (1-butanol + iso-octane): Densities, viscosities, and isobaric heat capacities at high pressures
Source: J. Chem. Thermodyn., 2012, 10.1016/j.jct.2011.08.012
Compound 1: 2-methylheptane, C8H18, purity 99.5%
Compound 2: n-butyl alcohol, C4H10O, purity 99.5%

System: 2-methylheptane; phases: Liquid
Property: Mass density, kg/m3 (Liquid); method: Vibrating tube method
Temperature, K	Pressure, kPa	Mass density, kg/m3	uncertainty
273.15	100	707.7	.7
273.15	1000	708.5	.7
273.15	2000	709.3	.7
273.15	5000	711.8	.7
273.15	10000	715.7	.7
273.15	15000	719.4	.7
273.15	20000	723	.7
273.15	30000	729.6	.7
273.15	40000	735.8	.7
273.15	50000	741.4	.7
273.15	60000	746.7	.7
273.15	70000	751.7	.7
273.15	80000	756.4	.7
273.15	90000	760.9	.7
273.15	100000	765.1	.7
273.15	110000	769.2	.7
273.15	120000	773.1	.7
273.15	130000	776.7	.7
273.15	140000	780.3	.7
283.15	100	699.8	.7
283.15	1000	700.6	.7
283.15	2000	701.5	.7
283.15	5000	704.2	.7
283.15	10000	708.4	.7
283.15	15000	712.3	.7
283.15	20000	716.1	.7
283.15	30000	723.1	.7
283.15	40000	729.6	.7
283.15	50000	735.5	.7
283.15	60000	741.1	.7
283.15	70000	746.3	.7
283.15	80000	751.1	.7
283.15	90000	755.8	.7
283.15	100000	760.1	.7
283.15	110000	764.3	.7
283.15	120000	768.3	.7
283.15	130000	772.1	.7
283.15	140000	775.8	.7
293.15	100	691.7	.7
293.15	1000	692.6	.7
293.15	2000	693.5	.7
293.15	5000	696.4	.7
293.15	10000	700.9	.7
293.15	15000	705.1	.7
293.15	20000	709.1	.7
293.15	30000	716.6	.7
293.15	40000	723.3	.7
293.15	50000	729.6	.7
293.15	60000	735.4	.7
293.15	70000	740.8	.7
293.15	80000	745.8	.7
293.15	90000	750.6	.7
293.15	100000	755.1	.7
293.15	110000	759.4	.7
293.15	120000	763.6	.7
293.15	130000	767.5	.7
293.15	140000	771.3	.7
303.15	100	683.5	.7
303.15	1000	684.4	.7
303.15	2000	685.5	.7
303.15	5000	688.5	.7
303.15	10000	693.3	.7
303.15	15000	697.8	.7
303.15	20000	702.1	.7
303.15	30000	709.9	.7
303.15	40000	717.1	.7
303.15	50000	723.6	.7
303.15	60000	729.6	.7
303.15	70000	735.2	.7
303.15	80000	740.5	.7
303.15	90000	745.4	.7
303.15	100000	750.1	.7
303.15	110000	754.5	.7
303.15	120000	758.8	.7
303.15	130000	762.8	.7
303.15	140000	766.7	.7
313.15	100	675.1	.7
313.15	1000	676.1	.7
313.15	2000	677.3	.7
313.15	5000	680.5	.7
313.15	10000	685.7	.7
313.15	15000	690.5	.7
313.15	20000	695	.7
313.15	30000	703.3	.7
313.15	40000	710.7	.7
313.15	50000	717.6	.7
313.15	60000	723.8	.7
313.15	70000	729.6	.7
313.15	80000	735.1	.7
313.15	90000	740.2	.7
313.15	100000	745	.7
313.15	110000	749.6	.7
313.15	120000	753.9	.7
313.15	130000	758.1	.7
313.15	140000	762	.7
323.15	100	666.6	.7
323.15	1000	667.7	.7
323.15	2000	669	.7
323.15	5000	672.5	.7
323.15	10000	678	.7
323.15	15000	683.1	.7
323.15	20000	687.9	.7
323.15	30000	696.6	.7
323.15	40000	704.4	.7
323.15	50000	711.5	.7
323.15	60000	718	.7
323.15	70000	724	.7
323.15	80000	729.6	.7
323.15	90000	734.9	.7
323.15	100000	739.8	.7
323.15	110000	744.5	.7
323.15	120000	749	.7
323.15	130000	753.3	.7
323.15	140000	757.3	.7
333.15	100	658.1	.7
333.15	1000	659.3	.7
333.15	2000	660.6	.7
333.15	5000	664.4	.7
333.15	10000	670.2	.7
333.15	15000	675.7	.7
333.15	20000	680.7	.7
333.15	30000	689.8	.7
333.15	40000	698	.7
333.15	50000	705.4	.7
333.15	60000	712.1	.7
333.15	70000	718.3	.7
333.15	80000	724.1	.7
333.15	90000	729.5	.7
333.15	100000	734.6	.7
333.15	110000	739.4	.7
333.15	120000	744	.7
333.15	130000	748.3	.7
333.15	140000	752.5	.7

System: 2-methylheptane; phases: Liquid
Property: Molar heat capacity at constant pressure, J/K/mol (Liquid); method: Flow calorimetry
Temperature, K	Pressure, kPa	Molar heat capacity at constant pressure, J/K/mol	uncertainty
293.15	100	236.2	1.181
293.15	5000	233.8	1.169
293.15	10000	231.7	1.1585
293.15	15000	229.1	1.1455
293.15	20000	228	1.14
293.15	25000	224.8	1.124
313.15	100	249.6	1.248
313.15	5000	246.8	1.234
313.15	10000	245.1	1.2255
313.15	15000	243.2	1.216
313.15	20000	240.8	1.204
313.15	25000	235.1	1.1755

System: n-butyl alcohol; phases: Liquid
Property: Mass density, kg/m3 (Liquid); method: Vibrating tube method
Temperature, K	Pressure, kPa	Mass density, kg/m3	uncertainty
273.15	100	824.6	.7
273.15	1000	825.2	.7
273.15	2000	825.8	.7
273.15	5000	827.7	.7
273.15	10000	830.8	.7
273.15	15000	833.8	.7
273.15	20000	836.7	.7
273.15	30000	842.3	.7
273.15	40000	847.6	.7
273.15	50000	852.5	.7
273.15	60000	857.2	.7
273.15	70000	861.7	.7
273.15	80000	866	.7
273.15	90000	870.1	.7
273.15	100000	874	.7
273.15	110000	877.8	.7
273.15	120000	881.5	.7
273.15	130000	885.1	.7
273.15	140000	888.5	.7
283.15	100	817.1	.7
283.15	1000	817.7	.7
283.15	2000	818.4	.7
283.15	5000	820.4	.7
283.15	10000	823.7	.7
283.15	15000	826.8	.7
283.15	20000	829.9	.7
283.15	30000	835.7	.7
283.15	40000	841.1	.7
283.15	50000	846.3	.7
283.15	60000	851.1	.7
283.15	70000	855.7	.7
283.15	80000	860.2	.7
283.15	90000	864.4	.7
283.15	100000	868.5	.7
283.15	110000	872.4	.7
283.15	120000	876.1	.7
283.15	130000	879.8	.7
283.15	140000	883.4	.7
293.15	100	809.6	.7
293.15	1000	810.2	.7
293.15	2000	810.9	.7
293.15	5000	813.1	.7
293.15	10000	816.5	.7
293.15	15000	819.8	.7
293.15	20000	822.9	.7
293.15	30000	829	.7
293.15	40000	834.7	.7
293.15	50000	840	.7
293.15	60000	845	.7
293.15	70000	849.8	.7
293.15	80000	854.4	.7
293.15	90000	858.7	.7
293.15	100000	862.9	.7
293.15	110000	866.9	.7
293.15	120000	870.8	.7
293.15	130000	874.5	.7
293.15	140000	878.2	.7
303.15	100	801.9	.7
303.15	1000	802.6	.7
303.15	2000	803.4	.7
303.15	5000	805.6	.7
303.15	10000	809.2	.7
303.15	15000	812.6	.7
303.15	20000	816	.7
303.15	30000	822.3	.7
303.15	40000	828.2	.7
303.15	50000	833.7	.7
303.15	60000	838.9	.7
303.15	70000	843.8	.7
303.15	80000	848.6	.7
303.15	90000	853	.7
303.15	100000	857.3	.7
303.15	110000	861.5	.7
303.15	120000	865.4	.7
303.15	130000	869.3	.7
303.15	140000	873	.7
313.15	100	794.1	.7
313.15	1000	794.8	.7
313.15	2000	795.6	.7
313.15	5000	798	.7
313.15	10000	801.8	.7
313.15	15000	805.4	.7
313.15	20000	808.9	.7
313.15	30000	815.5	.7
313.15	40000	821.6	.7
313.15	50000	827.4	.7
313.15	60000	832.7	.7
313.15	70000	837.8	.7
313.15	80000	842.7	.7
313.15	90000	847.3	.7
313.15	100000	851.7	.7
313.15	110000	856	.7
313.15	120000	860	.7
313.15	130000	864	.7
313.15	140000	867.8	.7
323.15	100	786.2	.7
323.15	1000	786.9	.7
323.15	2000	787.8	.7
323.15	5000	790.3	.7
323.15	10000	794.2	.7
323.15	15000	798	.7
323.15	20000	801.7	.7
323.15	30000	808.6	.7
323.15	40000	815	.7
323.15	50000	820.9	.7
323.15	60000	826.5	.7
323.15	70000	831.8	.7
323.15	80000	836.8	.7
323.15	90000	841.5	.7
323.15	100000	846.1	.7
323.15	110000	850.4	.7
323.15	120000	854.5	.7
323.15	130000	858.6	.7
323.15	140000	862.5	.7
333.15	100	778	.7
333.15	1000	778.8	.7
333.15	2000	779.7	.7
333.15	5000	782.4	.7
333.15	10000	786.5	.7
333.15	15000	790.5	.7
333.15	20000	794.4	.7
333.15	30000	801.6	.7
333.15	40000	808.2	.7
333.15	50000	814.4	.7
333.15	60000	820.1	.7
333.15	70000	825.6	.7
333.15	80000	830.7	.7
333.15	90000	835.6	.7
333.15	100000	840.3	.7
333.15	110000	844.7	.7
333.15	120000	849	.7
333.15	130000	853.1	.7
333.15	140000	857.1	.7

System: n-butyl alcohol; phases: Liquid
Property: Molar heat capacity at constant pressure, J/K/mol (Liquid); method: Flow calorimetry
Temperature, K	Pressure, kPa	Molar heat capacity at constant pressure, J/K/mol	uncertainty
273.15	100	159.5	.7975
273.15	5000	158.7	.7935
273.15	10000	158.4	.792
273.15	15000	158.2	.791
273.15	20000	157.9	.7895
273.15	25000	157.2	.786
293.15	100	175.2	.876
293.15	5000	173.9	.8695
293.15	10000	172.8	.864
293.15	15000	173.5	.8675
293.15	20000	172.1	.8605
293.15	25000	171.7	.8585
313.15	100	190.4	.952
313.15	5000	189.8	.949
313.15	10000	189	.945
313.15	15000	187.6	.938
313.15	20000	186.7	.9335
313.15	25000	186	.93
333.15	100	206.6	1.033
333.15	5000	206.5	1.0325
333.15	10000	204.9	1.0245
333.15	15000	202	1.01
333.15	20000	200.7	1.0035
333.15	25000	199.9	.9995

System: n-butyl alcohol + 2-methylheptane; phases: Liquid
Property: Mass density, kg/m3 (Liquid); method: Vibrating tube method
Temperature, K	Pressure, kPa	Mole fraction of n-butyl alcohol	Mass density, kg/m3	uncertainty
273.15	100	.0997	714.2	.7
273.15	1000	.0997	715.1	.7
273.15	2000	.0997	715.9	.7
273.15	5000	.0997	718.5	.7
273.15	10000	.0997	722.4	.7
273.15	15000	.0997	726.2	.7
273.15	20000	.0997	729.8	.7
273.15	30000	.0997	736.4	.7
273.15	40000	.0997	742.4	.7
273.15	50000	.0997	748	.7
293.15	100	.0997	698.1	.7
293.15	1000	.0997	699	.7
293.15	2000	.0997	700	.7
293.15	5000	.0997	702.8	.7
293.15	10000	.0997	707.3	.7
293.15	15000	.0997	711.6	.7
293.15	20000	.0997	715.6	.7
293.15	30000	.0997	722.9	.7
293.15	40000	.0997	729.7	.7
293.15	50000	.0997	735.6	.7
313.15	100	.0997	681.2	.7
313.15	1000	.0997	682.2	.7
313.15	2000	.0997	683.4	.7
313.15	5000	.0997	686.6	.7
313.15	10000	.0997	691.7	.7
313.15	15000	.0997	696.5	.7
313.15	20000	.0997	701	.7
313.15	30000	.0997	709.2	.7
313.15	40000	.0997	716.5	.7
313.15	50000	.0997	723.1	.7
333.15	100	.0997	663.8	.7
333.15	1000	.0997	665	.7
333.15	2000	.0997	666.3	.7
333.15	5000	.0997	670.1	.7
333.15	10000	.0997	676	.7
333.15	15000	.0997	681.4	.7
333.15	20000	.0997	686.5	.7
333.15	30000	.0997	695.6	.7
333.15	40000	.0997	703.6	.7
333.15	50000	.0997	710.8	.7
273.15	100	.4012	739.1	.7
273.15	1000	.4012	740	.7
273.15	2000	.4012	740.8	.7
273.15	5000	.4012	743.2	.7
273.15	10000	.4012	747	.7
273.15	15000	.4012	750.6	.7
273.15	20000	.4012	754	.7
273.15	30000	.4012	760.4	.7
273.15	40000	.4012	766.3	.7
273.15	50000	.4012	771.9	.7
293.15	100	.4012	723.2	.7
293.15	1000	.4012	724	.7
293.15	2000	.4012	724.9	.7
293.15	5000	.4012	727.6	.7
293.15	10000	.4012	731.9	.7
293.15	15000	.4012	736	.7
293.15	20000	.4012	739.8	.7
293.15	30000	.4012	746.9	.7
293.15	40000	.4012	753.4	.7
293.15	50000	.4012	759.4	.7
313.15	100	.4012	706.3	.7
313.15	1000	.4012	707.3	.7
313.15	2000	.4012	708.4	.7
313.15	5000	.4012	711.4	.7
313.15	10000	.4012	716.3	.7
313.15	15000	.4012	720.8	.7
313.15	20000	.4012	725.1	.7
313.15	30000	.4012	732.9	.7
313.15	40000	.4012	740	.7
313.15	50000	.4012	746.5	.7
333.15	100	.4012	688.9	.7
333.15	1000	.4012	690	.7
333.15	2000	.4012	691.3	.7
333.15	5000	.4012	694.8	.7
333.15	10000	.4012	700.3	.7
333.15	15000	.4012	705.5	.7
333.15	20000	.4012	710.2	.7
333.15	30000	.4012	718.9	.7
333.15	40000	.4012	726.8	.7
333.15	50000	.4012	733.9	.7
273.15	100	.7	774	.7
273.15	1000	.7	774.7	.7
273.15	2000	.7	775.4	.7
273.15	5000	.7	777.7	.7
273.15	10000	.7	781.2	.7
273.15	15000	.7	784.5	.7
273.15	20000	.7	787.8	.7
273.15	30000	.7	793.9	.7
273.15	40000	.7	799.4	.7
273.15	50000	.7	804.8	.7
293.15	100	.7	758.3	.7
293.15	1000	.7	759.1	.7
293.15	2000	.7	759.9	.7
293.15	5000	.7	762.4	.7
293.15	10000	.7	766.3	.7
293.15	15000	.7	770	.7
293.15	20000	.7	773.6	.7
293.15	30000	.7	780.2	.7
293.15	40000	.7	786.5	.7
293.15	50000	.7	792.1	.7
313.15	100	.7	741.9	.7
313.15	1000	.7	742.8	.7
313.15	2000	.7	743.7	.7
313.15	5000	.7	746.5	.7
313.15	10000	.7	750.9	.7
313.15	15000	.7	755	.7
313.15	20000	.7	759	.7
313.15	30000	.7	766.3	.7
313.15	40000	.7	773	.7
313.15	50000	.7	779.2	.7
333.15	100	.7	724.9	.7
333.15	1000	.7	725.9	.7
333.15	2000	.7	727	.7
333.15	5000	.7	730.1	.7
333.15	10000	.7	735.1	.7
333.15	15000	.7	739.7	.7
333.15	20000	.7	744.2	.7
333.15	30000	.7	752.3	.7
333.15	40000	.7	759.6	.7
333.15	50000	.7	766.3	.7
273.15	100	.2004	721.8	.7
273.15	1000	.2004	722.5	.7
273.15	2000	.2004	723.4	.7
273.15	5000	.2004	725.9	.7
273.15	10000	.2004	729.8	.7
273.15	15000	.2004	733.5	.7
273.15	20000	.2004	737	.7
273.15	30000	.2004	743.6	.7
273.15	40000	.2004	749.7	.7
273.15	50000	.2004	755.2	.7
293.15	100	.2004	705.6	.7
293.15	1000	.2004	706.5	.7
293.15	2000	.2004	707.4	.7
293.15	5000	.2004	710.3	.7
293.15	10000	.2004	714.7	.7
293.15	15000	.2004	718.9	.7
293.15	20000	.2004	722.8	.7
293.15	30000	.2004	730.1	.7
293.15	40000	.2004	736.8	.7
293.15	50000	.2004	742.8	.7
313.15	100	.2004	688.7	.7
313.15	1000	.2004	689.7	.7
313.15	2000	.2004	690.8	.7
313.15	5000	.2004	694	.7
313.15	10000	.2004	699.1	.7
313.15	15000	.2004	703.7	.7
313.15	20000	.2004	708.2	.7
313.15	30000	.2004	716.2	.7
313.15	40000	.2004	723.6	.7
313.15	50000	.2004	730.2	.7
333.15	100	.2004	671.2	.7
333.15	1000	.2004	672.4	.7
333.15	2000	.2004	673.7	.7
333.15	5000	.2004	677.4	.7
333.15	10000	.2004	683.2	.7
333.15	15000	.2004	688.6	.7
333.15	20000	.2004	693.6	.7
333.15	30000	.2004	702.5	.7
333.15	40000	.2004	710.5	.7
333.15	50000	.2004	717.7	.7
273.15	100	.5003	749.4	.7
273.15	1000	.5003	750.1	.7
273.15	2000	.5003	750.9	.7
273.15	5000	.5003	753.3	.7
273.15	10000	.5003	757	.7
273.15	15000	.5003	760.5	.7
273.15	20000	.5003	763.9	.7
273.15	30000	.5003	770.2	.7
273.15	40000	.5003	776	.7
273.15	50000	.5003	781.5	.7
293.15	100	.5003	733.5	.7
293.15	1000	.5003	734.3	.7
293.15	2000	.5003	735.2	.7
293.15	5000	.5003	737.8	.7
293.15	10000	.5003	742	.7
293.15	15000	.5003	746	.7
293.15	20000	.5003	749.7	.7
293.15	30000	.5003	756.7	.7
293.15	40000	.5003	763.1	.7
293.15	50000	.5003	769	.7
313.15	100	.5003	716.7	.7
313.15	1000	.5003	717.6	.7
313.15	2000	.5003	718.7	.7
313.15	5000	.5003	721.6	.7
313.15	10000	.5003	726.3	.7
313.15	15000	.5003	730.8	.7
313.15	20000	.5003	735	.7
313.15	30000	.5003	742.7	.7
313.15	40000	.5003	749.7	.7
313.15	50000	.5003	756.1	.7
333.15	100	.5003	699.4	.7
333.15	1000	.5003	700.5	.7
333.15	2000	.5003	701.7	.7
333.15	5000	.5003	705.2	.7
333.15	10000	.5003	710.5	.7
333.15	15000	.5003	715.5	.7
333.15	20000	.5003	720.2	.7
333.15	30000	.5003	728.7	.7
333.15	40000	.5003	736.4	.7
333.15	50000	.5003	743.4	.7
273.15	100	.8	788.6	.7
273.15	1000	.8	789.3	.7
273.15	2000	.8	790	.7
273.15	5000	.8	792.2	.7
273.15	10000	.8	795.6	.7
273.15	15000	.8	798.9	.7
273.15	20000	.8	802	.7
273.15	30000	.8	807.9	.7
273.15	40000	.8	813.4	.7
273.15	50000	.8	818.6	.7
293.15	100	.8	773.3	.7
293.15	1000	.8	774	.7
293.15	2000	.8	774.8	.7
293.15	5000	.8	777.1	.7
293.15	10000	.8	780.9	.7
293.15	15000	.8	784.5	.7
293.15	20000	.8	788	.7
293.15	30000	.8	794.4	.7
293.15	40000	.8	800.5	.7
293.15	50000	.8	806	.7
313.15	100	.8	757.1	.7
313.15	1000	.8	758	.7
313.15	2000	.8	758.9	.7
313.15	5000	.8	761.5	.7
313.15	10000	.8	765.7	.7
313.15	15000	.8	769.7	.7
313.15	20000	.8	773.5	.7
313.15	30000	.8	780.6	.7
313.15	40000	.8	787.2	.7
313.15	50000	.8	793.2	.7
333.15	100	.8	740.3	.7
333.15	1000	.8	741.2	.7
333.15	2000	.8	742.3	.7
333.15	5000	.8	745.3	.7
333.15	10000	.8	750	.7
333.15	15000	.8	754.5	.7
333.15	20000	.8	758.7	.7
333.15	30000	.8	766.5	.7
333.15	40000	.8	773.6	.7
333.15	50000	.8	780.2	.7
273.15	100	.3001	730	.7
273.15	1000	.3001	730.7	.7
273.15	2000	.3001	731.6	.7
273.15	5000	.3001	734	.7
273.15	10000	.3001	737.9	.7
273.15	15000	.3001	741.5	.7
273.15	20000	.3001	745	.7
273.15	30000	.3001	751.5	.7
273.15	40000	.3001	757.6	.7
273.15	50000	.3001	763.1	.7
293.15	100	.3001	713.9	.7
293.15	1000	.3001	714.7	.7
293.15	2000	.3001	715.7	.7
293.15	5000	.3001	718.4	.7
293.15	10000	.3001	722.8	.7
293.15	15000	.3001	726.9	.7
293.15	20000	.3001	730.8	.7
293.15	30000	.3001	738	.7
293.15	40000	.3001	744.7	.7
293.15	50000	.3001	750.7	.7
313.15	100	.3001	697	.7
313.15	1000	.3001	697.9	.7
313.15	2000	.3001	699	.7
313.15	5000	.3001	702.2	.7
313.15	10000	.3001	707.1	.7
313.15	15000	.3001	711.8	.7
313.15	20000	.3001	716.1	.7
313.15	30000	.3001	724.1	.7
313.15	40000	.3001	731.3	.7
313.15	50000	.3001	737.9	.7
333.15	100	.3001	679.5	.7
333.15	1000	.3001	680.6	.7
333.15	2000	.3001	681.9	.7
333.15	5000	.3001	685.5	.7
333.15	10000	.3001	691.2	.7
333.15	15000	.3001	696.4	.7
333.15	20000	.3001	701.4	.7
333.15	30000	.3001	710.2	.7
333.15	40000	.3001	718.2	.7
333.15	50000	.3001	725.4	.7
273.15	100	.6001	761	.7
273.15	1000	.6001	761.7	.7
273.15	2000	.6001	762.5	.7
273.15	5000	.6001	764.8	.7
273.15	10000	.6001	768.4	.7
273.15	15000	.6001	771.9	.7
273.15	20000	.6001	775.2	.7
273.15	30000	.6001	781.4	.7
273.15	40000	.6001	787.1	.7
273.15	50000	.6001	792.5	.7
293.15	100	.6001	745.3	.7
293.15	1000	.6001	746	.7
293.15	2000	.6001	746.9	.7
293.15	5000	.6001	749.4	.7
293.15	10000	.6001	753.5	.7
293.15	15000	.6001	757.4	.7
293.15	20000	.6001	761	.7
293.15	30000	.6001	767.8	.7
293.15	40000	.6001	774.2	.7
293.15	50000	.6001	779.9	.7
313.15	100	.6001	728.6	.7
313.15	1000	.6001	729.5	.7
313.15	2000	.6001	730.5	.7
313.15	5000	.6001	733.4	.7
313.15	10000	.6001	737.9	.7
313.15	15000	.6001	742.2	.7
313.15	20000	.6001	746.3	.7
313.15	30000	.6001	753.9	.7
313.15	40000	.6001	760.8	.7
313.15	50000	.6001	767	.7
333.15	100	.6001	711.5	.7
333.15	1000	.6001	712.5	.7
333.15	2000	.6001	713.7	.7
333.15	5000	.6001	717	.7
333.15	10000	.6001	722.2	.7
333.15	15000	.6001	727	.7
333.15	20000	.6001	731.6	.7
333.15	30000	.6001	739.9	.7
333.15	40000	.6001	747.4	.7
333.15	50000	.6001	754.3	.7
273.15	100	.9	805.3	.7
273.15	1000	.9	806	.7
273.15	2000	.9	806.6	.7
273.15	5000	.9	808.7	.7
273.15	10000	.9	812	.7
273.15	15000	.9	815.2	.7
273.15	20000	.9	818.2	.7
273.15	30000	.9	824	.7
273.15	40000	.9	829.3	.7
273.15	50000	.9	834.4	.7
293.15	100	.9	790.1	.7
293.15	1000	.9	790.8	.7
293.15	2000	.9	791.6	.7
293.15	5000	.9	793.8	.7
293.15	10000	.9	797.4	.7
293.15	15000	.9	800.9	.7
293.15	20000	.9	804.2	.7
293.15	30000	.9	810.5	.7
293.15	40000	.9	816.4	.7
293.15	50000	.9	821.8	.7
313.15	100	.9	774.4	.7
313.15	1000	.9	775.1	.7
313.15	2000	.9	776	.7
313.15	5000	.9	778.5	.7
313.15	10000	.9	782.5	.7
313.15	15000	.9	786.3	.7
313.15	20000	.9	790	.7
313.15	30000	.9	796.8	.7
313.15	40000	.9	803.1	.7
313.15	50000	.9	809	.7
333.15	100	.9	757.8	.7
333.15	1000	.9	758.7	.7
333.15	2000	.9	759.7	.7
333.15	5000	.9	762.5	.7
333.15	10000	.9	767	.7
333.15	15000	.9	771.3	.7
333.15	20000	.9	775.4	.7
333.15	30000	.9	782.8	.7
333.15	40000	.9	789.7	.7
333.15	50000	.9	796.1	.7

System: n-butyl alcohol + 2-methylheptane; phases: Liquid
Property: Excess molar volume, m3/mol (Liquid); method: Calculated with densities of this investigation
Temperature, K	Pressure, kPa	Mole fraction of n-butyl alcohol	Excess molar volume, m3/mol	uncertainty
273.15	100	.0997	.000000061	
273.15	1000	.0997	.00000005	
273.15	2000	.0997	.000000052	
273.15	5000	.0997	.000000054	
273.15	10000	.0997	.000000051	
273.15	15000	.0997	.000000053	
273.15	20000	.0997	.000000047	
273.15	30000	.0997	.000000039	
273.15	40000	.0997	.000000068	
273.15	50000	.0997	.00000007	
293.15	100	.0997	.000000075	
293.15	1000	.0997	.000000073	
293.15	2000	.0997	.000000073	
293.15	5000	.0997	.000000074	
293.15	10000	.0997	.000000074	
293.15	15000	.0997	.000000067	
293.15	20000	.0997	.000000051	
293.15	30000	.0997	.00000006	
293.15	40000	.0997	.000000066	
293.15	50000	.0997	.000000093	
313.15	100	.0997	.000000172	
313.15	1000	.0997	.000000172	
313.15	2000	.0997	.000000164	
313.15	5000	.0997	.000000166	
313.15	10000	.0997	.000000155	
313.15	15000	.0997	.000000145	
313.15	20000	.0997	.000000151	
313.15	30000	.0997	.000000129	
313.15	40000	.0997	.000000135	
313.15	50000	.0997	.000000148	
333.15	100	.0997	.000000277	
333.15	1000	.0997	.000000276	
333.15	2000	.0997	.000000271	
333.15	5000	.0997	.000000267	
333.15	10000	.0997	.000000256	
333.15	15000	.0997	.000000246	
333.15	20000	.0997	.000000223	
333.15	30000	.0997	.000000214	
333.15	40000	.0997	.000000207	
333.15	50000	.0997	.000000229	
273.15	100	.4012	.00000006	
273.15	1000	.4012	.000000052	
273.15	2000	.4012	.000000053	
273.15	5000	.4012	.00000006	
273.15	10000	.4012	.000000058	
273.15	15000	.4012	.00000006	
273.15	20000	.4012	.000000068	
273.15	30000	.4012	.000000065	
273.15	40000	.4012	.000000078	
273.15	50000	.4012	.000000066	
293.15	100	.4012	.000000074	
293.15	1000	.4012	.000000078	
293.15	2000	.4012	.000000079	
293.15	5000	.4012	.000000082	
293.15	10000	.4012	.000000086	
293.15	15000	.4012	.000000089	
293.15	20000	.4012	.000000085	
293.15	30000	.4012	.000000082	
293.15	40000	.4012	.000000091	
293.15	50000	.4012	.000000089	
313.15	100	.4012	.000000172	
313.15	1000	.4012	.000000167	
313.15	2000	.4012	.000000167	
313.15	5000	.4012	.000000173	
313.15	10000	.4012	.000000176	
313.15	15000	.4012	.000000171	
313.15	20000	.4012	.00000018	
313.15	30000	.4012	.00000017	
313.15	40000	.4012	.000000177	
313.15	50000	.4012	.000000168	
333.15	100	.4012	.000000286	
333.15	1000	.4012	.000000292	
333.15	2000	.4012	.000000292	
333.15	5000	.4012	.000000297	
333.15	10000	.4012	.000000293	
333.15	15000	.4012	.000000279	
333.15	20000	.4012	.000000287	
333.15	30000	.4012	.000000283	
333.15	40000	.4012	.000000267	
333.15	50000	.4012	.000000252	
273.15	100	.7	-.000000033	
273.15	1000	.7	-.000000032	
273.15	2000	.7	-.00000003	
273.15	5000	.7	-.000000025	
273.15	10000	.7	-.000000018	
273.15	15000	.7	-.000000004	
273.15	20000	.7	-.000000005	
273.15	30000	.7	-.000000007	
273.15	40000	.7	.00000002	
273.15	50000	.7	.000000014	
293.15	100	.7	-.000000015	
293.15	1000	.7	-.000000014	
293.15	2000	.7	-.000000013	
293.15	5000	.7	-.000000003	
293.15	10000	.7	.000000003	
293.15	15000	.7	.000000017	
293.15	20000	.7	.000000014	
293.15	30000	.7	.000000029	
293.15	40000	.7	.000000033	
293.15	50000	.7	.000000036	
313.15	100	.7	.000000029	
313.15	1000	.7	.00000003	
313.15	2000	.7	.000000033	
313.15	5000	.7	.000000042	
313.15	10000	.7	.000000053	
313.15	15000	.7	.000000061	
313.15	20000	.7	.000000068	
313.15	30000	.7	.000000077	
313.15	40000	.7	.000000085	
313.15	50000	.7	.000000076	
333.15	100	.7	.000000089	
333.15	1000	.7	.000000098	
333.15	2000	.7	.000000105	
333.15	5000	.7	.000000116	
333.15	10000	.7	.000000126	
333.15	15000	.7	.000000141	
333.15	20000	.7	.00000014	
333.15	30000	.7	.000000143	
333.15	40000	.7	.000000147	
333.15	50000	.7	.000000146	
273.15	100	.2004	.000000056	
273.15	1000	.2004	.000000056	
273.15	2000	.2004	.000000057	
273.15	5000	.2004	.000000061	
273.15	10000	.2004	.000000058	
273.15	15000	.2004	.000000061	
273.15	20000	.2004	.000000062	
273.15	30000	.2004	.00000005	
273.15	40000	.2004	.000000061	
273.15	50000	.2004	.000000072	
293.15	100	.2004	.000000086	
293.15	1000	.2004	.000000086	
293.15	2000	.2004	.000000085	
293.15	5000	.2004	.000000085	
293.15	10000	.2004	.000000084	
293.15	15000	.2004	.000000084	
293.15	20000	.2004	.000000084	
293.15	30000	.2004	.000000069	
293.15	40000	.2004	.000000078	
293.15	50000	.2004	.000000094	
313.15	100	.2004	.000000186	
313.15	1000	.2004	.00000018	
313.15	2000	.2004	.000000181	
313.15	5000	.2004	.000000184	
313.15	10000	.2004	.000000175	
313.15	15000	.2004	.000000179	
313.15	20000	.2004	.000000174	
313.15	30000	.2004	.000000161	
313.15	40000	.2004	.000000151	
313.15	50000	.2004	.00000016	
333.15	100	.2004	.000000299	
333.15	1000	.2004	.000000309	
333.15	2000	.2004	.000000307	
333.15	5000	.2004	.000000309	
333.15	10000	.2004	.000000292	
333.15	15000	.2004	.00000028	
333.15	20000	.2004	.000000267	
333.15	30000	.2004	.000000257	
333.15	40000	.2004	.000000249	
333.15	50000	.2004	.000000264	
273.15	100	.5003	.000000029	
273.15	1000	.5003	.00000003	
273.15	2000	.5003	.000000032	
273.15	5000	.5003	.000000036	
273.15	10000	.5003	.000000043	
273.15	15000	.5003	.000000044	
273.15	20000	.5003	.00000005	
273.15	30000	.5003	.000000049	
273.15	40000	.5003	.000000069	
273.15	50000	.5003	.000000054	
293.15	100	.5003	.000000048	
293.15	1000	.5003	.00000005	
293.15	2000	.5003	.000000052	
293.15	5000	.5003	.00000006	
293.15	10000	.5003	.000000066	
293.15	15000	.5003	.000000062	
293.15	20000	.5003	.000000068	
293.15	30000	.5003	.000000069	
293.15	40000	.5003	.000000081	
293.15	50000	.5003	.000000079	
313.15	100	.5003	.00000013	
313.15	1000	.5003	.000000137	
313.15	2000	.5003	.000000137	
313.15	5000	.5003	.000000147	
313.15	10000	.5003	.000000151	
313.15	15000	.5003	.000000146	
313.15	20000	.5003	.000000151	
313.15	30000	.5003	.000000152	
313.15	40000	.5003	.000000151	
313.15	50000	.5003	.000000147	
333.15	100	.5003	.000000216	
333.15	1000	.5003	.000000225	
333.15	2000	.5003	.000000225	
333.15	5000	.5003	.000000235	
333.15	10000	.5003	.00000024	
333.15	15000	.5003	.000000242	
333.15	20000	.5003	.000000233	
333.15	30000	.5003	.000000238	
333.15	40000	.5003	.00000023	
333.15	50000	.5003	.000000219	
273.15	100	.8	-.000000031	
273.15	1000	.8	-.000000033	
273.15	2000	.8	-.000000033	
273.15	5000	.8	-.000000027	
273.15	10000	.8	-.000000021	
273.15	15000	.8	-.000000014	
273.15	20000	.8	-.000000006	
273.15	30000	.8	-.000000003	
273.15	40000	.8	.000000012	
273.15	50000	.8	.000000008	
293.15	100	.8	-.000000039	
293.15	1000	.8	-.000000035	
293.15	2000	.8	-.000000033	
293.15	5000	.8	-.000000024	
293.15	10000	.8	-.000000017	
293.15	15000	.8	-.000000009	
293.15	20000	.8	-.000000007	
293.15	30000	.8	.000000008	
293.15	40000	.8	.00000001	
293.15	50000	.8	.000000016	
313.15	100	.8	-.000000017	
313.15	1000	.8	-.000000014	
313.15	2000	.8	-.000000013	
313.15	5000	.8	0	
313.15	10000	.8	.000000011	
313.15	15000	.8	.000000017	
313.15	20000	.8	.000000029	
313.15	30000	.8	.000000036	
313.15	40000	.8	.000000031	
313.15	50000	.8	.000000039	
333.15	100	.8	.000000031	
333.15	1000	.8	.000000037	
333.15	2000	.8	.00000004	
333.15	5000	.8	.000000052	
333.15	10000	.8	.000000065	
333.15	15000	.8	.000000079	
333.15	20000	.8	.000000079	
333.15	30000	.8	.000000093	
333.15	40000	.8	.000000092	
333.15	50000	.8	.000000093	
273.15	100	.3001	.000000056	
273.15	1000	.3001	.000000055	
273.15	2000	.3001	.000000059	
273.15	5000	.3001	.00000006	
273.15	10000	.3001	.000000062	
273.15	15000	.3001	.000000063	
273.15	20000	.3001	.00000006	
273.15	30000	.3001	.000000064	
273.15	40000	.3001	.000000068	
273.15	50000	.3001	.000000061	
293.15	100	.3001	.000000082	
293.15	1000	.3001	.000000087	
293.15	2000	.3001	.000000087	
293.15	5000	.3001	.00000009	
293.15	10000	.3001	.000000092	
293.15	15000	.3001	.000000095	
293.15	20000	.3001	.000000085	
293.15	30000	.3001	.000000086	
293.15	40000	.3001	.000000084	
293.15	50000	.3001	.000000084	
313.15	100	.3001	.000000191	
313.15	1000	.3001	.000000189	
313.15	2000	.3001	.000000187	
313.15	5000	.3001	.00000019	
313.15	10000	.3001	.000000187	
313.15	15000	.3001	.000000176	
313.15	20000	.3001	.000000176	
313.15	30000	.3001	.000000168	
313.15	40000	.3001	.000000161	
313.15	50000	.3001	.000000157	
333.15	100	.3001	.00000031	
333.15	1000	.3001	.000000315	
333.15	2000	.3001	.000000311	
333.15	5000	.3001	.000000316	
333.15	10000	.3001	.000000308	
333.15	15000	.3001	.0000003	
333.15	20000	.3001	.000000284	
333.15	30000	.3001	.00000027	
333.15	40000	.3001	.000000261	
333.15	50000	.3001	.000000248	
273.15	100	.6001	-.000000016	
273.15	1000	.6001	-.000000011	
273.15	2000	.6001	-.00000001	
273.15	5000	.6001	-.000000002	
273.15	10000	.6001	.000000003	
273.15	15000	.6001	.000000005	
273.15	20000	.6001	.000000015	
273.15	30000	.6001	.000000015	
273.15	40000	.6001	.000000036	
273.15	50000	.6001	.000000028	
293.15	100	.6001	-.000000003	
293.15	1000	.6001	.000000001	
293.15	2000	.6001	.000000005	
293.15	5000	.6001	.000000012	
293.15	10000	.6001	.000000018	
293.15	15000	.6001	.000000022	
293.15	20000	.6001	.00000002	
293.15	30000	.6001	.000000039	
293.15	40000	.6001	.000000043	
293.15	50000	.6001	.000000047	
313.15	100	.6001	.000000066	
313.15	1000	.6001	.00000007	
313.15	2000	.6001	.000000072	
313.15	5000	.6001	.000000082	
313.15	10000	.6001	.00000009	
313.15	15000	.6001	.000000095	
313.15	20000	.6001	.000000099	
313.15	30000	.6001	.0000001	
313.15	40000	.6001	.000000092	
313.15	50000	.6001	.000000103	
333.15	100	.6001	.000000132	
333.15	1000	.6001	.000000142	
333.15	2000	.6001	.000000144	
333.15	5000	.6001	.000000152	
333.15	10000	.6001	.000000161	
333.15	15000	.6001	.00000017	
333.15	20000	.6001	.000000166	
333.15	30000	.6001	.000000174	
333.15	40000	.6001	.000000169	
333.15	50000	.6001	.000000163	
273.15	100	.9	-.000000021	
273.15	1000	.9	-.00000002	
273.15	2000	.9	-.00000002	
273.15	5000	.9	-.000000016	
273.15	10000	.9	-.000000012	
273.15	15000	.9	-.000000007	
273.15	20000	.9	0	
273.15	30000	.9	-.000000009	
273.15	40000	.9	.000000014	
273.15	50000	.9	.000000008	
293.15	100	.9	-.000000019	
293.15	1000	.9	-.000000018	
293.15	2000	.9	-.000000017	
293.15	5000	.9	-.000000012	
293.15	10000	.9	-.000000005	
293.15	15000	.9	-.000000003	
293.15	20000	.9	.000000001	
293.15	30000	.9	.000000009	
293.15	40000	.9	.000000008	
293.15	50000	.9	.000000017	
313.15	100	.9	-.000000023	
313.15	1000	.9	-.000000017	
313.15	2000	.9	-.000000016	
313.15	5000	.9	-.000000007	
313.15	10000	.9	.000000002	
313.15	15000	.9	.000000006	
313.15	20000	.9	.000000014	
313.15	30000	.9	.00000002	
313.15	40000	.9	.000000024	
313.15	50000	.9	.000000021	
333.15	100	.9	.000000003	
333.15	1000	.9	.000000007	
333.15	2000	.9	.000000011	
333.15	5000	.9	.000000018	
333.15	10000	.9	.000000027	
333.15	15000	.9	.000000035	
333.15	20000	.9	.000000036	
333.15	30000	.9	.000000044	
333.15	40000	.9	.000000043	
333.15	50000	.9	.000000045	

System: n-butyl alcohol + 2-methylheptane; phases: Liquid
Fixed: Pressure, kPa = 100
Property: Viscosity, Pa*s (Liquid); method: Concentric cylinders viscometry
Temperature, K	Mole fraction of n-butyl alcohol	Viscosity, Pa*s	uncertainty
273.15	1	.00522	.0000261
273.15	.9	.00382	.0000191
273.15	.8001	.00289	.00001445
273.15	.7	.00221	.00001105
273.15	.6006	.00171	.00000855
273.15	.5004	.00133	.00000665
273.15	.4	.00105	.00000525
273.15	.3002	.000861	.000004305
273.15	.2014	.000757	.000003785
273.15	.1005	.000684	.00000342
273.15	0	.000638	.00000319
283.15	1	.00389	.00001945
283.15	.9	.0029	.0000145
283.15	.8001	.00222	.0000111
283.15	.7	.00173	.00000865
283.15	.6006	.00136	.0000068
283.15	.5004	.00108	.0000054
283.15	.4	.000875	.000004375
283.15	.3002	.000737	.000003685
283.15	.2014	.000659	.000003295
283.15	.1005	.000599	.000002995
283.15	0	.000564	.00000282
293.15	1	.00296	.0000148
293.15	.9	.00224	.0000112
293.15	.8001	.00174	.0000087
293.15	.7	.00137	.00000685
293.15	.6006	.0011	.0000055
293.15	.5004	.000891	.000004455
293.15	.4	.000741	.000003705
293.15	.3002	.000634	.00000317
293.15	.2014	.000576	.00000288
293.15	.1005	.000528	.00000264
293.15	0	.0005	.0000025
303.15	1	.00228	.0000114
303.15	.9	.00175	.00000875
303.15	.8001	.00138	.0000069
303.15	.7	.00111	.00000555
303.15	.6006	.000902	.00000451
303.15	.5004	.000748	.00000374
303.15	.4	.000635	.000003175
303.15	.3002	.000549	.000002745
303.15	.2014	.000508	.00000254
303.15	.1005	.000467	.000002335
303.15	0	.000444	.00000222
313.15	1	.00179	.00000895
313.15	.9	.00139	.00000695
313.15	.8001	.00111	.00000555
313.15	.7	.000906	.00000453
313.15	.6006	.000751	.000003755
313.15	.5004	.000633	.000003165
313.15	.4	.000548	.00000274
313.15	.3002	.000476	.00000238
313.15	.2014	.000447	.000002235
313.15	.1005	.000413	.000002065
313.15	0	.000393	.000001965
323.15	1	.00142	.0000071
323.15	.9	.00112	.0000056
323.15	.8001	.000907	.000004535
323.15	.7	.000751	.000003755
323.15	.6006	.000633	.000003165
323.15	.5004	.000539	.000002695
323.15	.4	.000473	.000002365
323.15	.3002	.000422	.00000211
323.15	.2014	.000391	.000001955
323.15	.1005	.000364	.00000182
323.15	0	.000355	.000001775
333.15	1	.00114	.0000057
333.15	.9	.000914	.00000457
333.15	.8001	.000747	.000003735
333.15	.7	.00063	.00000315
333.15	.6006	.000531	.000002655
333.15	.5004	.000456	.00000228
333.15	.4	.000406	.00000203
333.15	.3002	.00037	.00000185
333.15	.2014	.000348	.00000174
333.15	.1005	.000325	.000001625
333.15	0	.000318	.00000159
343.15	1	.000926	.00000463
343.15	.9	.000748	.00000374
343.15	.8001	.000613	.000003065
343.15	.7	.000519	.000002595
343.15	.6006	.00046	.0000023
343.15	.5004	.0004	.000002
343.15	.4	.00036	.0000018
343.15	.3002	.000334	.00000167
343.15	.2014	.000312	.00000156
343.15	.1005	.000294	.00000147
343.15	0	.000289	.000001445
353.15	1	.000757	.000003785
353.15	.9	.000622	.00000311
353.15	.8001	.000518	.00000259
353.15	.7	.000439	.000002195
353.15	.6006	.000356	.00000178

System: n-butyl alcohol + 2-methylheptane; phases: Liquid
Property: Molar heat capacity at constant pressure, J/K/mol (Liquid); method: Flow calorimetry
Temperature, K	Pressure, kPa	Mole fraction of n-butyl alcohol	Molar heat capacity at constant pressure, J/K/mol	uncertainty
293.15	100	.1005	241.8	1.209
293.15	100	.2014	235.3	1.1765
293.15	100	.3002	230.2	1.151
293.15	100	.4	223.5	1.1175
293.15	100	.5004	217.2	1.086
293.15	100	.6006	209.1	1.0455
293.15	100	.7	200.1	1.0005
293.15	100	.8001	192.5	.9625
293.15	100	.9	183.2	.916
293.15	5000	.1005	237.8	1.189
293.15	5000	.2014	231.8	1.159
293.15	5000	.3002	227.4	1.137
293.15	5000	.4	221.3	1.1065
293.15	5000	.5004	216.2	1.081
293.15	5000	.6006	207.1	1.0355
293.15	5000	.7	200.1	1.0005
293.15	5000	.8001	191.7	.9585
293.15	5000	.9	183.1	.9155
293.15	10000	.1005	235.9	1.1795
293.15	10000	.2014	231.7	1.1585
293.15	10000	.3002	225.2	1.126
293.15	10000	.4	220.1	1.1005
293.15	10000	.5004	214.4	1.072
293.15	10000	.6006	206.6	1.033
293.15	10000	.7	197.7	.9885
293.15	10000	.8001	190.7	.9535
293.15	10000	.9	181.7	.9085
293.15	15000	.1005	233.9	1.1695
293.15	15000	.2014	230	1.15
293.15	15000	.3002	227.7	1.1385
293.15	15000	.4	222.7	1.1135
293.15	15000	.5004	216.5	1.0825
293.15	15000	.6006	208.9	1.0445
293.15	15000	.7	200	1
293.15	15000	.8001	192.2	.961
293.15	15000	.9	182.6	.913
293.15	20000	.1005	234.4	1.172
293.15	20000	.2014	226.1	1.1305
293.15	20000	.3002	227	1.135
293.15	20000	.4	220.7	1.1035
293.15	20000	.5004	214	1.07
293.15	20000	.6006	207.3	1.0365
293.15	20000	.7	200.9	1.0045
293.15	20000	.8001	191	.955
293.15	20000	.9	181.5	.9075
293.15	25000	.1005	230.2	1.151
293.15	25000	.2014	226.3	1.1315
293.15	25000	.3002	220.7	1.1035
293.15	25000	.4	216	1.08
293.15	25000	.5004	210.3	1.0515
293.15	25000	.6006	203.9	1.0195
293.15	25000	.7	196.8	.984
293.15	25000	.8001	188.5	.9425
293.15	25000	.9	181.7	.9085
313.15	100	.1005	258.4	1.292
313.15	100	.2014	253.5	1.2675
313.15	100	.3002	249	1.245
313.15	100	.4	242.7	1.2135
313.15	100	.5004	236.1	1.1805
313.15	100	.6006	227.8	1.139
313.15	100	.7	221	1.105
313.15	100	.8001	211.7	1.0585
313.15	100	.9	203.1	1.0155
313.15	5000	.1005	254	1.27
313.15	5000	.2014	250.4	1.252
313.15	5000	.3002	245.9	1.2295
313.15	5000	.4	240.6	1.203
313.15	5000	.5004	233.9	1.1695
313.15	5000	.6006	227.8	1.139
313.15	5000	.7	219.6	1.098
313.15	5000	.8001	210.2	1.051
313.15	5000	.9	202.8	1.014
313.15	10000	.1005	253.2	1.266
313.15	10000	.2014	248.6	1.243
313.15	10000	.3002	244	1.22
313.15	10000	.4	239.6	1.198
313.15	10000	.5004	233	1.165
313.15	10000	.6006	226.1	1.1305
313.15	10000	.7	218.1	1.0905
313.15	10000	.8001	208.7	1.0435
313.15	10000	.9	201.2	1.006
313.15	15000	.1005	250.9	1.2545
313.15	15000	.2014	247.7	1.2385
313.15	15000	.3002	244.1	1.2205
313.15	15000	.4	241.2	1.206
313.15	15000	.5004	233.8	1.169
313.15	15000	.6006	226.4	1.132
313.15	15000	.7	218.9	1.0945
313.15	15000	.8001	209.1	1.0455
313.15	15000	.9	200.8	1.004
313.15	20000	.1005	249.2	1.246
313.15	20000	.2014	244	1.22
313.15	20000	.3002	241.8	1.209
313.15	20000	.4	238.3	1.1915
313.15	20000	.5004	231.8	1.159
313.15	20000	.6006	224.6	1.123
313.15	20000	.7	217.6	1.088
313.15	20000	.8001	207.9	1.0395
313.15	20000	.9	200.3	1.0015
313.15	25000	.1005	245.6	1.228
313.15	25000	.2014	241.6	1.208
313.15	25000	.3002	237.6	1.188
313.15	25000	.4	233.5	1.1675
313.15	25000	.5004	227.6	1.138
313.15	25000	.6006	220.2	1.101
313.15	25000	.7	216.1	1.0805
313.15	25000	.8001	206	1.03
313.15	25000	.9	200.5	1.0025
