Measured thermophysical data. Viscosities and densities of systems involved in the deterpenation of essential oils by liquid-liquid extraction: New UNIFAC-VISCO parameters
Source: J. Chem. Thermodyn., 2014, 10.1016/j.jct.2013.11.026
Compound 1: water, H2O, purity 99%
Compound 2: (+)-(4R)-limonene, C10H16, purity 96.98%
Compound 3: (.+-.)-linalool, C10H18O, purity 99.77%
Compound 4: linalyl acetate, C12H20O2, purity 99.88%
Compound 5: .gamma.-terpinen, C10H16, purity 96.69%
Compound 6: (-)-.beta.-pinene, C10H16, purity 99.82%
Compound 7: citral, C10H16O, purity 99.67%
Compound 8: l-carvone, C10H14O, purity 99.75%
Compound 9: ethanol, C2H6O, purity 99.8%

System: water; phases: Liquid
Property: Mass density, kg/m3 (Liquid); method: Vibrating tube method
Pressure, kPa	Temperature, K	Mass density, kg/m3	uncertainty
101.8	298.15	997.05	.5

System: (+)-(4R)-limonene; phases: Liquid
Property: Mass density, kg/m3 (Liquid); method: Vibrating tube method
Pressure, kPa	Temperature, K	Mass density, kg/m3	uncertainty
101.8	298.15	838.59	.5

System: (+)-(4R)-limonene; phases: Liquid
Property: Viscosity, Pa*s (Liquid); method: Falling or rolling sphere viscometry
Pressure, kPa	Temperature, K	Viscosity, Pa*s	uncertainty
101.8	298.15	.0008599	.000008599

System: (.+-.)-linalool; phases: Liquid
Property: Mass density, kg/m3 (Liquid); method: Vibrating tube method
Pressure, kPa	Temperature, K	Mass density, kg/m3	uncertainty
101.8	298.15	857.28	.5

System: (.+-.)-linalool; phases: Liquid
Property: Viscosity, Pa*s (Liquid); method: Falling or rolling sphere viscometry
Pressure, kPa	Temperature, K	Viscosity, Pa*s	uncertainty
101.8	298.15	.0043493	.000043493

System: linalyl acetate; phases: Liquid
Property: Mass density, kg/m3 (Liquid); method: Vibrating tube method
Pressure, kPa	Temperature, K	Mass density, kg/m3	uncertainty
101.8	298.15	898.64	.5

System: linalyl acetate; phases: Liquid
Property: Viscosity, Pa*s (Liquid); method: Falling or rolling sphere viscometry
Pressure, kPa	Temperature, K	Viscosity, Pa*s	uncertainty
101.8	298.15	.0022912	.000022912

System: .gamma.-terpinen; phases: Liquid
Property: Mass density, kg/m3 (Liquid); method: Vibrating tube method
Pressure, kPa	Temperature, K	Mass density, kg/m3	uncertainty
101.8	298.15	844.9	.5

System: .gamma.-terpinen; phases: Liquid
Property: Viscosity, Pa*s (Liquid); method: Falling or rolling sphere viscometry
Pressure, kPa	Temperature, K	Viscosity, Pa*s	uncertainty
101.8	298.15	.0011443	.000011443

System: (-)-.beta.-pinene; phases: Liquid
Property: Mass density, kg/m3 (Liquid); method: Vibrating tube method
Pressure, kPa	Temperature, K	Mass density, kg/m3	uncertainty
101.8	298.15	866.93	.5

System: (-)-.beta.-pinene; phases: Liquid
Property: Viscosity, Pa*s (Liquid); method: Falling or rolling sphere viscometry
Pressure, kPa	Temperature, K	Viscosity, Pa*s	uncertainty
101.8	298.15	.0016162	.000016162

System: citral; phases: Liquid
Property: Mass density, kg/m3 (Liquid); method: Vibrating tube method
Pressure, kPa	Temperature, K	Mass density, kg/m3	uncertainty
101.8	298.15	883.42	.5

System: citral; phases: Liquid
Property: Viscosity, Pa*s (Liquid); method: Falling or rolling sphere viscometry
Pressure, kPa	Temperature, K	Viscosity, Pa*s	uncertainty
101.8	298.15	.0020186	.000020186

System: l-carvone; phases: Liquid
Property: Mass density, kg/m3 (Liquid); method: Vibrating tube method
Pressure, kPa	Temperature, K	Mass density, kg/m3	uncertainty
101.8	298.15	958.79	.5

System: l-carvone; phases: Liquid
Property: Viscosity, Pa*s (Liquid); method: Falling or rolling sphere viscometry
Pressure, kPa	Temperature, K	Viscosity, Pa*s	uncertainty
101.8	298.15	.0024562	.000024562

System: ethanol; phases: Liquid
Property: Mass density, kg/m3 (Liquid); method: Vibrating tube method
Pressure, kPa	Temperature, K	Mass density, kg/m3	uncertainty
101.8	298.15	785.07	.5

System: ethanol; phases: Liquid
Property: Viscosity, Pa*s (Liquid); method: Falling or rolling sphere viscometry
Pressure, kPa	Temperature, K	Viscosity, Pa*s	uncertainty
101.8	298.15	.001125	.00001125

System: ethanol + (+)-(4R)-limonene + water; phases: Liquid
Fixed: Pressure, kPa = 101.8
Fixed: Temperature, K = 298.15
Property: Mass density, kg/m3 (Liquid); method: Vibrating tube method
Solvent: Mass fraction of water	Mass fraction of (+)-(4R)-limonene	Mass density, kg/m3	uncertainty
.2364	.9672	836.75	.5
.2904	.974	837.08	.5
.3133	.9774	837.35	.5
.2364	.053	847.93	.5
.2904	.0346	859.65	.5
.3133	.0273	864.71	.5

System: ethanol + (+)-(4R)-limonene + water; phases: Liquid
Fixed: Pressure, kPa = 101.8
Fixed: Temperature, K = 298.15
Property: Viscosity, Pa*s (Liquid); method: Falling or rolling sphere viscometry
Solvent: Mass fraction of water	Mass fraction of (+)-(4R)-limonene	Viscosity, Pa*s	uncertainty
.2364	.9672	.0008594	.000008594
.2904	.974	.0008521	.000008521
.3133	.9774	.0008507	.000008507
.2364	.053	.0017555	.000017555
.2904	.0346	.0019222	.000019222
.3133	.0273	.0019772	.000019772
