Measured thermophysical data. The vapor pressure and vaporization enthalpy of R-(+)-menthofuran, a hepatotoxin metabolically derived from the abortifacient terpene, (R)-(+)-pulegone by correlation gas chromatography
Source: J. Chem. Thermodyn., 2016, 10.1016/j.jct.2016.03.020
Compound 1: (R)-menthofuran, C10H14O, purity 95%

System: (R)-menthofuran; phases: Liquid, Gas
Property: Molar enthalpy of vaporization or sublimation, kJ/mol (Liquid); method: Correlation gas chromatography
Temperature, K	Molar enthalpy of vaporization or sublimation, kJ/mol	uncertainty
298.15	56.5	3

System: (R)-menthofuran; phases: Liquid, Gas
Property: Vapor or sublimation pressure, kPa (Liquid); method: Gas chromatography
Temperature, K	Vapor or sublimation pressure, kPa	uncertainty
298.15	.036	.012

System: (R)-menthofuran; phases: Liquid, Gas
Property: Vapor or sublimation pressure, kPa (Liquid); method: Gas chromatography
Temperature, K	Vapor or sublimation pressure, kPa	uncertainty
374.3	2.93	
380	3.76	
400	8.37	
420	17.06	
482.4	101.23	
