Measured thermophysical data. Solid-liquid phase equilibrium and dissolution properties of ethyl vanillin in pure solvents
Source: J. Chem. Thermodyn., 2017, 10.1016/j.jct.2016.10.029
Compound 1: ethyl vanillin, C9H10O3, purity 99%
Compound 2: methanol, CH4O, purity 99.5%
Compound 3: ethanol, C2H6O, purity 99.5%
Compound 4: n-propanol, C3H8O, purity 99.5%
Compound 5: isopropanol, C3H8O, purity 99.5%
Compound 6: acetonitrile, C2H3N, purity 99.5%
Compound 7: acetone, C3H6O, purity 99.5%
Compound 8: methyl acetate, C3H6O2, purity 99.5%
Compound 9: ethyl acetate, C4H8O2, purity 99.5%

System: ethyl vanillin; phases: Crystal, Liquid, Air at 1 atmosphere
Property: Normal melting temperature, K (Crystal); method: DSC/DTA
Normal melting temperature, K	uncertainty
352.98	.5

System: ethyl vanillin; phases: Crystal, Liquid, Air at 1 atmosphere
Property: Molar enthalpy of transition or fusion, kJ/mol (Crystal); method: DSC
Molar enthalpy of transition or fusion, kJ/mol	uncertainty
23.75	.475

System: methanol + ethyl vanillin; phases: Liquid, Crystal
Fixed: Pressure, kPa = 101.3
Property: Mole fraction of ethyl vanillin (Liquid); method: gravimetric method
Temperature, K	Mole fraction of ethyl vanillin	uncertainty
273.15	.0892	
278.15	.117	
283.15	.155	
288.15	.186	
293.15	.223	
298.15	.262	
303.15	.31	
308.15	.361	
313.15	.416	
318.15	.491	

System: ethanol + ethyl vanillin; phases: Liquid, Crystal
Fixed: Pressure, kPa = 101.3
Property: Mole fraction of ethyl vanillin (Liquid); method: gravimetric method
Temperature, K	Mole fraction of ethyl vanillin	uncertainty
273.15	.0537	
278.15	.0689	
283.15	.091	
288.15	.106	
293.15	.141	
298.15	.181	
303.15	.229	
308.15	.268	
313.15	.333	
318.15	.393	

System: n-propanol + ethyl vanillin; phases: Liquid, Crystal
Fixed: Pressure, kPa = 101.3
Property: Mole fraction of ethyl vanillin (Liquid); method: gravimetric method
Temperature, K	Mole fraction of ethyl vanillin	uncertainty
273.15	.0523	
278.15	.0538	
283.15	.068	
288.15	.0879	
293.15	.111	
298.15	.145	
303.15	.182	
308.15	.229	
313.15	.283	
318.15	.345	

System: isopropanol + ethyl vanillin; phases: Liquid, Crystal
Fixed: Pressure, kPa = 101.3
Property: Mole fraction of ethyl vanillin (Liquid); method: gravimetric method
Temperature, K	Mole fraction of ethyl vanillin	uncertainty
273.15	.0322	
278.15	.0442	
283.15	.0555	
288.15	.071	
293.15	.0909	
298.15	.125	
303.15	.164	
308.15	.219	
313.15	.28	
318.15	.381	

System: acetonitrile + ethyl vanillin; phases: Liquid, Crystal
Fixed: Pressure, kPa = 101.3
Property: Mole fraction of ethyl vanillin (Liquid); method: gravimetric method
Temperature, K	Mole fraction of ethyl vanillin	uncertainty
273.15	.0649	
278.15	.0827	
283.15	.103	
288.15	.127	
293.15	.157	
298.15	.197	
303.15	.243	
308.15	.272	
313.15	.319	
318.15	.392	

System: acetone + ethyl vanillin; phases: Liquid, Crystal
Fixed: Pressure, kPa = 101.3
Property: Mole fraction of ethyl vanillin (Liquid); method: gravimetric method
Temperature, K	Mole fraction of ethyl vanillin	uncertainty
273.15	.188	
278.15	.206	
283.15	.23	
288.15	.259	
293.15	.29	
298.15	.324	
303.15	.363	
308.15	.397	
313.15	.438	
318.15	.49	

System: methyl acetate + ethyl vanillin; phases: Liquid, Crystal
Fixed: Pressure, kPa = 101.3
Property: Mole fraction of ethyl vanillin (Liquid); method: gravimetric method
Temperature, K	Mole fraction of ethyl vanillin	uncertainty
273.15	.122	
278.15	.131	
283.15	.146	
288.15	.173	
293.15	.2	
298.15	.243	
303.15	.289	
308.15	.344	
313.15	.388	
318.15	.443	

System: ethyl vanillin + ethyl acetate; phases: Liquid, Crystal
Fixed: Pressure, kPa = 101.3
Property: Mole fraction of ethyl vanillin (Liquid); method: gravimetric method
Temperature, K	Mole fraction of ethyl vanillin	uncertainty
273.15	.115	
278.15	.138	
283.15	.149	
288.15	.171	
293.15	.199	
298.15	.231	
303.15	.269	
308.15	.305	
313.15	.337	
318.15	.397	
