Measured thermophysical data. Solubility and solution thermodynamics of ethyl 5-amino-4-cyano-3-(2-ethoxy-2-oxoethyl)-2-thiophenecarboxylate in nine organic solvents at evaluated temperatures
Source: J. Chem. Thermodyn., 2016, 10.1016/j.jct.2015.11.025
Compound 1: ethyl 5-amino-4-cyano-3-(2-ethoxy-2-oxoethyl)thiophene-2-carboxylate, C12H14N2O4S, purity 98.5%
Compound 2: 1-butanol, C4H10O, purity 99.5%
Compound 3: n-propanol, C3H8O, purity 99.7%
Compound 4: isopropanol, C3H8O, purity 99.6%
Compound 5: ethanol, C2H6O, purity 99.7%
Compound 6: methanol, CH4O, purity 99.5%
Compound 7: toluene, C7H8, purity 99.8%
Compound 8: ethyl acetate, C4H8O2, purity 99.5%
Compound 9: acetonitrile, C2H3N, purity 99.8%
Compound 10: acetone, C3H6O, purity 99.6%

System: ethyl 5-amino-4-cyano-3-(2-ethoxy-2-oxoethyl)thiophene-2-carboxylate; phases: Crystal, Liquid, Air at 1 atmosphere
Property: Normal melting temperature, K (Crystal); method: DSC/DTA
Normal melting temperature, K	uncertainty
410.05	.5

System: ethyl 5-amino-4-cyano-3-(2-ethoxy-2-oxoethyl)thiophene-2-carboxylate; phases: Crystal, Liquid, Air at 1 atmosphere
Property: Molar enthalpy of transition or fusion, kJ/mol (Crystal); method: DSC
Molar enthalpy of transition or fusion, kJ/mol	uncertainty
40.88	.4

System: ethyl 5-amino-4-cyano-3-(2-ethoxy-2-oxoethyl)thiophene-2-carboxylate; phases: Crystal
Fixed: Pressure, kPa = 101.325
Property: Mass density, kg/m3 (Crystal); method: flotation method
Temperature, K	Mass density, kg/m3	uncertainty
298.15	1297	.9

System: toluene + ethyl 5-amino-4-cyano-3-(2-ethoxy-2-oxoethyl)thiophene-2-carboxylate; phases: Liquid, Crystal
Fixed: Pressure, kPa = 100
Property: Mole fraction of ethyl 5-amino-4-cyano-3-(2-ethoxy-2-oxoethyl)thiophene-2-carboxylate (Liquid); method: Chromatography
Temperature, K	Mole fraction of ethyl 5-amino-4-cyano-3-(2-ethoxy-2-oxoethyl)thiophene-2-carboxylate	uncertainty
273.15	.0004018	
278.15	.0005204	
283.15	.0006639	
288.15	.0008577	
293.15	.001091	
298.15	.001389	
303.15	.001711	
308.15	.002149	
313.15	.002649	
318.15	.003231	

System: n-propanol + ethyl 5-amino-4-cyano-3-(2-ethoxy-2-oxoethyl)thiophene-2-carboxylate; phases: Liquid, Crystal
Fixed: Pressure, kPa = 100
Property: Mole fraction of ethyl 5-amino-4-cyano-3-(2-ethoxy-2-oxoethyl)thiophene-2-carboxylate (Liquid); method: Chromatography
Temperature, K	Mole fraction of ethyl 5-amino-4-cyano-3-(2-ethoxy-2-oxoethyl)thiophene-2-carboxylate	uncertainty
273.15	.002174	
278.15	.002856	
283.15	.003597	
288.15	.004711	
293.15	.006178	
298.15	.007631	
303.15	.009609	
308.15	.01204	
313.15	.01509	
318.15	.01881	

System: 1-butanol + ethyl 5-amino-4-cyano-3-(2-ethoxy-2-oxoethyl)thiophene-2-carboxylate; phases: Liquid, Crystal
Fixed: Pressure, kPa = 100
Property: Mole fraction of ethyl 5-amino-4-cyano-3-(2-ethoxy-2-oxoethyl)thiophene-2-carboxylate (Liquid); method: Chromatography
Temperature, K	Mole fraction of ethyl 5-amino-4-cyano-3-(2-ethoxy-2-oxoethyl)thiophene-2-carboxylate	uncertainty
273.15	.002039	
278.15	.002658	
283.15	.003427	
288.15	.004379	
293.15	.005591	
298.15	.007097	
303.15	.009097	
308.15	.01142	
313.15	.01443	
318.15	.01768	

System: isopropanol + ethyl 5-amino-4-cyano-3-(2-ethoxy-2-oxoethyl)thiophene-2-carboxylate; phases: Liquid, Crystal
Fixed: Pressure, kPa = 100
Property: Mole fraction of ethyl 5-amino-4-cyano-3-(2-ethoxy-2-oxoethyl)thiophene-2-carboxylate (Liquid); method: Chromatography
Temperature, K	Mole fraction of ethyl 5-amino-4-cyano-3-(2-ethoxy-2-oxoethyl)thiophene-2-carboxylate	uncertainty
273.15	.002321	
278.15	.003072	
283.15	.003959	
288.15	.005133	
293.15	.006563	
298.15	.008454	
303.15	.01074	
308.15	.01338	
313.15	.01676	
318.15	.02129	

System: ethanol + ethyl 5-amino-4-cyano-3-(2-ethoxy-2-oxoethyl)thiophene-2-carboxylate; phases: Liquid, Crystal
Fixed: Pressure, kPa = 100
Property: Mole fraction of ethyl 5-amino-4-cyano-3-(2-ethoxy-2-oxoethyl)thiophene-2-carboxylate (Liquid); method: Chromatography
Temperature, K	Mole fraction of ethyl 5-amino-4-cyano-3-(2-ethoxy-2-oxoethyl)thiophene-2-carboxylate	uncertainty
273.15	.003095	
278.15	.00399	
283.15	.005049	
288.15	.006369	
293.15	.007978	
298.15	.009979	
303.15	.01231	
308.15	.01501	
313.15	.01858	
318.15	.02266	

System: methanol + ethyl 5-amino-4-cyano-3-(2-ethoxy-2-oxoethyl)thiophene-2-carboxylate; phases: Liquid, Crystal
Fixed: Pressure, kPa = 100
Property: Mole fraction of ethyl 5-amino-4-cyano-3-(2-ethoxy-2-oxoethyl)thiophene-2-carboxylate (Liquid); method: Chromatography
Temperature, K	Mole fraction of ethyl 5-amino-4-cyano-3-(2-ethoxy-2-oxoethyl)thiophene-2-carboxylate	uncertainty
273.15	.004829	
278.15	.006089	
283.15	.007591	
288.15	.009472	
293.15	.01179	
298.15	.01444	
303.15	.01763	
308.15	.02142	
313.15	.02606	
318.15	.03131	

System: acetonitrile + ethyl 5-amino-4-cyano-3-(2-ethoxy-2-oxoethyl)thiophene-2-carboxylate; phases: Liquid, Crystal
Fixed: Pressure, kPa = 100
Property: Mole fraction of ethyl 5-amino-4-cyano-3-(2-ethoxy-2-oxoethyl)thiophene-2-carboxylate (Liquid); method: Chromatography
Temperature, K	Mole fraction of ethyl 5-amino-4-cyano-3-(2-ethoxy-2-oxoethyl)thiophene-2-carboxylate	uncertainty
273.15	.008203	
278.15	.010175	
283.15	.01253	
288.15	.01514	
293.15	.01851	
298.15	.02246	
303.15	.02685	
308.15	.03229	
313.15	.03847	
318.15	.04551	

System: ethyl acetate + ethyl 5-amino-4-cyano-3-(2-ethoxy-2-oxoethyl)thiophene-2-carboxylate; phases: Liquid, Crystal
Fixed: Pressure, kPa = 100
Property: Mole fraction of ethyl 5-amino-4-cyano-3-(2-ethoxy-2-oxoethyl)thiophene-2-carboxylate (Liquid); method: Chromatography
Temperature, K	Mole fraction of ethyl 5-amino-4-cyano-3-(2-ethoxy-2-oxoethyl)thiophene-2-carboxylate	uncertainty
273.15	.02365	
278.15	.02566	
283.15	.0286	
288.15	.03175	
293.15	.03491	
298.15	.03865	
303.15	.04268	
308.15	.04725	
313.15	.05187	
318.15	.05674	

System: acetone + ethyl 5-amino-4-cyano-3-(2-ethoxy-2-oxoethyl)thiophene-2-carboxylate; phases: Liquid, Crystal
Fixed: Pressure, kPa = 100
Property: Mole fraction of ethyl 5-amino-4-cyano-3-(2-ethoxy-2-oxoethyl)thiophene-2-carboxylate (Liquid); method: Chromatography
Temperature, K	Mole fraction of ethyl 5-amino-4-cyano-3-(2-ethoxy-2-oxoethyl)thiophene-2-carboxylate	uncertainty
273.15	.04462	
278.15	.04988	
283.15	.05585	
288.15	.06279	
293.15	.07098	
298.15	.08014	
303.15	.09023	
308.15	.1011	
313.15	.1127	
318.15	.1257	
