Measured thermophysical data. Aqueous biphasic formation, volumetric and compressibility behaviour in tetrabutylammonium bromide-inorganic salts aqueous systems
Source: J. Chem. Thermodyn., 2013, 10.1016/j.jct.2013.07.027
Compound 1: tetrabutylammonium bromide, C16H36BrN, purity 99%
Compound 2: sodium dihydrogen phosphate anhydrous, H2NaO4P, purity 99.5%
Compound 3: disodium hydrogen phosphate, HNa2O4P, purity 99.5%
Compound 4: trisodium phosphate, Na3O4P, purity 99%
Compound 5: sodium carbonate, CNa2O3, purity 99.9%
Compound 6: sodium sulfate, Na2O4S, purity 99%
Compound 7: trisodium citrate, C6H5Na3O7, purity 99%
Compound 8: water, H2O

System: tetrabutylammonium bromide + sodium dihydrogen phosphate anhydrous + water; phases: Liquid mixture 1, Liquid mixture 2
Fixed: Pressure, kPa = 101
Property: Molality, mol/kg of sodium dihydrogen phosphate anhydrous (Liquid mixture 1); method: Cloud point titration method
Temperature, K	Molality, mol/kg of tetrabutylammonium bromide	Molality, mol/kg of sodium dihydrogen phosphate anhydrous	uncertainty
298.15	2.4958	.432	.001
298.15	2.3838	.4775	.001
298.15	2.1362	.5453	.001
298.15	1.8678	.6415	.001
298.15	1.5829	.7825	.001
298.15	1.3447	.9375	.001
298.15	1.1329	1.0914	.001
298.15	.9554	1.2589	.001
298.15	.806	1.4056	.001
298.15	.6948	1.5241	.001
298.15	.5997	1.6219	.001
298.15	.5291	1.6985	.001
298.15	.4257	1.8455	.001
298.15	.3454	1.9865	.001
298.15	.277	2.1292	.001
298.15	.2234	2.3035	.001
298.15	.1822	2.4561	.001
298.15	.1401	2.6605	.001
298.15	.1189	2.8793	.001
308.15	2.0773	.5774	.001
308.15	1.9913	.609	.001
308.15	1.9112	.6414	.001
308.15	1.7103	.718	.001
308.15	1.4776	.8412	.001
308.15	1.253	.9697	.001
308.15	1.0869	1.1087	.001
308.15	.9543	1.2242	.001
308.15	.797	1.361	.001
308.15	.6352	1.5052	.001
308.15	.5382	1.6062	.001
308.15	.4445	1.7158	.001
308.15	.3494	1.8629	.001
308.15	.2868	1.9973	.001
308.15	.2224	2.2154	.001
308.15	.184	2.4089	.001
318.15	2.4116	.4824	.001
318.15	2.0686	.5626	.001
318.15	1.8451	.6453	.001
318.15	1.6561	.7406	.001
318.15	1.5023	.8111	.001
318.15	1.3579	.8997	.001
318.15	1.2144	.981	.001
318.15	1.0279	1.1127	.001
318.15	.8254	1.2499	.001
318.15	.6718	1.3935	.001
318.15	.5578	1.5122	.001
318.15	.4732	1.6247	.001
318.15	.4013	1.7152	.001
318.15	.332	1.8402	.001
318.15	.2992	1.9041	.001
318.15	.266	1.9964	.001

System: tetrabutylammonium bromide + sodium dihydrogen phosphate anhydrous + water; phases: Liquid
Fixed: Pressure, kPa = 101
Fixed: Molality, mol/kg of sodium dihydrogen phosphate anhydrous = .1
Property: Mass density, kg/m3 (Liquid); method: Vibrating tube method
Temperature, K	Molality, mol/kg of tetrabutylammonium bromide	Mass density, kg/m3	uncertainty
293.15	.03186	1010.294	.05
293.15	.0639	1010.94	.05
293.15	.09633	1011.597	.05
293.15	.12919	1012.255	.05
293.15	.16503	1013.003	.05
293.15	.20112	1013.776	.05
293.15	.23578	1014.481	.05
293.15	.26865	1015.179	.05
293.15	.30284	1015.903	.05
293.15	.34039	1016.707	.05
293.15	.55096	1021.092	.05
293.15	.77608	1025.516	.05
298.15	.03186	1008.999	.05
298.15	.0639	1009.618	.05
298.15	.09633	1010.24	.05
298.15	.12919	1010.867	.05
298.15	.16503	1011.574	.05
298.15	.20112	1012.307	.05
298.15	.23578	1012.972	.05
298.15	.26865	1013.626	.05
298.15	.30284	1014.317	.05
298.15	.34039	1015.079	.05
298.15	.55096	1019.19	.05
298.15	.77608	1023.318	.05
303.15	.03186	1007.485	.05
303.15	.0639	1008.072	.05
303.15	.09633	1008.667	.05
303.15	.12919	1009.26	.05
303.15	.16503	1009.931	.05
303.15	.20112	1010.624	.05
303.15	.23578	1011.253	.05
303.15	.26865	1011.827	.05
303.15	.30284	1012.522	.05
303.15	.34039	1013.242	.05
303.15	.55096	1017.1	.05
303.15	.77608	1020.953	.05
308.15	.03186	1005.77	.05
308.15	.0639	1006.327	.05
308.15	.09633	1006.889	.05
308.15	.12919	1007.45	.05
308.15	.16503	1008.09	.05
308.15	.20112	1008.746	.05
308.15	.23578	1009.339	.05
308.15	.26865	1009.927	.05
308.15	.30284	1010.539	.05
308.15	.34039	1011.215	.05
308.15	.55096	1014.839	.05
308.15	.77608	1018.441	.05
313.15	.03186	1003.862	.05
313.15	.0639	1004.391	.05
313.15	.09633	1004.928	.05
313.15	.12919	1005.46	.05
313.15	.16503	1006.062	.05
313.15	.20112	1006.685	.05
313.15	.23578	1007.243	.05
313.15	.26865	1007.798	.05
313.15	.30284	1008.374	.05
313.15	.34039	1009.015	.05
313.15	.55096	1012.418	.05
313.15	.77608	1015.788	.05
318.15	.03186	1001.78	.05
318.15	.0639	1002.283	.05
318.15	.09633	1002.79	.05
318.15	.12919	1003.294	.05
318.15	.16503	1003.865	.05
318.15	.20112	1004.453	.05
318.15	.23578	1004.981	.05
318.15	.26865	1005.504	.05
318.15	.30284	1006.05	.05
318.15	.34039	1006.65	.05
318.15	.55096	1009.845	.05
318.15	.77608	1013.004	.05

System: tetrabutylammonium bromide + sodium dihydrogen phosphate anhydrous + water; phases: Liquid
Fixed: Pressure, kPa = 101
Fixed: Molality, mol/kg of sodium dihydrogen phosphate anhydrous = .1
Property: Speed of sound, m/s (Liquid); method: Sing-around technique in a fixed-path interferometer
Temperature, K	Molality, mol/kg of tetrabutylammonium bromide	Speed of sound, m/s	uncertainty
293.15	.03186	1504.21	.5
293.15	.0639	1512.22	.5
293.15	.09633	1520.05	.5
293.15	.12919	1527.69	.5
293.15	.16503	1536.02	.5
293.15	.20112	1544.08	.5
293.15	.23578	1551.64	.5
293.15	.26865	1558.53	.5
293.15	.30284	1565.76	.5
293.15	.34039	1573.48	.5
293.15	.55096	1612.52	.5
293.15	.77608	1646.78	.5
298.15	.03186	1517.27	.5
298.15	.0639	1524.63	.5
298.15	.09633	1531.92	.5
298.15	.12919	1538.88	.5
298.15	.16503	1546.5	.5
298.15	.20112	1553.94	.5
298.15	.23578	1560.87	.5
298.15	.26865	1567.29	.5
298.15	.30284	1573.8	.5
298.15	.34039	1580.78	.5
298.15	.55096	1616.05	.5
298.15	.77608	1646.49	.5
303.15	.03186	1528.62	.5
303.15	.0639	1535.39	.5
303.15	.09633	1542.06	.5
303.15	.12919	1548.47	.5
303.15	.16503	1555.52	.5
303.15	.20112	1562.31	.5
303.15	.23578	1568.62	.5
303.15	.26865	1574.44	.5
303.15	.30284	1580.39	.5
303.15	.34039	1586.74	.5
303.15	.55096	1618.49	.5
303.15	.77608	1645.37	.5
308.15	.03186	1538.32	.5
308.15	.0639	1544.51	.5
308.15	.09633	1550.71	.5
308.15	.12919	1556.55	.5
308.15	.16503	1563.01	.5
308.15	.20112	1569.17	.5
308.15	.23578	1574.94	.5
308.15	.26865	1580.17	.5
308.15	.30284	1585.55	.5
308.15	.34039	1591.31	.5
308.15	.55096	1619.72	.5
308.15	.77608	1643.43	.5
313.15	.03186	1546.49	.5
313.15	.0639	1552.18	.5
313.15	.09633	1557.94	.5
313.15	.12919	1563.16	.5
313.15	.16503	1569.04	.5
313.15	.20112	1574.7	.5
313.15	.23578	1579.93	.5
313.15	.26865	1584.61	.5
313.15	.30284	1589.54	.5
313.15	.34039	1594.67	.5
313.15	.55096	1619.99	.5
313.15	.77608	1640.75	.5
318.15	.03186	1553.2	.5
318.15	.0639	1558.39	.5
318.15	.09633	1563.57	.5
318.15	.12919	1568.41	.5
318.15	.16503	1573.2	.5
318.15	.20112	1578.94	.5
318.15	.23578	1583.63	.5
318.15	.26865	1587.87	.5
318.15	.30284	1592.3	.5
318.15	.34039	1596.88	.5
318.15	.55096	1620.24	.5
318.15	.77608	1637.29	.5

System: tetrabutylammonium bromide + water + sodium sulfate; phases: Liquid mixture 1, Liquid mixture 2
Fixed: Pressure, kPa = 101
Property: Molality, mol/kg of sodium sulfate (Liquid mixture 1); method: Cloud point titration method
Temperature, K	Molality, mol/kg of tetrabutylammonium bromide	Molality, mol/kg of sodium sulfate	uncertainty
298.15	2.3679	.2185	.001
298.15	1.9504	.2748	.001
298.15	1.4859	.4169	.001
298.15	1.1251	.5918	.001
298.15	.8616	.7621	.001
298.15	.6453	.9502	.001
298.15	.5031	1.0863	.001
298.15	.4072	1.1954	.001
298.15	.3238	1.309	.001
298.15	.2752	1.3867	.001
298.15	.2274	1.45	.001
298.15	.1931	1.5372	.001
298.15	.1507	1.668	.001
298.15	.1226	1.7762	.001
308.15	1.7426	.36	.001
308.15	1.3718	.4974	.001
308.15	1.2068	.5757	.001
308.15	.9297	.7184	.001
308.15	.7346	.8685	.001
308.15	.5804	.9847	.001
308.15	.467	1.0847	.001
308.15	.3861	1.1735	.001
308.15	.3176	1.2708	.001
308.15	.27	1.3442	.001
308.15	.2418	1.3942	.001
308.15	.2246	1.4392	.001
318.15	2.0703	.2998	.001
318.15	1.6278	.4032	.001
318.15	1.2687	.5397	.001
318.15	.952	.6968	.001
318.15	.7142	.8347	.001
318.15	.5287	.9822	.001
318.15	.4076	1.1047	.001
318.15	.296	1.245	.001
318.15	.2625	1.296	.001
318.15	.2408	1.342	.001

System: tetrabutylammonium bromide + water + sodium sulfate; phases: Liquid
Fixed: Pressure, kPa = 101
Fixed: Molality, mol/kg of sodium sulfate = .1
Property: Mass density, kg/m3 (Liquid); method: Vibrating tube method
Temperature, K	Molality, mol/kg of tetrabutylammonium bromide	Mass density, kg/m3	uncertainty
293.15	.03132	1011.544	.05
293.15	.08262	1012.546	.05
293.15	.12973	1013.462	.05
293.15	.17792	1014.467	.05
293.15	.22839	1015.491	.05
293.15	.2922	1016.783	.05
293.15	.34311	1017.837	.05
293.15	.53567	1021.759	.05
293.15	.76558	1026.163	.05
298.15	.03132	1010.229	.05
298.15	.08262	1011.178	.05
298.15	.12973	1012.048	.05
298.15	.17792	1013.001	.05
298.15	.22839	1013.969	.05
298.15	.2922	1015.185	.05
298.15	.34311	1016.181	.05
298.15	.53567	1019.855	.05
298.15	.76558	1023.96	.05
303.15	.03132	1008.693	.05
303.15	.08262	1009.598	.05
303.15	.12973	1010.42	.05
303.15	.17792	1011.323	.05
303.15	.22839	1012.239	.05
303.15	.2922	1013.387	.05
303.15	.34311	1014.325	.05
303.15	.53567	1017.77	.05
303.15	.76558	1021.594	.05
308.15	.03132	1006.958	.05
308.15	.08262	1007.818	.05
308.15	.12973	1008.597	.05
308.15	.17792	1009.452	.05
308.15	.22839	1010.316	.05
308.15	.2922	1011.398	.05
308.15	.34311	1012.282	.05
308.15	.53567	1015.512	.05
308.15	.76558	1019.082	.05
313.15	.03132	1005.038	.05
313.15	.08262	1005.853	.05
313.15	.12973	1006.589	.05
313.15	.17792	1007.399	.05
313.15	.22839	1008.214	.05
313.15	.2922	1009.235	.05
313.15	.34311	1010.066	.05
313.15	.53567	1013.096	.05
313.15	.76558	1016.427	.05
318.15	.03132	1002.945	.05
318.15	.08262	1003.716	.05
318.15	.12973	1004.416	.05
318.15	.17792	1005.18	.05
318.15	.22839	1005.949	.05
318.15	.2922	1006.908	.05
318.15	.34311	1007.688	.05
318.15	.53567	1010.529	.05
318.15	.76558	1013.645	.05

System: tetrabutylammonium bromide + water + sodium sulfate; phases: Liquid
Fixed: Pressure, kPa = 101
Fixed: Molality, mol/kg of sodium sulfate = .1
Property: Speed of sound, m/s (Liquid); method: Sing-around technique in a fixed-path interferometer
Temperature, K	Molality, mol/kg of tetrabutylammonium bromide	Speed of sound, m/s	uncertainty
293.15	.03132	1507.3	.5
293.15	.08262	1519.8	.5
293.15	.12973	1530.79	.5
293.15	.17792	1542.03	.5
293.15	.22839	1553.06	.5
293.15	.2922	1566.42	.5
293.15	.34311	1576.76	.5
293.15	.53567	1612.41	.5
293.15	.76558	1647.62	.5
298.15	.03132	1520.27	.5
298.15	.08262	1531.84	.5
298.15	.12973	1541.92	.5
298.15	.17792	1552.26	.5
298.15	.22839	1562.4	.5
298.15	.2922	1574.61	.5
298.15	.34311	1584.02	.5
298.15	.53567	1616.16	.5
298.15	.76558	1647.43	.5
303.15	.03132	1531.57	.5
303.15	.08262	1542.24	.5
303.15	.12973	1551.46	.5
303.15	.17792	1560.95	.5
303.15	.22839	1570.19	.5
303.15	.2922	1581.34	.5
303.15	.34311	1589.89	.5
303.15	.53567	1618.7	.5
303.15	.76558	1646.4	.5
308.15	.03132	1541.24	.5
308.15	.08262	1551	.5
308.15	.12973	1559.45	.5
308.15	.17792	1568.11	.5
308.15	.22839	1576.53	.5
308.15	.2922	1586.67	.5
308.15	.34311	1594.39	.5
308.15	.53567	1620.14	.5
308.15	.76558	1644.55	.5
313.15	.03132	1549.3	.5
313.15	.08262	1558.28	.5
313.15	.12973	1566.01	.5
313.15	.17792	1573.89	.5
313.15	.22839	1581.61	.5
313.15	.2922	1590.61	.5
313.15	.34311	1597.67	.5
313.15	.53567	1620.53	.5
313.15	.76558	1641.91	.5
318.15	.03132	1556.01	.5
318.15	.08262	1564.21	.5
318.15	.12973	1571.25	.5
318.15	.17792	1578.39	.5
318.15	.22839	1585.36	.5
318.15	.2922	1593.43	.5
318.15	.34311	1599.73	.5
318.15	.53567	1619.98	.5
318.15	.76558	1638.55	.5

System: sodium carbonate + tetrabutylammonium bromide + water; phases: Liquid mixture 1, Liquid mixture 2
Fixed: Pressure, kPa = 101
Property: Molality, mol/kg of sodium carbonate (Liquid mixture 1); method: Cloud point titration method
Temperature, K	Molality, mol/kg of tetrabutylammonium bromide	Molality, mol/kg of sodium carbonate	uncertainty
298.15	2.3154	.2306	.001
298.15	1.9446	.2893	.001
298.15	1.6096	.3931	.001
298.15	1.2986	.5128	.001
298.15	1.0206	.6586	.001
298.15	.7596	.8448	.001
298.15	.5709	1.0138	.001
298.15	.4452	1.1418	.001
298.15	.359	1.2403	.001
298.15	.2907	1.3448	.001
298.15	.2435	1.4152	.001
298.15	.2144	1.4727	.001
298.15	.1851	1.539	.001
298.15	.1538	1.6201	.001
298.15	.1275	1.7198	.001
308.15	2.1005	.2769	.001
308.15	1.7081	.3721	.001
308.15	1.3978	.4802	.001
308.15	1.1078	.609	.001
308.15	.8316	.765	.001
308.15	.65	.8987	.001
308.15	.5183	1.0032	.001
308.15	.4278	1.0917	.001
308.15	.3654	1.164	.001
308.15	.3144	1.2295	.001
308.15	.2633	1.3053	.001
308.15	.2214	1.3849	.001
308.15	.1944	1.4533	.001
308.15	.171	1.5033	.001
308.15	.1468	1.57	.001
308.15	.1219	1.675	.001
318.15	2.042	.2835	.001
318.15	1.9154	.3162	.001
318.15	1.7361	.3588	.001
318.15	1.547	.4178	.001
318.15	1.3736	.4587	.001
318.15	1.2054	.5331	.001
318.15	1.0205	.6239	.001
318.15	.9034	.6872	.001
318.15	.8136	.7413	.001
318.15	.6751	.8369	.001
318.15	.5522	.9168	.001
318.15	.4616	.9991	.001
318.15	.3924	1.0717	.001
318.15	.3356	1.1308	.001
318.15	.2894	1.1922	.001
318.15	.2338	1.2848	.001
318.15	.201	1.357	.001
318.15	.1818	1.4151	.001
318.15	.1395	1.5426	.001
318.15	.1083	1.7096	.001
318.15	.0868	1.8351	.001
318.15	.0641	1.9752	.001

System: sodium carbonate + tetrabutylammonium bromide + water; phases: Liquid
Fixed: Pressure, kPa = 101
Fixed: Molality, mol/kg of sodium carbonate = .1
Property: Mass density, kg/m3 (Liquid); method: Vibrating tube method
Temperature, K	Molality, mol/kg of tetrabutylammonium bromide	Mass density, kg/m3	uncertainty
293.15	.08043	1010.819	.05
293.15	.13139	1011.871	.05
293.15	.17126	1012.698	.05
293.15	.22975	1013.934	.05
293.15	.28544	1015.111	.05
293.15	.42305	1018.002	.05
293.15	.77435	1024.945	.05
298.15	.08043	1009.458	.05
298.15	.13139	1010.456	.05
298.15	.17126	1011.244	.05
298.15	.22975	1012.413	.05
298.15	.28544	1013.526	.05
298.15	.42305	1016.251	.05
298.15	.77435	1022.739	.05
303.15	.08043	1007.88	.05
303.15	.13139	1008.83	.05
303.15	.17126	1009.576	.05
303.15	.22975	1010.682	.05
303.15	.28544	1011.736	.05
303.15	.42305	1014.306	.05
303.15	.77435	1020.37	.05
308.15	.08043	1006.107	.05
308.15	.13139	1007.009	.05
308.15	.17126	1007.714	.05
308.15	.22975	1008.763	.05
308.15	.28544	1009.757	.05
308.15	.42305	1012.179	.05
308.15	.77435	1017.851	.05
313.15	.08043	1004.148	.05
313.15	.13139	1005.006	.05
313.15	.17126	1005.674	.05
313.15	.22975	1006.664	.05
313.15	.28544	1007.605	.05
313.15	.42305	1009.885	.05
313.15	.77435	1015.196	.05
318.15	.08043	1002.021	.05
318.15	.13139	1002.83	.05
318.15	.17126	1003.463	.05
318.15	.22975	1004.403	.05
318.15	.28544	1005.289	.05
318.15	.42305	1007.438	.05
318.15	.77435	1012.412	.05

System: sodium carbonate + tetrabutylammonium bromide + water; phases: Liquid
Fixed: Pressure, kPa = 101
Fixed: Molality, mol/kg of sodium carbonate = .1
Property: Speed of sound, m/s (Liquid); method: Sing-around technique in a fixed-path interferometer
Temperature, K	Molality, mol/kg of tetrabutylammonium bromide	Speed of sound, m/s	uncertainty
293.15	.08043	1520.34	.5
293.15	.13139	1532.06	.5
293.15	.17126	1541.21	.5
293.15	.22975	1554.08	.5
293.15	.28544	1565.87	.5
293.15	.42305	1592.82	.5
293.15	.77435	1649.05	.5
298.15	.08043	1532.41	.5
298.15	.13139	1543.25	.5
298.15	.17126	1551.6	.5
298.15	.22975	1563.45	.5
298.15	.28544	1574.14	.5
298.15	.42305	1598.63	.5
298.15	.77435	1648.76	.5
303.15	.08043	1542.81	.5
303.15	.13139	1552.8	.5
303.15	.17126	1560.45	.5
303.15	.22975	1571.22	.5
303.15	.28544	1580.97	.5
303.15	.42305	1603.11	.5
303.15	.77435	1647.63	.5
308.15	.08043	1551.66	.5
308.15	.13139	1560.74	.5
308.15	.17126	1567.79	.5
308.15	.22975	1577.56	.5
308.15	.28544	1586.4	.5
308.15	.42305	1606.35	.5
308.15	.77435	1645.71	.5
313.15	.08043	1559	.5
313.15	.13139	1567.35	.5
313.15	.17126	1573.71	.5
313.15	.22975	1582.57	.5
313.15	.28544	1590.55	.5
313.15	.42305	1608.41	.5
313.15	.77435	1642.98	.5
318.15	.08043	1564.95	.5
318.15	.13139	1572.57	.5
318.15	.17126	1578.27	.5
318.15	.22975	1586.31	.5
318.15	.28544	1593.47	.5
318.15	.42305	1609.36	.5
318.15	.77435	1639.49	.5

System: tetrabutylammonium bromide + disodium hydrogen phosphate + water; phases: Liquid mixture 1, Liquid mixture 2
Fixed: Pressure, kPa = 101
Property: Molality, mol/kg of disodium hydrogen phosphate (Liquid mixture 1); method: Cloud point titration method
Temperature, K	Molality, mol/kg of tetrabutylammonium bromide	Molality, mol/kg of disodium hydrogen phosphate	uncertainty
298.15	1.7854	.2265	.001
298.15	1.4941	.2863	.001
298.15	1.2858	.3646	.001
298.15	1.1833	.416	.001
298.15	1.0855	.4742	.001
298.15	1.0061	.519	.001
298.15	.8951	.5886	.001
298.15	.7811	.6821	.001
298.15	.6749	.7794	.001
298.15	.58	.8746	.001
298.15	.514	.95	.001
298.15	.456	1.0191	.001
298.15	.3703	1.1275	.001
298.15	.2847	1.2645	.001
298.15	.2339	1.3663	.001
298.15	.2006	1.4488	.001
298.15	.158	1.5227	.001
308.15	1.8878	.2301	.001
308.15	1.5734	.2957	.001
308.15	1.3606	.361	.001
308.15	1.2204	.4186	.001
308.15	1.0737	.498	.001
308.15	.9476	.5714	.001
308.15	.8982	.6284	.001
308.15	.819	.6826	.001
308.15	.7371	.7488	.001
308.15	.6423	.8286	.001
308.15	.5347	.9258	.001
308.15	.4412	1.0199	.001
308.15	.3527	1.1228	.001
308.15	.2782	1.2351	.001
308.15	.2022	1.3763	.001
308.15	.1709	1.4506	.001
308.15	.1199	1.5231	.001
318.15	2.4146	.165	.001
318.15	2.0558	.2268	.001
318.15	1.6463	.3106	.001
318.15	1.3098	.4174	.001
318.15	1.1365	.4959	.001
318.15	1.0486	.538	.001
318.15	.9762	.5911	.001
318.15	.8875	.6298	.001
318.15	.7092	.7628	.001
318.15	.5717	.8656	.001
318.15	.5183	.9033	.001
318.15	.412	1.0166	.001
318.15	.309	1.137	.001
318.15	.2299	1.2832	.001
318.15	.179	1.3876	.001

System: tetrabutylammonium bromide + disodium hydrogen phosphate + water; phases: Liquid
Fixed: Pressure, kPa = 101
Fixed: Molality, mol/kg of disodium hydrogen phosphate = .1
Property: Mass density, kg/m3 (Liquid); method: Vibrating tube method
Temperature, K	Molality, mol/kg of tetrabutylammonium bromide	Mass density, kg/m3	uncertainty
293.15	.03103	1012.674	.05
293.15	.06307	1013.283	.05
293.15	.09641	1013.917	.05
293.15	.19667	1015.919	.05
293.15	.25131	1017.022	.05
293.15	.30347	1018.072	.05
293.15	.34757	1018.972	.05
293.15	.54353	1022.875	.05
293.15	.76889	1027.127	.05
298.15	.03103	1011.343	.05
298.15	.06307	1011.921	.05
298.15	.09641	1012.488	.05
298.15	.19667	1014.42	.05
298.15	.25131	1015.462	.05
298.15	.30347	1016.45	.05
298.15	.34757	1017.298	.05
298.15	.54353	1020.955	.05
298.15	.76889	1024.909	.05
303.15	.03103	1009.799	.05
303.15	.06307	1010.349	.05
303.15	.09641	1010.92	.05
303.15	.19667	1012.711	.05
303.15	.25131	1013.695	.05
303.15	.30347	1014.627	.05
303.15	.34757	1015.424	.05
303.15	.54353	1018.848	.05
303.15	.76889	1022.53	.05
308.15	.03103	1008.053	.05
308.15	.06307	1008.575	.05
308.15	.09641	1009.118	.05
308.15	.19667	1010.813	.05
308.15	.25131	1011.741	.05
308.15	.30347	1012.618	.05
308.15	.34757	1013.367	.05
308.15	.54353	1016.573	.05
308.15	.76889	1020.003	.05
313.15	.03103	1006.122	.05
313.15	.06307	1006.616	.05
313.15	.09641	1007.13	.05
313.15	.19667	1008.733	.05
313.15	.25131	1009.608	.05
313.15	.30347	1010.433	.05
313.15	.34757	1011.136	.05
313.15	.54353	1014.138	.05
313.15	.76889	1017.335	.05
318.15	.03103	1004.022	.05
318.15	.06307	1004.489	.05
318.15	.09641	1004.975	.05
318.15	.19667	1006.49	.05
318.15	.25131	1007.313	.05
318.15	.30347	1008.089	.05
318.15	.34757	1008.748	.05
318.15	.54353	1011.553	.05
318.15	.76889	1014.539	.05

System: tetrabutylammonium bromide + disodium hydrogen phosphate + water; phases: Liquid
Fixed: Pressure, kPa = 101
Fixed: Molality, mol/kg of disodium hydrogen phosphate = .1
Property: Speed of sound, m/s (Liquid); method: Sing-around technique in a fixed-path interferometer
Temperature, K	Molality, mol/kg of tetrabutylammonium bromide	Speed of sound, m/s	uncertainty
293.15	.03103	1509.17	.5
293.15	.06307	1517.19	.5
293.15	.09641	1524.94	.5
293.15	.19667	1548.03	.5
293.15	.25131	1559.98	.5
293.15	.30347	1570.79	.5
293.15	.34757	1579.82	.5
293.15	.54353	1615.76	.5
293.15	.76889	1649.93	.5
298.15	.03103	1522.19	.5
298.15	.06307	1529.54	.5
298.15	.09641	1536.68	.5
298.15	.19667	1557.92	.5
298.15	.25131	1568.82	.5
298.15	.30347	1578.69	.5
298.15	.34757	1586.87	.5
298.15	.54353	1619.27	.5
298.15	.76889	1649.63	.5
303.15	.03103	1533.45	.5
303.15	.06307	1540.19	.5
303.15	.09641	1546.74	.5
303.15	.19667	1566.23	.5
303.15	.25131	1576.16	.5
303.15	.30347	1585.15	.5
303.15	.34757	1592.56	.5
303.15	.54353	1621.62	.5
303.15	.76889	1648.46	.5
308.15	.03103	1543.06	.5
308.15	.06307	1549.28	.5
308.15	.09641	1555.27	.5
308.15	.19667	1573.06	.5
308.15	.25131	1582.1	.5
308.15	.30347	1590.26	.5
308.15	.34757	1596.9	.5
308.15	.54353	1622.87	.5
308.15	.76889	1646.47	.5
313.15	.03103	1551.16	.5
313.15	.06307	1556.87	.5
313.15	.09641	1562.34	.5
313.15	.19667	1578.6	.5
313.15	.25131	1586.7	.5
313.15	.30347	1594.02	.5
313.15	.34757	1600.02	.5
313.15	.54353	1623.07	.5
313.15	.76889	1643.66	.5
318.15	.03103	1557.83	.5
318.15	.06307	1563.08	.5
318.15	.09641	1568.05	.5
318.15	.19667	1582.76	.5
318.15	.25131	1590.03	.5
318.15	.30347	1596.65	.5
318.15	.34757	1601.95	.5
318.15	.54353	1622.28	.5
318.15	.76889	1640.12	.5

System: tetrabutylammonium bromide + trisodium phosphate + water; phases: Liquid mixture 1, Liquid mixture 2
Fixed: Pressure, kPa = 101
Property: Molality, mol/kg of trisodium phosphate (Liquid mixture 1); method: Cloud point titration method
Temperature, K	Molality, mol/kg of tetrabutylammonium bromide	Molality, mol/kg of trisodium phosphate	uncertainty
308.15	2.29	.1109	.001
308.15	2.0638	.1291	.001
308.15	1.8733	.1456	.001
308.15	1.7385	.1633	.001
308.15	1.5969	.1812	.001
308.15	1.4724	.2023	.001
308.15	1.3895	.221	.001
308.15	1.3092	.2399	.001
308.15	1.2345	.2616	.001
308.15	1.1527	.2882	.001
308.15	1.0744	.3167	.001
308.15	1.0071	.3399	.001
308.15	.9481	.3627	.001
308.15	.9162	.3782	.001
308.15	.8846	.3927	.001
308.15	.8366	.4112	.001
318.15	1.9239	.1414	.001
318.15	1.7896	.1616	.001
318.15	1.6578	.1806	.001
318.15	1.5536	.2018	.001
318.15	1.4292	.229	.001
318.15	1.2934	.2592	.001
318.15	1.226	.2782	.001
318.15	1.1739	.2962	.001
318.15	1.136	.3079	.001
318.15	1.0971	.3173	.001
318.15	1.0661	.3291	.001
318.15	1.009	.348	.001
318.15	.9507	.3727	.001
318.15	.9205	.3857	.001

System: tetrabutylammonium bromide + trisodium phosphate + water; phases: Liquid
Fixed: Pressure, kPa = 101
Fixed: Molality, mol/kg of trisodium phosphate = .1
Property: Mass density, kg/m3 (Liquid); method: Vibrating tube method
Temperature, K	Molality, mol/kg of tetrabutylammonium bromide	Mass density, kg/m3	uncertainty
293.15	.12932	1023.13	.05
293.15	.16334	1023.742	.05
293.15	.19745	1024.315	.05
293.15	.22471	1024.817	.05
293.15	.35319	1027.027	.05
293.15	.54459	1030.368	.05
293.15	.77159	1034.175	.05
298.15	.12932	1021.614	.05
298.15	.16334	1022.188	.05
298.15	.19745	1022.729	.05
298.15	.22471	1023.2	.05
298.15	.35319	1025.262	.05
298.15	.54459	1028.368	.05
298.15	.77159	1031.886	.05
303.15	.12932	1019.895	.05
303.15	.16334	1020.436	.05
303.15	.19745	1020.944	.05
303.15	.22471	1021.385	.05
303.15	.35319	1023.311	.05
303.15	.54459	1026.188	.05
303.15	.77159	1029.444	.05
308.15	.12932	1017.996	.05
308.15	.16334	1018.5	.05
308.15	.19745	1018.977	.05
308.15	.22471	1019.391	.05
308.15	.35319	1021.181	.05
308.15	.54459	1023.853	.05
308.15	.77159	1026.861	.05
313.15	.12932	1015.926	.05
313.15	.16334	1016.394	.05
313.15	.19745	1016.842	.05
313.15	.22471	1017.229	.05
313.15	.35319	1018.891	.05
313.15	.54459	1021.365	.05
313.15	.77159	1024.15	.05
318.15	.12932	1013.695	.05
318.15	.16334	1014.132	.05
318.15	.19745	1014.551	.05
318.15	.22471	1014.916	.05
318.15	.35319	1016.448	.05
318.15	.54459	1018.741	.05
318.15	.77159	1021.32	.05

System: tetrabutylammonium bromide + trisodium phosphate + water; phases: Liquid
Fixed: Pressure, kPa = 101
Fixed: Molality, mol/kg of trisodium phosphate = .1
Property: Speed of sound, m/s (Liquid); method: Sing-around technique in a fixed-path interferometer
Temperature, K	Molality, mol/kg of tetrabutylammonium bromide	Speed of sound, m/s	uncertainty
293.15	.12932	1543.82	.5
293.15	.16334	1551.69	.5
293.15	.19745	1559.02	.5
293.15	.22471	1565.06	.5
293.15	.35319	1591.32	.5
293.15	.54459	1625.26	.5
293.15	.77159	1658.16	.5
298.15	.12932	1554.68	.5
298.15	.16334	1561.89	.5
298.15	.19745	1568.59	.5
298.15	.22471	1574.07	.5
298.15	.35319	1598.01	.5
298.15	.54459	1628.55	.5
298.15	.77159	1657.51	.5
303.15	.12932	1564	.5
303.15	.16334	1570.51	.5
303.15	.19745	1576.64	.5
303.15	.22471	1581.59	.5
303.15	.35319	1603.38	.5
303.15	.54459	1630.54	.5
303.15	.77159	1656	.5
308.15	.12932	1571.68	.5
308.15	.16334	1577.68	.5
308.15	.19745	1583.2	.5
308.15	.22471	1587.71	.5
308.15	.35319	1607.35	.5
308.15	.54459	1631.44	.5
308.15	.77159	1653.71	.5
313.15	.12932	1578.04	.5
313.15	.16334	1583.46	.5
313.15	.19745	1588.46	.5
313.15	.22471	1592.48	.5
313.15	.35319	1610.06	.5
313.15	.54459	1631.38	.5
313.15	.77159	1650.64	.5
318.15	.12932	1582.97	.5
318.15	.16334	1587.84	.5
318.15	.19745	1592.33	.5
318.15	.22471	1596	.5
318.15	.35319	1611.67	.5
318.15	.54459	1630.4	.5
318.15	.77159	1646.91	.5

System: trisodium citrate + tetrabutylammonium bromide + water; phases: Liquid mixture 1, Liquid mixture 2
Fixed: Pressure, kPa = 101
Property: Molality, mol/kg of trisodium citrate (Liquid mixture 1); method: Cloud point titration method
Temperature, K	Molality, mol/kg of tetrabutylammonium bromide	Molality, mol/kg of trisodium citrate	uncertainty
298.15	2.2528	.3259	.001
298.15	1.9598	.4019	.001
298.15	1.6184	.4737	.001
298.15	1.3353	.5539	.001
298.15	1.0661	.6649	.001
298.15	.8403	.7504	.001
298.15	.6486	.8525	.001
298.15	.5483	.9149	.001
298.15	.4456	.9936	.001
298.15	.2888	1.1219	.001
298.15	.2241	1.292	.001
308.15	2.2488	.3031	.001
308.15	2.0162	.339	.001
308.15	1.789	.3917	.001
308.15	1.585	.4514	.001
308.15	1.3473	.5208	.001
308.15	1.1384	.5967	.001
308.15	.9534	.6598	.001
308.15	.8084	.7184	.001
308.15	.6929	.7723	.001
308.15	.5996	.8202	.001
308.15	.514	.8735	.001
308.15	.4488	.9161	.001
308.15	.3637	.9973	.001
308.15	.3134	1.0567	.001
308.15	.2596	1.1483	.001
318.15	2.426	.2408	.001
318.15	2.0781	.3066	.001
318.15	1.8497	.3553	.001
318.15	1.5237	.4205	.001
318.15	1.3924	.4607	.001
318.15	1.2402	.4987	.001
318.15	1.0633	.5523	.001
318.15	.9149	.6061	.001
318.15	.7601	.6629	.001
318.15	.6981	.6888	.001
318.15	.6393	.7183	.001
318.15	.593	.741	.001
318.15	.5232	.8155	.001
318.15	.4639	.8528	.001
318.15	.4072	.9042	.001
318.15	.3346	.9795	.001
318.15	.2672	1.0791	.001
318.15	.2067	1.1963	.001

System: tetrabutylammonium bromide + water; phases: Liquid
Fixed: Pressure, kPa = 101
Property: Mass density, kg/m3 (Liquid); method: Vibrating tube method
Temperature, K	Molality, mol/kg of tetrabutylammonium bromide	Mass density, kg/m3	uncertainty
293.15	.04921	999.359	.05
293.15	.07961	1000.083	.05
293.15	.09973	1000.555	.05
293.15	.11183	1000.849	.05
293.15	.1291	1001.257	.05
293.15	.14639	1001.68	.05
293.15	.16264	1002.061	.05
293.15	.19522	1002.853	.05
293.15	.23093	1003.709	.05
293.15	.27324	1004.727	.05
293.15	.30729	1005.546	.05
293.15	.34489	1006.427	.05
293.15	.54371	1011.096	.05
293.15	.77115	1016.121	.05
298.15	.04921	998.14	.05
298.15	.07961	998.844	.05
298.15	.09973	999.297	.05
298.15	.11183	999.574	.05
298.15	.1291	999.966	.05
298.15	.14639	1000.369	.05
298.15	.16264	1000.734	.05
298.15	.19522	1001.489	.05
298.15	.23093	1002.304	.05
298.15	.27324	1003.274	.05
298.15	.30729	1004.05	.05
298.15	.34489	1004.884	.05
298.15	.54371	1009.296	.05
298.15	.77115	1014.011	.05
303.15	.04921	996.704	.05
303.15	.07961	997.37	.05
303.15	.09973	997.802	.05
303.15	.11183	998.068	.05
303.15	.1291	998.443	.05
303.15	.14639	998.826	.05
303.15	.16264	999.177	.05
303.15	.19522	999.897	.05
303.15	.23093	1000.673	.05
303.15	.27324	1001.595	.05
303.15	.30729	1002.332	.05
303.15	.34489	1003.121	.05
303.15	.54371	1007.293	.05
303.15	.77115	1011.727	.05
308.15	.04921	995.05	.05
308.15	.07961	995.683	.05
308.15	.09973	996.092	.05
308.15	.11183	996.35	.05
308.15	.1291	996.709	.05
308.15	.14639	997.075	.05
308.15	.16264	997.408	.05
308.15	.19522	998.092	.05
308.15	.23093	998.837	.05
308.15	.27324	999.711	.05
308.15	.30729	1000.414	.05
308.15	.34489	1001.162	.05
308.15	.54371	1005.109	.05
308.15	.77115	1009.282	.05
313.15	.04921	993.186	.05
313.15	.07961	993.797	.05
313.15	.09973	994.191	.05
313.15	.11183	994.435	.05
313.15	.1291	994.777	.05
313.15	.14639	995.128	.05
313.15	.16264	995.446	.05
313.15	.19522	996.099	.05
313.15	.23093	996.807	.05
313.15	.27324	997.64	.05
313.15	.30729	998.309	.05
313.15	.34489	999.017	.05
313.15	.54371	1002.753	.05
313.15	.77115	1006.685	.05
318.15	.04921	991.142	.05
318.15	.07961	991.727	.05
318.15	.09973	992.105	.05
318.15	.11183	992.338	.05
318.15	.1291	992.665	.05
318.15	.14639	992.999	.05
318.15	.16264	993.303	.05
318.15	.19522	993.923	.05
318.15	.23093	994.602	.05
318.15	.27324	995.396	.05
318.15	.30729	996.027	.05
318.15	.34489	996.7	.05
318.15	.54371	1000.237	.05
318.15	.77115	1003.95	.05

System: tetrabutylammonium bromide + water; phases: Liquid
Fixed: Pressure, kPa = 101
Property: Speed of sound, m/s (Liquid); method: Sing-around technique in a fixed-path interferometer
Temperature, K	Molality, mol/kg of tetrabutylammonium bromide	Speed of sound, m/s	uncertainty
293.15	.04921	1495.07	.5
293.15	.07961	1502.6	.5
293.15	.09973	1507.48	.5
293.15	.11183	1510.38	.5
293.15	.1291	1514.52	.5
293.15	.14639	1518.52	.5
293.15	.16264	1522.22	.5
293.15	.19522	1529.48	.5
293.15	.23093	1537.45	.5
293.15	.27324	1546.54	.5
293.15	.30729	1553.8	.5
293.15	.34489	1561.66	.5
293.15	.54371	1599.45	.5
293.15	.77115	1635.95	.5
298.15	.04921	1508.43	.5
298.15	.07961	1515.22	.5
298.15	.09973	1519.66	.5
298.15	.11183	1522.39	.5
298.15	.1291	1526.18	.5
298.15	.14639	1529.93	.5
298.15	.16264	1533.31	.5
298.15	.19522	1540.09	.5
298.15	.23093	1547.3	.5
298.15	.27324	1555.72	.5
298.15	.30729	1562.33	.5
298.15	.34489	1569.46	.5
298.15	.54371	1603.7	.5
298.15	.77115	1636.27	.5
303.15	.04921	1519.77	.5
303.15	.07961	1526.18	.5
303.15	.09973	1530.26	.5
303.15	.11183	1532.75	.5
303.15	.1291	1536.21	.5
303.15	.14639	1539.67	.5
303.15	.16264	1542.77	.5
303.15	.19522	1548.89	.5
303.15	.23093	1555.6	.5
303.15	.27324	1563.29	.5
303.15	.30729	1569.35	.5
303.15	.34489	1575.83	.5
303.15	.54371	1606.74	.5
303.15	.77115	1635.69	.5
308.15	.04921	1529.46	.5
308.15	.07961	1535.44	.5
308.15	.09973	1539.17	.5
308.15	.11183	1541.49	.5
308.15	.1291	1544.67	.5
308.15	.14639	1547.84	.5
308.15	.16264	1550.7	.5
308.15	.19522	1556.31	.5
308.15	.23093	1562.45	.5
308.15	.27324	1569.49	.5
308.15	.30729	1574.94	.5
308.15	.34489	1580.82	.5
308.15	.54371	1608.64	.5
308.15	.77115	1634.37	.5
313.15	.04921	1537.75	.5
313.15	.07961	1543.23	.5
313.15	.09973	1546.64	.5
313.15	.11183	1548.76	.5
313.15	.1291	1551.67	.5
313.15	.14639	1554.58	.5
313.15	.16264	1557.18	.5
313.15	.19522	1562.32	.5
313.15	.23093	1567.87	.5
313.15	.27324	1574.35	.5
313.15	.30729	1579.16	.5
313.15	.34489	1584.52	.5
313.15	.54371	1609.48	.5
313.15	.77115	1632.03	.5
318.15	.04921	1544.57	.5
318.15	.07961	1549.59	.5
318.15	.09973	1552.7	.5
318.15	.11183	1554.64	.5
318.15	.1291	1557.27	.5
318.15	.14639	1559.94	.5
318.15	.16264	1562.3	.5
318.15	.19522	1566.98	.5
318.15	.23093	1572.01	.5
318.15	.27324	1577.81	.5
318.15	.30729	1582.27	.5
318.15	.34489	1587.07	.5
318.15	.54371	1609.22	.5
318.15	.77115	1629.03	.5
