Measured thermophysical data. Experimental measurements of carbon dioxide solubility in aqueous tetra-n-butylammonium bromide solutions
Source: J. Chem. Thermodyn., 2015, 10.1016/j.jct.2015.01.008
Compound 1: tetrabutylammonium bromide, C16H36BrN, purity 99.5%
Compound 2: water, H2O
Compound 3: carbon dioxide, CO2

System: carbon dioxide + tetrabutylammonium bromide + water; phases: Liquid, Gas
Property: Mole fraction of carbon dioxide (Liquid); method: gravimetric
Solvent: Mass fraction of tetrabutylammonium bromide	Temperature, K	Pressure, kPa	Mole fraction of carbon dioxide	uncertainty
0	286.15	200	.0013	.001
0	286.15	500	.0041	.001
0	286.15	1000	.0082	.001
0	292.15	200	.0011	.001
0	292.15	500	.0036	.001
0	292.15	1000	.0071	.001
0	292.15	2000	.0134	.001
0	292.15	3000	.0184	.001
0	292.15	4000	.0232	.001
0	292.15	4000	.0234	.001
0	298.15	200	.0009	.001
0	298.15	500	.0028	.001
0	298.15	1000	.0064	.001
0	298.15	2000	.0114	.001
0	298.15	3000	.0163	.001
0	298.15	4000	.02	.001
0	298.15	4000	.02	.001
.0999	286.15	200	.0013	.001
.0999	286.15	500	.0037	.001
.1001	286.15	1000	.0079	.001
.1001	292.15	200	.0016	.001
.1003	292.15	500	.0034	.001
.0997	292.15	1000	.0071	.001
.0997	292.15	2000	.0126	.001
.1001	292.15	3000	.0179	.001
.1	292.15	4000	.022	.001
.1	292.15	4000	.0218	.001
.0999	298.15	200	.0009	.001
.1	298.15	500	.0027	.001
.0997	298.15	1000	.0062	.001
.0997	298.15	2000	.0112	.001
.1001	298.15	3000	.015	.001
.1004	298.15	3000	.0151	.001
.1001	298.15	4000	.0196	.001
.2001	286.15	200	.0011	.001
.2001	286.15	500	.0036	.001
.2003	292.15	200	.0017	.001
.2	292.15	500	.003	.001
.2	292.15	1000	.0065	.001
.2	292.15	2000	.0117	.001
.2	292.15	3000	.0171	.001
.2	292.15	4000	.0204	.001
.2	298.15	200	.0005	.001
.2	298.15	500	.0025	.001
.2002	298.15	1000	.0062	.001
.2002	298.15	2000	.0109	.001
.2004	298.15	3000	.0162	.001
.2004	298.15	4000	.0193	.001
.32	286.15	200	.0011	.001
.32	286.15	500	.0034	.001
.3195	292.15	200	.0013	.001
.3195	292.15	500	.0034	.001
.3203	292.15	1000	.0065	.001
.3203	292.15	2000	.0121	.001
.3201	292.15	3000	.0176	.001
.3201	292.15	4000	.0221	.001
.3201	298.15	200	.0008	.001
.3201	298.15	500	.0026	.001
.3202	298.15	1000	.0061	.001
.3202	298.15	2000	.0107	.001
.3199	298.15	3000	.0168	.001
.3199	298.15	4000	.0201	.001
.4002	286.15	200	.0011	.001
.4002	286.15	500	.0036	.001
.4002	292.15	200	.0009	.001
.4002	292.15	500	.0032	.001
.4005	292.15	1000	.0062	.001
.4005	292.15	2000	.0127	.001
.4001	292.15	3000	.0186	.001
.4001	292.15	4000	.0226	.001
.4001	298.15	200	.0006	.001
.4002	298.15	500	.0029	.001
.4	298.15	1000	.0066	.001
.4003	298.15	3000	.0185	.001
.4002	298.15	3000	.0185	.001
.4002	298.15	4000	.023	.001
.4004	298.15	4000	.0232	.001

System: carbon dioxide + water; phases: Liquid, Gas
Property: Mole fraction of carbon dioxide (Liquid); method: gravimetric
Temperature, K	Pressure, kPa	Mole fraction of carbon dioxide	uncertainty
286.15	200	.0013	.001
286.15	500	.0041	.001
286.15	1000	.0082	.001
292.15	200	.0011	.001
292.15	500	.0036	.001
292.15	1000	.0071	.001
292.15	2000	.0134	.001
292.15	3000	.0184	.001
292.15	4000	.0232	.001
292.15	4000	.0234	.001
298.15	200	.0009	.001
298.15	500	.0028	.001
298.15	1000	.0064	.001
298.15	2000	.0114	.001
298.15	3000	.0163	.001
298.15	4000	.02	.001
298.15	4000	.02	.001
