Measured thermophysical data. Henry s constant of carbon dioxide-aqueous deep eutectic solvent (choline chloride/ethylene glycol, choline chloride/glycerol, choline chloride/malonic acid) systems
Source: J. Chem. Thermodyn., 2014, 10.1016/j.jct.2013.08.029
Compound 1: choline chloride, C5H14ClNO
Compound 2: malonic acid, C3H4O4
Compound 3: water, H2O

System: choline chloride + malonic acid + water; phases: Liquid
Fixed: Pressure, kPa = 101
Fixed: Solvent: Mole fraction of choline chloride = .5
Property: Mass density, kg/m3 (Liquid); method: Vibrating tube method
Temperature, K	Mass fraction of water	Mass density, kg/m3	uncertainty
303.15	.5	1089.4	.1
303.15	.401	1109.2	.1
303.15	.3	1128.5	.1
303.15	.2	1148	.1
303.15	0	1189.9	.1
308.15	.5	1087.1	.1
308.15	.401	1106.9	.1
308.15	.3	1126	.1
308.15	.2	1145.5	.1
308.15	0	1187.3	.1
313.15	.5	1084.6	.1
313.15	.401	1104.4	.1
313.15	.3	1123.5	.1
313.15	.2	1142.9	.1
313.15	0	1184.7	.1
318.15	.5	1082	.1
318.15	.401	1101.7	.1
318.15	.3	1120.9	.1
318.15	.2	1140.3	.1
318.15	0	1182.1	.1
323.15	.5	1079.8	.1
323.15	.401	1099	.1
323.15	.3	1118.3	.1
323.15	.2	1137.8	.1
323.15	0	1179.7	.1

System: choline chloride + malonic acid; phases: Liquid
Property: Mass density, kg/m3 (Liquid); method: Vibrating tube method
Temperature, K	Pressure, kPa	Mole fraction of choline chloride	Mass density, kg/m3	uncertainty
303.15	101	.5	1189.9	.1
308.15	101	.5	1187.3	.1
313.15	101	.5	1184.7	.1
318.15	101	.5	1182.1	.1
323.15	101	.5	1179.7	.1
