Measured thermophysical data. Energetic studies of urea derivatives: Standard molar enthalpy of formation  of 3,4,40-trichlorocarbanilide
Source: J. Chem. Thermodyn., 2010, 10.1016/j.jct.2009.11.012
Compound 1: N-(4-chlorophenyl)-N'-(3,4-dichlorophenyl)urea, C13H9Cl3N2O, purity 99%
Compound 2: hydrogen chloride, ClH
Compound 3: carbon dioxide, CO2
Compound 4: nitrogen, N2
Compound 5: water, H2O
Compound 6: oxygen, O2
Compound 7: chlorine, diatomic, Cl2
Compound 8: carbon, graphite, C
Compound 9: hydrogen, H2

System: N-(4-chlorophenyl)-N'-(3,4-dichlorophenyl)urea; phases: Crystal 1, Liquid, Air at 1 atmosphere
Property: Normal melting temperature, K (Crystal 1); method: DSC/DTA
Normal melting temperature, K	uncertainty
527.5	.4

System: N-(4-chlorophenyl)-N'-(3,4-dichlorophenyl)urea; phases: Crystal 2, Crystal 1, Air at 1 atmosphere
Property: Triple point temperature, K (Crystal 2); method: DSC/DTA
Triple point temperature, K	uncertainty
428	1

System: N-(4-chlorophenyl)-N'-(3,4-dichlorophenyl)urea; phases: Crystal 2, Crystal 1, Air at 1 atmosphere
Property: Molar enthalpy of transition or fusion, kJ/mol (Crystal 2); method: DSC/DTA
Molar enthalpy of transition or fusion, kJ/mol	uncertainty
6.1	.1

System: N-(4-chlorophenyl)-N'-(3,4-dichlorophenyl)urea; phases: Crystal 2, Crystal 1, Air at 1 atmosphere
Property: Triple point temperature, K (Crystal 2); method: DSC/DTA
Triple point temperature, K	uncertainty
428	1

System: N-(4-chlorophenyl)-N'-(3,4-dichlorophenyl)urea; phases: Crystal 1
Fixed: Pressure, kPa = 101.325
Property: Molar heat capacity at constant pressure, J/K/mol (Crystal 1); method: Small sample (50 mg) DSC
Temperature, K	Molar heat capacity at constant pressure, J/K/mol	uncertainty
475.15	432.35	8.647
480.15	436.61	8.7322
485.15	444.02	8.8804
490.15	452.78	9.0556
495.15	464.93	9.2986

System: N-(4-chlorophenyl)-N'-(3,4-dichlorophenyl)urea; phases: Crystal 2, Gas
Property: Molar enthalpy of vaporization or sublimation, kJ/mol (Crystal 2); method: DSC/DTA
Temperature, K	Molar enthalpy of vaporization or sublimation, kJ/mol	uncertainty
298.15	182.1	1.7

System: N-(4-chlorophenyl)-N'-(3,4-dichlorophenyl)urea; phases: Gas
Property: Molar enthalpy, kJ/mol (Gas); method: Calvet microcalorimetry
Temperature, K	Pressure, kPa	Molar enthalpy, kJ/mol	uncertainty
508.2	101	256.1	1.2

System: N-(4-chlorophenyl)-N'-(3,4-dichlorophenyl)urea; phases: Crystal 2
Fixed: Pressure, kPa = 101.325
Property: Molar heat capacity at constant pressure, J/K/mol (Crystal 2); method: Small sample (50 mg) DSC
Temperature, K	Molar heat capacity at constant pressure, J/K/mol	uncertainty
263.15	268.71	2
265.15	269.88	2
270.15	272.35	2
275.15	274.29	2
280.15	276.34	2
285.15	278.5	2
290.15	280.82	2
295.15	282.87	2
298.15	284.13	2
300.15	285.18	2
305.15	287.71	2
310.15	290.49	2
315.15	290.67	2
320.15	294.23	2
325.15	294.87	2
330.15	297.95	2
335.15	299.93	2
340.15	302.05	2
345.15	304.25	2
350.15	307.35	2
355.15	310.57	2
360.15	313.61	2
365.15	316.56	2
370.15	318.53	2
375.15	320.86	2
380.15	322.77	2
385.15	325.84	2
390.15	328.48	2
395.15	330.98	2
400.15	333.62	2
405.15	335.55	2
410.15	339.3	2

Reaction: -1 N-(4-chlorophenyl)-N'-(3,4-dichlorophenyl)urea + 3 hydrogen chloride + 13 carbon dioxide + 1 nitrogen + 3 water + -14 oxygen
Property: Specific internal energy of reaction at constant volume, J/g
-19767

Reaction: 1 N-(4-chlorophenyl)-N'-(3,4-dichlorophenyl)urea + -1.5 chlorine, diatomic + -4.5 hydrogen + -1 nitrogen + -13 carbon, graphite + -0.5 oxygen
Property: Molar internal energy of reaction at constant volume, kJ/mol
-234.6

Reaction: 1 N-(4-chlorophenyl)-N'-(3,4-dichlorophenyl)urea + -1.5 chlorine, diatomic + -4.5 hydrogen + -1 nitrogen + -13 carbon, graphite + -0.5 oxygen
Property: Molar internal energy of reaction at constant volume, kJ/mol
-52.5
