Measured thermophysical data. Measurements of (vapour + liquid) equilibrium data for {trifluoroiodomethane  (R13I1) + isobutane (R600a)} at temperatures between (263.150 and 293.150) K
Source: J. Chem. Thermodyn., 2013, 10.1016/j.jct.2012.10.003
Compound 1: methane, trifluoroiodo-, CF3I, purity 99%
Compound 2: propane, 2-methyl-, C4H10, purity 99.9%

System: methane, trifluoroiodo-; phases: Liquid, Gas
Property: Vapor or sublimation pressure, kPa (Liquid); method: Closed cell (Static) method
Temperature, K	Vapor or sublimation pressure, kPa	uncertainty
263.15	160.4	.5
273.15	228.4	.5
283.15	316.5	.5
293.15	428	.5

System: propane, 2-methyl-; phases: Liquid, Gas
Property: Vapor or sublimation pressure, kPa (Liquid); method: Closed cell (Static) method
Temperature, K	Vapor or sublimation pressure, kPa	uncertainty
263.15	108.3	.5
273.15	156.9	.5
283.15	220.6	.5
293.15	302.3	.5

System: propane, 2-methyl- + methane, trifluoroiodo-; phases: Liquid, Gas
Property: Vapor or sublimation pressure, kPa (Liquid); method: Closed cell (Static) method
Mole fraction of methane, trifluoroiodo-	Temperature, K	Vapor or sublimation pressure, kPa	uncertainty
0	263.15	108.3	.5
.088	263.15	116.5	.5
.155	263.15	122.7	.5
.273	263.15	130.8	.5
.432	263.15	140.3	.5
.616	263.15	149.4	.5
.75	263.15	154.7	.5
.858	263.15	157.8	.5
1	263.15	160.4	.5
0	273.15	156.9	.5
.087	273.15	167.7	.5
.153	273.15	175.6	.5
.271	273.15	186.9	.5
.429	273.15	200.4	.5
.615	273.15	212.8	.5
.749	273.15	219.8	.5
.861	273.15	224.2	.5
1	273.15	228.4	.5
0	283.15	220.6	.5
.086	283.15	234.4	.5
.152	283.15	244.6	.5
.262	283.15	258.9	.5
.423	283.15	278.2	.5
.612	283.15	295	.5
.748	283.15	304.7	.5
.861	283.15	310.8	.5
1	283.15	316.5	.5
0	293.15	302.3	.5
.088	293.15	319.6	.5
.154	293.15	331.9	.5
.271	293.15	351.7	.5
.412	293.15	375.6	.5
.608	293.15	398.9	.5
.746	293.15	411.9	.5
.861	293.15	420.1	.5
1	293.15	428	.5

System: propane, 2-methyl- + methane, trifluoroiodo-; phases: Gas, Liquid
Property: Mole fraction of methane, trifluoroiodo- (Gas); method: Chromatography
Mole fraction of methane, trifluoroiodo-	Temperature, K	Mole fraction of methane, trifluoroiodo-	uncertainty
0	263.15	0	.005
.088	263.15	.14	.005
.155	263.15	.235	.005
.273	263.15	.369	.005
.432	263.15	.53	.005
.616	263.15	.68	.005
.75	263.15	.787	.005
.858	263.15	.876	.005
1	263.15	1	.005
0	273.15	0	.005
.087	273.15	.135	.005
.153	273.15	.224	.005
.271	273.15	.356	.005
.429	273.15	.521	.005
.615	273.15	.679	.005
.749	273.15	.788	.005
.861	273.15	.879	.005
1	273.15	1	.005
0	283.15	0	.005
.086	283.15	.13	.005
.152	283.15	.217	.005
.262	283.15	.354	.005
.423	283.15	.512	.005
.612	283.15	.674	.005
.748	283.15	.785	.005
.861	283.15	.878	.005
1	283.15	1	.005
0	293.15	0	.005
.088	293.15	.125	.005
.154	293.15	.208	.005
.271	293.15	.348	.005
.412	293.15	.496	.005
.608	293.15	.667	.005
.746	293.15	.781	.005
.861	293.15	.877	.005
1	293.15	1	.005
