Measured thermophysical data. Thermodynamics and activity coefficients at infinite dilution for organic solutes and water in the ionic liquid 1-butyl-1-methylmorpholinium tricyanomethanide
Source: J. Chem. Thermodyn., 2014, 10.1016/j.jct.2013.08.030
Compound 1: 1-butyl-1-methylmorpholinium tricyanomethanide, C13H20N4O, purity 97%
Compound 2: pentane, C5H12, purity 99%
Compound 3: hexane, C6H14, purity 99%
Compound 4: 3-methylpentane, C6H14, purity 99%
Compound 5: 2,2-dimethylbutane, C6H14, purity 99%
Compound 6: heptane, C7H16, purity 99.5%
Compound 7: octane, C8H18, purity 99%
Compound 8: 2,2,4-trimethylpentane, C8H18, purity 99%
Compound 9: nonane, C9H20, purity 99%
Compound 10: decane, C10H22, purity 99%
Compound 11: cyclopentane, C5H10, purity 99%
Compound 12: cyclohexane, C6H12, purity 99%
Compound 13: methylcyclohexane, C7H14, purity 99%
Compound 14: cycloheptane, C7H14, purity 98%
Compound 15: cyclooctane, C8H16, purity 99%
Compound 16: 1-hexene, C6H12, purity 99%
Compound 17: cyclohexene, C6H10, purity 99%
Compound 18: 1-heptene, C7H14, purity 99%
Compound 19: 1-octene, C8H16, purity 98%
Compound 20: 1-decene, C10H20, purity 97%
Compound 21: 1-pentyne, C5H8, purity 97%
Compound 22: 1-hexyne, C6H10, purity 97%
Compound 23: 1-heptyne, C7H12, purity 98%
Compound 24: 1-octyne, C8H14, purity 97%
Compound 25: benzene, C6H6, purity 99.8%
Compound 26: toluene, C7H8, purity 99.8%
Compound 27: ethylbenzene, C8H10, purity 99.8%
Compound 28: o-xylene, C8H10, purity 99%
Compound 29: m-xylene, C8H10, purity 99%
Compound 30: p-xylene, C8H10, purity 99%
Compound 31: styrene, C8H8, purity 99.9%
Compound 32: .alpha.-methylstyrene, C9H10, purity 99%
Compound 33: methanol, CH4O, purity 99.9%
Compound 34: ethanol, C2H6O, purity 99.8%
Compound 35: 1-propanol, C3H8O, purity 99.9%
Compound 36: 2-propanol, C3H8O, purity 99.9%
Compound 37: 1-butanol, C4H10O, purity 99.8%
Compound 38: 2-butanol, C4H10O, purity 99.5%
Compound 39: 2-methyl-1-propanol, C4H10O, purity 99.5%
Compound 40: tert-butanol, C4H10O, purity 99.7%
Compound 41: water, H2O
Compound 42: thiophene, C4H4S, purity 99%
Compound 43: tetrahydrofuran, C4H8O, purity 99.9%
Compound 44: 1,4-dioxane, C4H8O2, purity 99.8%
Compound 45: tert-butyl methyl ether, C5H12O, purity 99.8%
Compound 46: ethyl tert-butyl ether, C6H14O, purity 99%
Compound 47: methyl tert-pentyl ether, C6H14O, purity 99%
Compound 48: diethyl ether, C4H10O, purity 99.9%
Compound 49: dipropyl ether, C6H14O, purity 99%
Compound 50: diisopropyl ether, C6H14O, purity 99%
Compound 51: 1-butoxybutane, C8H18O, purity 99.3%
Compound 52: acetone, C3H6O, purity 99.9%
Compound 53: 2-pentanone, C5H10O, purity 99%
Compound 54: 3-pentanone, C5H10O, purity 99%
Compound 55: methyl acetate, C3H6O2, purity 99.8%
Compound 56: ethyl acetate, C4H8O2, purity 99.8%
Compound 57: methyl propanoate, C4H8O2, purity 99%
Compound 58: methyl butyrate, C5H10O2, purity 99%
Compound 59: butanal, C4H8O, purity 99%
Compound 60: acetonitrile, C2H3N, purity 99.9%
Compound 61: pyridine, C5H5N, purity 99.8%
Compound 62: 1-nitropropane, C3H7NO2, purity 98.5%

System: 1-butyl-1-methylmorpholinium tricyanomethanide; phases: Liquid
Property: Mass density, kg/m3 (Liquid); method: Vibrating tube method
Pressure, kPa	Temperature, K	Mass density, kg/m3	uncertainty
101.33	288.15	1073.6	.5
101.33	298.15	1067.03	.5
101.33	308.15	1060.79	.5
101.33	318.15	1054.69	.5
101.33	328.15	1048.61	.5
101.33	338.15	1042.61	.5
101.33	348.15	1036.67	.5
101.33	358.15	1030.77	.5
101.33	368.15	1024.3	.5

System: 1-butyl-1-methylmorpholinium tricyanomethanide + pentane; phases: Liquid
Fixed: Pressure, kPa = 101
Fixed: Mole fraction of pentane = 0
Property: Activity coefficient of pentane (Liquid); method: Chromatography
Temperature, K	Activity coefficient of pentane	uncertainty
318.15	39.7	1.191
328.15	35.5	1.065
338.15	32.2	.966
348.15	29.8	.894
358.15	27.7	.831
368.15	26.2	.786

System: 1-butyl-1-methylmorpholinium tricyanomethanide + hexane; phases: Liquid
Fixed: Pressure, kPa = 101
Fixed: Mole fraction of hexane = 0
Property: Activity coefficient of hexane (Liquid); method: Chromatography
Temperature, K	Activity coefficient of hexane	uncertainty
318.15	56.5	1.695
328.15	51.1	1.533
338.15	46.7	1.401
348.15	43.2	1.296
358.15	40.3	1.209
368.15	37.2	1.116

System: 1-butyl-1-methylmorpholinium tricyanomethanide + 3-methylpentane; phases: Liquid
Fixed: Pressure, kPa = 101
Fixed: Mole fraction of 3-methylpentane = 0
Property: Activity coefficient of 3-methylpentane (Liquid); method: Chromatography
Temperature, K	Activity coefficient of 3-methylpentane	uncertainty
318.15	51.3	1.539
328.15	46	1.38
338.15	42.3	1.269
348.15	38.9	1.167
358.15	36.3	1.089
368.15	33.5	1.005

System: 1-butyl-1-methylmorpholinium tricyanomethanide + 2,2-dimethylbutane; phases: Liquid
Fixed: Pressure, kPa = 101
Fixed: Mole fraction of 2,2-dimethylbutane = 0
Property: Activity coefficient of 2,2-dimethylbutane (Liquid); method: Chromatography
Temperature, K	Activity coefficient of 2,2-dimethylbutane	uncertainty
318.15	56.7	1.701
328.15	49.8	1.494
338.15	44.5	1.335
348.15	40.9	1.227
358.15	37.7	1.131
368.15	34.8	1.044

System: 1-butyl-1-methylmorpholinium tricyanomethanide + heptane; phases: Liquid
Fixed: Pressure, kPa = 101
Fixed: Mole fraction of heptane = 0
Property: Activity coefficient of heptane (Liquid); method: Chromatography
Temperature, K	Activity coefficient of heptane	uncertainty
318.15	84	2.52
328.15	76.8	2.304
338.15	69.6	2.088
348.15	63.3	1.899
358.15	58.7	1.761
368.15	53.7	1.611

System: 1-butyl-1-methylmorpholinium tricyanomethanide + octane; phases: Liquid
Fixed: Pressure, kPa = 101
Fixed: Mole fraction of octane = 0
Property: Activity coefficient of octane (Liquid); method: Chromatography
Temperature, K	Activity coefficient of octane	uncertainty
318.15	125	3.75
328.15	113	3.39
338.15	102	3.06
348.15	93.4	2.802
358.15	86.5	2.595
368.15	78.6	2.358

System: 1-butyl-1-methylmorpholinium tricyanomethanide + 2,2,4-trimethylpentane; phases: Liquid
Fixed: Pressure, kPa = 101
Fixed: Mole fraction of 2,2,4-trimethylpentane = 0
Property: Activity coefficient of 2,2,4-trimethylpentane (Liquid); method: Chromatography
Temperature, K	Activity coefficient of 2,2,4-trimethylpentane	uncertainty
318.15	103	3.09
328.15	93.4	2.802
338.15	84.2	2.526
348.15	76.9	2.307
358.15	70.8	2.124
368.15	64.5	1.935

System: 1-butyl-1-methylmorpholinium tricyanomethanide + nonane; phases: Liquid
Fixed: Pressure, kPa = 101
Fixed: Mole fraction of nonane = 0
Property: Activity coefficient of nonane (Liquid); method: Chromatography
Temperature, K	Activity coefficient of nonane	uncertainty
318.15	187	5.61
328.15	168	5.04
338.15	151	4.53
348.15	137	4.11
358.15	126	3.78
368.15	115	3.45

System: 1-butyl-1-methylmorpholinium tricyanomethanide + decane; phases: Liquid
Fixed: Pressure, kPa = 101
Fixed: Mole fraction of decane = 0
Property: Activity coefficient of decane (Liquid); method: Chromatography
Temperature, K	Activity coefficient of decane	uncertainty
318.15	289	8.67
328.15	251	7.53
338.15	224	6.72
348.15	202	6.06
358.15	183	5.49
368.15	166	4.98

System: 1-butyl-1-methylmorpholinium tricyanomethanide + cyclopentane; phases: Liquid
Fixed: Pressure, kPa = 101
Fixed: Mole fraction of cyclopentane = 0
Property: Activity coefficient of cyclopentane (Liquid); method: Chromatography
Temperature, K	Activity coefficient of cyclopentane	uncertainty
318.15	14.7	.441
328.15	13.7	.411
338.15	12.8	.384
348.15	12.1	.363
358.15	11.4	.342
368.15	10.9	.327

System: 1-butyl-1-methylmorpholinium tricyanomethanide + cyclohexane; phases: Liquid
Fixed: Pressure, kPa = 101
Fixed: Mole fraction of cyclohexane = 0
Property: Activity coefficient of cyclohexane (Liquid); method: Chromatography
Temperature, K	Activity coefficient of cyclohexane	uncertainty
318.15	22.6	.678
328.15	20.8	.624
338.15	19.3	.579
348.15	18	.54
358.15	16.9	.507
368.15	16	.48

System: 1-butyl-1-methylmorpholinium tricyanomethanide + methylcyclohexane; phases: Liquid
Fixed: Pressure, kPa = 101
Fixed: Mole fraction of methylcyclohexane = 0
Property: Activity coefficient of methylcyclohexane (Liquid); method: Chromatography
Temperature, K	Activity coefficient of methylcyclohexane	uncertainty
318.15	35.2	1.056
328.15	32.3	.969
338.15	29.7	.891
348.15	27.6	.828
358.15	25.7	.771
368.15	24	.72

System: 1-butyl-1-methylmorpholinium tricyanomethanide + cycloheptane; phases: Liquid
Fixed: Pressure, kPa = 101
Fixed: Mole fraction of cycloheptane = 0
Property: Activity coefficient of cycloheptane (Liquid); method: Chromatography
Temperature, K	Activity coefficient of cycloheptane	uncertainty
318.15	28.1	.843
328.15	26	.78
338.15	24	.72
348.15	22.5	.675
358.15	21	.63
368.15	19.7	.591

System: 1-butyl-1-methylmorpholinium tricyanomethanide + cyclooctane; phases: Liquid
Fixed: Pressure, kPa = 101
Fixed: Mole fraction of cyclooctane = 0
Property: Activity coefficient of cyclooctane (Liquid); method: Chromatography
Temperature, K	Activity coefficient of cyclooctane	uncertainty
318.15	37	1.11
328.15	34.1	1.023
338.15	31.2	.936
348.15	29.1	.873
358.15	27	.81
368.15	25.1	.753

System: 1-butyl-1-methylmorpholinium tricyanomethanide + 1-hexene; phases: Liquid
Fixed: Pressure, kPa = 101
Fixed: Mole fraction of 1-hexene = 0
Property: Activity coefficient of 1-hexene (Liquid); method: Chromatography
Temperature, K	Activity coefficient of 1-hexene	uncertainty
318.15	22.6	.678
328.15	21.3	.639
338.15	20	.6
348.15	19.1	.573
358.15	18.2	.546
368.15	17.4	.522

System: 1-butyl-1-methylmorpholinium tricyanomethanide + cyclohexene; phases: Liquid
Fixed: Pressure, kPa = 101
Fixed: Mole fraction of cyclohexene = 0
Property: Activity coefficient of cyclohexene (Liquid); method: Chromatography
Temperature, K	Activity coefficient of cyclohexene	uncertainty
318.15	9.44	.2832
328.15	9.08	.2724
338.15	8.71	.2613
348.15	8.46	.2538
358.15	8.16	.2448
368.15	7.92	.2376

System: 1-butyl-1-methylmorpholinium tricyanomethanide + 1-heptene; phases: Liquid
Fixed: Pressure, kPa = 101
Fixed: Mole fraction of 1-heptene = 0
Property: Activity coefficient of 1-heptene (Liquid); method: Chromatography
Temperature, K	Activity coefficient of 1-heptene	uncertainty
318.15	34.1	1.023
328.15	32	.96
338.15	30.2	.906
348.15	28.7	.861
358.15	27.2	.816
368.15	25.7	.771

System: 1-butyl-1-methylmorpholinium tricyanomethanide + 1-octene; phases: Liquid
Fixed: Pressure, kPa = 101
Fixed: Mole fraction of 1-octene = 0
Property: Activity coefficient of 1-octene (Liquid); method: Chromatography
Temperature, K	Activity coefficient of 1-octene	uncertainty
318.15	52.7	1.581
328.15	49.1	1.473
338.15	45.7	1.371
348.15	43	1.29
358.15	40.6	1.218
368.15	38.1	1.143

System: 1-butyl-1-methylmorpholinium tricyanomethanide + 1-decene; phases: Liquid
Fixed: Pressure, kPa = 101
Fixed: Mole fraction of 1-decene = 0
Property: Activity coefficient of 1-decene (Liquid); method: Chromatography
Temperature, K	Activity coefficient of 1-decene	uncertainty
318.15	118	3.54
328.15	110	3.3
338.15	101	3.03
348.15	94.5	2.835
358.15	87.8	2.634
368.15	81.4	2.442

System: 1-butyl-1-methylmorpholinium tricyanomethanide + 1-pentyne; phases: Liquid
Fixed: Pressure, kPa = 101
Fixed: Mole fraction of 1-pentyne = 0
Property: Activity coefficient of 1-pentyne (Liquid); method: Chromatography
Temperature, K	Activity coefficient of 1-pentyne	uncertainty
318.15	3.69	.1107
328.15	3.73	.1119
338.15	3.75	.1125
348.15	3.8	.114
358.15	3.81	.1143
368.15	3.83	.1149

System: 1-butyl-1-methylmorpholinium tricyanomethanide + 1-hexyne; phases: Liquid
Fixed: Pressure, kPa = 101
Fixed: Mole fraction of 1-hexyne = 0
Property: Activity coefficient of 1-hexyne (Liquid); method: Chromatography
Temperature, K	Activity coefficient of 1-hexyne	uncertainty
318.15	5.47	.1641
328.15	5.5	.165
338.15	5.5	.165
348.15	5.54	.1662
358.15	5.53	.1659
368.15	5.51	.1653

System: 1-butyl-1-methylmorpholinium tricyanomethanide + 1-heptyne; phases: Liquid
Fixed: Pressure, kPa = 101
Fixed: Mole fraction of 1-heptyne = 0
Property: Activity coefficient of 1-heptyne (Liquid); method: Chromatography
Temperature, K	Activity coefficient of 1-heptyne	uncertainty
318.15	8.28	.2484
328.15	8.26	.2478
338.15	8.2	.246
348.15	8.2	.246
358.15	8.13	.2439
368.15	8.05	.2415

System: 1-butyl-1-methylmorpholinium tricyanomethanide + 1-octyne; phases: Liquid
Fixed: Pressure, kPa = 101
Fixed: Mole fraction of 1-octyne = 0
Property: Activity coefficient of 1-octyne (Liquid); method: Chromatography
Temperature, K	Activity coefficient of 1-octyne	uncertainty
318.15	12.8	.384
328.15	12.6	.378
338.15	12.4	.372
348.15	12.2	.366
358.15	12	.36
368.15	11.8	.354

System: 1-butyl-1-methylmorpholinium tricyanomethanide + benzene; phases: Liquid
Fixed: Pressure, kPa = 101
Fixed: Mole fraction of benzene = 0
Property: Activity coefficient of benzene (Liquid); method: Chromatography
Temperature, K	Activity coefficient of benzene	uncertainty
318.15	1.53	.0459
328.15	1.55	.0465
338.15	1.57	.0471
348.15	1.58	.0474
358.15	1.61	.0483
368.15	1.62	.0486

System: 1-butyl-1-methylmorpholinium tricyanomethanide + toluene; phases: Liquid
Fixed: Pressure, kPa = 101
Fixed: Mole fraction of toluene = 0
Property: Activity coefficient of toluene (Liquid); method: Chromatography
Temperature, K	Activity coefficient of toluene	uncertainty
318.15	2.3	.069
328.15	2.33	.0699
338.15	2.36	.0708
348.15	2.38	.0714
358.15	2.41	.0723
368.15	2.43	.0729

System: 1-butyl-1-methylmorpholinium tricyanomethanide + ethylbenzene; phases: Liquid
Fixed: Pressure, kPa = 101
Fixed: Mole fraction of ethylbenzene = 0
Property: Activity coefficient of ethylbenzene (Liquid); method: Chromatography
Temperature, K	Activity coefficient of ethylbenzene	uncertainty
318.15	3.74	.1122
328.15	3.74	.1122
338.15	3.75	.1125
348.15	3.75	.1125
358.15	3.75	.1125
368.15	3.75	.1125

System: 1-butyl-1-methylmorpholinium tricyanomethanide + o-xylene; phases: Liquid
Fixed: Pressure, kPa = 101
Fixed: Mole fraction of o-xylene = 0
Property: Activity coefficient of o-xylene (Liquid); method: Chromatography
Temperature, K	Activity coefficient of o-xylene	uncertainty
318.15	2.96	.0888
328.15	2.99	.0897
338.15	3.02	.0906
348.15	3.04	.0912
358.15	3.07	.0921
368.15	3.08	.0924

System: 1-butyl-1-methylmorpholinium tricyanomethanide + m-xylene; phases: Liquid
Fixed: Pressure, kPa = 101
Fixed: Mole fraction of m-xylene = 0
Property: Activity coefficient of m-xylene (Liquid); method: Chromatography
Temperature, K	Activity coefficient of m-xylene	uncertainty
318.15	3.54	.1062
328.15	3.56	.1068
338.15	3.61	.1083
348.15	3.61	.1083
358.15	3.62	.1086
368.15	3.62	.1086

System: 1-butyl-1-methylmorpholinium tricyanomethanide + p-xylene; phases: Liquid
Fixed: Pressure, kPa = 101
Fixed: Mole fraction of p-xylene = 0
Property: Activity coefficient of p-xylene (Liquid); method: Chromatography
Temperature, K	Activity coefficient of p-xylene	uncertainty
318.15	3.49	.1047
328.15	3.52	.1056
338.15	3.54	.1062
348.15	3.57	.1071
358.15	3.59	.1077
368.15	3.63	.1089

System: 1-butyl-1-methylmorpholinium tricyanomethanide + styrene; phases: Liquid
Fixed: Pressure, kPa = 101
Fixed: Mole fraction of styrene = 0
Property: Activity coefficient of styrene (Liquid); method: Chromatography
Temperature, K	Activity coefficient of styrene	uncertainty
318.15	1.82	.0546
328.15	1.86	.0558
338.15	1.9	.057
348.15	1.93	.0579
358.15	1.96	.0588
368.15	1.99	.0597

System: 1-butyl-1-methylmorpholinium tricyanomethanide + .alpha.-methylstyrene; phases: Liquid
Fixed: Pressure, kPa = 101
Fixed: Mole fraction of .alpha.-methylstyrene = 0
Property: Activity coefficient of .alpha.-methylstyrene (Liquid); method: Chromatography
Temperature, K	Activity coefficient of .alpha.-methylstyrene	uncertainty
318.15	2.8	.084
328.15	2.89	.0867
338.15	2.99	.0897
348.15	3.07	.0921
358.15	3.15	.0945
368.15	3.22	.0966

System: 1-butyl-1-methylmorpholinium tricyanomethanide + methanol; phases: Liquid
Fixed: Pressure, kPa = 101
Fixed: Mole fraction of methanol = 0
Property: Activity coefficient of methanol (Liquid); method: Chromatography
Temperature, K	Activity coefficient of methanol	uncertainty
318.15	.825	.02475
328.15	.79	.0237
338.15	.762	.02286
348.15	.729	.02187
358.15	.704	.02112
368.15	.677	.02031

System: 1-butyl-1-methylmorpholinium tricyanomethanide + ethanol; phases: Liquid
Fixed: Pressure, kPa = 101
Fixed: Mole fraction of ethanol = 0
Property: Activity coefficient of ethanol (Liquid); method: Chromatography
Temperature, K	Activity coefficient of ethanol	uncertainty
318.15	1.26	.0378
328.15	1.19	.0357
338.15	1.12	.0336
348.15	1.06	.0318
358.15	1.01	.0303
368.15	.965	.02895

System: 1-butyl-1-methylmorpholinium tricyanomethanide + 1-propanol; phases: Liquid
Fixed: Pressure, kPa = 101
Fixed: Mole fraction of 1-propanol = 0
Property: Activity coefficient of 1-propanol (Liquid); method: Chromatography
Temperature, K	Activity coefficient of 1-propanol	uncertainty
318.15	1.62	.0486
328.15	1.52	.0456
338.15	1.43	.0429
348.15	1.35	.0405
358.15	1.29	.0387
368.15	1.23	.0369

System: 1-butyl-1-methylmorpholinium tricyanomethanide + 2-propanol; phases: Liquid
Fixed: Pressure, kPa = 101
Fixed: Mole fraction of 2-propanol = 0
Property: Activity coefficient of 2-propanol (Liquid); method: Chromatography
Temperature, K	Activity coefficient of 2-propanol	uncertainty
318.15	1.71	.0513
328.15	1.59	.0477
338.15	1.5	.045
348.15	1.4	.042
358.15	1.33	.0399
368.15	1.25	.0375

System: 1-butyl-1-methylmorpholinium tricyanomethanide + 1-butanol; phases: Liquid
Fixed: Pressure, kPa = 101
Fixed: Mole fraction of 1-butanol = 0
Property: Activity coefficient of 1-butanol (Liquid); method: Chromatography
Temperature, K	Activity coefficient of 1-butanol	uncertainty
318.15	2.18	.0654
328.15	2.04	.0612
338.15	1.91	.0573
348.15	1.79	.0537
358.15	1.7	.051
368.15	1.61	.0483

System: 1-butyl-1-methylmorpholinium tricyanomethanide + 2-butanol; phases: Liquid
Fixed: Pressure, kPa = 101
Fixed: Mole fraction of 2-butanol = 0
Property: Activity coefficient of 2-butanol (Liquid); method: Chromatography
Temperature, K	Activity coefficient of 2-butanol	uncertainty
318.15	2.05	.0615
328.15	1.93	.0579
338.15	1.81	.0543
348.15	1.71	.0513
358.15	1.64	.0492
368.15	1.58	.0474

System: 1-butyl-1-methylmorpholinium tricyanomethanide + 2-methyl-1-propanol; phases: Liquid
Fixed: Pressure, kPa = 101
Fixed: Mole fraction of 2-methyl-1-propanol = 0
Property: Activity coefficient of 2-methyl-1-propanol (Liquid); method: Chromatography
Temperature, K	Activity coefficient of 2-methyl-1-propanol	uncertainty
318.15	2.19	.0657
328.15	2.03	.0609
338.15	1.87	.0561
348.15	1.74	.0522
358.15	1.65	.0495
368.15	1.56	.0468

System: 1-butyl-1-methylmorpholinium tricyanomethanide + tert-butanol; phases: Liquid
Fixed: Pressure, kPa = 101
Fixed: Mole fraction of tert-butanol = 0
Property: Activity coefficient of tert-butanol (Liquid); method: Chromatography
Temperature, K	Activity coefficient of tert-butanol	uncertainty
318.15	2	.06
328.15	1.88	.0564
338.15	1.77	.0531
348.15	1.69	.0507
358.15	1.63	.0489
368.15	1.58	.0474

System: 1-butyl-1-methylmorpholinium tricyanomethanide + water; phases: Liquid
Fixed: Pressure, kPa = 101
Fixed: Mole fraction of water = 0
Property: Activity coefficient of water (Liquid); method: Chromatography
Temperature, K	Activity coefficient of water	uncertainty
318.15	1.03	.0309
328.15	.971	.02913
338.15	.916	.02748
348.15	.86	.0258
358.15	.819	.02457
368.15	.78	.0234

System: 1-butyl-1-methylmorpholinium tricyanomethanide + thiophene; phases: Liquid
Fixed: Pressure, kPa = 101
Fixed: Mole fraction of thiophene = 0
Property: Activity coefficient of thiophene (Liquid); method: Chromatography
Temperature, K	Activity coefficient of thiophene	uncertainty
318.15	1.01	.0303
328.15	1.04	.0312
338.15	1.06	.0318
348.15	1.08	.0324
358.15	1.1	.033
368.15	1.12	.0336

System: 1-butyl-1-methylmorpholinium tricyanomethanide + tetrahydrofuran; phases: Liquid
Fixed: Pressure, kPa = 101
Fixed: Mole fraction of tetrahydrofuran = 0
Property: Activity coefficient of tetrahydrofuran (Liquid); method: Chromatography
Temperature, K	Activity coefficient of tetrahydrofuran	uncertainty
318.15	1.12	.0336
328.15	1.15	.0345
338.15	1.17	.0351
348.15	1.18	.0354
358.15	1.21	.0363
368.15	1.22	.0366

System: 1-butyl-1-methylmorpholinium tricyanomethanide + 1,4-dioxane; phases: Liquid
Fixed: Pressure, kPa = 101
Fixed: Mole fraction of 1,4-dioxane = 0
Property: Activity coefficient of 1,4-dioxane (Liquid); method: Chromatography
Temperature, K	Activity coefficient of 1,4-dioxane	uncertainty
318.15	.707	.02121
328.15	.74	.0222
338.15	.772	.02316
348.15	.798	.02394
358.15	.831	.02493
368.15	.853	.02559

System: 1-butyl-1-methylmorpholinium tricyanomethanide + tert-butyl methyl ether; phases: Liquid
Fixed: Pressure, kPa = 101
Fixed: Mole fraction of tert-butyl methyl ether = 0
Property: Activity coefficient of tert-butyl methyl ether (Liquid); method: Chromatography
Temperature, K	Activity coefficient of tert-butyl methyl ether	uncertainty
318.15	5.74	.1722
328.15	5.77	.1731
338.15	5.74	.1722
348.15	5.76	.1728
358.15	5.77	.1731
368.15	5.78	.1734

System: 1-butyl-1-methylmorpholinium tricyanomethanide + ethyl tert-butyl ether; phases: Liquid
Fixed: Pressure, kPa = 101
Fixed: Mole fraction of ethyl tert-butyl ether = 0
Property: Activity coefficient of ethyl tert-butyl ether (Liquid); method: Chromatography
Temperature, K	Activity coefficient of ethyl tert-butyl ether	uncertainty
318.15	16.8	.504
328.15	16.2	.486
338.15	15.6	.468
348.15	15.3	.459
358.15	14.9	.447
368.15	14.6	.438

System: 1-butyl-1-methylmorpholinium tricyanomethanide + methyl tert-pentyl ether; phases: Liquid
Fixed: Pressure, kPa = 101
Fixed: Mole fraction of methyl tert-pentyl ether = 0
Property: Activity coefficient of methyl tert-pentyl ether (Liquid); method: Chromatography
Temperature, K	Activity coefficient of methyl tert-pentyl ether	uncertainty
318.15	8.61	.2583
328.15	8.52	.2556
338.15	8.42	.2526
348.15	8.37	.2511
358.15	8.29	.2487
368.15	8.21	.2463

System: 1-butyl-1-methylmorpholinium tricyanomethanide + diethyl ether; phases: Liquid
Fixed: Pressure, kPa = 101
Fixed: Mole fraction of diethyl ether = 0
Property: Activity coefficient of diethyl ether (Liquid); method: Chromatography
Temperature, K	Activity coefficient of diethyl ether	uncertainty
318.15	5.39	.1617
328.15	5.33	.1599
338.15	5.27	.1581
348.15	5.24	.1572
358.15	5.21	.1563
368.15	5.16	.1548

System: 1-butyl-1-methylmorpholinium tricyanomethanide + dipropyl ether; phases: Liquid
Fixed: Pressure, kPa = 101
Fixed: Mole fraction of dipropyl ether = 0
Property: Activity coefficient of dipropyl ether (Liquid); method: Chromatography
Temperature, K	Activity coefficient of dipropyl ether	uncertainty
318.15	16.4	.492
328.15	15.9	.477
338.15	15.4	.462
348.15	14.9	.447
358.15	14.4	.432
368.15	13.9	.417

System: 1-butyl-1-methylmorpholinium tricyanomethanide + diisopropyl ether; phases: Liquid
Fixed: Pressure, kPa = 101
Fixed: Mole fraction of diisopropyl ether = 0
Property: Activity coefficient of diisopropyl ether (Liquid); method: Chromatography
Temperature, K	Activity coefficient of diisopropyl ether	uncertainty
318.15	17.8	.534
328.15	17.4	.522
338.15	16.8	.504
348.15	16.5	.495
358.15	16	.48
368.15	15.6	.468

System: 1-butyl-1-methylmorpholinium tricyanomethanide + 1-butoxybutane; phases: Liquid
Fixed: Pressure, kPa = 101
Fixed: Mole fraction of 1-butoxybutane = 0
Property: Activity coefficient of 1-butoxybutane (Liquid); method: Chromatography
Temperature, K	Activity coefficient of 1-butoxybutane	uncertainty
318.15	39.7	1.191
328.15	37.3	1.119
338.15	35.1	1.053
348.15	33.3	.999
358.15	31.5	.945
368.15	29.7	.891

System: 1-butyl-1-methylmorpholinium tricyanomethanide + acetone; phases: Liquid
Fixed: Pressure, kPa = 101
Fixed: Mole fraction of acetone = 0
Property: Activity coefficient of acetone (Liquid); method: Chromatography
Temperature, K	Activity coefficient of acetone	uncertainty
318.15	.741	.02223
328.15	.75	.0225
338.15	.765	.02295
348.15	.774	.02322
358.15	.791	.02373
368.15	.798	.02394

System: 1-butyl-1-methylmorpholinium tricyanomethanide + 2-pentanone; phases: Liquid
Fixed: Pressure, kPa = 101
Fixed: Mole fraction of 2-pentanone = 0
Property: Activity coefficient of 2-pentanone (Liquid); method: Chromatography
Temperature, K	Activity coefficient of 2-pentanone	uncertainty
318.15	1.44	.0432
328.15	1.47	.0441
338.15	1.49	.0447
348.15	1.5	.045
358.15	1.53	.0459
368.15	1.54	.0462

System: 1-butyl-1-methylmorpholinium tricyanomethanide + 3-pentanone; phases: Liquid
Fixed: Pressure, kPa = 101
Fixed: Mole fraction of 3-pentanone = 0
Property: Activity coefficient of 3-pentanone (Liquid); method: Chromatography
Temperature, K	Activity coefficient of 3-pentanone	uncertainty
318.15	1.42	.0426
328.15	1.44	.0432
338.15	1.47	.0441
348.15	1.49	.0447
358.15	1.51	.0453
368.15	1.54	.0462

System: 1-butyl-1-methylmorpholinium tricyanomethanide + methyl acetate; phases: Liquid
Fixed: Pressure, kPa = 101
Fixed: Mole fraction of methyl acetate = 0
Property: Activity coefficient of methyl acetate (Liquid); method: Chromatography
Temperature, K	Activity coefficient of methyl acetate	uncertainty
318.15	1.2	.036
328.15	1.23	.0369
338.15	1.24	.0372
348.15	1.26	.0378
358.15	1.29	.0387
368.15	1.3	.039

System: 1-butyl-1-methylmorpholinium tricyanomethanide + ethyl acetate; phases: Liquid
Fixed: Pressure, kPa = 101
Fixed: Mole fraction of ethyl acetate = 0
Property: Activity coefficient of ethyl acetate (Liquid); method: Chromatography
Temperature, K	Activity coefficient of ethyl acetate	uncertainty
318.15	1.88	.0564
328.15	1.9	.057
338.15	1.92	.0576
348.15	1.93	.0579
358.15	1.96	.0588
368.15	1.98	.0594

System: 1-butyl-1-methylmorpholinium tricyanomethanide + methyl propanoate; phases: Liquid
Fixed: Pressure, kPa = 101
Fixed: Mole fraction of methyl propanoate = 0
Property: Activity coefficient of methyl propanoate (Liquid); method: Chromatography
Temperature, K	Activity coefficient of methyl propanoate	uncertainty
318.15	1.64	.0492
328.15	1.67	.0501
338.15	1.7	.051
348.15	1.73	.0519
358.15	1.76	.0528
368.15	1.79	.0537

System: 1-butyl-1-methylmorpholinium tricyanomethanide + methyl butyrate; phases: Liquid
Fixed: Pressure, kPa = 101
Fixed: Mole fraction of methyl butyrate = 0
Property: Activity coefficient of methyl butyrate (Liquid); method: Chromatography
Temperature, K	Activity coefficient of methyl butyrate	uncertainty
318.15	2.42	.0726
328.15	2.46	.0738
338.15	2.49	.0747
348.15	2.51	.0753
358.15	2.54	.0762
368.15	2.56	.0768

System: 1-butyl-1-methylmorpholinium tricyanomethanide + butanal; phases: Liquid
Fixed: Pressure, kPa = 101
Fixed: Mole fraction of butanal = 0
Property: Activity coefficient of butanal (Liquid); method: Chromatography
Temperature, K	Activity coefficient of butanal	uncertainty
318.15	1.2	.036
328.15	1.24	.0372
338.15	1.26	.0378
348.15	1.3	.039
358.15	1.33	.0399
368.15	1.35	.0405

System: 1-butyl-1-methylmorpholinium tricyanomethanide + acetonitrile; phases: Liquid
Fixed: Pressure, kPa = 101
Fixed: Mole fraction of acetonitrile = 0
Property: Activity coefficient of acetonitrile (Liquid); method: Chromatography
Temperature, K	Activity coefficient of acetonitrile	uncertainty
318.15	.617	.01851
328.15	.62	.0186
338.15	.624	.01872
348.15	.624	.01872
358.15	.629	.01887
368.15	.63	.0189

System: 1-butyl-1-methylmorpholinium tricyanomethanide + pyridine; phases: Liquid
Fixed: Pressure, kPa = 101
Fixed: Mole fraction of pyridine = 0
Property: Activity coefficient of pyridine (Liquid); method: Chromatography
Temperature, K	Activity coefficient of pyridine	uncertainty
318.15	.733	.02199
328.15	.748	.02244
338.15	.758	.02274
348.15	.766	.02298
358.15	.766	.02298
368.15	.788	.02364

System: 1-butyl-1-methylmorpholinium tricyanomethanide + 1-nitropropane; phases: Liquid
Fixed: Pressure, kPa = 101
Fixed: Mole fraction of 1-nitropropane = 0
Property: Activity coefficient of 1-nitropropane (Liquid); method: Chromatography
Temperature, K	Activity coefficient of 1-nitropropane	uncertainty
318.15	.982	.02946
328.15	.99	.0297
338.15	.998	.02994
348.15	1	.03
358.15	1.01	.0303
368.15	1.01	.0303
