Measured thermophysical data. (Liquid + liquid) equilibrium in binary systems of isomeric C8 aliphatic monoethers with acetonitrile and its interpretation by the COSMO-SAC model
Source: J. Chem. Thermodyn., 2015, 10.1016/j.jct.2014.12.025
Compound 1: acetonitrile, C2H3N, purity 99.9%
Compound 2: dibutyl ether, C8H18O, purity 99%
Compound 3: heptyl methyl ether, C8H18O
Compound 4: ethyl hexyl ether, C8H18O
Compound 5: pentyl propyl ether, C8H18O
Compound 6: butyl isobutyl ether, C8H18O
Compound 7: isopentyl propyl ether, C8H18O

System: acetonitrile + dibutyl ether; phases: Liquid mixture 1, Liquid mixture 2
Fixed: Pressure, kPa = 100
Property: Liquid-liquid equilibrium temperature, K (Liquid mixture 1); method: Visual observation
Mole fraction of acetonitrile	Liquid-liquid equilibrium temperature, K	uncertainty
.2704	248	.2
.2925	251.3	.2
.3107	254.2	.1
.3276	256.59	.1
.364	261.04	.05
.4028	264.12	.05
.429	266.01	.05
.4578	267.86	.05
.5023	269.98	.05
.5215	271.32	.05
.5354	271.83	.05
.5705	272.7	.05
.6062	273.29	.05
.6416	273.37	.05
.6782	273.4	.05
.7085	273.4	.05
.7393	273.34	.05
.7759	272.75	.05
.8135	271.18	.05
.8505	267.64	.05
.8694	264.81	.1
.88782	260.89	.1
.8996	257.95	.1
.9093	253.67	.2
.91122	253.83	.2
.9179	250.36	.2
.9265	245.97	.2

System: acetonitrile + heptyl methyl ether; phases: Liquid mixture 1, Liquid mixture 2
Fixed: Pressure, kPa = 100
Property: Liquid-liquid equilibrium temperature, K (Liquid mixture 1); method: Visual observation
Mole fraction of acetonitrile	Liquid-liquid equilibrium temperature, K	uncertainty
.6086	235.59	.1
.6376	236.27	.1
.6489	236.64	.1
.6857	237.25	.2
.7178	237.38	.1
.7463	237.51	.1
.7747	237.47	.1
.7993	237.43	.1
.8275	236.81	.1
.8508	235.82	.1

System: acetonitrile + ethyl hexyl ether; phases: Liquid mixture 1, Liquid mixture 2
Fixed: Pressure, kPa = 100
Property: Liquid-liquid equilibrium temperature, K (Liquid mixture 1); method: Visual observation
Mole fraction of acetonitrile	Liquid-liquid equilibrium temperature, K	uncertainty
.357	236.43	.1
.3906	240.56	.1
.4301	244.81	.1
.4631	247.14	.05
.5006	249.33	.05
.5409	251.04	.05
.5762	252.15	.1
.5772	252.02	.05
.6155	252.95	.1
.6547	253.47	.05
.6865	253.91	.1
.7184	254.16	.05
.7515	253.99	.05
.7834	253.74	.05
.8115	253.16	.1
.8403	250.99	.1
.8592	249.15	.1
.87926	246.18	.1
.89451	242.59	.1
.90178	239.9	.1
.91058	236.73	.1
.91819	234.41	.1

System: acetonitrile + pentyl propyl ether; phases: Liquid mixture 1, Liquid mixture 2
Fixed: Pressure, kPa = 100
Property: Liquid-liquid equilibrium temperature, K (Liquid mixture 1); method: Visual observation
Mole fraction of acetonitrile	Liquid-liquid equilibrium temperature, K	uncertainty
.3031	251.65	.2
.3237	254.32	.2
.347	257.41	.1
.3639	259.33	.1
.3928	261.81	.05
.4243	264.21	.05
.4605	266.55	.05
.4967	268.27	.05
.5319	269.71	.05
.5649	270.09	.05
.5672	270.43	.05
.6086	270.94	.05
.645	271.28	.05
.682	271.46	.05
.718	271.51	.05
.754	271.37	.05
.7908	270.58	.05
.8256	268.72	.05
.85055	266.23	.05
.86919	263.38	.05
.88818	259.7	.1
.89867	257.09	.1
.90844	253.75	.1
.91653	250.68	.2
.92819	245.33	.2

System: acetonitrile + butyl isobutyl ether; phases: Liquid mixture 1, Liquid mixture 2
Fixed: Pressure, kPa = 100
Property: Liquid-liquid equilibrium temperature, K (Liquid mixture 1); method: Visual observation
Mole fraction of acetonitrile	Liquid-liquid equilibrium temperature, K	uncertainty
.2674	261.6	.1
.2953	265.44	.1
.3178	268.18	.05
.3368	270.26	.05
.3672	273.21	.05
.3974	275.68	.05
.4265	277.72	.05
.4642	279.82	.05
.4981	281.24	.05
.527	282.43	.05
.5481	283.37	.05
.5896	284.14	.05
.6255	284.49	.05
.6615	284.62	.05
.6985	284.68	.05
.7337	284.61	.05
.7682	284.13	.05
.798	283.1	.05
.8232	281.34	.05
.844	279.29	.05
.86386	276.36	.05
.87817	273.52	.05
.89189	270.26	.05
.90482	266.23	.1
.91767	261.46	.1

System: acetonitrile + isopentyl propyl ether; phases: Liquid mixture 1, Liquid mixture 2
Fixed: Pressure, kPa = 100
Property: Liquid-liquid equilibrium temperature, K (Liquid mixture 1); method: Visual observation
Mole fraction of acetonitrile	Liquid-liquid equilibrium temperature, K	uncertainty
.3155	251.47	.1
.3455	254.91	.1
.3733	257.77	.1
.3988	260.32	.05
.43	262.62	.05
.4574	264.55	.05
.4854	266.23	.05
.5184	267.6	.05
.5278	267.88	.05
.5653	268.62	.05
.608	269.29	.05
.6414	269.58	.05
.677	269.54	.05
.7176	269.54	.05
.7531	269.34	.05
.7873	268.39	.05
.8223	266.47	.1
.8434	264.44	.1
.86301	261.54	.1
.88007	258.22	.1
.8942	254.51	.1
.9044	250.97	.2
.91407	247.81	.2
