Measured thermophysical data. Physicochemical study of solute-solute and solute-solvent interactions of l-phenylalanine in (water + arabinose/glucose/sucrose) solutions at different temperatures
Source: J. Chem. Thermodyn., 2014, 10.1016/j.jct.2013.09.008
Compound 1: L-phenylalanine, C9H11NO2
Compound 2: L-arabinose, C5H10O5
Compound 3: glucose, C6H12O6
Compound 4: sucrose, C12H22O11
Compound 5: water, H2O

System: water; phases: Liquid
Property: Mass density, kg/m3 (Liquid); method: Pycnometric method
Temperature, K	Pressure, kPa	Mass density, kg/m3	uncertainty
293.15	101.325	998.24	
298.15	101.325	997.07	
303.15	101.325	995.68	
308.15	101.325	994.07	
313.15	101.325	992.25	
318.15	101.325	990.24	

System: water; phases: Liquid
Fixed: Frequency, MHz = 3
Property: Speed of sound, m/s (Liquid); method: Linear variable-path acoustic interferometer
Temperature, K	Pressure, kPa	Speed of sound, m/s	uncertainty
293.15	101.325	1483.6	1
298.15	101.325	1496.9	1
303.15	101.325	1508.4	1
308.15	101.325	1519.8	1
313.15	101.325	1526.8	1
318.15	101.325	1533	1

System: water; phases: Liquid
Property: Viscosity, Pa*s (Liquid); method: Capillary tube (Ostwald; Ubbelohde) method
Temperature, K	Pressure, kPa	Viscosity, Pa*s	uncertainty
298.15	101.325	.0008903	.000008903
303.15	101.325	.0007973	.000007973
308.15	101.325	.000719	.00000719
313.15	101.325	.0006526	.000006526
318.15	101.325	.0005972	.000005972

System: L-phenylalanine + L-arabinose + water; phases: Liquid
Fixed: Pressure, kPa = 101.325
Property: Mass density, kg/m3 (Liquid); method: Pycnometric method
Temperature, K	Solvent: Mass fraction of L-arabinose	Molality, mol/kg of L-phenylalanine	Mass density, kg/m3	uncertainty
293.15	.025	0	1007.35	
293.15	.025	.0249	1008.44	
293.15	.025	.0499	1009.54	
293.15	.025	.0749	1010.64	
293.15	.025	.0999	1011.75	
293.15	.025	.125	1012.85	
293.15	.025	.1499	1013.96	
298.15	.025	0	1005.77	
298.15	.025	.0249	1006.87	
298.15	.025	.0499	1007.97	
298.15	.025	.0749	1009.08	
298.15	.025	.0999	1010.18	
298.15	.025	.125	1011.3	
298.15	.025	.1499	1012.41	
303.15	.025	0	1004.18	
303.15	.025	.0249	1005.28	
303.15	.025	.0499	1006.38	
303.15	.025	.0749	1007.5	
303.15	.025	.0999	1008.61	
303.15	.025	.125	1009.72	
303.15	.025	.1499	1010.84	
308.15	.025	0	1002.6	
308.15	.025	.0249	1003.71	
308.15	.025	.0499	1004.81	
308.15	.025	.0749	1005.93	
308.15	.025	.0999	1007.05	
308.15	.025	.125	1008.16	
308.15	.025	.1499	1009.28	
313.15	.025	0	1001.01	
313.15	.025	.0249	1002.12	
313.15	.025	.0499	1003.24	
313.15	.025	.0749	1004.36	
313.15	.025	.0999	1005.48	
313.15	.025	.125	1006.6	
313.15	.025	.1499	1007.72	
318.15	.025	0	999.43	
318.15	.025	.0249	1000.55	
318.15	.025	.0499	1001.67	
318.15	.025	.0749	1002.8	
318.15	.025	.0999	1003.92	
318.15	.025	.125	1005.05	
318.15	.025	.1499	1006.18	
293.15	.05	0	1016.09	
293.15	.05	.0249	1017.13	
293.15	.05	.0499	1018.16	
293.15	.05	.0749	1019.2	
293.15	.05	.0999	1020.24	
293.15	.05	.125	1021.28	
293.15	.05	.1499	1022.32	
298.15	.05	0	1014.44	
298.15	.05	.0249	1015.48	
298.15	.05	.0499	1016.52	
298.15	.05	.0749	1017.57	
298.15	.05	.0999	1018.61	
298.15	.05	.125	1019.65	
298.15	.05	.1499	1020.7	
303.15	.05	0	1012.79	
303.15	.05	.0249	1013.84	
303.15	.05	.0499	1014.88	
303.15	.05	.0749	1015.93	
303.15	.05	.0999	1016.98	
303.15	.05	.125	1018.03	
303.15	.05	.1499	1019.08	
308.15	.05	0	1011.13	
308.15	.05	.0249	1012.18	
308.15	.05	.0499	1013.23	
308.15	.05	.0749	1014.29	
308.15	.05	.0999	1015.34	
308.15	.05	.125	1016.39	
308.15	.05	.1499	1017.45	
313.15	.05	0	1009.46	
313.15	.05	.0249	1010.52	
313.15	.05	.0499	1011.57	
313.15	.05	.0749	1012.63	
313.15	.05	.0999	1013.69	
313.15	.05	.125	1014.75	
313.15	.05	.1499	1015.81	
318.15	.05	0	1007.8	
318.15	.05	.0249	1008.86	
318.15	.05	.0499	1009.93	
318.15	.05	.0749	1010.99	
318.15	.05	.0999	1012.06	
318.15	.05	.125	1013.12	
318.15	.05	.1499	1014.19	

System: L-phenylalanine + L-arabinose + water; phases: Liquid
Fixed: Pressure, kPa = 101.325
Fixed: Frequency, MHz = 3
Property: Speed of sound, m/s (Liquid); method: Linear variable-path acoustic interferometer
Temperature, K	Solvent: Mass fraction of L-arabinose	Molality, mol/kg of L-phenylalanine	Speed of sound, m/s	uncertainty
293.15	.025	0	1491.4	1
293.15	.025	.025	1496.8	1
293.15	.025	.0499	1501.2	1
293.15	.025	.075	1504.4	1
293.15	.025	.0999	1506.5	1
293.15	.025	.1249	1507.4	1
293.15	.025	.15	1507.1	1
298.15	.025	0	1506.7	1
298.15	.025	.025	1511.9	1
298.15	.025	.0499	1516	1
298.15	.025	.075	1519	1
298.15	.025	.0999	1520.8	1
298.15	.025	.1249	1521.4	1
298.15	.025	.15	1520.8	1
303.15	.025	0	1517	1
303.15	.025	.025	1521.9	1
303.15	.025	.0499	1525.7	1
303.15	.025	.075	1528.4	1
303.15	.025	.0999	1529.9	1
303.15	.025	.1249	1530.1	1
303.15	.025	.15	1529.2	1
308.15	.025	0	1528.6	1
308.15	.025	.025	1533.1	1
308.15	.025	.0499	1536.6	1
308.15	.025	.075	1538.9	1
308.15	.025	.0999	1540.1	1
308.15	.025	.1249	1540	1
308.15	.025	.15	1538.9	1
313.15	.025	0	1536.8	1
313.15	.025	.025	1541	1
313.15	.025	.0499	1544.2	1
313.15	.025	.075	1546.1	1
313.15	.025	.0999	1546.9	1
313.15	.025	.1249	1546.4	1
313.15	.025	.15	1545	1
318.15	.025	0	1543.1	1
318.15	.025	.025	1546.8	1
318.15	.025	.0499	1549.4	1
318.15	.025	.075	1550.8	1
318.15	.025	.0999	1551	1
318.15	.025	.1249	1550.1	1
318.15	.025	.15	1547.8	1
293.15	.05	0	1502.3	1
293.15	.05	.025	1508	1
293.15	.05	.0499	1512.4	1
293.15	.05	.075	1515.8	1
293.15	.05	.0999	1517.8	1
293.15	.05	.1249	1518.6	1
293.15	.05	.15	1518.2	1
298.15	.05	0	1516.9	1
298.15	.05	.025	1522.4	1
298.15	.05	.0499	1526.6	1
298.15	.05	.075	1529.6	1
298.15	.05	.0999	1531.4	1
298.15	.05	.1249	1531.9	1
298.15	.05	.15	1531.1	1
303.15	.05	0	1526.8	1
303.15	.05	.025	1532	1
303.15	.05	.0499	1535.9	1
303.15	.05	.075	1538.7	1
303.15	.05	.0999	1540.1	1
303.15	.05	.1249	1540.4	1
303.15	.05	.15	1539.4	1
308.15	.05	0	1537.9	1
308.15	.05	.025	1542.6	1
308.15	.05	.0499	1546.2	1
308.15	.05	.075	1548.6	1
308.15	.05	.0999	1549.7	1
308.15	.05	.1249	1549.6	1
308.15	.05	.15	1548.4	1
313.15	.05	0	1545.7	1
313.15	.05	.025	1550.1	1
313.15	.05	.0499	1553.3	1
313.15	.05	.075	1555.3	1
313.15	.05	.0999	1555.9	1
313.15	.05	.1249	1555.4	1
313.15	.05	.15	1553.5	1
318.15	.05	0	1551.8	1
318.15	.05	.025	1555.6	1
318.15	.05	.0499	1558.3	1
318.15	.05	.075	1559.7	1
318.15	.05	.0999	1559.9	1
318.15	.05	.1249	1558.9	1
318.15	.05	.15	1556.6	1

System: L-phenylalanine + L-arabinose + water; phases: Liquid
Fixed: Pressure, kPa = 101.325
Property: Viscosity, Pa*s (Liquid); method: Capillary tube (Ostwald; Ubbelohde) method
Temperature, K	Solvent: Mass fraction of L-arabinose	Molality, mol/kg of L-phenylalanine	Viscosity, Pa*s	uncertainty
298.15	.025	0	.0009141	.000009141
298.15	.025	.0249	.0009283	.000009283
298.15	.025	.0498	.000941	.00000941
298.15	.025	.0749	.000955	.00000955
298.15	.025	.0999	.0009685	.000009685
298.15	.025	.125	.0009822	.000009822
298.15	.025	.1499	.0009955	.000009955
303.15	.025	0	.0008116	.000008116
303.15	.025	.0249	.0008233	.000008233
303.15	.025	.0498	.0008339	.000008339
303.15	.025	.0749	.0008454	.000008454
303.15	.025	.0999	.0008563	.000008563
303.15	.025	.125	.0008675	.000008675
303.15	.025	.1499	.0008787	.000008787
308.15	.025	0	.0007304	.000007304
308.15	.025	.0249	.00074	.0000074
308.15	.025	.0498	.0007488	.000007488
308.15	.025	.0749	.000758	.00000758
308.15	.025	.0999	.000767	.00000767
308.15	.025	.125	.0007758	.000007758
308.15	.025	.1499	.0007848	.000007848
313.15	.025	0	.0006591	.000006591
313.15	.025	.0249	.000667	.00000667
313.15	.025	.0498	.0006742	.000006742
313.15	.025	.0749	.0006818	.000006818
313.15	.025	.0999	.000689	.00000689
313.15	.025	.125	.0006965	.000006965
313.15	.025	.1499	.0007035	.000007035
318.15	.025	0	.0006006	.000006006
318.15	.025	.0249	.0006072	.000006072
318.15	.025	.0498	.0006133	.000006133
318.15	.025	.0749	.0006196	.000006196
318.15	.025	.0999	.0006255	.000006255
318.15	.025	.125	.0006315	.000006315
318.15	.025	.1499	.0006376	.000006376
298.15	.05	0	.0009695	.000009695
298.15	.05	.0249	.0009854	.000009854
298.15	.05	.0498	.0010011	.000010011
298.15	.05	.0749	.0010166	.000010166
298.15	.05	.0999	.0010319	.000010319
298.15	.05	.125	.001047	.00001047
298.15	.05	.1499	.0010619	.000010619
303.15	.05	0	.0008573	.000008573
303.15	.05	.0249	.0008704	.000008704
303.15	.05	.0498	.0008825	.000008825
303.15	.05	.0749	.0008948	.000008948
303.15	.05	.0999	.0009072	.000009072
303.15	.05	.125	.0009198	.000009198
303.15	.05	.1499	.0009318	.000009318
308.15	.05	0	.0007658	.000007658
308.15	.05	.0249	.0007764	.000007764
308.15	.05	.0498	.0007864	.000007864
308.15	.05	.0749	.0007964	.000007964
308.15	.05	.0999	.0008065	.000008065
308.15	.05	.125	.0008162	.000008162
308.15	.05	.1499	.000826	.00000826
313.15	.05	0	.000689	.00000689
313.15	.05	.0249	.0006978	.000006978
313.15	.05	.0498	.0007062	.000007062
313.15	.05	.0749	.0007146	.000007146
313.15	.05	.0999	.0007225	.000007225
313.15	.05	.125	.0007307	.000007307
313.15	.05	.1499	.0007387	.000007387
318.15	.05	0	.0006295	.000006295
318.15	.05	.0249	.0006369	.000006369
318.15	.05	.0498	.0006438	.000006438
318.15	.05	.0749	.0006508	.000006508
318.15	.05	.0999	.0006576	.000006576
318.15	.05	.125	.0006642	.000006642
318.15	.05	.1499	.0006705	.000006705

System: glucose + L-phenylalanine + water; phases: Liquid
Fixed: Pressure, kPa = 101.325
Property: Mass density, kg/m3 (Liquid); method: Pycnometric method
Temperature, K	Solvent: Mass fraction of glucose	Molality, mol/kg of L-phenylalanine	Mass density, kg/m3	uncertainty
293.15	.025	0	1007.26	
293.15	.025	.0249	1008.35	
293.15	.025	.0499	1009.43	
293.15	.025	.0749	1010.52	
293.15	.025	.0999	1011.61	
293.15	.025	.125	1012.7	
293.15	.025	.1499	1013.8	
298.15	.025	0	1005.91	
298.15	.025	.0249	1007	
298.15	.025	.0499	1008.09	
298.15	.025	.0749	1009.19	
298.15	.025	.0999	1010.28	
298.15	.025	.125	1011.38	
298.15	.025	.1499	1012.48	
303.15	.025	0	1004.61	
303.15	.025	.0249	1005.7	
303.15	.025	.0499	1006.79	
303.15	.025	.0749	1007.89	
303.15	.025	.0999	1008.99	
303.15	.025	.125	1010.09	
303.15	.025	.1499	1011.19	
308.15	.025	0	1003.21	
308.15	.025	.0249	1004.31	
308.15	.025	.0499	1005.4	
308.15	.025	.0749	1006.51	
308.15	.025	.0999	1007.61	
308.15	.025	.125	1008.71	
308.15	.025	.1499	1009.82	
313.15	.025	0	1001.61	
313.15	.025	.0249	1002.71	
313.15	.025	.0499	1003.82	
313.15	.025	.0749	1004.93	
313.15	.025	.0999	1006.03	
313.15	.025	.125	1007.14	
313.15	.025	.1499	1008.25	
318.15	.025	0	999.76	
318.15	.025	.0249	1000.87	
318.15	.025	.0499	1001.98	
318.15	.025	.0749	1003.1	
318.15	.025	.0999	1004.21	
318.15	.025	.125	1005.33	
318.15	.025	.1499	1006.45	
293.15	.05	0	1016.28	
293.15	.05	.0249	1017.31	
293.15	.05	.0499	1018.33	
293.15	.05	.0749	1019.37	
293.15	.05	.0999	1020.41	
293.15	.05	.125	1021.45	
293.15	.05	.1499	1022.5	
298.15	.05	0	1014.69	
298.15	.05	.0249	1015.72	
298.15	.05	.0499	1016.75	
298.15	.05	.0749	1017.8	
298.15	.05	.0999	1018.84	
298.15	.05	.125	1019.89	
298.15	.05	.1499	1020.94	
303.15	.05	0	1013.08	
303.15	.05	.0249	1014.11	
303.15	.05	.0499	1015.15	
303.15	.05	.0749	1016.2	
303.15	.05	.0999	1017.25	
303.15	.05	.125	1018.3	
303.15	.05	.1499	1019.36	
308.15	.05	0	1011.47	
308.15	.05	.0249	1012.51	
308.15	.05	.0499	1013.55	
308.15	.05	.0749	1014.6	
308.15	.05	.0999	1015.66	
308.15	.05	.125	1016.72	
308.15	.05	.1499	1017.78	
313.15	.05	0	1009.85	
313.15	.05	.0249	1010.9	
313.15	.05	.0499	1011.94	
313.15	.05	.0749	1013	
313.15	.05	.0999	1014.06	
313.15	.05	.125	1015.13	
313.15	.05	.1499	1016.19	
318.15	.05	0	1008.21	
318.15	.05	.0249	1009.26	
318.15	.05	.0499	1010.32	
318.15	.05	.0749	1011.38	
318.15	.05	.0999	1012.45	
318.15	.05	.125	1013.52	
318.15	.05	.1499	1014.59	

System: glucose + L-phenylalanine + water; phases: Liquid
Fixed: Pressure, kPa = 101.325
Fixed: Frequency, MHz = 3
Property: Speed of sound, m/s (Liquid); method: Linear variable-path acoustic interferometer
Temperature, K	Solvent: Mass fraction of glucose	Molality, mol/kg of L-phenylalanine	Speed of sound, m/s	uncertainty
293.15	.025	0	1492.9	1
293.15	.025	.025	1498.3	1
293.15	.025	.0499	1502.6	1
293.15	.025	.075	1505.9	1
293.15	.025	.0999	1508	1
293.15	.025	.1249	1509	1
293.15	.025	.15	1508.7	1
298.15	.025	0	1506.2	1
298.15	.025	.025	1511.4	1
298.15	.025	.0499	1515.5	1
298.15	.025	.075	1518.5	1
298.15	.025	.0999	1520.3	1
298.15	.025	.1249	1520.9	1
298.15	.025	.15	1520.3	1
303.15	.025	0	1517.4	1
303.15	.025	.025	1522.4	1
303.15	.025	.0499	1526.2	1
303.15	.025	.075	1528.9	1
303.15	.025	.0999	1530.5	1
303.15	.025	.1249	1531.1	1
303.15	.025	.15	1530.4	1
308.15	.025	0	1528.3	1
308.15	.025	.025	1532.9	1
308.15	.025	.0499	1536.3	1
308.15	.025	.075	1538.7	1
308.15	.025	.0999	1539.9	1
308.15	.025	.1249	1540	1
308.15	.025	.15	1538.8	1
313.15	.025	0	1536.9	1
313.15	.025	.025	1541.1	1
313.15	.025	.0499	1544.3	1
313.15	.025	.075	1546.2	1
313.15	.025	.0999	1546.9	1
313.15	.025	.1249	1546.4	1
313.15	.025	.15	1544.6	1
318.15	.025	0	1544.5	1
318.15	.025	.025	1548.2	1
318.15	.025	.0499	1550.8	1
318.15	.025	.075	1552.2	1
318.15	.025	.0999	1552.5	1
318.15	.025	.1249	1551.5	1
318.15	.025	.15	1549.2	1
293.15	.05	0	1499.7	1
293.15	.05	.025	1505	1
293.15	.05	.0499	1509.2	1
293.15	.05	.075	1512.3	1
293.15	.05	.0999	1514.3	1
293.15	.05	.1249	1515.1	1
293.15	.05	.15	1514.8	1
298.15	.05	0	1514.3	1
298.15	.05	.025	1519.4	1
298.15	.05	.0499	1523.4	1
298.15	.05	.075	1526.2	1
298.15	.05	.0999	1527.9	1
298.15	.05	.1249	1528.4	1
298.15	.05	.15	1527.7	1
303.15	.05	0	1525.1	1
303.15	.05	.025	1529.9	1
303.15	.05	.0499	1533.5	1
303.15	.05	.075	1536	1
303.15	.05	.0999	1537.2	1
303.15	.05	.1249	1537.1	1
303.15	.05	.15	1535.9	1
308.15	.05	0	1535.7	1
308.15	.05	.025	1540.1	1
308.15	.05	.0499	1543.4	1
308.15	.05	.075	1545.4	1
308.15	.05	.0999	1546.1	1
308.15	.05	.1249	1545.7	1
308.15	.05	.15	1543.9	1
313.15	.05	0	1545.6	1
313.15	.05	.025	1549.8	1
313.15	.05	.0499	1552.8	1
313.15	.05	.075	1554.6	1
313.15	.05	.0999	1555.1	1
313.15	.05	.1249	1554.5	1
313.15	.05	.15	1552.5	1
318.15	.05	0	1554.5	1
318.15	.05	.025	1558.2	1
318.15	.05	.0499	1560.8	1
318.15	.05	.075	1562.1	1
318.15	.05	.0999	1562.2	1
318.15	.05	.1249	1561	1
318.15	.05	.15	1558.7	1

System: glucose + L-phenylalanine + water; phases: Liquid
Fixed: Pressure, kPa = 101.325
Property: Viscosity, Pa*s (Liquid); method: Capillary tube (Ostwald; Ubbelohde) method
Temperature, K	Solvent: Mass fraction of glucose	Molality, mol/kg of L-phenylalanine	Viscosity, Pa*s	uncertainty
298.15	.025	0	.0009202	.000009202
298.15	.025	.0249	.000935	.00000935
298.15	.025	.0498	.0009494	.000009494
298.15	.025	.0749	.0009635	.000009635
298.15	.025	.0999	.0009785	.000009785
298.15	.025	.125	.0009921	.000009921
298.15	.025	.1499	.0010065	.000010065
303.15	.025	0	.0008167	.000008167
303.15	.025	.0249	.0008287	.000008287
303.15	.025	.0498	.0008398	.000008398
303.15	.025	.0749	.0008517	.000008517
303.15	.025	.0999	.0008631	.000008631
303.15	.025	.125	.0008741	.000008741
303.15	.025	.1499	.000885	.00000885
308.15	.025	0	.0007324	.000007324
308.15	.025	.0249	.0007427	.000007427
308.15	.025	.0498	.0007515	.000007515
308.15	.025	.0749	.000761	.00000761
308.15	.025	.0999	.0007703	.000007703
308.15	.025	.125	.0007799	.000007799
308.15	.025	.1499	.000789	.00000789
313.15	.025	0	.000661	.00000661
313.15	.025	.0249	.0006697	.000006697
313.15	.025	.0498	.000677	.00000677
313.15	.025	.0749	.0006845	.000006845
313.15	.025	.0999	.0006925	.000006925
313.15	.025	.125	.0007006	.000007006
313.15	.025	.1499	.0007081	.000007081
318.15	.025	0	.0006035	.000006035
318.15	.025	.0249	.0006108	.000006108
318.15	.025	.0498	.0006173	.000006173
318.15	.025	.0749	.0006236	.000006236
318.15	.025	.0999	.0006301	.000006301
318.15	.025	.125	.0006368	.000006368
318.15	.025	.1499	.0006431	.000006431
298.15	.05	0	.0009767	.000009767
298.15	.05	.0249	.0009932	.000009932
298.15	.05	.0498	.001009	.00001009
298.15	.05	.0749	.0010255	.000010255
298.15	.05	.0999	.001041	.00001041
298.15	.05	.125	.001057	.00001057
298.15	.05	.1499	.0010727	.000010727
303.15	.05	0	.0008605	.000008605
303.15	.05	.0249	.000874	.00000874
303.15	.05	.0498	.000887	.00000887
303.15	.05	.0749	.0008997	.000008997
303.15	.05	.0999	.000913	.00000913
303.15	.05	.125	.0009256	.000009256
303.15	.05	.1499	.0009385	.000009385
308.15	.05	0	.0007697	.000007697
308.15	.05	.0249	.0007808	.000007808
308.15	.05	.0498	.0007917	.000007917
308.15	.05	.0749	.0008021	.000008021
308.15	.05	.0999	.000813	.00000813
308.15	.05	.125	.0008231	.000008231
308.15	.05	.1499	.0008333	.000008333
313.15	.05	0	.0006945	.000006945
313.15	.05	.0249	.000704	.00000704
313.15	.05	.0498	.0007126	.000007126
313.15	.05	.0749	.0007215	.000007215
313.15	.05	.0999	.0007303	.000007303
313.15	.05	.125	.000739	.00000739
313.15	.05	.1499	.0007473	.000007473
318.15	.05	0	.0006334	.000006334
318.15	.05	.0249	.0006417	.000006417
318.15	.05	.0498	.0006489	.000006489
318.15	.05	.0749	.0006564	.000006564
318.15	.05	.0999	.0006641	.000006641
318.15	.05	.125	.0006717	.000006717
318.15	.05	.1499	.0006788	.000006788

System: sucrose + L-phenylalanine + water; phases: Liquid
Fixed: Pressure, kPa = 101.325
Property: Mass density, kg/m3 (Liquid); method: Pycnometric method
Temperature, K	Solvent: Mass fraction of sucrose	Molality, mol/kg of L-phenylalanine	Mass density, kg/m3	uncertainty
293.15	.025	0	1009.22	
293.15	.025	.0249	1010.28	
293.15	.025	.0499	1011.34	
293.15	.025	.0749	1012.41	
293.15	.025	.0999	1013.47	
293.15	.025	.125	1014.53	
293.15	.025	.1499	1015.6	
298.15	.025	0	1007.51	
298.15	.025	.0249	1008.58	
298.15	.025	.0499	1009.65	
298.15	.025	.0749	1010.71	
298.15	.025	.0999	1011.78	
298.15	.025	.125	1012.85	
298.15	.025	.1499	1013.93	
303.15	.025	0	1005.76	
303.15	.025	.0249	1006.83	
303.15	.025	.0499	1007.91	
303.15	.025	.0749	1008.98	
303.15	.025	.0999	1010.05	
303.15	.025	.125	1011.13	
303.15	.025	.1499	1012.21	
308.15	.025	0	1004.05	
308.15	.025	.0249	1005.13	
308.15	.025	.0499	1006.21	
308.15	.025	.0749	1007.29	
308.15	.025	.0999	1008.37	
308.15	.025	.125	1009.45	
308.15	.025	.1499	1010.53	
313.15	.025	0	1002.31	
313.15	.025	.0249	1003.4	
313.15	.025	.0499	1004.49	
313.15	.025	.0749	1005.57	
313.15	.025	.0999	1006.66	
313.15	.025	.125	1007.74	
313.15	.025	.1499	1008.83	
318.15	.025	0	1000.56	
318.15	.025	.0249	1001.66	
318.15	.025	.0499	1002.75	
318.15	.025	.0749	1003.85	
318.15	.025	.0999	1004.94	
318.15	.025	.125	1006.03	
318.15	.025	.1499	1007.13	
293.15	.05	0	1018.91	
293.15	.05	.0249	1019.9	
293.15	.05	.0499	1020.89	
293.15	.05	.0749	1021.88	
293.15	.05	.0999	1022.86	
293.15	.05	.125	1023.85	
293.15	.05	.1499	1024.84	
298.15	.05	0	1017.19	
298.15	.05	.0249	1018.19	
298.15	.05	.0499	1019.18	
298.15	.05	.0749	1020.18	
298.15	.05	.0999	1021.17	
298.15	.05	.125	1022.16	
298.15	.05	.1499	1023.15	
303.15	.05	0	1015.45	
303.15	.05	.0249	1016.45	
303.15	.05	.0499	1017.45	
303.15	.05	.0749	1018.45	
303.15	.05	.0999	1019.45	
303.15	.05	.125	1020.45	
303.15	.05	.1499	1021.45	
308.15	.05	0	1013.72	
308.15	.05	.0249	1014.73	
308.15	.05	.0499	1015.73	
308.15	.05	.0749	1016.75	
308.15	.05	.0999	1017.75	
308.15	.05	.125	1018.76	
308.15	.05	.1499	1019.76	
313.15	.05	0	1011.98	
313.15	.05	.0249	1013	
313.15	.05	.0499	1014.01	
313.15	.05	.0749	1015.03	
313.15	.05	.0999	1016.04	
313.15	.05	.125	1017.05	
313.15	.05	.1499	1018.06	
318.15	.05	0	1010.23	
318.15	.05	.0249	1011.26	
318.15	.05	.0499	1012.28	
318.15	.05	.0749	1013.3	
318.15	.05	.0999	1014.32	
318.15	.05	.125	1015.34	
318.15	.05	.1499	1016.36	

System: sucrose + L-phenylalanine + water; phases: Liquid
Fixed: Pressure, kPa = 101.325
Fixed: Frequency, MHz = 3
Property: Speed of sound, m/s (Liquid); method: Linear variable-path acoustic interferometer
Temperature, K	Solvent: Mass fraction of sucrose	Molality, mol/kg of L-phenylalanine	Speed of sound, m/s	uncertainty
293.15	.025	0	1497.2	1
293.15	.025	.025	1502.6	1
293.15	.025	.0499	1507	1
293.15	.025	.075	1510.3	1
293.15	.025	.0999	1512.4	1
293.15	.025	.1249	1513.4	1
293.15	.025	.15	1513.3	1
298.15	.025	0	1511.2	1
298.15	.025	.025	1516.4	1
298.15	.025	.0499	1520.5	1
298.15	.025	.075	1523.5	1
298.15	.025	.0999	1525.2	1
298.15	.025	.1249	1525.7	1
298.15	.025	.15	1525	1
303.15	.025	0	1521.5	1
303.15	.025	.025	1526.4	1
303.15	.025	.0499	1530.3	1
303.15	.025	.075	1532.9	1
303.15	.025	.0999	1534.3	1
303.15	.025	.1249	1534.3	1
303.15	.025	.15	1533.1	1
308.15	.025	0	1532.1	1
308.15	.025	.025	1536.6	1
308.15	.025	.0499	1540	1
308.15	.025	.075	1542.3	1
308.15	.025	.0999	1543.3	1
308.15	.025	.1249	1542.9	1
308.15	.025	.15	1541.3	1
313.15	.025	0	1542.5	1
313.15	.025	.025	1546.9	1
313.15	.025	.0499	1550	1
313.15	.025	.075	1551.8	1
313.15	.025	.0999	1552.4	1
313.15	.025	.1249	1551.7	1
313.15	.025	.15	1549.5	1
318.15	.025	0	1552	1
318.15	.025	.025	1555.8	1
318.15	.025	.0499	1558.4	1
318.15	.025	.075	1559.8	1
318.15	.025	.0999	1560	1
318.15	.025	.1249	1558.7	1
318.15	.025	.15	1556.3	1
293.15	.05	0	1501.4	1
293.15	.05	.025	1506.8	1
293.15	.05	.0499	1511	1
293.15	.05	.075	1514.4	1
293.15	.05	.0999	1516.5	1
293.15	.05	.1249	1517.4	1
293.15	.05	.15	1517.2	1
298.15	.05	0	1516.5	1
298.15	.05	.025	1521.7	1
298.15	.05	.0499	1525.8	1
298.15	.05	.075	1528.8	1
298.15	.05	.0999	1530.6	1
298.15	.05	.1249	1531.1	1
298.15	.05	.15	1530.6	1
303.15	.05	0	1526.6	1
303.15	.05	.025	1531.5	1
303.15	.05	.0499	1535.2	1
303.15	.05	.075	1537.8	1
303.15	.05	.0999	1539.2	1
303.15	.05	.1249	1539.2	1
303.15	.05	.15	1538.2	1
308.15	.05	0	1537.7	1
308.15	.05	.025	1542.2	1
308.15	.05	.0499	1545.6	1
308.15	.05	.075	1547.8	1
308.15	.05	.0999	1548.8	1
308.15	.05	.1249	1548.6	1
308.15	.05	.15	1547.3	1
313.15	.05	0	1547.7	1
313.15	.05	.025	1551.9	1
313.15	.05	.0499	1554.9	1
313.15	.05	.075	1556.7	1
313.15	.05	.0999	1557.2	1
313.15	.05	.1249	1556.5	1
313.15	.05	.15	1554.6	1
318.15	.05	0	1557.2	1
318.15	.05	.025	1560.9	1
318.15	.05	.0499	1563.5	1
318.15	.05	.075	1564.8	1
318.15	.05	.0999	1565	1
318.15	.05	.1249	1563.9	1
318.15	.05	.15	1561.6	1

System: sucrose + L-phenylalanine + water; phases: Liquid
Fixed: Pressure, kPa = 101.325
Property: Viscosity, Pa*s (Liquid); method: Capillary tube (Ostwald; Ubbelohde) method
Temperature, K	Solvent: Mass fraction of sucrose	Molality, mol/kg of L-phenylalanine	Viscosity, Pa*s	uncertainty
298.15	.025	0	.0009618	.000009618
298.15	.025	.0249	.0009784	.000009784
298.15	.025	.0498	.0009945	.000009945
298.15	.025	.0749	.001011	.00001011
298.15	.025	.0999	.0010264	.000010264
298.15	.025	.125	.0010422	.000010422
298.15	.025	.1499	.0010567	.000010567
303.15	.025	0	.0008761	.000008761
303.15	.025	.0249	.0008903	.000008903
303.15	.025	.0498	.0009039	.000009039
303.15	.025	.0749	.0009174	.000009174
303.15	.025	.0999	.0009302	.000009302
303.15	.025	.125	.0009434	.000009434
303.15	.025	.1499	.0009554	.000009554
308.15	.025	0	.0007969	.000007969
308.15	.025	.0249	.0008091	.000008091
308.15	.025	.0498	.0008207	.000008207
308.15	.025	.0749	.0008316	.000008316
308.15	.025	.0999	.0008426	.000008426
308.15	.025	.125	.0008534	.000008534
308.15	.025	.1499	.0008631	.000008631
313.15	.025	0	.0007057	.000007057
313.15	.025	.0249	.0007158	.000007158
313.15	.025	.0498	.0007254	.000007254
313.15	.025	.0749	.0007341	.000007341
313.15	.025	.0999	.0007428	.000007428
313.15	.025	.125	.0007519	.000007519
313.15	.025	.1499	.0007598	.000007598
318.15	.025	0	.0006624	.000006624
318.15	.025	.0249	.0006716	.000006716
318.15	.025	.0498	.0006795	.000006795
318.15	.025	.0749	.0006869	.000006869
318.15	.025	.0999	.0006948	.000006948
318.15	.025	.125	.0007024	.000007024
318.15	.025	.1499	.0007099	.000007099
298.15	.05	0	.001011	.00001011
298.15	.05	.0249	.00103	.0000103
298.15	.05	.0498	.0010468	.000010468
298.15	.05	.0749	.001064	.00001064
298.15	.05	.0999	.001081	.00001081
298.15	.05	.125	.0010995	.000010995
298.15	.05	.1499	.001117	.00001117
303.15	.05	0	.0009129	.000009129
303.15	.05	.0249	.000929	.00000929
303.15	.05	.0498	.0009431	.000009431
303.15	.05	.0749	.0009574	.000009574
303.15	.05	.0999	.0009716	.000009716
303.15	.05	.125	.0009865	.000009865
303.15	.05	.1499	.0010012	.000010012
308.15	.05	0	.0008285	.000008285
308.15	.05	.0249	.0008422	.000008422
308.15	.05	.0498	.0008542	.000008542
308.15	.05	.0749	.0008662	.000008662
308.15	.05	.0999	.000878	.00000878
308.15	.05	.125	.0008905	.000008905
308.15	.05	.1499	.0009025	.000009025
313.15	.05	0	.0007457	.000007457
313.15	.05	.0249	.0007573	.000007573
313.15	.05	.0498	.0007678	.000007678
313.15	.05	.0749	.0007776	.000007776
313.15	.05	.0999	.0007878	.000007878
313.15	.05	.125	.0007981	.000007981
313.15	.05	.1499	.000808	.00000808
318.15	.05	0	.0006946	.000006946
318.15	.05	.0249	.0007049	.000007049
318.15	.05	.0498	.0007139	.000007139
318.15	.05	.0749	.0007227	.000007227
318.15	.05	.0999	.0007315	.000007315
318.15	.05	.125	.0007405	.000007405
318.15	.05	.1499	.000749	.00000749

System: L-phenylalanine + water; phases: Liquid
Fixed: Pressure, kPa = 101.325
Property: Mass density, kg/m3 (Liquid); method: Pycnometric method
Temperature, K	Molality, mol/kg of L-phenylalanine	Mass density, kg/m3	uncertainty
293.15	0	998.24	
293.15	.0249	999.4	
293.15	.0498	1000.55	
293.15	.0749	1001.71	
293.15	.0999	1002.88	
293.15	.125	1004.04	
293.15	.1499	1005.2	
298.15	0	997.07	
298.15	.0249	998.23	
298.15	.0498	999.39	
298.15	.0749	1000.55	
298.15	.0999	1001.72	
298.15	.125	1002.88	
298.15	.1499	1004.05	
303.15	0	995.68	
303.15	.0249	996.84	
303.15	.0498	998	
303.15	.0749	999.17	
303.15	.0999	1000.34	
303.15	.125	1001.51	
303.15	.1499	1002.68	
308.15	0	994.07	
308.15	.0249	995.24	
308.15	.0498	996.4	
308.15	.0749	997.58	
308.15	.0999	998.75	
308.15	.125	999.92	
308.15	.1499	1001.09	
313.15	0	992.25	
313.15	.0249	993.43	
313.15	.0498	994.6	
313.15	.0749	995.78	
313.15	.0999	996.96	
313.15	.125	998.14	
313.15	.1499	999.32	
318.15	0	990.24	
318.15	.0249	991.43	
318.15	.0498	992.61	
318.15	.0749	993.8	
318.15	.0999	994.98	
318.15	.125	996.17	
318.15	.1499	997.36	

System: L-phenylalanine + water; phases: Liquid
Fixed: Pressure, kPa = 101.325
Fixed: Frequency, MHz = 3
Property: Speed of sound, m/s (Liquid); method: Linear variable-path acoustic interferometer
Temperature, K	Molality, mol/kg of L-phenylalanine	Speed of sound, m/s	uncertainty
293.15	0	1483.6	1
293.15	.0249	1488.8	1
293.15	.0498	1493	1
293.15	.0749	1496.2	1
293.15	.0999	1498.3	1
293.15	.125	1499.4	1
293.15	.1499	1499.4	1
298.15	0	1496.9	1
298.15	.0249	1501.9	1
298.15	.0498	1505.9	1
298.15	.0749	1509	1
298.15	.0999	1511	1
298.15	.125	1512	1
298.15	.1499	1511.9	1
303.15	0	1508.4	1
303.15	.0249	1513.1	1
303.15	.0498	1516.8	1
303.15	.0749	1519.5	1
303.15	.0999	1521.2	1
303.15	.125	1521.8	1
303.15	.1499	1521.3	1
308.15	0	1519.8	1
308.15	.0249	1524.1	1
308.15	.0498	1527.4	1
308.15	.0749	1529.8	1
308.15	.0999	1531.1	1
308.15	.125	1531.4	1
308.15	.1499	1530.6	1
313.15	0	1526.8	1
313.15	.0249	1530.8	1
313.15	.0498	1533.8	1
313.15	.0749	1535.8	1
313.15	.0999	1536.8	1
313.15	.125	1536.7	1
313.15	.1499	1535.7	1
318.15	0	1533	1
318.15	.0249	1536.5	1
318.15	.0498	1539.1	1
318.15	.0749	1540.8	1
318.15	.0999	1541.5	1
318.15	.125	1541.3	1
318.15	.1499	1540	1

System: L-phenylalanine + water; phases: Liquid
Fixed: Pressure, kPa = 101.325
Property: Viscosity, Pa*s (Liquid); method: Capillary tube (Ostwald; Ubbelohde) method
Temperature, K	Molality, mol/kg of L-phenylalanine	Viscosity, Pa*s	uncertainty
298.15	0	.0008903	.000008903
298.15	.0249	.0009038	.000009038
298.15	.0498	.0009168	.000009168
298.15	.0749	.0009299	.000009299
298.15	.0999	.0009431	.000009431
298.15	.125	.0009561	.000009561
298.15	.1499	.0009691	.000009691
303.15	0	.0007973	.000007973
303.15	.0249	.0008083	.000008083
303.15	.0498	.000819	.00000819
303.15	.0749	.0008294	.000008294
303.15	.0999	.0008399	.000008399
303.15	.125	.0008505	.000008505
303.15	.1499	.0008605	.000008605
308.15	0	.000719	.00000719
308.15	.0249	.0007285	.000007285
308.15	.0498	.0007372	.000007372
308.15	.0749	.0007462	.000007462
308.15	.0999	.0007545	.000007545
308.15	.125	.0007635	.000007635
308.15	.1499	.0007722	.000007722
313.15	0	.0006526	.000006526
313.15	.0249	.0006607	.000006607
313.15	.0498	.000668	.00000668
313.15	.0749	.0006749	.000006749
313.15	.0999	.000682	.00000682
313.15	.125	.0006897	.000006897
313.15	.1499	.0006968	.000006968
318.15	0	.0005972	.000005972
318.15	.0249	.000604	.00000604
318.15	.0498	.0006102	.000006102
318.15	.0749	.000616	.00000616
318.15	.0999	.000622	.00000622
318.15	.125	.0006285	.000006285
318.15	.1499	.0006346	.000006346

System: L-arabinose + water; phases: Liquid
Property: Mass density, kg/m3 (Liquid); method: Pycnometric method
Temperature, K	Mass fraction of L-arabinose	Pressure, kPa	Mass density, kg/m3	uncertainty
293.15	.025	101.325	1007.35	
298.15	.025	101.325	1005.77	
303.15	.025	101.325	1004.18	
308.15	.025	101.325	1002.6	
313.15	.025	101.325	1001.01	
318.15	.025	101.325	999.43	
293.15	.05	101.325	1016.09	
298.15	.05	101.325	1014.44	
303.15	.05	101.325	1012.79	
308.15	.05	101.325	1011.13	
313.15	.05	101.325	1009.46	
318.15	.05	101.325	1007.8	

System: L-arabinose + water; phases: Liquid
Fixed: Frequency, MHz = 3
Property: Speed of sound, m/s (Liquid); method: Linear variable-path acoustic interferometer
Temperature, K	Mass fraction of L-arabinose	Pressure, kPa	Speed of sound, m/s	uncertainty
293.15	.025	101.325	1491.4	1
298.15	.025	101.325	1506.7	1
303.15	.025	101.325	1517	1
308.15	.025	101.325	1528.6	1
313.15	.025	101.325	1536.8	1
318.15	.025	101.325	1543.1	1
293.15	.05	101.325	1502.3	1
298.15	.05	101.325	1516.9	1
303.15	.05	101.325	1526.8	1
308.15	.05	101.325	1537.9	1
313.15	.05	101.325	1545.7	1
318.15	.05	101.325	1551.8	1

System: L-arabinose + water; phases: Liquid
Property: Viscosity, Pa*s (Liquid); method: Capillary tube (Ostwald; Ubbelohde) method
Temperature, K	Mass fraction of L-arabinose	Pressure, kPa	Viscosity, Pa*s	uncertainty
298.15	.025	101.325	.0009141	.000009141
303.15	.025	101.325	.0008116	.000008116
308.15	.025	101.325	.0007304	.000007304
313.15	.025	101.325	.0006591	.000006591
318.15	.025	101.325	.0006006	.000006006
298.15	.05	101.325	.0009695	.000009695
303.15	.05	101.325	.0008573	.000008573
308.15	.05	101.325	.0007658	.000007658
313.15	.05	101.325	.000689	.00000689
318.15	.05	101.325	.0006295	.000006295

System: glucose + water; phases: Liquid
Property: Mass density, kg/m3 (Liquid); method: Pycnometric method
Temperature, K	Mass fraction of glucose	Pressure, kPa	Mass density, kg/m3	uncertainty
293.15	.025	101.325	1007.26	
298.15	.025	101.325	1005.91	
303.15	.025	101.325	1004.61	
308.15	.025	101.325	1003.21	
313.15	.025	101.325	1001.61	
318.15	.025	101.325	999.76	
293.15	.05	101.325	1016.28	
298.15	.05	101.325	1014.69	
303.15	.05	101.325	1013.08	
308.15	.05	101.325	1011.47	
313.15	.05	101.325	1009.85	
318.15	.05	101.325	1008.21	

System: glucose + water; phases: Liquid
Fixed: Frequency, MHz = 3
Property: Speed of sound, m/s (Liquid); method: Linear variable-path acoustic interferometer
Temperature, K	Mass fraction of glucose	Pressure, kPa	Speed of sound, m/s	uncertainty
293.15	.025	101.325	1492.9	1
298.15	.025	101.325	1506.2	1
303.15	.025	101.325	1517.4	1
308.15	.025	101.325	1528.3	1
313.15	.025	101.325	1536.9	1
318.15	.025	101.325	1544.5	1
293.15	.05	101.325	1499.7	1
298.15	.05	101.325	1514.3	1
303.15	.05	101.325	1525.1	1
308.15	.05	101.325	1535.7	1
313.15	.05	101.325	1545.6	1
318.15	.05	101.325	1554.5	1

System: glucose + water; phases: Liquid
Property: Viscosity, Pa*s (Liquid); method: Capillary tube (Ostwald; Ubbelohde) method
Temperature, K	Mass fraction of glucose	Pressure, kPa	Viscosity, Pa*s	uncertainty
298.15	.025	101.325	.0009202	.000009202
303.15	.025	101.325	.0008167	.000008167
308.15	.025	101.325	.0007324	.000007324
313.15	.025	101.325	.000661	.00000661
318.15	.025	101.325	.0006035	.000006035
298.15	.05	101.325	.0009767	.000009767
303.15	.05	101.325	.0008605	.000008605
308.15	.05	101.325	.0007697	.000007697
313.15	.05	101.325	.0006945	.000006945
318.15	.05	101.325	.0006334	.000006334

System: sucrose + water; phases: Liquid
Property: Mass density, kg/m3 (Liquid); method: Pycnometric method
Temperature, K	Mass fraction of sucrose	Pressure, kPa	Mass density, kg/m3	uncertainty
293.15	.025	101.325	1009.22	
298.15	.025	101.325	1007.51	
303.15	.025	101.325	1005.76	
308.15	.025	101.325	1004.05	
313.15	.025	101.325	1002.31	
318.15	.025	101.325	1000.56	
293.15	.05	101.325	1018.91	
298.15	.05	101.325	1017.19	
303.15	.05	101.325	1015.45	
308.15	.05	101.325	1013.72	
313.15	.05	101.325	1011.98	
318.15	.05	101.325	1010.23	

System: sucrose + water; phases: Liquid
Fixed: Frequency, MHz = 3
Property: Speed of sound, m/s (Liquid); method: Linear variable-path acoustic interferometer
Temperature, K	Mass fraction of sucrose	Pressure, kPa	Speed of sound, m/s	uncertainty
293.15	.025	101.325	1497.2	1
298.15	.025	101.325	1511.2	1
303.15	.025	101.325	1521.5	1
308.15	.025	101.325	1532.1	1
313.15	.025	101.325	1542.5	1
318.15	.025	101.325	1552	1
293.15	.05	101.325	1501.4	1
298.15	.05	101.325	1516.5	1
303.15	.05	101.325	1526.6	1
308.15	.05	101.325	1537.7	1
313.15	.05	101.325	1547.7	1
318.15	.05	101.325	1557.2	1

System: sucrose + water; phases: Liquid
Property: Viscosity, Pa*s (Liquid); method: Capillary tube (Ostwald; Ubbelohde) method
Temperature, K	Mass fraction of sucrose	Pressure, kPa	Viscosity, Pa*s	uncertainty
298.15	.025	101.325	.0009618	.000009618
303.15	.025	101.325	.0008761	.000008761
308.15	.025	101.325	.0007969	.000007969
313.15	.025	101.325	.0007057	.000007057
318.15	.025	101.325	.0006624	.000006624
298.15	.05	101.325	.001011	.00001011
303.15	.05	101.325	.0009129	.000009129
308.15	.05	101.325	.0008285	.000008285
313.15	.05	101.325	.0007457	.000007457
318.15	.05	101.325	.0006946	.000006946
