Measured thermophysical data. Solubility of some phenolic compounds in aqueous alkali metal nitrate  solutions from (293.15 to 318.15) K
Source: J. Chem. Thermodyn., 2008, 10.1016/j.jct.2008.06.006
Compound 1: gallic acid, C7H6O5, purity 98%
Compound 2: syringic acid, C9H10O5, purity 98%
Compound 3: 3,4-dihydroxybenzoic acid, C7H6O2, purity 97%
Compound 4: 4-hydroxy-3-methoxybenzoic acid, C8H8O4, purity 98.5%
Compound 5: sodium nitrate, NNaO3, purity 99%
Compound 6: potassium nitrate, KNO3, purity 99%
Compound 7: water, H2O

System: 3,4-dihydroxybenzoic acid + water + potassium nitrate; phases: Liquid, Crystal
Fixed: Temperature, K = 298.15
Fixed: Pressure, kPa = 101
Property: Molality, mol/kg of 3,4-dihydroxybenzoic acid (Liquid); method: HPLC
Solvent: Molality, mol/kg of potassium nitrate	Molality, mol/kg of 3,4-dihydroxybenzoic acid	uncertainty
.5	.1203	
1	.1169	
1.5	.1147	
2	.1127	
2.5	.1116	
3	.1104	
3.5	.1095	

System: 3,4-dihydroxybenzoic acid + sodium nitrate + water; phases: Liquid, Crystal
Fixed: Temperature, K = 298.15
Fixed: Pressure, kPa = 101
Property: Molality, mol/kg of 3,4-dihydroxybenzoic acid (Liquid); method: HPLC
Solvent: Molality, mol/kg of sodium nitrate	Molality, mol/kg of 3,4-dihydroxybenzoic acid	uncertainty
.5	.1152	
1	.1075	
1.5	.1016	
2	.0976	
2.5	.0949	
3	.0927	
3.5	.092	

System: syringic acid + water + potassium nitrate; phases: Liquid, Crystal
Fixed: Temperature, K = 298.15
Fixed: Pressure, kPa = 101
Property: Molality, mol/kg of syringic acid (Liquid); method: HPLC
Solvent: Molality, mol/kg of potassium nitrate	Molality, mol/kg of syringic acid	uncertainty
.5	.028	
1	.0271	
1.5	.0265	
2	.026	
2.5	.0255	
3	.0252	

System: syringic acid + sodium nitrate + water; phases: Liquid, Crystal
Fixed: Temperature, K = 298.15
Fixed: Pressure, kPa = 101
Property: Molality, mol/kg of syringic acid (Liquid); method: HPLC
Solvent: Molality, mol/kg of sodium nitrate	Molality, mol/kg of syringic acid	uncertainty
.5	.0266	
1	.0251	
1.5	.0242	
2	.0234	
2.5	.0227	
3	.0224	

System: gallic acid + water + potassium nitrate; phases: Liquid, Crystal
Fixed: Temperature, K = 298.15
Fixed: Pressure, kPa = 101
Property: Molality, mol/kg of gallic acid (Liquid); method: HPLC
Solvent: Molality, mol/kg of potassium nitrate	Molality, mol/kg of gallic acid	uncertainty
.5	.0656	
1	.064	
1.5	.0623	
2	.0613	
2.5	.06	
3	.0591	

System: gallic acid + sodium nitrate + water; phases: Liquid, Crystal
Fixed: Temperature, K = 298.15
Fixed: Pressure, kPa = 101
Property: Molality, mol/kg of gallic acid (Liquid); method: HPLC
Solvent: Molality, mol/kg of sodium nitrate	Molality, mol/kg of gallic acid	uncertainty
.5	.0622	
1	.0572	
1.5	.0554	
2	.0534	
2.5	.0527	
3	.0522	

System: 4-hydroxy-3-methoxybenzoic acid + water + potassium nitrate; phases: Liquid, Crystal
Fixed: Temperature, K = 298.15
Fixed: Pressure, kPa = 101
Property: Molality, mol/kg of 4-hydroxy-3-methoxybenzoic acid (Liquid); method: HPLC
Solvent: Molality, mol/kg of potassium nitrate	Molality, mol/kg of 4-hydroxy-3-methoxybenzoic acid	uncertainty
.5	.0079	
1	.0071	
1.5	.0065	
2	.0062	
2.5	.0061	
3	.006	
3.5	.0059	

System: 4-hydroxy-3-methoxybenzoic acid + sodium nitrate + water; phases: Liquid, Crystal
Fixed: Temperature, K = 298.15
Fixed: Pressure, kPa = 101
Property: Molality, mol/kg of 4-hydroxy-3-methoxybenzoic acid (Liquid); method: HPLC
Solvent: Molality, mol/kg of sodium nitrate	Molality, mol/kg of 4-hydroxy-3-methoxybenzoic acid	uncertainty
.5	.0074	
1	.006	
1.5	.0057	
2	.0054	
2.5	.0051	
3	.005	
3.5	.0049	
