Measured thermophysical data. Thermodynamics of the interactions of some amino acids and peptides with dodecyltrimethylammonium bromide and tetradecyltrimethylammonium bromide
Source: J. Chem. Thermodyn., 2014, 10.1016/j.jct.2013.11.001
Compound 1: glycine, C2H5NO2, purity 99%
Compound 2: DL-alanine, C3H7NO2, purity 99%
Compound 3: DL-2-aminobutanoic acid, C4H9NO2, purity 99%
Compound 4: L-valine, C5H11NO2, purity 98%
Compound 5: L-leucine, C6H13NO2, purity 98%
Compound 6: glycylglycine, C4H8N2O3, purity 99%
Compound 7: glycylglycylglycine, C6H11N3O4, purity 99%
Compound 8: glycyl-L-leucine, C8H16N2O3, purity 99%
Compound 9: dodecyltrimethylammonium bromide, C15H34BrN, purity 98%
Compound 10: tetradecyltrimethylammonium bromide, C17H38BrN, purity 98%
Compound 11: water, H2O

System: glycine + dodecyltrimethylammonium bromide + water; phases: Liquid
Fixed: Pressure, kPa = 101
Fixed: Temperature, K = 298.15
Fixed: Solvent: Amount concentration (molarity), mol/dm3 of dodecyltrimethylammonium bromide = .1
Property: Mass density, kg/m3 (Liquid); method: Vibrating tube method
Molality, mol/kg of glycine	Mass density, kg/m3	uncertainty
0	998.566	.05
.062325	1000.546	.05
.115522	1002.246	.05
.149686	1003.288	.05
.199754	1004.861	.05
.248939	1006.399	.05
.29447	1007.763	.05
.350129	1009.458	.05
.388371	1010.617	.05

System: glycine + dodecyltrimethylammonium bromide + water; phases: Liquid
Fixed: Pressure, kPa = 101
Fixed: Temperature, K = 298.15
Fixed: Solvent: Amount concentration (molarity), mol/dm3 of dodecyltrimethylammonium bromide = .1
Property: Speed of sound, m/s (Liquid); method: Sing-around technique in a fixed-path interferometer
Molality, mol/kg of glycine	Speed of sound, m/s	uncertainty
0	1502.03	.5
.062325	1505.32	.5
.115522	1508.11	.5
.149686	1509.78	.5
.199754	1512.38	.5
.248939	1514.9	.5
.29447	1517.13	.5
.350129	1519.9	.5
.388371	1521.82	.5

System: DL-alanine + dodecyltrimethylammonium bromide + water; phases: Liquid
Fixed: Pressure, kPa = 101
Fixed: Temperature, K = 298.15
Fixed: Solvent: Amount concentration (molarity), mol/dm3 of dodecyltrimethylammonium bromide = .1
Property: Mass density, kg/m3 (Liquid); method: Vibrating tube method
Molality, mol/kg of DL-alanine	Mass density, kg/m3	uncertainty
0	998.599	.05
.05149	1000.063	.05
.102639	1001.534	.05
.148375	1002.824	.05
.188264	1003.91	.05
.238364	1005.363	.05
.266292	1006.094	.05
.331613	1007.876	.05
.384148	1009.298	.05

System: DL-alanine + dodecyltrimethylammonium bromide + water; phases: Liquid
Fixed: Pressure, kPa = 101
Fixed: Temperature, K = 298.15
Fixed: Solvent: Amount concentration (molarity), mol/dm3 of dodecyltrimethylammonium bromide = .1
Property: Speed of sound, m/s (Liquid); method: Sing-around technique in a fixed-path interferometer
Molality, mol/kg of DL-alanine	Speed of sound, m/s	uncertainty
0	1502.03	.5
.05149	1505.45	.5
.102639	1508.71	.5
.148375	1511.69	.5
.188264	1514.04	.5
.238364	1517.38	.5
.266292	1519.12	.5
.331613	1523.2	.5
.384148	1526.49	.5

System: dodecyltrimethylammonium bromide + DL-2-aminobutanoic acid + water; phases: Liquid
Fixed: Pressure, kPa = 101
Fixed: Temperature, K = 298.15
Fixed: Solvent: Amount concentration (molarity), mol/dm3 of dodecyltrimethylammonium bromide = .1
Property: Mass density, kg/m3 (Liquid); method: Vibrating tube method
Molality, mol/kg of DL-2-aminobutanoic acid	Mass density, kg/m3	uncertainty
0	998.583	.05
.04597307	999.834	.05
.09283975	1001.125	.05
.234577	1004.919	.05
.286551	1006.3	.05
.358463	1008.198	.05
.401065	1009.345	.05

System: dodecyltrimethylammonium bromide + DL-2-aminobutanoic acid + water; phases: Liquid
Fixed: Pressure, kPa = 101
Fixed: Temperature, K = 298.15
Fixed: Solvent: Amount concentration (molarity), mol/dm3 of dodecyltrimethylammonium bromide = .1
Property: Speed of sound, m/s (Liquid); method: Sing-around technique in a fixed-path interferometer
Molality, mol/kg of DL-2-aminobutanoic acid	Speed of sound, m/s	uncertainty
0	1502.01	.5
.04597307	1505.77	.5
.09283975	1509.45	.5
.234577	1520.61	.5
.286551	1524.66	.5
.358463	1530.27	.5
.401065	1533.76	.5

System: L-valine + dodecyltrimethylammonium bromide + water; phases: Liquid
Fixed: Pressure, kPa = 101
Fixed: Temperature, K = 298.15
Fixed: Solvent: Amount concentration (molarity), mol/dm3 of dodecyltrimethylammonium bromide = .1
Property: Mass density, kg/m3 (Liquid); method: Vibrating tube method
Molality, mol/kg of L-valine	Mass density, kg/m3	uncertainty
0	998.571	.05
.009572	998.83	.05
.013865	998.947	.05
.018555	999.066	.05
.024757	999.23	.05
.028584	999.334	.05
.035193	999.514	.05
.037906	999.578	.05
.038863	999.599	.05
.046364	999.788	.05

System: L-valine + dodecyltrimethylammonium bromide + water; phases: Liquid
Fixed: Pressure, kPa = 101
Fixed: Temperature, K = 298.15
Fixed: Solvent: Amount concentration (molarity), mol/dm3 of dodecyltrimethylammonium bromide = .1
Property: Speed of sound, m/s (Liquid); method: Sing-around technique in a fixed-path interferometer
Molality, mol/kg of L-valine	Speed of sound, m/s	uncertainty
0	1502.01	.5
.009572	1503.01	.5
.013865	1503.44	.5
.018555	1503.88	.5
.024757	1504.49	.5
.028584	1504.85	.5
.035193	1505.5	.5
.037906	1505.73	.5
.038863	1505.82	.5
.046364	1506.5	.5

System: L-leucine + dodecyltrimethylammonium bromide + water; phases: Liquid
Fixed: Pressure, kPa = 101
Fixed: Temperature, K = 298.15
Fixed: Solvent: Amount concentration (molarity), mol/dm3 of dodecyltrimethylammonium bromide = .1
Property: Mass density, kg/m3 (Liquid); method: Vibrating tube method
Molality, mol/kg of L-leucine	Mass density, kg/m3	uncertainty
0	998.581	.05
.009718	998.818	.05
.011553	998.86	.05
.019738	999.056	.05
.025322	999.191	.05
.029529	999.294	.05
.035362	999.425	.05
.037118	999.464	.05
.039769	999.529	.05
.051242	999.783	.05

System: L-leucine + dodecyltrimethylammonium bromide + water; phases: Liquid
Fixed: Pressure, kPa = 101
Fixed: Temperature, K = 298.15
Fixed: Solvent: Amount concentration (molarity), mol/dm3 of dodecyltrimethylammonium bromide = .1
Property: Speed of sound, m/s (Liquid); method: Sing-around technique in a fixed-path interferometer
Molality, mol/kg of L-leucine	Speed of sound, m/s	uncertainty
0	1502	.5
.009718	1503.15	.5
.011553	1503.37	.5
.019738	1504.24	.5
.025322	1504.9	.5
.029529	1505.37	.5
.035362	1506.07	.5
.037118	1506.19	.5
.039769	1506.53	.5
.051242	1507.73	.5

System: glycylglycine + dodecyltrimethylammonium bromide + water; phases: Liquid
Fixed: Pressure, kPa = 101
Fixed: Temperature, K = 298.15
Fixed: Solvent: Amount concentration (molarity), mol/dm3 of dodecyltrimethylammonium bromide = .1
Property: Mass density, kg/m3 (Liquid); method: Vibrating tube method
Molality, mol/kg of glycylglycine	Mass density, kg/m3	uncertainty
0	998.567	.05
.015009	999.408	.05
.023643	999.887	.05
.027564	1000.106	.05
.034389	1000.484	.05
.04058	1000.827	.05
.044263	1001.027	.05
.044806	1001.053	.05

System: glycylglycine + dodecyltrimethylammonium bromide + water; phases: Liquid
Fixed: Pressure, kPa = 101
Fixed: Temperature, K = 298.15
Fixed: Solvent: Amount concentration (molarity), mol/dm3 of dodecyltrimethylammonium bromide = .1
Property: Speed of sound, m/s (Liquid); method: Sing-around technique in a fixed-path interferometer
Molality, mol/kg of glycylglycine	Speed of sound, m/s	uncertainty
0	1501.99	.5
.015009	1503.3	.5
.023643	1503.98	.5
.027564	1504.33	.5
.034389	1504.86	.5
.04058	1505.35	.5
.044263	1505.62	.5
.044806	1505.69	.5

System: glycylglycylglycine + dodecyltrimethylammonium bromide + water; phases: Liquid
Fixed: Pressure, kPa = 101
Fixed: Temperature, K = 298.15
Fixed: Solvent: Amount concentration (molarity), mol/dm3 of dodecyltrimethylammonium bromide = .1
Property: Mass density, kg/m3 (Liquid); method: Vibrating tube method
Molality, mol/kg of glycylglycylglycine	Mass density, kg/m3	uncertainty
0	998.56	.05
.009989	999.34	.05
.020174	1000.128	.05
.024839	1000.491	.05
.027443	1000.676	.05
.032097	1001.032	.05
.037272	1001.415	.05
.044683	1001.973	.05

System: glycylglycylglycine + dodecyltrimethylammonium bromide + water; phases: Liquid
Fixed: Pressure, kPa = 101
Fixed: Temperature, K = 298.15
Fixed: Solvent: Amount concentration (molarity), mol/dm3 of dodecyltrimethylammonium bromide = .1
Property: Speed of sound, m/s (Liquid); method: Sing-around technique in a fixed-path interferometer
Molality, mol/kg of glycylglycylglycine	Speed of sound, m/s	uncertainty
0	1502.04	.5
.009989	1503.02	.5
.020174	1504.07	.5
.024839	1504.55	.5
.027443	1504.75	.5
.032097	1505.25	.5
.037272	1505.75	.5
.044683	1506.51	.5

System: glycyl-L-leucine + dodecyltrimethylammonium bromide + water; phases: Liquid
Fixed: Pressure, kPa = 101
Fixed: Temperature, K = 298.15
Fixed: Solvent: Amount concentration (molarity), mol/dm3 of dodecyltrimethylammonium bromide = .1
Property: Mass density, kg/m3 (Liquid); method: Vibrating tube method
Molality, mol/kg of glycyl-L-leucine	Mass density, kg/m3	uncertainty
0	998.571	.05
.015183	999.317	.05
.019485	999.519	.05
.026192	999.848	.05
.030156	1000.039	.05
.03401	1000.233	.05
.041243	1000.571	.05
.049533	1000.966	.05
.052819	1001.117	.05

System: glycyl-L-leucine + dodecyltrimethylammonium bromide + water; phases: Liquid
Fixed: Pressure, kPa = 101
Fixed: Temperature, K = 298.15
Fixed: Solvent: Amount concentration (molarity), mol/dm3 of dodecyltrimethylammonium bromide = .1
Property: Speed of sound, m/s (Liquid); method: Sing-around technique in a fixed-path interferometer
Molality, mol/kg of glycyl-L-leucine	Speed of sound, m/s	uncertainty
0	1502.02	.5
.015183	1504.2	.5
.019485	1504.81	.5
.026192	1505.8	.5
.030156	1506.35	.5
.03401	1506.94	.5
.041243	1507.9	.5
.049533	1509.07	.5
.052819	1509.58	.5

System: glycine + tetradecyltrimethylammonium bromide + water; phases: Liquid
Fixed: Pressure, kPa = 101
Fixed: Temperature, K = 298.15
Fixed: Solvent: Amount concentration (molarity), mol/dm3 of tetradecyltrimethylammonium bromide = .1
Property: Mass density, kg/m3 (Liquid); method: Vibrating tube method
Molality, mol/kg of glycine	Mass density, kg/m3	uncertainty
0	998.003	.05
.077621	1000.46	.05
.101018	1001.21	.05
.146965	1002.637	.05
.201525	1004.327	.05
.2501	1005.823	.05
.296155	1007.244	.05
.349998	1008.881	.05
.379875	1009.782	.05

System: glycine + tetradecyltrimethylammonium bromide + water; phases: Liquid
Fixed: Pressure, kPa = 101
Fixed: Temperature, K = 298.15
Fixed: Solvent: Amount concentration (molarity), mol/dm3 of tetradecyltrimethylammonium bromide = .1
Property: Speed of sound, m/s (Liquid); method: Sing-around technique in a fixed-path interferometer
Molality, mol/kg of glycine	Speed of sound, m/s	uncertainty
0	1499.52	.5
.077621	1503.62	.5
.101018	1504.84	.5
.146965	1507.23	.5
.201525	1510.02	.5
.2501	1512.5	.5
.296155	1514.86	.5
.349998	1517.58	.5
.379875	1519.1	.5

System: DL-alanine + tetradecyltrimethylammonium bromide + water; phases: Liquid
Fixed: Pressure, kPa = 101
Fixed: Temperature, K = 298.15
Fixed: Solvent: Amount concentration (molarity), mol/dm3 of tetradecyltrimethylammonium bromide = .1
Property: Mass density, kg/m3 (Liquid); method: Vibrating tube method
Molality, mol/kg of DL-alanine	Mass density, kg/m3	uncertainty
0	997.999	.05
.048682	999.413	.05
.105686	1001.034	.05
.14775	1002.213	.05
.204684	1003.818	.05
.238147	1004.731	.05
.296209	1006.332	.05
.348248	1007.725	.05
.390669	1008.867	.05

System: DL-alanine + tetradecyltrimethylammonium bromide + water; phases: Liquid
Fixed: Pressure, kPa = 101
Fixed: Temperature, K = 298.15
Fixed: Solvent: Amount concentration (molarity), mol/dm3 of tetradecyltrimethylammonium bromide = .1
Property: Speed of sound, m/s (Liquid); method: Sing-around technique in a fixed-path interferometer
Molality, mol/kg of DL-alanine	Speed of sound, m/s	uncertainty
0	1499.5	.5
.048682	1502.75	.5
.105686	1506.48	.5
.14775	1509.16	.5
.204684	1512.89	.5
.238147	1514.93	.5
.296209	1518.62	.5
.348248	1521.86	.5
.390669	1524.49	.5

System: tetradecyltrimethylammonium bromide + DL-2-aminobutanoic acid + water; phases: Liquid
Fixed: Pressure, kPa = 101
Fixed: Temperature, K = 298.15
Fixed: Solvent: Amount concentration (molarity), mol/dm3 of tetradecyltrimethylammonium bromide = .1
Property: Mass density, kg/m3 (Liquid); method: Vibrating tube method
Molality, mol/kg of DL-2-aminobutanoic acid	Mass density, kg/m3	uncertainty
0	998.004	.05
.049263	999.373	.05
.094362	1000.617	.05
.158379	1002.35	.05
.200965	1003.497	.05
.248019	1004.749	.05
.294183	1005.971	.05
.313747	1006.493	.05
.390877	1008.485	.05

System: tetradecyltrimethylammonium bromide + DL-2-aminobutanoic acid + water; phases: Liquid
Fixed: Pressure, kPa = 101
Fixed: Temperature, K = 298.15
Fixed: Solvent: Amount concentration (molarity), mol/dm3 of tetradecyltrimethylammonium bromide = .1
Property: Speed of sound, m/s (Liquid); method: Sing-around technique in a fixed-path interferometer
Molality, mol/kg of DL-2-aminobutanoic acid	Speed of sound, m/s	uncertainty
0	1499.51	.5
.049263	1503.56	.5
.094362	1507.23	.5
.158379	1512.34	.5
.200965	1515.72	.5
.248019	1519.42	.5
.294183	1523.02	.5
.313747	1524.57	.5
.390877	1530.52	.5

System: L-valine + tetradecyltrimethylammonium bromide + water; phases: Liquid
Fixed: Pressure, kPa = 101
Fixed: Temperature, K = 298.15
Fixed: Solvent: Amount concentration (molarity), mol/dm3 of tetradecyltrimethylammonium bromide = .1
Property: Mass density, kg/m3 (Liquid); method: Vibrating tube method
Molality, mol/kg of L-valine	Mass density, kg/m3	uncertainty
0	998.001	.05
.010044	998.259	.05
.019318	998.526	.05
.026152	998.707	.05
.030586	998.824	.05
.035304	998.947	.05
.03919	999.055	.05
.045867	999.237	.05
.048623	999.308	.05

System: L-valine + tetradecyltrimethylammonium bromide + water; phases: Liquid
Fixed: Pressure, kPa = 101
Fixed: Temperature, K = 298.15
Fixed: Solvent: Amount concentration (molarity), mol/dm3 of tetradecyltrimethylammonium bromide = .1
Property: Speed of sound, m/s (Liquid); method: Sing-around technique in a fixed-path interferometer
Molality, mol/kg of L-valine	Speed of sound, m/s	uncertainty
0	1499.52	.5
.010044	1500.65	.5
.019318	1501.36	.5
.026152	1502.09	.5
.030586	1502.51	.5
.035304	1502.99	.5
.03919	1503.37	.5
.045867	1504.06	.5
.048623	1504.32	.5

System: L-leucine + tetradecyltrimethylammonium bromide + water; phases: Liquid
Fixed: Pressure, kPa = 101
Fixed: Temperature, K = 298.15
Fixed: Solvent: Amount concentration (molarity), mol/dm3 of tetradecyltrimethylammonium bromide = .1
Property: Mass density, kg/m3 (Liquid); method: Vibrating tube method
Molality, mol/kg of L-leucine	Mass density, kg/m3	uncertainty
0	998.004	.05
.011792	998.27	.05
.015338	998.362	.05
.020513	998.499	.05
.025111	998.603	.05
.029729	998.707	.05
.035052	998.83	.05
.041323	998.979	.05
.047543	999.11	.05
.049946	999.179	.05

System: L-leucine + tetradecyltrimethylammonium bromide + water; phases: Liquid
Fixed: Pressure, kPa = 101
Fixed: Temperature, K = 298.15
Fixed: Solvent: Amount concentration (molarity), mol/dm3 of tetradecyltrimethylammonium bromide = .1
Property: Speed of sound, m/s (Liquid); method: Sing-around technique in a fixed-path interferometer
Molality, mol/kg of L-leucine	Speed of sound, m/s	uncertainty
0	1499.53	.5
.011792	1500.83	.5
.015338	1501.3	.5
.020513	1501.95	.5
.025111	1502.43	.5
.029729	1502.89	.5
.035052	1503.46	.5
.041323	1504.18	.5
.047543	1504.8	.5
.049946	1505.13	.5

System: glycylglycine + tetradecyltrimethylammonium bromide + water; phases: Liquid
Fixed: Pressure, kPa = 101
Fixed: Temperature, K = 298.15
Fixed: Solvent: Amount concentration (molarity), mol/dm3 of tetradecyltrimethylammonium bromide = .1
Property: Mass density, kg/m3 (Liquid); method: Vibrating tube method
Molality, mol/kg of glycylglycine	Mass density, kg/m3	uncertainty
0	998.014	.05
.011157	998.635	.05
.014691	998.835	.05
.020653	999.165	.05
.024919	999.4	.05
.030445	999.708	.05
.035134	999.973	.05
.040232	1000.256	.05

System: glycylglycine + tetradecyltrimethylammonium bromide + water; phases: Liquid
Fixed: Pressure, kPa = 101
Fixed: Temperature, K = 298.15
Fixed: Solvent: Amount concentration (molarity), mol/dm3 of tetradecyltrimethylammonium bromide = .1
Property: Speed of sound, m/s (Liquid); method: Sing-around technique in a fixed-path interferometer
Molality, mol/kg of glycylglycine	Speed of sound, m/s	uncertainty
0	1499.54	.5
.011157	1500.48	.5
.014691	1500.77	.5
.020653	1501.25	.5
.024919	1501.6	.5
.030445	1502.08	.5
.035134	1502.46	.5
.040232	1502.93	.5

System: glycylglycylglycine + tetradecyltrimethylammonium bromide + water; phases: Liquid
Fixed: Pressure, kPa = 101
Fixed: Temperature, K = 298.15
Fixed: Solvent: Amount concentration (molarity), mol/dm3 of tetradecyltrimethylammonium bromide = .1
Property: Mass density, kg/m3 (Liquid); method: Vibrating tube method
Molality, mol/kg of glycylglycylglycine	Mass density, kg/m3	uncertainty
0	998.007	.05
.010554	998.832	.05
.019517	999.539	.05
.024527	999.92	.05
.030215	1000.36	.05
.034942	1000.718	.05
.038236	1000.967	.05
.041784	1001.232	.05
.049552	1001.826	.05

System: glycylglycylglycine + tetradecyltrimethylammonium bromide + water; phases: Liquid
Fixed: Pressure, kPa = 101
Fixed: Temperature, K = 298.15
Fixed: Solvent: Amount concentration (molarity), mol/dm3 of tetradecyltrimethylammonium bromide = .1
Property: Speed of sound, m/s (Liquid); method: Sing-around technique in a fixed-path interferometer
Molality, mol/kg of glycylglycylglycine	Speed of sound, m/s	uncertainty
0	1499.52	.5
.010554	1500.59	.5
.019517	1501.54	.5
.024527	1502.15	.5
.030215	1502.61	.5
.034942	1503.1	.5
.038236	1503.4	.5
.041784	1503.75	.5
.049552	1504.59	.5

System: glycyl-L-leucine + tetradecyltrimethylammonium bromide + water; phases: Liquid
Fixed: Pressure, kPa = 101
Fixed: Temperature, K = 298.15
Fixed: Solvent: Amount concentration (molarity), mol/dm3 of tetradecyltrimethylammonium bromide = .1
Property: Mass density, kg/m3 (Liquid); method: Vibrating tube method
Molality, mol/kg of glycyl-L-leucine	Mass density, kg/m3	uncertainty
0	997.994	.05
.009815	998.479	.05
.015638	998.764	.05
.018438	998.901	.05
.028688	999.398	.05
.036637	999.773	.05
.041762	1000.008	.05
.043685	1000.097	.05
.051989	1000.49	.05

System: glycyl-L-leucine + tetradecyltrimethylammonium bromide + water; phases: Liquid
Fixed: Pressure, kPa = 101
Fixed: Temperature, K = 298.15
Fixed: Solvent: Amount concentration (molarity), mol/dm3 of tetradecyltrimethylammonium bromide = .1
Property: Speed of sound, m/s (Liquid); method: Sing-around technique in a fixed-path interferometer
Molality, mol/kg of glycyl-L-leucine	Speed of sound, m/s	uncertainty
0	1499.48	.5
.009815	1500.88	.5
.015638	1501.74	.5
.018438	1502.19	.5
.028688	1503.6	.5
.036637	1504.79	.5
.041762	1505.51	.5
.043685	1505.68	.5
.051989	1506.92	.5

System: dodecyltrimethylammonium bromide + water; phases: Liquid
Property: Mass density, kg/m3 (Liquid); method: Vibrating tube method
Pressure, kPa	Temperature, K	Amount concentration (molarity), mol/dm3 of dodecyltrimethylammonium bromide	Mass density, kg/m3	uncertainty
101	298.15	.1	998.575	.05

System: dodecyltrimethylammonium bromide + water; phases: Liquid
Property: Speed of sound, m/s (Liquid); method: Sing-around technique in a fixed-path interferometer
Pressure, kPa	Temperature, K	Amount concentration (molarity), mol/dm3 of dodecyltrimethylammonium bromide	Speed of sound, m/s	uncertainty
101	298.15	.1	1502.02	.5

System: tetradecyltrimethylammonium bromide + water; phases: Liquid
Property: Mass density, kg/m3 (Liquid); method: Vibrating tube method
Pressure, kPa	Temperature, K	Amount concentration (molarity), mol/dm3 of tetradecyltrimethylammonium bromide	Mass density, kg/m3	uncertainty
101	298.15	.1	998.003	.05

System: tetradecyltrimethylammonium bromide + water; phases: Liquid
Property: Speed of sound, m/s (Liquid); method: Sing-around technique in a fixed-path interferometer
Pressure, kPa	Temperature, K	Amount concentration (molarity), mol/dm3 of tetradecyltrimethylammonium bromide	Speed of sound, m/s	uncertainty
101	298.15	.1	1499.51	.5
