Measured thermophysical data. Thermophysical, acoustic and optical properties of binary mixtures of imidazolium based ionic liquids + polyethylene glycol
Source: J. Chem. Thermodyn., 2016, 10.1016/j.jct.2016.02.025
Compound 1: 1-butyl-3-methylimidazolium bromide, C8H15BrN2, purity 97.0%
Compound 2: 1-hexyl-3-methylimidazolium bromide, C10H19BrN2, purity 98.5%
Compound 3: 1-octyl-3-methylimidazolium bromide, C12H23BrN2, purity 98.2%

System: 1-butyl-3-methylimidazolium bromide; phases: Liquid
Property: Mass density, kg/m3 (Liquid); method: Vibrating tube method
Pressure, kPa	Temperature, K	Mass density, kg/m3	uncertainty
100	293.15	1293.445	
100	298.15	1290.021	
100	303.15	1286.586	
100	308.15	1283.161	
100	313.15	1279.72	
100	318.15	1276.278	
100	323.15	1272.842	

System: 1-butyl-3-methylimidazolium bromide; phases: Liquid
Fixed: Frequency, MHz = 3
Property: Speed of sound, m/s (Liquid); method: Sing-around technique in a fixed-path interferometer
Pressure, kPa	Temperature, K	Speed of sound, m/s	uncertainty
100	293.15	1675.19	
100	298.15	1665.65	
100	303.15	1655.98	
100	308.15	1646.03	
100	313.15	1636.08	
100	318.15	1626.68	
100	323.15	1616.85	

System: 1-butyl-3-methylimidazolium bromide; phases: Liquid
Property: Refractive index (Na D-line) (Liquid); method: Standard Abbe refractometry
Pressure, kPa	Temperature, K	Refractive index (Na D-line)	uncertainty
100	293.15	1.54699	
100	298.15	1.54575	
100	303.15	1.54445	
100	308.15	1.54312	
100	313.15	1.54186	
100	318.15	1.54052	
100	323.15	1.53928	

System: 1-hexyl-3-methylimidazolium bromide; phases: Liquid
Property: Mass density, kg/m3 (Liquid); method: Vibrating tube method
Pressure, kPa	Temperature, K	Mass density, kg/m3	uncertainty
100	293.15	1227.463	
100	298.15	1223.736	
100	303.15	1220.312	
100	308.15	1216.695	
100	313.15	1213.051	
100	318.15	1209.415	
100	323.15	1205.583	

System: 1-hexyl-3-methylimidazolium bromide; phases: Liquid
Fixed: Frequency, MHz = 3
Property: Speed of sound, m/s (Liquid); method: Sing-around technique in a fixed-path interferometer
Pressure, kPa	Temperature, K	Speed of sound, m/s	uncertainty
100	293.15	1609.12	
100	298.15	1588.12	
100	303.15	1570.41	
100	308.15	1552.28	
100	313.15	1534.38	
100	318.15	1517.38	
100	323.15	1500.01	

System: 1-hexyl-3-methylimidazolium bromide; phases: Liquid
Property: Refractive index (Na D-line) (Liquid); method: Standard Abbe refractometry
Pressure, kPa	Temperature, K	Refractive index (Na D-line)	uncertainty
100	293.15	1.51183	
100	298.15	1.50982	
100	303.15	1.50796	
100	308.15	1.50612	
100	313.15	1.50427	
100	318.15	1.50232	
100	323.15	1.50047	

System: 1-octyl-3-methylimidazolium bromide; phases: Liquid
Property: Mass density, kg/m3 (Liquid); method: Vibrating tube method
Pressure, kPa	Temperature, K	Mass density, kg/m3	uncertainty
100	293.15	1179.3	
100	298.15	1175.689	
100	303.15	1172.081	
100	308.15	1168.537	
100	313.15	1165.037	
100	318.15	1161.518	
100	323.15	1157.988	

System: 1-octyl-3-methylimidazolium bromide; phases: Liquid
Fixed: Frequency, MHz = 3
Property: Speed of sound, m/s (Liquid); method: Sing-around technique in a fixed-path interferometer
Pressure, kPa	Temperature, K	Speed of sound, m/s	uncertainty
100	293.15	1481.82	
100	298.15	1467.64	
100	303.15	1454.33	
100	308.15	1441.4	
100	313.15	1428.83	
100	318.15	1416.52	
100	323.15	1404.42	

System: 1-octyl-3-methylimidazolium bromide; phases: Liquid
Property: Refractive index (Na D-line) (Liquid); method: Standard Abbe refractometry
Pressure, kPa	Temperature, K	Refractive index (Na D-line)	uncertainty
100	293.15	1.498	
100	298.15	1.49656	
100	303.15	1.49502	
100	308.15	1.49347	
100	313.15	1.49176	
100	318.15	1.49008	
100	323.15	1.48842	
