Measured thermophysical data. Enthalpy of solution of alpha- and beta-cyclodextrin in water and in some organic solvents
Source: J. Chem. Thermodyn., 2014, 10.1016/j.jct.2013.10.004
Compound 1: DMF, C3H7NO, purity 99.5%
Compound 2: DMSO, C2H6OS, purity 99.5%
Compound 3: ethanol, C2H6O, purity 99.5%
Compound 4: .alpha.-cyclodextrin, C36H60O30, purity 99.5%
Compound 5: .beta.-cyclodextrin, C42H70O35, purity 99.5%
Compound 6: water, H2O
Compound 7: urea, CH4N2O, purity 99.5%
Compound 8: glycine, C2H5NO2, purity 99.5%

System: water + .alpha.-cyclodextrin; phases: Liquid
Fixed: Pressure, kPa = 101
Fixed: Temperature, K = 298.15
Property: Molar enthalpy of solution, kJ/mol (Liquid); method: Isoperibol calorimetry
Molality, mol/kg of .alpha.-cyclodextrin	Molar enthalpy of solution, kJ/mol	uncertainty
.00021	-61.06	-.6106
.0002128	-58.05	-.5805
.0002213	-62.68	-.6268
.0002291	-58.28	-.5828
.0002368	-58.03	-.5803
.0002469	-60.06	-.6006
.0002529	-59.26	-.5926
.000263	-59.1	-.591

System: .beta.-cyclodextrin + water; phases: Liquid
Fixed: Pressure, kPa = 101
Fixed: Temperature, K = 298.15
Property: Molar enthalpy of solution, kJ/mol (Liquid); method: Isoperibol calorimetry
Molality, mol/kg of .beta.-cyclodextrin	Molar enthalpy of solution, kJ/mol	uncertainty
.0002131	-72.77	-.7277
.0002136	-72.77	-.7277
.0002515	-72.78	-.7278
.0002535	-72.81	-.7281
.0002581	-72.85	-.7285
.0002694	-72.85	-.7285
.0002797	-72.8	-.728
.0003536	-72.86	-.7286

System: DMF + .beta.-cyclodextrin; phases: Liquid
Fixed: Pressure, kPa = 101
Fixed: Temperature, K = 298.15
Property: Molar enthalpy of solution, kJ/mol (Liquid); method: Isoperibol calorimetry
Molality, mol/kg of .beta.-cyclodextrin	Molar enthalpy of solution, kJ/mol	uncertainty
.0001846	-127.4	-1.274
.0001973	-124.5	-1.245
.0002121	-124.9	-1.249
.0002181	-127.9	-1.279
.0002335	-126.5	-1.265
.0002353	-128.4	-1.284
.0003009	-124.6	-1.246
.0003291	-127.4	-1.274

System: DMSO + .beta.-cyclodextrin; phases: Liquid
Fixed: Pressure, kPa = 101
Fixed: Temperature, K = 298.15
Property: Molar enthalpy of solution, kJ/mol (Liquid); method: Isoperibol calorimetry
Molality, mol/kg of .beta.-cyclodextrin	Molar enthalpy of solution, kJ/mol	uncertainty
.000189	-155.1	-1.551
.0001913	-155.6	-1.556
.0002311	-155.9	-1.559
.000233	-153.9	-1.539
.0002454	-153.9	-1.539
.0002576	-154.5	-1.545
.0002853	-155.3	-1.553
.0003311	-153	-1.53

System: ethanol + .beta.-cyclodextrin + water; phases: Liquid
Fixed: Pressure, kPa = 101
Fixed: Temperature, K = 298.15
Property: Molar enthalpy of solution, kJ/mol (Liquid); method: Isoperibol calorimetry
Solvent: Molality, mol/kg of ethanol	Molality, mol/kg of .beta.-cyclodextrin	Molar enthalpy of solution, kJ/mol	uncertainty
1	.0001726	-66.12	-.6612
1	.0001862	-65.33	-.6533
1	.0001909	-66.68	-.6668
1	.0002029	-66.34	-.6634
2.41	.000168	-60.57	-.6057
2.41	.0001698	-59.99	-.5999
2.41	.0001899	-60.26	-.6026
2.41	.000452	-56.94	-.5694
5.43	.0001657	-47.97	-.4797
5.43	.0001723	-50.31	-.5031
5.43	.0001739	-48.66	-.4866
5.43	.0001788	-51.52	-.5152
5.43	.0001872	-50.17	-.5017
9.3	.000161	-49.99	-.4999
9.3	.0001769	-50.35	-.5035
9.3	.0001868	-48.5	-.485
9.3	.0001926	-49.8	-.498
9.3	.0002217	-50.88	-.5088
1.64	.0001634	-62	-.62
1.64	.0002346	-62.6	-.626
1.64	.000232	-63.85	-.6385
1.64	.0003517	-60.77	-.6077
4	.0001672	-53.02	-.5302
4	.0001804	-53.85	-.5385
4	.0001879	-53.33	-.5333
4	.0002367	-52.98	-.5298
7.24	.0001736	-48.13	-.4813
7.24	.0001821	-47.17	-.4717
7.24	.0002634	-46.64	-.4664
7.24	.0002461	-47.23	-.4723
7.24	.0003599	-47.3	-.473

System: urea + water; phases: Liquid
Fixed: Pressure, kPa = 101
Fixed: Temperature, K = 298.15
Property: Molar enthalpy of solution, kJ/mol (Liquid); method: Isoperibol calorimetry
Mole fraction of urea	Molar enthalpy of solution, kJ/mol	uncertainty
0	15.25	.1525

System: glycine + water; phases: Liquid
Fixed: Pressure, kPa = 101
Fixed: Temperature, K = 298.15
Property: Molar enthalpy of solution, kJ/mol (Liquid); method: Isoperibol calorimetry
Mole fraction of glycine	Molar enthalpy of solution, kJ/mol	uncertainty
0	14.23	.1423
