Measured thermophysical data. Separation of aromatic hydrocarbons (toluene or benzene) from aliphatic hydrocarbon (n-heptane) by extraction with ethylene carbonate
Source: J. Chem. Thermodyn., 2010, 10.1016/j.jct.2010.05.004
Compound 1: ethylene carbonate, C3H4O3, purity 99%
Compound 2: toluene, C7H8, purity 99%
Compound 3: benzene, C6H6, purity 99%
Compound 4: heptane, C7H16, purity 99%

System: benzene + ethylene carbonate + heptane; phases: Liquid mixture 1, Liquid mixture 2
Fixed: Pressure, kPa = 101.325
Property: Mole fraction of ethylene carbonate (Liquid mixture 1); method: Chromatography
Property: Mole fraction of ethylene carbonate (Liquid mixture 2); method: Chromatography
Property: Mole fraction of benzene (Liquid mixture 2); method: Chromatography
Temperature, K	Mole fraction of benzene	Mole fraction of ethylene carbonate	uncertainty	Mole fraction of ethylene carbonate	uncertainty	Mole fraction of benzene	uncertainty
303.15	.7029	.0917	.001	.6302	.001	.3545	.001
303.15	.6882	.0584	.001	.6787	.001	.3076	.001
303.15	.5881	.0204	.001	.7748	.001	.2161	.001
303.15	.5155	.0124	.001	.834	.001	.1585	.001
303.15	.472	.0112	.001	.8597	.001	.1341	.001
313.15	.684	.1111	.001	.6302	.001	.3545	.001
313.15	.6775	.0732	.001	.6787	.001	.3076	.001
313.15	.5709	.0276	.001	.7748	.001	.2161	.001
313.15	.5089	.0207	.001	.834	.001	.1585	.001
313.15	.4656	.018	.001	.8597	.001	.1341	.001

System: ethylene carbonate + toluene + heptane; phases: Liquid mixture 1, Liquid mixture 2
Fixed: Pressure, kPa = 101.325
Property: Mole fraction of toluene (Liquid mixture 1); method: Chromatography
Property: Mole fraction of ethylene carbonate (Liquid mixture 2); method: Chromatography
Property: Mole fraction of toluene (Liquid mixture 2); method: Chromatography
Temperature, K	Mole fraction of ethylene carbonate	Mole fraction of toluene	uncertainty	Mole fraction of ethylene carbonate	uncertainty	Mole fraction of toluene	uncertainty
303.15	.1592	.7629	.001	.6087	.001	.3807	.001
303.15	.0442	.8033	.001	.7231	.001	.2695	.001
303.15	.0217	.7608	.001	.7979	.001	.1966	.001
303.15	.0275	.7142	.001	.8259	.001	.1686	.001
303.15	.0169	.6791	.001	.8564	.001	.1389	.001
303.15	.0079	.588	.001	.8973	.001	.0987	.001
313.15	.2374	.7172	.001	.5472	.001	.4388	.001
313.15	.132	.7603	.001	.6561	.001	.3336	.001
313.15	.0545	.7486	.001	.7622	.001	.2296	.001
313.15	.0345	.7007	.001	.802	.001	.1906	.001
313.15	.0267	.6595	.001	.8249	.001	.1672	.001
313.15	.0158	.5788	.001	.8624	.001	.1307	.001
