Measured thermophysical data. Physicochemical properties of (1-butyl-1-methylpyrrolydinium dicyanamide + .gamma.-butyrolactone) binary mixtures
Source: J. Chem. Thermodyn., 2015, 10.1016/j.jct.2015.08.014
Compound 1: 1-butyl-1-methylpyrrolidinium dicyanamide, C11H20N4, purity 98%
Compound 2: .gamma.-butyrolactone, C4H6O2, purity 99%

System: 1-butyl-1-methylpyrrolidinium dicyanamide; phases: Liquid
Fixed: Pressure, kPa = 101.325
Property: Mass density, kg/m3 (Liquid); method: Vibrating tube method
Temperature, K	Mass density, kg/m3	uncertainty
273.15	1027.694	4.110776
278.15	1024.821	4.099284
283.15	1021.962	4.087848
288.15	1019.114	4.076456
293.15	1016.277	4.065108
298.15	1013.449	4.053796
303.15	1010.638	4.042552
308.15	1007.84	4.03136
313.15	1005.058	4.020232
318.15	1002.285	4.00914
323.15	999.525	3.9981
328.15	996.781	3.987124
333.15	994.049	3.976196

System: 1-butyl-1-methylpyrrolidinium dicyanamide; phases: Liquid
Fixed: Pressure, kPa = 101.325
Property: Viscosity, Pa*s (Liquid); method: Capillary tube (Ostwald; Ubbelohde) method
Temperature, K	Viscosity, Pa*s	uncertainty
273.15	.09395	.0009395
278.15	.07427	.0007427
283.15	.0596	.000596
288.15	.0486	.000486
293.15	.04025	.0004025
298.15	.03371	.0003371
303.15	.02853	.0002853
308.15	.02453	.0002453
313.15	.02107	.0002107
318.15	.01837	.0001837
323.15	.01615	.0001615

System: 1-butyl-1-methylpyrrolidinium dicyanamide; phases: Liquid
Fixed: Pressure, kPa = 101.325
Property: Electrical conductivity, S/m (Liquid); method: Alternating current cell with electrodes
Temperature, K	Electrical conductivity, S/m	uncertainty
273.15	.523	.002615
278.15	.645	.003225
283.15	.786	.00393
288.15	.943	.004715
293.15	1.123	.005615
298.15	1.317	.006585
303.15	1.527	.007635
308.15	1.754	.00877
313.15	1.997	.009985
318.15	2.254	.01127
323.15	2.529	.012645

System: 1-butyl-1-methylpyrrolidinium dicyanamide; phases: Liquid
Property: Electrical conductivity, S/m (Liquid); method: Alternating current cell with electrodes
Temperature, K	Frequency, MHz	Electrical conductivity, S/m	uncertainty
273.15	.0005	.522	.00261
283.15	.0005	.786	.00393
293.15	.0005	1.122	.00561
298.15	.0005	1.315	.006575
303.15	.0005	1.525	.007625
313.15	.0005	1.993	.009965
323.15	.0005	2.525	.012625
273.15	.001	.522	.00261
283.15	.001	.786	.00393
293.15	.001	1.122	.00561
298.15	.001	1.316	.00658
303.15	.001	1.526	.00763
313.15	.001	1.995	.009975
323.15	.001	2.526	.01263
273.15	.0015	.522	.00261
283.15	.0015	.786	.00393
293.15	.0015	1.123	.005615
298.15	.0015	1.316	.00658
303.15	.0015	1.526	.00763
313.15	.0015	1.995	.009975
323.15	.0015	2.527	.012635
273.15	.002	.522	.00261
283.15	.002	.786	.00393
293.15	.002	1.123	.005615
298.15	.002	1.316	.00658
303.15	.002	1.527	.007635
313.15	.002	1.996	.00998
323.15	.002	2.528	.01264
273.15	.0025	.522	.00261
283.15	.0025	.786	.00393
293.15	.0025	1.123	.005615
298.15	.0025	1.317	.006585
303.15	.0025	1.527	.007635
313.15	.0025	1.996	.00998
323.15	.0025	2.528	.01264
273.15	.003	.522	.00261
283.15	.003	.786	.00393
293.15	.003	1.123	.005615
298.15	.003	1.317	.006585
303.15	.003	1.527	.007635
313.15	.003	1.996	.00998
323.15	.003	2.528	.01264
273.15	.00347222	.523	.002615
283.15	.00347222	.786	.00393
293.15	.00347222	1.123	.005615
298.15	.00347222	1.317	.006585
303.15	.00347222	1.527	.007635
313.15	.00347222	1.997	.009985
323.15	.00347222	2.528	.01264
273.15	.004	.523	.002615
283.15	.004	.786	.00393
293.15	.004	1.123	.005615
298.15	.004	1.317	.006585
303.15	.004	1.527	.007635
313.15	.004	1.997	.009985
323.15	.004	2.529	.012645
273.15	.00446429	.523	.002615
283.15	.00446429	.786	.00393
293.15	.00446429	1.123	.005615
298.15	.00446429	1.317	.006585
303.15	.00446429	1.527	.007635
313.15	.00446429	1.997	.009985
323.15	.00446429	2.529	.012645
273.15	.005	.523	.002615
283.15	.005	.786	.00393
293.15	.005	1.123	.005615
298.15	.005	1.317	.006585
303.15	.005	1.527	.007635
313.15	.005	1.997	.009985
323.15	.005	2.529	.012645
273.15	.005454	.523	.002615
283.15	.005454	.786	.00393
293.15	.005454	1.123	.005615
298.15	.005454	1.317	.006585
303.15	.005454	1.527	.007635
313.15	.005454	1.997	.009985
323.15	.005454	2.529	.012645
273.15	.006	.523	.002615
283.15	.006	.786	.00393
293.15	.006	1.123	.005615
298.15	.006	1.317	.006585
303.15	.006	1.527	.007635
313.15	.006	1.997	.009985
323.15	.006	2.529	.012645
273.15	.00652174	.523	.002615
283.15	.00652174	.786	.00393
293.15	.00652174	1.123	.005615
298.15	.00652174	1.317	.006585
303.15	.00652174	1.527	.007635
313.15	.00652174	1.997	.009985
323.15	.00652174	2.529	.012645
273.15	.00694444	.523	.002615
283.15	.00694444	.786	.00393
293.15	.00694444	1.123	.005615
298.15	.00694444	1.317	.006585
303.15	.00694444	1.527	.007635
313.15	.00694444	1.997	.009985
323.15	.00694444	2.529	.012645
273.15	.0075	.523	.002615
283.15	.0075	.786	.00393
293.15	.0075	1.123	.005615
298.15	.0075	1.318	.00659
303.15	.0075	1.527	.007635
313.15	.0075	1.997	.009985
323.15	.0075	2.529	.012645
273.15	.008	.523	.002615
283.15	.008	.786	.00393
293.15	.008	1.123	.005615
298.15	.008	1.318	.00659
303.15	.008	1.527	.007635
313.15	.008	1.997	.009985
323.15	.008	2.529	.012645
273.15	.00857143	.523	.002615
283.15	.00857143	.786	.00393
293.15	.00857143	1.123	.005615
298.15	.00857143	1.318	.00659
303.15	.00857143	1.527	.007635
313.15	.00857143	1.997	.009985
323.15	.00857143	2.529	.012645
273.15	.00892857	.523	.002615
283.15	.00892857	.786	.00393
293.15	.00892857	1.124	.00562
298.15	.00892857	1.318	.00659
303.15	.00892857	1.527	.007635
313.15	.00892857	1.997	.009985
323.15	.00892857	2.529	.012645
273.15	.00961538	.523	.002615
283.15	.00961538	.786	.00393
293.15	.00961538	1.124	.00562
298.15	.00961538	1.318	.00659
303.15	.00961538	1.527	.007635
313.15	.00961538	1.997	.009985
323.15	.00961538	2.529	.012645
273.15	.01	.523	.002615
283.15	.01	.786	.00393
293.15	.01	1.124	.00562
298.15	.01	1.318	.00659
303.15	.01	1.527	.007635
313.15	.01	1.997	.009985
323.15	.01	2.529	.012645

System: .gamma.-butyrolactone; phases: Liquid
Fixed: Pressure, kPa = 101.325
Property: Mass density, kg/m3 (Liquid); method: Vibrating tube method
Temperature, K	Mass density, kg/m3	uncertainty
273.15	1149.155	4.59662
278.15	1144.229	4.576916
283.15	1139.314	4.557256
288.15	1134.403	4.537612
293.15	1129.493	4.517972
298.15	1124.588	4.498352
303.15	1119.684	4.478736
308.15	1114.782	4.459128
313.15	1109.874	4.439496
318.15	1104.965	4.41986
323.15	1100.053	4.400212
328.15	1095.137	4.380548
333.15	1090.216	4.360864

System: .gamma.-butyrolactone; phases: Liquid
Fixed: Pressure, kPa = 101.325
Property: Viscosity, Pa*s (Liquid); method: Capillary tube (Ostwald; Ubbelohde) method
Temperature, K	Viscosity, Pa*s	uncertainty
273.15	.00269	.0000269
278.15	.00243	.0000243
283.15	.00221	.0000221
288.15	.00202	.0000202
293.15	.00186	.0000186
298.15	.00171	.0000171
303.15	.00158	.0000158
308.15	.00147	.0000147
313.15	.00137	.0000137
318.15	.00128	.0000128
323.15	.0012	.000012

System: .gamma.-butyrolactone + 1-butyl-1-methylpyrrolidinium dicyanamide; phases: Liquid
Fixed: Pressure, kPa = 100
Property: Mass density, kg/m3 (Liquid); method: Vibrating tube method
Temperature, K	Mole fraction of 1-butyl-1-methylpyrrolidinium dicyanamide	Mass density, kg/m3	uncertainty
273.15	0	1149.155	4.59662
273.15	.0987	1124.753	4.499012
273.15	.1859	1107.123	4.428492
273.15	.3029	1087.917	4.351668
273.15	.4985	1063.962	4.255848
273.15	.6954	1046.522	4.186088
273.15	.9013	1032.974	4.131896
273.15	1	1027.694	4.110776
283.15	0	1139.314	4.557256
283.15	.0987	1116.136	4.464544
283.15	.1859	1099.19	4.39676
283.15	.3029	1080.611	4.322444
283.15	.4985	1057.342	4.229368
283.15	.6954	1040.35	4.1614
283.15	.9013	1027.116	4.108464
283.15	1	1021.962	4.087848
293.15	0	1129.493	4.517972
293.15	.0987	1107.563	4.430252
293.15	.1859	1091.307	4.365228
293.15	.3029	1073.37	4.29348
293.15	.4985	1050.781	4.203124
293.15	.6954	1034.233	4.136932
293.15	.9013	1021.315	4.08526
293.15	1	1016.277	4.065108
298.15	0	1124.588	4.498352
298.15	.0987	1103.289	4.413156
298.15	.1859	1087.383	4.349532
298.15	.3029	1069.767	4.279068
298.15	.4985	1047.527	4.190108
298.15	.6954	1031.193	4.124772
298.15	.9013	1018.433	4.073732
298.15	1	1013.449	4.053796
303.15	0	1119.684	4.478736
303.15	.0987	1099.021	4.396084
303.15	.1859	1083.471	4.333884
303.15	.3029	1066.18	4.26472
303.15	.4985	1044.281	4.177124
303.15	.6954	1028.171	4.112684
303.15	.9013	1015.566	4.062264
303.15	1	1010.638	4.042552
313.15	0	1109.874	4.439496
313.15	.0987	1090.512	4.362048
313.15	.1859	1075.667	4.302668
313.15	.3029	1059.035	4.23614
313.15	.4985	1037.833	4.151332
313.15	.6954	1022.161	4.088644
313.15	.9013	1009.872	4.039488
313.15	1	1005.058	4.020232
323.15	0	1100.053	4.400212
323.15	.0987	1082.021	4.328084
323.15	.1859	1067.9	4.2716
323.15	.3029	1051.931	4.207724
323.15	.4985	1031.434	4.125736
323.15	.6954	1016.205	4.06482
323.15	.9013	1004.229	4.016916
323.15	1	999.525	3.9981

System: .gamma.-butyrolactone + 1-butyl-1-methylpyrrolidinium dicyanamide; phases: Liquid
Fixed: Pressure, kPa = 100
Property: Viscosity, Pa*s (Liquid); method: Capillary tube (Ostwald; Ubbelohde) method
Temperature, K	Mole fraction of 1-butyl-1-methylpyrrolidinium dicyanamide	Viscosity, Pa*s	uncertainty
273.15	0	.00269	.0000269
273.15	.0987	.00469	.0000469
273.15	.1859	.0072	.000072
273.15	.3029	.01203	.0001203
273.15	.4985	.0249	.000249
273.15	.6954	.04565	.0004565
273.15	.9013	.07607	.0007607
273.15	1	.09395	.0009395
283.15	0	.00221	.0000221
283.15	.0987	.00375	.0000375
283.15	.1859	.00558	.0000558
283.15	.3029	.00899	.0000899
283.15	.4985	.01771	.0001771
283.15	.6954	.03079	.0003079
283.15	.9013	.04924	.0004924
283.15	1	.0596	.000596
293.15	0	.00186	.0000186
293.15	.0987	.00307	.0000307
293.15	.1859	.00446	.0000446
293.15	.3029	.00696	.0000696
293.15	.4985	.01306	.0001306
293.15	.6954	.02174	.0002174
293.15	.9013	.03358	.0003358
293.15	1	.04025	.0004025
298.15	0	.00171	.0000171
298.15	.0987	.0028	.000028
298.15	.1859	.00402	.0000402
298.15	.3029	.00619	.0000619
298.15	.4985	.01138	.0001138
298.15	.6954	.01862	.0001862
298.15	.9013	.02831	.0002831
298.15	1	.03371	.0003371
303.15	0	.00158	.0000158
303.15	.0987	.00256	.0000256
303.15	.1859	.00364	.0000364
303.15	.3029	.00553	.0000553
303.15	.4985	.00991	.0000991
303.15	.6954	.01603	.0001603
303.15	.9013	.02388	.0002388
303.15	1	.02853	.0002853
313.15	0	.00137	.0000137
313.15	.0987	.00218	.0000218
313.15	.1859	.00304	.0000304
313.15	.3029	.00452	.0000452
313.15	.4985	.00785	.0000785
313.15	.6954	.01231	.0001231
313.15	.9013	.01801	.0001801
313.15	1	.02107	.0002107
323.15	0	.0012	.000012
323.15	.0987	.00187	.0000187
323.15	.1859	.00258	.0000258
323.15	.3029	.00377	.0000377
323.15	.4985	.00636	.0000636
323.15	.6954	.00969	.0000969
323.15	.9013	.01392	.0001392
323.15	1	.01615	.0001615

System: .gamma.-butyrolactone + 1-butyl-1-methylpyrrolidinium dicyanamide; phases: Liquid
Fixed: Pressure, kPa = 100
Property: Electrical conductivity, S/m (Liquid); method: Alternating current cell with electrodes
Temperature, K	Mole fraction of 1-butyl-1-methylpyrrolidinium dicyanamide	Electrical conductivity, S/m	uncertainty
273.15	.0463	.977	.004885
273.15	.0987	1.425	.007125
273.15	.1449	1.565	.007825
273.15	.1859	1.634	.00817
273.15	.2493	1.517	.007585
273.15	.3029	1.422	.00711
273.15	.3845	1.252	.00626
273.15	.4985	1.028	.00514
273.15	.6954	.742	.00371
273.15	.9013	.562	.00281
273.15	1	.523	.002615
283.15	.0463	1.169	.005845
283.15	.0987	1.726	.00863
283.15	.1449	1.925	.009625
283.15	.1859	2.028	.01014
283.15	.2493	1.926	.00963
283.15	.3029	1.841	.009205
283.15	.3845	1.658	.00829
283.15	.4985	1.407	.007035
283.15	.6954	1.07	.00535
283.15	.9013	.849	.004245
283.15	1	.786	.00393
293.15	.0463	1.37	.00685
293.15	.0987	2.049	.010245
293.15	.1449	2.309	.011545
293.15	.1859	2.45	.01225
293.15	.2493	2.374	.01187
293.15	.3029	2.294	.01147
293.15	.3845	2.116	.01058
293.15	.4985	1.842	.00921
293.15	.6954	1.457	.007285
293.15	.9013	1.192	.00596
293.15	1	1.123	.005615
298.15	.0463	1.474	.00737
298.15	.0987	2.215	.011075
298.15	.1449	2.51	.01255
298.15	.1859	2.672	.01336
298.15	.2493	2.613	.013065
298.15	.3029	2.539	.012695
298.15	.3845	2.363	.011815
298.15	.4985	2.083	.010415
298.15	.6954	1.678	.00839
298.15	.9013	1.392	.00696
298.15	1	1.317	.006585
303.15	.0463	1.578	.00789
303.15	.0987	2.382	.01191
303.15	.1449	2.713	.013565
303.15	.1859	2.899	.014495
303.15	.2493	2.856	.01428
303.15	.3029	2.79	.01395
303.15	.3845	2.619	.013095
303.15	.4985	2.334	.01167
303.15	.6954	1.912	.00956
303.15	.9013	1.608	.00804
303.15	1	1.527	.007635
313.15	.0463	1.792	.00896
313.15	.0987	2.727	.013635
313.15	.1449	3.133	.015665
313.15	.1859	3.37	.01685
313.15	.2493	3.363	.016815
313.15	.3029	3.319	.016595
313.15	.3845	3.162	.01581
313.15	.4985	2.875	.014375
313.15	.6954	2.426	.01213
313.15	.9013	2.09	.01045
313.15	1	1.997	.009985
323.15	.0463	2.009	.010045
323.15	.0987	3.08	.0154
323.15	.1449	3.566	.01783
323.15	.1859	3.855	.019275
323.15	.2493	3.894	.01947
323.15	.3029	3.875	.019375
323.15	.3845	3.742	.01871
323.15	.4985	3.458	.01729
323.15	.6954	2.994	.01497
323.15	.9013	2.633	.013165
323.15	1	2.529	.012645

System: .gamma.-butyrolactone + 1-butyl-1-methylpyrrolidinium dicyanamide; phases: Liquid
Property: Electrical conductivity, S/m (Liquid); method: Alternating current cell with electrodes
Temperature, K	Frequency, MHz	Mole fraction of 1-butyl-1-methylpyrrolidinium dicyanamide	Electrical conductivity, S/m	uncertainty
273.15	.0005	.1859	1.619	.008095
273.15	.0005	.4985	1.026	.00513
273.15	.0005	.3029	1.416	.00708
273.15	.0005	.0987	1.413	.007065
273.15	.0005	.6954	.741	.003705
273.15	.0005	.9013	.561	.002805
273.15	.0005	1	.522	.00261
273.15	.0005	.0463	.97	.00485
273.15	.0005	.1449	1.563	.007815
273.15	.0005	.2493	1.513	.007565
273.15	.0005	.3845	1.248	.00624
283.15	.0005	.1859	2.018	.01009
283.15	.0005	.4985	1.407	.007035
283.15	.0005	.3029	1.841	.009205
283.15	.0005	.0987	1.726	.00863
283.15	.0005	.6954	1.07	.00535
283.15	.0005	.9013	.849	.004245
283.15	.0005	1	.786	.00393
283.15	.0005	.0463	1.16	.0058
283.15	.0005	.1449	1.922	.00961
283.15	.0005	.2493	1.921	.009605
283.15	.0005	.3845	1.652	.00826
293.15	.0005	.1859	2.426	.01213
293.15	.0005	.4985	1.839	.009195
293.15	.0005	.3029	2.283	.011415
293.15	.0005	.0987	2.031	.010155
293.15	.0005	.6954	1.454	.00727
293.15	.0005	.9013	1.188	.00594
293.15	.0005	1	1.122	.00561
293.15	.0005	.0463	1.36	.0068
293.15	.0005	.1449	2.306	.01153
293.15	.0005	.2493	2.368	.01184
293.15	.0005	.3845	2.108	.01054
298.15	.0005	.1859	2.645	.013225
298.15	.0005	.4985	2.08	.0104
298.15	.0005	.3029	2.526	.01263
298.15	.0005	.0987	2.196	.01098
298.15	.0005	.6954	1.674	.00837
298.15	.0005	.9013	1.387	.006935
298.15	.0005	1	1.315	.006575
298.15	.0005	.0463	1.462	.00731
298.15	.0005	.1449	2.506	.01253
298.15	.0005	.2493	2.606	.01303
298.15	.0005	.3845	2.354	.01177
303.15	.0005	.1859	2.87	.01435
303.15	.0005	.4985	2.33	.01165
303.15	.0005	.3029	2.776	.01388
303.15	.0005	.0987	2.362	.01181
303.15	.0005	.6954	1.908	.00954
303.15	.0005	.9013	1.602	.00801
303.15	.0005	1	1.525	.007625
303.15	.0005	.0463	1.565	.007825
303.15	.0005	.1449	2.709	.013545
303.15	.0005	.2493	2.849	.014245
303.15	.0005	.3845	2.608	.01304
313.15	.0005	.1859	3.336	.01668
313.15	.0005	.4985	2.87	.01435
313.15	.0005	.3029	3.302	.01651
313.15	.0005	.0987	2.705	.013525
313.15	.0005	.6954	2.421	.012105
313.15	.0005	.9013	2.082	.01041
313.15	.0005	1	1.993	.009965
313.15	.0005	.0463	1.777	.008885
313.15	.0005	.1449	3.128	.01564
313.15	.0005	.2493	3.355	.016775
313.15	.0005	.3845	3.149	.015745
323.15	.0005	.1859	3.816	.01908
323.15	.0005	.4985	3.452	.01726
323.15	.0005	.3029	3.853	.019265
323.15	.0005	.0987	3.056	.01528
323.15	.0005	.6954	2.987	.014935
323.15	.0005	.9013	2.622	.01311
323.15	.0005	1	2.525	.012625
323.15	.0005	.0463	1.994	.00997
323.15	.0005	.1449	3.561	.017805
323.15	.0005	.2493	3.885	.019425
323.15	.0005	.3845	3.726	.01863
273.15	.001	.1859	1.625	.008125
273.15	.001	.4985	1.027	.005135
273.15	.001	.3029	1.418	.00709
273.15	.001	.0987	1.418	.00709
273.15	.001	.6954	.741	.003705
273.15	.001	.9013	.561	.002805
273.15	.001	1	.522	.00261
273.15	.001	.0463	.973	.004865
273.15	.001	.1449	1.564	.00782
273.15	.001	.2493	1.515	.007575
273.15	.001	.3845	1.249	.006245
283.15	.001	.1859	2.027	.010135
283.15	.001	.4985	1.407	.007035
283.15	.001	.3029	1.841	.009205
283.15	.001	.0987	1.726	.00863
283.15	.001	.6954	1.07	.00535
283.15	.001	.9013	.849	.004245
283.15	.001	1	.786	.00393
283.15	.001	.0463	1.164	.00582
283.15	.001	.1449	1.923	.009615
283.15	.001	.2493	1.923	.009615
283.15	.001	.3845	1.654	.00827
293.15	.001	.1859	2.435	.012175
293.15	.001	.4985	1.84	.0092
293.15	.001	.3029	2.287	.011435
293.15	.001	.0987	2.038	.01019
293.15	.001	.6954	1.455	.007275
293.15	.001	.9013	1.189	.005945
293.15	.001	1	1.122	.00561
293.15	.001	.0463	1.364	.00682
293.15	.001	.1449	2.307	.011535
293.15	.001	.2493	2.37	.01185
293.15	.001	.3845	2.111	.010555
298.15	.001	.1859	2.655	.013275
298.15	.001	.4985	2.081	.010405
298.15	.001	.3029	2.531	.012655
298.15	.001	.0987	2.203	.011015
298.15	.001	.6954	1.675	.008375
298.15	.001	.9013	1.389	.006945
298.15	.001	1	1.316	.00658
298.15	.001	.0463	1.467	.007335
298.15	.001	.1449	2.507	.012535
298.15	.001	.2493	2.608	.01304
298.15	.001	.3845	2.357	.011785
303.15	.001	.1859	2.881	.014405
303.15	.001	.4985	2.331	.011655
303.15	.001	.3029	2.781	.013905
303.15	.001	.0987	2.369	.011845
303.15	.001	.6954	1.909	.009545
303.15	.001	.9013	1.604	.00802
303.15	.001	1	1.526	.00763
303.15	.001	.0463	1.57	.00785
303.15	.001	.1449	2.711	.013555
303.15	.001	.2493	2.851	.014255
303.15	.001	.3845	2.612	.01306
313.15	.001	.1859	3.349	.016745
313.15	.001	.4985	2.872	.01436
313.15	.001	.3029	3.309	.016545
313.15	.001	.0987	2.713	.013565
313.15	.001	.6954	2.422	.01211
313.15	.001	.9013	2.085	.010425
313.15	.001	1	1.995	.009975
313.15	.001	.0463	1.783	.008915
313.15	.001	.1449	3.13	.01565
313.15	.001	.2493	3.357	.016785
313.15	.001	.3845	3.154	.01577
323.15	.001	.1859	3.83	.01915
323.15	.001	.4985	3.455	.017275
323.15	.001	.3029	3.861	.019305
323.15	.001	.0987	3.064	.01532
323.15	.001	.6954	2.989	.014945
323.15	.001	.9013	2.626	.01313
323.15	.001	1	2.526	.01263
323.15	.001	.0463	2	.01
323.15	.001	.1449	3.563	.017815
323.15	.001	.2493	3.888	.01944
323.15	.001	.3845	3.732	.01866
273.15	.0015	.1859	1.627	.008135
273.15	.0015	.4985	1.027	.005135
273.15	.0015	.3029	1.419	.007095
273.15	.0015	.0987	1.42	.0071
273.15	.0015	.6954	.741	.003705
273.15	.0015	.9013	.562	.00281
273.15	.0015	1	.522	.00261
273.15	.0015	.0463	.975	.004875
273.15	.0015	.1449	1.564	.00782
273.15	.0015	.2493	1.515	.007575
273.15	.0015	.3845	1.25	.00625
283.15	.0015	.1859	2.027	.010135
283.15	.0015	.4985	1.407	.007035
283.15	.0015	.3029	1.841	.009205
283.15	.0015	.0987	1.726	.00863
283.15	.0015	.6954	1.07	.00535
283.15	.0015	.9013	.849	.004245
283.15	.0015	1	.786	.00393
283.15	.0015	.0463	1.165	.005825
283.15	.0015	.1449	1.924	.00962
283.15	.0015	.2493	1.924	.00962
283.15	.0015	.3845	1.655	.008275
293.15	.0015	.1859	2.44	.0122
293.15	.0015	.4985	1.841	.009205
293.15	.0015	.3029	2.289	.011445
293.15	.0015	.0987	2.041	.010205
293.15	.0015	.6954	1.456	.00728
293.15	.0015	.9013	1.19	.00595
293.15	.0015	1	1.123	.005615
293.15	.0015	.0463	1.366	.00683
293.15	.0015	.1449	2.308	.01154
293.15	.0015	.2493	2.371	.011855
293.15	.0015	.3845	2.112	.01056
298.15	.0015	.1859	2.66	.0133
298.15	.0015	.4985	2.082	.01041
298.15	.0015	.3029	2.533	.012665
298.15	.0015	.0987	2.207	.011035
298.15	.0015	.6954	1.676	.00838
298.15	.0015	.9013	1.39	.00695
298.15	.0015	1	1.316	.00658
298.15	.0015	.0463	1.469	.007345
298.15	.0015	.1449	2.508	.01254
298.15	.0015	.2493	2.61	.01305
298.15	.0015	.3845	2.359	.011795
303.15	.0015	.1859	2.886	.01443
303.15	.0015	.4985	2.332	.01166
303.15	.0015	.3029	2.784	.01392
303.15	.0015	.0987	2.373	.011865
303.15	.0015	.6954	1.91	.00955
303.15	.0015	.9013	1.605	.008025
303.15	.0015	1	1.526	.00763
303.15	.0015	.0463	1.573	.007865
303.15	.0015	.1449	2.711	.013555
303.15	.0015	.2493	2.852	.01426
303.15	.0015	.3845	2.614	.01307
313.15	.0015	.1859	3.355	.016775
313.15	.0015	.4985	2.873	.014365
313.15	.0015	.3029	3.312	.01656
313.15	.0015	.0987	2.717	.013585
313.15	.0015	.6954	2.424	.01212
313.15	.0015	.9013	2.087	.010435
313.15	.0015	1	1.995	.009975
313.15	.0015	.0463	1.786	.00893
313.15	.0015	.1449	3.131	.015655
313.15	.0015	.2493	3.359	.016795
313.15	.0015	.3845	3.157	.015785
323.15	.0015	.1859	3.837	.019185
323.15	.0015	.4985	3.456	.01728
323.15	.0015	.3029	3.865	.019325
323.15	.0015	.0987	3.069	.015345
323.15	.0015	.6954	2.99	.01495
323.15	.0015	.9013	2.628	.01314
323.15	.0015	1	2.527	.012635
323.15	.0015	.0463	2.003	.010015
323.15	.0015	.1449	3.564	.01782
323.15	.0015	.2493	3.89	.01945
323.15	.0015	.3845	3.735	.018675
273.15	.002	.1859	1.629	.008145
273.15	.002	.4985	1.027	.005135
273.15	.002	.3029	1.42	.0071
273.15	.002	.0987	1.421	.007105
273.15	.002	.6954	.742	.00371
273.15	.002	.9013	.562	.00281
273.15	.002	1	.522	.00261
273.15	.002	.0463	.975	.004875
273.15	.002	.1449	1.565	.007825
273.15	.002	.2493	1.516	.00758
273.15	.002	.3845	1.251	.006255
283.15	.002	.1859	2.027	.010135
283.15	.002	.4985	1.407	.007035
283.15	.002	.3029	1.841	.009205
283.15	.002	.0987	1.726	.00863
283.15	.002	.6954	1.07	.00535
283.15	.002	.9013	.849	.004245
283.15	.002	1	.786	.00393
283.15	.002	.0463	1.166	.00583
283.15	.002	.1449	1.924	.00962
283.15	.002	.2493	1.925	.009625
283.15	.002	.3845	1.656	.00828
293.15	.002	.1859	2.443	.012215
293.15	.002	.4985	1.841	.009205
293.15	.002	.3029	2.291	.011455
293.15	.002	.0987	2.043	.010215
293.15	.002	.6954	1.456	.00728
293.15	.002	.9013	1.19	.00595
293.15	.002	1	1.123	.005615
293.15	.002	.0463	1.367	.006835
293.15	.002	.1449	2.308	.01154
293.15	.002	.2493	2.372	.01186
293.15	.002	.3845	2.113	.010565
298.15	.002	.1859	2.664	.01332
298.15	.002	.4985	2.082	.01041
298.15	.002	.3029	2.535	.012675
298.15	.002	.0987	2.209	.011045
298.15	.002	.6954	1.677	.008385
298.15	.002	.9013	1.391	.006955
298.15	.002	1	1.316	.00658
298.15	.002	.0463	1.47	.00735
298.15	.002	.1449	2.509	.012545
298.15	.002	.2493	2.61	.01305
298.15	.002	.3845	2.36	.0118
303.15	.002	.1859	2.89	.01445
303.15	.002	.4985	2.333	.011665
303.15	.002	.3029	2.785	.013925
303.15	.002	.0987	2.376	.01188
303.15	.002	.6954	1.911	.009555
303.15	.002	.9013	1.606	.00803
303.15	.002	1	1.527	.007635
303.15	.002	.0463	1.574	.00787
303.15	.002	.1449	2.712	.01356
303.15	.002	.2493	2.853	.014265
303.15	.002	.3845	2.616	.01308
313.15	.002	.1859	3.359	.016795
313.15	.002	.4985	2.874	.01437
313.15	.002	.3029	3.314	.01657
313.15	.002	.0987	2.72	.0136
313.15	.002	.6954	2.424	.01212
313.15	.002	.9013	2.088	.01044
313.15	.002	1	1.996	.00998
313.15	.002	.0463	1.787	.008935
313.15	.002	.1449	3.131	.015655
313.15	.002	.2493	3.36	.0168
313.15	.002	.3845	3.158	.01579
323.15	.002	.1859	3.842	.01921
323.15	.002	.4985	3.456	.01728
323.15	.002	.3029	3.868	.01934
323.15	.002	.0987	3.071	.015355
323.15	.002	.6954	2.991	.014955
323.15	.002	.9013	2.63	.01315
323.15	.002	1	2.528	.01264
323.15	.002	.0463	2.005	.010025
323.15	.002	.1449	3.564	.01782
323.15	.002	.2493	3.891	.019455
323.15	.002	.3845	3.737	.018685
273.15	.0025	.1859	1.63	.00815
273.15	.0025	.4985	1.027	.005135
273.15	.0025	.3029	1.42	.0071
273.15	.0025	.0987	1.422	.00711
273.15	.0025	.6954	.742	.00371
273.15	.0025	.9013	.562	.00281
273.15	.0025	1	.522	.00261
273.15	.0025	.0463	.976	.00488
273.15	.0025	.1449	1.565	.007825
273.15	.0025	.2493	1.516	.00758
273.15	.0025	.3845	1.251	.006255
283.15	.0025	.1859	2.028	.01014
283.15	.0025	.4985	1.407	.007035
283.15	.0025	.3029	1.841	.009205
283.15	.0025	.0987	1.726	.00863
283.15	.0025	.6954	1.07	.00535
283.15	.0025	.9013	.849	.004245
283.15	.0025	1	.786	.00393
283.15	.0025	.0463	1.167	.005835
283.15	.0025	.1449	1.925	.009625
283.15	.0025	.2493	1.925	.009625
283.15	.0025	.3845	1.657	.008285
293.15	.0025	.1859	2.445	.012225
293.15	.0025	.4985	1.842	.00921
293.15	.0025	.3029	2.292	.01146
293.15	.0025	.0987	2.045	.010225
293.15	.0025	.6954	1.457	.007285
293.15	.0025	.9013	1.191	.005955
293.15	.0025	1	1.123	.005615
293.15	.0025	.0463	1.368	.00684
293.15	.0025	.1449	2.309	.011545
293.15	.0025	.2493	2.373	.011865
293.15	.0025	.3845	2.114	.01057
298.15	.0025	.1859	2.666	.01333
298.15	.0025	.4985	2.083	.010415
298.15	.0025	.3029	2.536	.01268
298.15	.0025	.0987	2.21	.01105
298.15	.0025	.6954	1.677	.008385
298.15	.0025	.9013	1.391	.006955
298.15	.0025	1	1.317	.006585
298.15	.0025	.0463	1.471	.007355
298.15	.0025	.1449	2.509	.012545
298.15	.0025	.2493	2.611	.013055
298.15	.0025	.3845	2.361	.011805
303.15	.0025	.1859	2.892	.01446
303.15	.0025	.4985	2.333	.011665
303.15	.0025	.3029	2.787	.013935
303.15	.0025	.0987	2.377	.011885
303.15	.0025	.6954	1.911	.009555
303.15	.0025	.9013	1.606	.00803
303.15	.0025	1	1.527	.007635
303.15	.0025	.0463	1.575	.007875
303.15	.0025	.1449	2.712	.01356
303.15	.0025	.2493	2.854	.01427
303.15	.0025	.3845	2.616	.01308
313.15	.0025	.1859	3.362	.01681
313.15	.0025	.4985	2.874	.01437
313.15	.0025	.3029	3.315	.016575
313.15	.0025	.0987	2.722	.01361
313.15	.0025	.6954	2.425	.012125
313.15	.0025	.9013	2.088	.01044
313.15	.0025	1	1.996	.00998
313.15	.0025	.0463	1.788	.00894
313.15	.0025	.1449	3.132	.01566
313.15	.0025	.2493	3.361	.016805
313.15	.0025	.3845	3.159	.015795
323.15	.0025	.1859	3.846	.01923
323.15	.0025	.4985	3.457	.017285
323.15	.0025	.3029	3.869	.019345
323.15	.0025	.0987	3.074	.01537
323.15	.0025	.6954	2.992	.01496
323.15	.0025	.9013	2.63	.01315
323.15	.0025	1	2.528	.01264
323.15	.0025	.0463	2.006	.01003
323.15	.0025	.1449	3.565	.017825
323.15	.0025	.2493	3.892	.01946
323.15	.0025	.3845	3.738	.01869
273.15	.003	.1859	1.631	.008155
273.15	.003	.4985	1.027	.005135
273.15	.003	.3029	1.421	.007105
273.15	.003	.0987	1.423	.007115
273.15	.003	.6954	.742	.00371
273.15	.003	.9013	.562	.00281
273.15	.003	1	.522	.00261
273.15	.003	.0463	.976	.00488
273.15	.003	.1449	1.565	.007825
273.15	.003	.2493	1.516	.00758
273.15	.003	.3845	1.251	.006255
283.15	.003	.1859	2.028	.01014
283.15	.003	.4985	1.407	.007035
283.15	.003	.3029	1.841	.009205
283.15	.003	.0987	1.726	.00863
283.15	.003	.6954	1.07	.00535
283.15	.003	.9013	.849	.004245
283.15	.003	1	.786	.00393
283.15	.003	.0463	1.168	.00584
283.15	.003	.1449	1.925	.009625
283.15	.003	.2493	1.925	.009625
283.15	.003	.3845	1.657	.008285
293.15	.003	.1859	2.446	.01223
293.15	.003	.4985	1.842	.00921
293.15	.003	.3029	2.292	.01146
293.15	.003	.0987	2.046	.01023
293.15	.003	.6954	1.457	.007285
293.15	.003	.9013	1.191	.005955
293.15	.003	1	1.123	.005615
293.15	.003	.0463	1.368	.00684
293.15	.003	.1449	2.309	.011545
293.15	.003	.2493	2.373	.011865
293.15	.003	.3845	2.114	.01057
298.15	.003	.1859	2.668	.01334
298.15	.003	.4985	2.083	.010415
298.15	.003	.3029	2.537	.012685
298.15	.003	.0987	2.212	.01106
298.15	.003	.6954	1.677	.008385
298.15	.003	.9013	1.391	.006955
298.15	.003	1	1.317	.006585
298.15	.003	.0463	1.472	.00736
298.15	.003	.1449	2.509	.012545
298.15	.003	.2493	2.611	.013055
298.15	.003	.3845	2.361	.011805
303.15	.003	.1859	2.894	.01447
303.15	.003	.4985	2.333	.011665
303.15	.003	.3029	2.788	.01394
303.15	.003	.0987	2.379	.011895
303.15	.003	.6954	1.911	.009555
303.15	.003	.9013	1.607	.008035
303.15	.003	1	1.527	.007635
303.15	.003	.0463	1.576	.00788
303.15	.003	.1449	2.713	.013565
303.15	.003	.2493	2.854	.01427
303.15	.003	.3845	2.617	.013085
313.15	.003	.1859	3.364	.01682
313.15	.003	.4985	2.874	.01437
313.15	.003	.3029	3.316	.01658
313.15	.003	.0987	2.723	.013615
313.15	.003	.6954	2.425	.012125
313.15	.003	.9013	2.089	.010445
313.15	.003	1	1.996	.00998
313.15	.003	.0463	1.789	.008945
313.15	.003	.1449	3.132	.01566
313.15	.003	.2493	3.361	.016805
313.15	.003	.3845	3.16	.0158
323.15	.003	.1859	3.848	.01924
323.15	.003	.4985	3.457	.017285
323.15	.003	.3029	3.871	.019355
323.15	.003	.0987	3.075	.015375
323.15	.003	.6954	2.992	.01496
323.15	.003	.9013	2.631	.013155
323.15	.003	1	2.528	.01264
323.15	.003	.0463	2.007	.010035
323.15	.003	.1449	3.565	.017825
323.15	.003	.2493	3.892	.01946
323.15	.003	.3845	3.739	.018695
273.15	.00347222	.1859	1.632	.00816
273.15	.00347222	.4985	1.027	.005135
273.15	.00347222	.3029	1.421	.007105
273.15	.00347222	.0987	1.423	.007115
273.15	.00347222	.6954	.742	.00371
273.15	.00347222	.9013	.562	.00281
273.15	.00347222	1	.523	.002615
273.15	.00347222	.0463	.977	.004885
273.15	.00347222	.1449	1.565	.007825
273.15	.00347222	.2493	1.516	.00758
273.15	.00347222	.3845	1.251	.006255
283.15	.00347222	.1859	2.028	.01014
283.15	.00347222	.4985	1.407	.007035
283.15	.00347222	.3029	1.841	.009205
283.15	.00347222	.0987	1.726	.00863
283.15	.00347222	.6954	1.07	.00535
283.15	.00347222	.9013	.849	.004245
283.15	.00347222	1	.786	.00393
283.15	.00347222	.0463	1.168	.00584
283.15	.00347222	.1449	1.925	.009625
283.15	.00347222	.2493	1.925	.009625
283.15	.00347222	.3845	1.657	.008285
293.15	.00347222	.1859	2.447	.012235
293.15	.00347222	.4985	1.842	.00921
293.15	.00347222	.3029	2.293	.011465
293.15	.00347222	.0987	2.046	.01023
293.15	.00347222	.6954	1.457	.007285
293.15	.00347222	.9013	1.191	.005955
293.15	.00347222	1	1.123	.005615
293.15	.00347222	.0463	1.369	.006845
293.15	.00347222	.1449	2.309	.011545
293.15	.00347222	.2493	2.373	.011865
293.15	.00347222	.3845	2.115	.010575
298.15	.00347222	.1859	2.669	.013345
298.15	.00347222	.4985	2.083	.010415
298.15	.00347222	.3029	2.537	.012685
298.15	.00347222	.0987	2.212	.01106
298.15	.00347222	.6954	1.677	.008385
298.15	.00347222	.9013	1.392	.00696
298.15	.00347222	1	1.317	.006585
298.15	.00347222	.0463	1.472	.00736
298.15	.00347222	.1449	2.509	.012545
298.15	.00347222	.2493	2.612	.01306
298.15	.00347222	.3845	2.362	.01181
303.15	.00347222	.1859	2.896	.01448
303.15	.00347222	.4985	2.333	.011665
303.15	.00347222	.3029	2.788	.01394
303.15	.00347222	.0987	2.38	.0119
303.15	.00347222	.6954	1.912	.00956
303.15	.00347222	.9013	1.607	.008035
303.15	.00347222	1	1.527	.007635
303.15	.00347222	.0463	1.577	.007885
303.15	.00347222	.1449	2.713	.013565
303.15	.00347222	.2493	2.855	.014275
303.15	.00347222	.3845	2.617	.013085
313.15	.00347222	.1859	3.366	.01683
313.15	.00347222	.4985	2.874	.01437
313.15	.00347222	.3029	3.317	.016585
313.15	.00347222	.0987	2.724	.01362
313.15	.00347222	.6954	2.425	.012125
313.15	.00347222	.9013	2.089	.010445
313.15	.00347222	1	1.997	.009985
313.15	.00347222	.0463	1.79	.00895
313.15	.00347222	.1449	3.132	.01566
313.15	.00347222	.2493	3.362	.01681
313.15	.00347222	.3845	3.16	.0158
323.15	.00347222	.1859	3.85	.01925
323.15	.00347222	.4985	3.458	.01729
323.15	.00347222	.3029	3.872	.01936
323.15	.00347222	.0987	3.076	.01538
323.15	.00347222	.6954	2.993	.014965
323.15	.00347222	.9013	2.632	.01316
323.15	.00347222	1	2.528	.01264
323.15	.00347222	.0463	2.008	.01004
323.15	.00347222	.1449	3.566	.01783
323.15	.00347222	.2493	3.893	.019465
323.15	.00347222	.3845	3.74	.0187
273.15	.004	.1859	1.632	.00816
273.15	.004	.4985	1.027	.005135
273.15	.004	.3029	1.421	.007105
273.15	.004	.0987	1.424	.00712
273.15	.004	.6954	.742	.00371
273.15	.004	.9013	.562	.00281
273.15	.004	1	.523	.002615
273.15	.004	.0463	.977	.004885
273.15	.004	.1449	1.565	.007825
273.15	.004	.2493	1.516	.00758
273.15	.004	.3845	1.251	.006255
283.15	.004	.1859	2.028	.01014
283.15	.004	.4985	1.407	.007035
283.15	.004	.3029	1.841	.009205
283.15	.004	.0987	1.726	.00863
283.15	.004	.6954	1.07	.00535
283.15	.004	.9013	.849	.004245
283.15	.004	1	.786	.00393
283.15	.004	.0463	1.168	.00584
283.15	.004	.1449	1.925	.009625
283.15	.004	.2493	1.926	.00963
283.15	.004	.3845	1.657	.008285
293.15	.004	.1859	2.448	.01224
293.15	.004	.4985	1.842	.00921
293.15	.004	.3029	2.293	.011465
293.15	.004	.0987	2.047	.010235
293.15	.004	.6954	1.457	.007285
293.15	.004	.9013	1.191	.005955
293.15	.004	1	1.123	.005615
293.15	.004	.0463	1.369	.006845
293.15	.004	.1449	2.309	.011545
293.15	.004	.2493	2.374	.01187
293.15	.004	.3845	2.115	.010575
298.15	.004	.1859	2.67	.01335
298.15	.004	.4985	2.083	.010415
298.15	.004	.3029	2.538	.01269
298.15	.004	.0987	2.213	.011065
298.15	.004	.6954	1.678	.00839
298.15	.004	.9013	1.392	.00696
298.15	.004	1	1.317	.006585
298.15	.004	.0463	1.473	.007365
298.15	.004	.1449	2.51	.01255
298.15	.004	.2493	2.612	.01306
298.15	.004	.3845	2.362	.01181
303.15	.004	.1859	2.897	.014485
303.15	.004	.4985	2.333	.011665
303.15	.004	.3029	2.789	.013945
303.15	.004	.0987	2.38	.0119
303.15	.004	.6954	1.912	.00956
303.15	.004	.9013	1.607	.008035
303.15	.004	1	1.527	.007635
303.15	.004	.0463	1.577	.007885
303.15	.004	.1449	2.713	.013565
303.15	.004	.2493	2.855	.014275
303.15	.004	.3845	2.618	.01309
313.15	.004	.1859	3.367	.016835
313.15	.004	.4985	2.875	.014375
313.15	.004	.3029	3.318	.01659
313.15	.004	.0987	2.725	.013625
313.15	.004	.6954	2.426	.01213
313.15	.004	.9013	2.09	.01045
313.15	.004	1	1.997	.009985
313.15	.004	.0463	1.79	.00895
313.15	.004	.1449	3.133	.015665
313.15	.004	.2493	3.362	.01681
313.15	.004	.3845	3.161	.015805
323.15	.004	.1859	3.852	.01926
323.15	.004	.4985	3.458	.01729
323.15	.004	.3029	3.873	.019365
323.15	.004	.0987	3.078	.01539
323.15	.004	.6954	2.993	.014965
323.15	.004	.9013	2.632	.01316
323.15	.004	1	2.529	.012645
323.15	.004	.0463	2.008	.01004
323.15	.004	.1449	3.566	.01783
323.15	.004	.2493	3.893	.019465
323.15	.004	.3845	3.74	.0187
273.15	.00446429	.1859	1.633	.008165
273.15	.00446429	.4985	1.027	.005135
273.15	.00446429	.3029	1.422	.00711
273.15	.00446429	.0987	1.424	.00712
273.15	.00446429	.6954	.742	.00371
273.15	.00446429	.9013	.562	.00281
273.15	.00446429	1	.523	.002615
273.15	.00446429	.0463	.977	.004885
273.15	.00446429	.1449	1.565	.007825
273.15	.00446429	.2493	1.516	.00758
273.15	.00446429	.3845	1.252	.00626
283.15	.00446429	.1859	2.028	.01014
283.15	.00446429	.4985	1.407	.007035
283.15	.00446429	.3029	1.841	.009205
283.15	.00446429	.0987	1.726	.00863
283.15	.00446429	.6954	1.07	.00535
283.15	.00446429	.9013	.849	.004245
283.15	.00446429	1	.786	.00393
283.15	.00446429	.0463	1.169	.005845
283.15	.00446429	.1449	1.925	.009625
283.15	.00446429	.2493	1.926	.00963
283.15	.00446429	.3845	1.658	.00829
293.15	.00446429	.1859	2.449	.012245
293.15	.00446429	.4985	1.842	.00921
293.15	.00446429	.3029	2.294	.01147
293.15	.00446429	.0987	2.048	.01024
293.15	.00446429	.6954	1.457	.007285
293.15	.00446429	.9013	1.192	.00596
293.15	.00446429	1	1.123	.005615
293.15	.00446429	.0463	1.37	.00685
293.15	.00446429	.1449	2.309	.011545
293.15	.00446429	.2493	2.374	.01187
293.15	.00446429	.3845	2.115	.010575
298.15	.00446429	.1859	2.671	.013355
298.15	.00446429	.4985	2.083	.010415
298.15	.00446429	.3029	2.538	.01269
298.15	.00446429	.0987	2.214	.01107
298.15	.00446429	.6954	1.678	.00839
298.15	.00446429	.9013	1.392	.00696
298.15	.00446429	1	1.317	.006585
298.15	.00446429	.0463	1.473	.007365
298.15	.00446429	.1449	2.51	.01255
298.15	.00446429	.2493	2.612	.01306
298.15	.00446429	.3845	2.362	.01181
303.15	.00446429	.1859	2.898	.01449
303.15	.00446429	.4985	2.334	.01167
303.15	.00446429	.3029	2.789	.013945
303.15	.00446429	.0987	2.381	.011905
303.15	.00446429	.6954	1.912	.00956
303.15	.00446429	.9013	1.608	.00804
303.15	.00446429	1	1.527	.007635
303.15	.00446429	.0463	1.577	.007885
303.15	.00446429	.1449	2.713	.013565
303.15	.00446429	.2493	2.855	.014275
303.15	.00446429	.3845	2.618	.01309
313.15	.00446429	.1859	3.368	.01684
313.15	.00446429	.4985	2.875	.014375
313.15	.00446429	.3029	3.318	.01659
313.15	.00446429	.0987	2.726	.01363
313.15	.00446429	.6954	2.426	.01213
313.15	.00446429	.9013	2.09	.01045
313.15	.00446429	1	1.997	.009985
313.15	.00446429	.0463	1.791	.008955
313.15	.00446429	.1449	3.133	.015665
313.15	.00446429	.2493	3.362	.01681
313.15	.00446429	.3845	3.161	.015805
323.15	.00446429	.1859	3.853	.019265
323.15	.00446429	.4985	3.458	.01729
323.15	.00446429	.3029	3.873	.019365
323.15	.00446429	.0987	3.078	.01539
323.15	.00446429	.6954	2.993	.014965
323.15	.00446429	.9013	2.632	.01316
323.15	.00446429	1	2.529	.012645
323.15	.00446429	.0463	2.009	.010045
323.15	.00446429	.1449	3.566	.01783
323.15	.00446429	.2493	3.894	.01947
323.15	.00446429	.3845	3.741	.018705
273.15	.005	.1859	1.633	.008165
273.15	.005	.4985	1.028	.00514
273.15	.005	.3029	1.422	.00711
273.15	.005	.0987	1.424	.00712
273.15	.005	.6954	.742	.00371
273.15	.005	.9013	.562	.00281
273.15	.005	1	.523	.002615
273.15	.005	.0463	.977	.004885
273.15	.005	.1449	1.565	.007825
273.15	.005	.2493	1.517	.007585
273.15	.005	.3845	1.252	.00626
283.15	.005	.1859	2.028	.01014
283.15	.005	.4985	1.407	.007035
283.15	.005	.3029	1.841	.009205
283.15	.005	.0987	1.726	.00863
283.15	.005	.6954	1.07	.00535
283.15	.005	.9013	.849	.004245
283.15	.005	1	.786	.00393
283.15	.005	.0463	1.169	.005845
283.15	.005	.1449	1.925	.009625
283.15	.005	.2493	1.926	.00963
283.15	.005	.3845	1.658	.00829
293.15	.005	.1859	2.45	.01225
293.15	.005	.4985	1.842	.00921
293.15	.005	.3029	2.294	.01147
293.15	.005	.0987	2.048	.01024
293.15	.005	.6954	1.457	.007285
293.15	.005	.9013	1.192	.00596
293.15	.005	1	1.123	.005615
293.15	.005	.0463	1.37	.00685
293.15	.005	.1449	2.309	.011545
293.15	.005	.2493	2.374	.01187
293.15	.005	.3845	2.115	.010575
298.15	.005	.1859	2.672	.01336
298.15	.005	.4985	2.083	.010415
298.15	.005	.3029	2.539	.012695
298.15	.005	.0987	2.215	.011075
298.15	.005	.6954	1.678	.00839
298.15	.005	.9013	1.392	.00696
298.15	.005	1	1.317	.006585
298.15	.005	.0463	1.473	.007365
298.15	.005	.1449	2.51	.01255
298.15	.005	.2493	2.612	.01306
298.15	.005	.3845	2.363	.011815
303.15	.005	.1859	2.899	.014495
303.15	.005	.4985	2.334	.01167
303.15	.005	.3029	2.79	.01395
303.15	.005	.0987	2.382	.01191
303.15	.005	.6954	1.912	.00956
303.15	.005	.9013	1.608	.00804
303.15	.005	1	1.527	.007635
303.15	.005	.0463	1.578	.00789
303.15	.005	.1449	2.713	.013565
303.15	.005	.2493	2.855	.014275
303.15	.005	.3845	2.618	.01309
313.15	.005	.1859	3.369	.016845
313.15	.005	.4985	2.875	.014375
313.15	.005	.3029	3.319	.016595
313.15	.005	.0987	2.727	.013635
313.15	.005	.6954	2.426	.01213
313.15	.005	.9013	2.09	.01045
313.15	.005	1	1.997	.009985
313.15	.005	.0463	1.791	.008955
313.15	.005	.1449	3.133	.015665
313.15	.005	.2493	3.363	.016815
313.15	.005	.3845	3.162	.01581
323.15	.005	.1859	3.854	.01927
323.15	.005	.4985	3.458	.01729
323.15	.005	.3029	3.874	.01937
323.15	.005	.0987	3.079	.015395
323.15	.005	.6954	2.993	.014965
323.15	.005	.9013	2.633	.013165
323.15	.005	1	2.529	.012645
323.15	.005	.0463	2.009	.010045
323.15	.005	.1449	3.566	.01783
323.15	.005	.2493	3.894	.01947
323.15	.005	.3845	3.741	.018705
273.15	.005454	.1859	1.634	.00817
273.15	.005454	.4985	1.028	.00514
273.15	.005454	.3029	1.422	.00711
273.15	.005454	.0987	1.425	.007125
273.15	.005454	.6954	.742	.00371
273.15	.005454	.9013	.562	.00281
273.15	.005454	1	.523	.002615
273.15	.005454	.0463	.977	.004885
273.15	.005454	.1449	1.565	.007825
273.15	.005454	.2493	1.517	.007585
273.15	.005454	.3845	1.252	.00626
283.15	.005454	.1859	2.028	.01014
283.15	.005454	.4985	1.407	.007035
283.15	.005454	.3029	1.841	.009205
283.15	.005454	.0987	1.726	.00863
283.15	.005454	.6954	1.07	.00535
283.15	.005454	.9013	.849	.004245
283.15	.005454	1	.786	.00393
283.15	.005454	.0463	1.169	.005845
283.15	.005454	.1449	1.925	.009625
283.15	.005454	.2493	1.926	.00963
283.15	.005454	.3845	1.658	.00829
293.15	.005454	.1859	2.45	.01225
293.15	.005454	.4985	1.842	.00921
293.15	.005454	.3029	2.294	.01147
293.15	.005454	.0987	2.049	.010245
293.15	.005454	.6954	1.457	.007285
293.15	.005454	.9013	1.192	.00596
293.15	.005454	1	1.123	.005615
293.15	.005454	.0463	1.37	.00685
293.15	.005454	.1449	2.309	.011545
293.15	.005454	.2493	2.374	.01187
293.15	.005454	.3845	2.116	.01058
298.15	.005454	.1859	2.672	.01336
298.15	.005454	.4985	2.083	.010415
298.15	.005454	.3029	2.539	.012695
298.15	.005454	.0987	2.215	.011075
298.15	.005454	.6954	1.678	.00839
298.15	.005454	.9013	1.392	.00696
298.15	.005454	1	1.317	.006585
298.15	.005454	.0463	1.474	.00737
298.15	.005454	.1449	2.51	.01255
298.15	.005454	.2493	2.613	.013065
298.15	.005454	.3845	2.363	.011815
303.15	.005454	.1859	2.899	.014495
303.15	.005454	.4985	2.334	.01167
303.15	.005454	.3029	2.79	.01395
303.15	.005454	.0987	2.382	.01191
303.15	.005454	.6954	1.912	.00956
303.15	.005454	.9013	1.608	.00804
303.15	.005454	1	1.527	.007635
303.15	.005454	.0463	1.578	.00789
303.15	.005454	.1449	2.713	.013565
303.15	.005454	.2493	2.856	.01428
303.15	.005454	.3845	2.619	.013095
313.15	.005454	.1859	3.37	.01685
313.15	.005454	.4985	2.875	.014375
313.15	.005454	.3029	3.319	.016595
313.15	.005454	.0987	2.727	.013635
313.15	.005454	.6954	2.426	.01213
313.15	.005454	.9013	2.09	.01045
313.15	.005454	1	1.997	.009985
313.15	.005454	.0463	1.792	.00896
313.15	.005454	.1449	3.133	.015665
313.15	.005454	.2493	3.363	.016815
313.15	.005454	.3845	3.162	.01581
323.15	.005454	.1859	3.855	.019275
323.15	.005454	.4985	3.458	.01729
323.15	.005454	.3029	3.875	.019375
323.15	.005454	.0987	3.08	.0154
323.15	.005454	.6954	2.994	.01497
323.15	.005454	.9013	2.633	.013165
323.15	.005454	1	2.529	.012645
323.15	.005454	.0463	2.009	.010045
323.15	.005454	.1449	3.566	.01783
323.15	.005454	.2493	3.894	.01947
323.15	.005454	.3845	3.742	.01871
273.15	.006	.1859	1.634	.00817
273.15	.006	.4985	1.028	.00514
273.15	.006	.3029	1.422	.00711
273.15	.006	.0987	1.425	.007125
273.15	.006	.6954	.742	.00371
273.15	.006	.9013	.562	.00281
273.15	.006	1	.523	.002615
273.15	.006	.0463	.977	.004885
273.15	.006	.1449	1.565	.007825
273.15	.006	.2493	1.517	.007585
273.15	.006	.3845	1.252	.00626
283.15	.006	.1859	2.028	.01014
283.15	.006	.4985	1.407	.007035
283.15	.006	.3029	1.841	.009205
283.15	.006	.0987	1.726	.00863
283.15	.006	.6954	1.07	.00535
283.15	.006	.9013	.849	.004245
283.15	.006	1	.786	.00393
283.15	.006	.0463	1.169	.005845
283.15	.006	.1449	1.925	.009625
283.15	.006	.2493	1.926	.00963
283.15	.006	.3845	1.658	.00829
293.15	.006	.1859	2.451	.012255
293.15	.006	.4985	1.842	.00921
293.15	.006	.3029	2.295	.011475
293.15	.006	.0987	2.049	.010245
293.15	.006	.6954	1.457	.007285
293.15	.006	.9013	1.192	.00596
293.15	.006	1	1.123	.005615
293.15	.006	.0463	1.37	.00685
293.15	.006	.1449	2.31	.01155
293.15	.006	.2493	2.374	.01187
293.15	.006	.3845	2.116	.01058
298.15	.006	.1859	2.673	.013365
298.15	.006	.4985	2.083	.010415
298.15	.006	.3029	2.539	.012695
298.15	.006	.0987	2.215	.011075
298.15	.006	.6954	1.678	.00839
298.15	.006	.9013	1.393	.006965
298.15	.006	1	1.317	.006585
298.15	.006	.0463	1.474	.00737
298.15	.006	.1449	2.51	.01255
298.15	.006	.2493	2.613	.013065
298.15	.006	.3845	2.363	.011815
303.15	.006	.1859	2.9	.0145
303.15	.006	.4985	2.334	.01167
303.15	.006	.3029	2.79	.01395
303.15	.006	.0987	2.383	.011915
303.15	.006	.6954	1.912	.00956
303.15	.006	.9013	1.608	.00804
303.15	.006	1	1.527	.007635
303.15	.006	.0463	1.578	.00789
303.15	.006	.1449	2.714	.01357
303.15	.006	.2493	2.856	.01428
303.15	.006	.3845	2.619	.013095
313.15	.006	.1859	3.371	.016855
313.15	.006	.4985	2.875	.014375
313.15	.006	.3029	3.32	.0166
313.15	.006	.0987	2.728	.01364
313.15	.006	.6954	2.427	.012135
313.15	.006	.9013	2.091	.010455
313.15	.006	1	1.997	.009985
313.15	.006	.0463	1.792	.00896
313.15	.006	.1449	3.133	.015665
313.15	.006	.2493	3.363	.016815
313.15	.006	.3845	3.163	.015815
323.15	.006	.1859	3.856	.01928
323.15	.006	.4985	3.458	.01729
323.15	.006	.3029	3.875	.019375
323.15	.006	.0987	3.081	.015405
323.15	.006	.6954	2.994	.01497
323.15	.006	.9013	2.633	.013165
323.15	.006	1	2.529	.012645
323.15	.006	.0463	2.01	.01005
323.15	.006	.1449	3.566	.01783
323.15	.006	.2493	3.894	.01947
323.15	.006	.3845	3.742	.01871
273.15	.00652174	.1859	1.634	.00817
273.15	.00652174	.4985	1.028	.00514
273.15	.00652174	.3029	1.422	.00711
273.15	.00652174	.0987	1.425	.007125
273.15	.00652174	.6954	.742	.00371
273.15	.00652174	.9013	.563	.002815
273.15	.00652174	1	.523	.002615
273.15	.00652174	.0463	.978	.00489
273.15	.00652174	.1449	1.565	.007825
273.15	.00652174	.2493	1.517	.007585
273.15	.00652174	.3845	1.252	.00626
283.15	.00652174	.1859	2.028	.01014
283.15	.00652174	.4985	1.407	.007035
283.15	.00652174	.3029	1.841	.009205
283.15	.00652174	.0987	1.726	.00863
283.15	.00652174	.6954	1.07	.00535
283.15	.00652174	.9013	.849	.004245
283.15	.00652174	1	.786	.00393
283.15	.00652174	.0463	1.169	.005845
283.15	.00652174	.1449	1.925	.009625
283.15	.00652174	.2493	1.926	.00963
283.15	.00652174	.3845	1.658	.00829
293.15	.00652174	.1859	2.451	.012255
293.15	.00652174	.4985	1.842	.00921
293.15	.00652174	.3029	2.295	.011475
293.15	.00652174	.0987	2.05	.01025
293.15	.00652174	.6954	1.458	.00729
293.15	.00652174	.9013	1.192	.00596
293.15	.00652174	1	1.123	.005615
293.15	.00652174	.0463	1.371	.006855
293.15	.00652174	.1449	2.31	.01155
293.15	.00652174	.2493	2.374	.01187
293.15	.00652174	.3845	2.116	.01058
298.15	.00652174	.1859	2.673	.013365
298.15	.00652174	.4985	2.083	.010415
298.15	.00652174	.3029	2.539	.012695
298.15	.00652174	.0987	2.216	.01108
298.15	.00652174	.6954	1.678	.00839
298.15	.00652174	.9013	1.393	.006965
298.15	.00652174	1	1.317	.006585
298.15	.00652174	.0463	1.474	.00737
298.15	.00652174	.1449	2.51	.01255
298.15	.00652174	.2493	2.613	.013065
298.15	.00652174	.3845	2.363	.011815
303.15	.00652174	.1859	2.9	.0145
303.15	.00652174	.4985	2.334	.01167
303.15	.00652174	.3029	2.791	.013955
303.15	.00652174	.0987	2.383	.011915
303.15	.00652174	.6954	1.913	.009565
303.15	.00652174	.9013	1.608	.00804
303.15	.00652174	1	1.527	.007635
303.15	.00652174	.0463	1.578	.00789
303.15	.00652174	.1449	2.714	.01357
303.15	.00652174	.2493	2.856	.01428
303.15	.00652174	.3845	2.619	.013095
313.15	.00652174	.1859	3.372	.01686
313.15	.00652174	.4985	2.875	.014375
313.15	.00652174	.3029	3.32	.0166
313.15	.00652174	.0987	2.729	.013645
313.15	.00652174	.6954	2.427	.012135
313.15	.00652174	.9013	2.091	.010455
313.15	.00652174	1	1.997	.009985
313.15	.00652174	.0463	1.792	.00896
313.15	.00652174	.1449	3.133	.015665
313.15	.00652174	.2493	3.363	.016815
313.15	.00652174	.3845	3.163	.015815
323.15	.00652174	.1859	3.857	.019285
323.15	.00652174	.4985	3.458	.01729
323.15	.00652174	.3029	3.876	.01938
323.15	.00652174	.0987	3.081	.015405
323.15	.00652174	.6954	2.994	.01497
323.15	.00652174	.9013	2.634	.01317
323.15	.00652174	1	2.529	.012645
323.15	.00652174	.0463	2.01	.01005
323.15	.00652174	.1449	3.567	.017835
323.15	.00652174	.2493	3.895	.019475
323.15	.00652174	.3845	3.743	.018715
273.15	.00694444	.1859	1.634	.00817
273.15	.00694444	.4985	1.028	.00514
273.15	.00694444	.3029	1.422	.00711
273.15	.00694444	.0987	1.425	.007125
273.15	.00694444	.6954	.742	.00371
273.15	.00694444	.9013	.563	.002815
273.15	.00694444	1	.523	.002615
273.15	.00694444	.0463	.978	.00489
273.15	.00694444	.1449	1.565	.007825
273.15	.00694444	.2493	1.517	.007585
273.15	.00694444	.3845	1.252	.00626
283.15	.00694444	.1859	2.028	.01014
283.15	.00694444	.4985	1.407	.007035
283.15	.00694444	.3029	1.841	.009205
283.15	.00694444	.0987	1.726	.00863
283.15	.00694444	.6954	1.07	.00535
283.15	.00694444	.9013	.849	.004245
283.15	.00694444	1	.786	.00393
283.15	.00694444	.0463	1.17	.00585
283.15	.00694444	.1449	1.925	.009625
283.15	.00694444	.2493	1.926	.00963
283.15	.00694444	.3845	1.658	.00829
293.15	.00694444	.1859	2.451	.012255
293.15	.00694444	.4985	1.842	.00921
293.15	.00694444	.3029	2.295	.011475
293.15	.00694444	.0987	2.05	.01025
293.15	.00694444	.6954	1.458	.00729
293.15	.00694444	.9013	1.192	.00596
293.15	.00694444	1	1.123	.005615
293.15	.00694444	.0463	1.371	.006855
293.15	.00694444	.1449	2.31	.01155
293.15	.00694444	.2493	2.374	.01187
293.15	.00694444	.3845	2.116	.01058
298.15	.00694444	.1859	2.674	.01337
298.15	.00694444	.4985	2.083	.010415
298.15	.00694444	.3029	2.54	.0127
298.15	.00694444	.0987	2.216	.01108
298.15	.00694444	.6954	1.678	.00839
298.15	.00694444	.9013	1.393	.006965
298.15	.00694444	1	1.317	.006585
298.15	.00694444	.0463	1.474	.00737
298.15	.00694444	.1449	2.51	.01255
298.15	.00694444	.2493	2.613	.013065
298.15	.00694444	.3845	2.364	.01182
303.15	.00694444	.1859	2.901	.014505
303.15	.00694444	.4985	2.334	.01167
303.15	.00694444	.3029	2.791	.013955
303.15	.00694444	.0987	2.383	.011915
303.15	.00694444	.6954	1.913	.009565
303.15	.00694444	.9013	1.608	.00804
303.15	.00694444	1	1.527	.007635
303.15	.00694444	.0463	1.579	.007895
303.15	.00694444	.1449	2.714	.01357
303.15	.00694444	.2493	2.856	.01428
303.15	.00694444	.3845	2.619	.013095
313.15	.00694444	.1859	3.372	.01686
313.15	.00694444	.4985	2.875	.014375
313.15	.00694444	.3029	3.32	.0166
313.15	.00694444	.0987	2.729	.013645
313.15	.00694444	.6954	2.427	.012135
313.15	.00694444	.9013	2.091	.010455
313.15	.00694444	1	1.997	.009985
313.15	.00694444	.0463	1.792	.00896
313.15	.00694444	.1449	3.133	.015665
313.15	.00694444	.2493	3.364	.01682
313.15	.00694444	.3845	3.163	.015815
323.15	.00694444	.1859	3.857	.019285
323.15	.00694444	.4985	3.459	.017295
323.15	.00694444	.3029	3.876	.01938
323.15	.00694444	.0987	3.081	.015405
323.15	.00694444	.6954	2.994	.01497
323.15	.00694444	.9013	2.634	.01317
323.15	.00694444	1	2.529	.012645
323.15	.00694444	.0463	2.01	.01005
323.15	.00694444	.1449	3.567	.017835
323.15	.00694444	.2493	3.895	.019475
323.15	.00694444	.3845	3.743	.018715
273.15	.0075	.1859	1.634	.00817
273.15	.0075	.4985	1.028	.00514
273.15	.0075	.3029	1.422	.00711
273.15	.0075	.0987	1.426	.00713
273.15	.0075	.6954	.742	.00371
273.15	.0075	.9013	.563	.002815
273.15	.0075	1	.523	.002615
273.15	.0075	.0463	.978	.00489
273.15	.0075	.1449	1.565	.007825
273.15	.0075	.2493	1.517	.007585
273.15	.0075	.3845	1.252	.00626
283.15	.0075	.1859	2.028	.01014
283.15	.0075	.4985	1.407	.007035
283.15	.0075	.3029	1.841	.009205
283.15	.0075	.0987	1.726	.00863
283.15	.0075	.6954	1.07	.00535
283.15	.0075	.9013	.849	.004245
283.15	.0075	1	.786	.00393
283.15	.0075	.0463	1.17	.00585
283.15	.0075	.1449	1.926	.00963
283.15	.0075	.2493	1.926	.00963
283.15	.0075	.3845	1.658	.00829
293.15	.0075	.1859	2.452	.01226
293.15	.0075	.4985	1.842	.00921
293.15	.0075	.3029	2.295	.011475
293.15	.0075	.0987	2.05	.01025
293.15	.0075	.6954	1.458	.00729
293.15	.0075	.9013	1.192	.00596
293.15	.0075	1	1.123	.005615
293.15	.0075	.0463	1.371	.006855
293.15	.0075	.1449	2.31	.01155
293.15	.0075	.2493	2.374	.01187
293.15	.0075	.3845	2.116	.01058
298.15	.0075	.1859	2.674	.01337
298.15	.0075	.4985	2.083	.010415
298.15	.0075	.3029	2.54	.0127
298.15	.0075	.0987	2.216	.01108
298.15	.0075	.6954	1.678	.00839
298.15	.0075	.9013	1.393	.006965
298.15	.0075	1	1.318	.00659
298.15	.0075	.0463	1.474	.00737
298.15	.0075	.1449	2.51	.01255
298.15	.0075	.2493	2.613	.013065
298.15	.0075	.3845	2.364	.01182
303.15	.0075	.1859	2.901	.014505
303.15	.0075	.4985	2.334	.01167
303.15	.0075	.3029	2.791	.013955
303.15	.0075	.0987	2.384	.01192
303.15	.0075	.6954	1.913	.009565
303.15	.0075	.9013	1.608	.00804
303.15	.0075	1	1.527	.007635
303.15	.0075	.0463	1.579	.007895
303.15	.0075	.1449	2.714	.01357
303.15	.0075	.2493	2.856	.01428
303.15	.0075	.3845	2.619	.013095
313.15	.0075	.1859	3.373	.016865
313.15	.0075	.4985	2.876	.01438
313.15	.0075	.3029	3.321	.016605
313.15	.0075	.0987	2.729	.013645
313.15	.0075	.6954	2.427	.012135
313.15	.0075	.9013	2.091	.010455
313.15	.0075	1	1.997	.009985
313.15	.0075	.0463	1.792	.00896
313.15	.0075	.1449	3.134	.01567
313.15	.0075	.2493	3.364	.01682
313.15	.0075	.3845	3.163	.015815
323.15	.0075	.1859	3.858	.01929
323.15	.0075	.4985	3.459	.017295
323.15	.0075	.3029	3.876	.01938
323.15	.0075	.0987	3.082	.01541
323.15	.0075	.6954	2.994	.01497
323.15	.0075	.9013	2.634	.01317
323.15	.0075	1	2.529	.012645
323.15	.0075	.0463	2.01	.01005
323.15	.0075	.1449	3.567	.017835
323.15	.0075	.2493	3.895	.019475
323.15	.0075	.3845	3.743	.018715
273.15	.008	.1859	1.635	.008175
273.15	.008	.4985	1.028	.00514
273.15	.008	.3029	1.422	.00711
273.15	.008	.0987	1.426	.00713
273.15	.008	.6954	.742	.00371
273.15	.008	.9013	.563	.002815
273.15	.008	1	.523	.002615
273.15	.008	.0463	.978	.00489
273.15	.008	.1449	1.565	.007825
273.15	.008	.2493	1.517	.007585
273.15	.008	.3845	1.252	.00626
283.15	.008	.1859	2.028	.01014
283.15	.008	.4985	1.407	.007035
283.15	.008	.3029	1.841	.009205
283.15	.008	.0987	1.726	.00863
283.15	.008	.6954	1.07	.00535
283.15	.008	.9013	.849	.004245
283.15	.008	1	.786	.00393
283.15	.008	.0463	1.17	.00585
283.15	.008	.1449	1.926	.00963
283.15	.008	.2493	1.926	.00963
283.15	.008	.3845	1.659	.008295
293.15	.008	.1859	2.452	.01226
293.15	.008	.4985	1.842	.00921
293.15	.008	.3029	2.295	.011475
293.15	.008	.0987	2.05	.01025
293.15	.008	.6954	1.458	.00729
293.15	.008	.9013	1.192	.00596
293.15	.008	1	1.123	.005615
293.15	.008	.0463	1.371	.006855
293.15	.008	.1449	2.31	.01155
293.15	.008	.2493	2.374	.01187
293.15	.008	.3845	2.116	.01058
298.15	.008	.1859	2.675	.013375
298.15	.008	.4985	2.083	.010415
298.15	.008	.3029	2.54	.0127
298.15	.008	.0987	2.217	.011085
298.15	.008	.6954	1.678	.00839
298.15	.008	.9013	1.393	.006965
298.15	.008	1	1.318	.00659
298.15	.008	.0463	1.474	.00737
298.15	.008	.1449	2.51	.01255
298.15	.008	.2493	2.613	.013065
298.15	.008	.3845	2.364	.01182
303.15	.008	.1859	2.902	.01451
303.15	.008	.4985	2.334	.01167
303.15	.008	.3029	2.791	.013955
303.15	.008	.0987	2.384	.01192
303.15	.008	.6954	1.913	.009565
303.15	.008	.9013	1.608	.00804
303.15	.008	1	1.527	.007635
303.15	.008	.0463	1.579	.007895
303.15	.008	.1449	2.714	.01357
303.15	.008	.2493	2.856	.01428
303.15	.008	.3845	2.62	.0131
313.15	.008	.1859	3.373	.016865
313.15	.008	.4985	2.876	.01438
313.15	.008	.3029	3.321	.016605
313.15	.008	.0987	2.73	.01365
313.15	.008	.6954	2.427	.012135
313.15	.008	.9013	2.091	.010455
313.15	.008	1	1.997	.009985
313.15	.008	.0463	1.793	.008965
313.15	.008	.1449	3.134	.01567
313.15	.008	.2493	3.364	.01682
313.15	.008	.3845	3.163	.015815
323.15	.008	.1859	3.858	.01929
323.15	.008	.4985	3.459	.017295
323.15	.008	.3029	3.877	.019385
323.15	.008	.0987	3.082	.01541
323.15	.008	.6954	2.994	.01497
323.15	.008	.9013	2.634	.01317
323.15	.008	1	2.529	.012645
323.15	.008	.0463	2.011	.010055
323.15	.008	.1449	3.567	.017835
323.15	.008	.2493	3.895	.019475
323.15	.008	.3845	3.743	.018715
273.15	.00857143	.1859	1.635	.008175
273.15	.00857143	.4985	1.028	.00514
273.15	.00857143	.3029	1.423	.007115
273.15	.00857143	.0987	1.426	.00713
273.15	.00857143	.6954	.742	.00371
273.15	.00857143	.9013	.563	.002815
273.15	.00857143	1	.523	.002615
273.15	.00857143	.0463	.978	.00489
273.15	.00857143	.1449	1.566	.00783
273.15	.00857143	.2493	1.517	.007585
273.15	.00857143	.3845	1.252	.00626
283.15	.00857143	.1859	2.028	.01014
283.15	.00857143	.4985	1.407	.007035
283.15	.00857143	.3029	1.841	.009205
283.15	.00857143	.0987	1.726	.00863
283.15	.00857143	.6954	1.07	.00535
283.15	.00857143	.9013	.849	.004245
283.15	.00857143	1	.786	.00393
283.15	.00857143	.0463	1.17	.00585
283.15	.00857143	.1449	1.926	.00963
283.15	.00857143	.2493	1.926	.00963
283.15	.00857143	.3845	1.659	.008295
293.15	.00857143	.1859	2.452	.01226
293.15	.00857143	.4985	1.842	.00921
293.15	.00857143	.3029	2.296	.01148
293.15	.00857143	.0987	2.051	.010255
293.15	.00857143	.6954	1.458	.00729
293.15	.00857143	.9013	1.192	.00596
293.15	.00857143	1	1.123	.005615
293.15	.00857143	.0463	1.371	.006855
293.15	.00857143	.1449	2.31	.01155
293.15	.00857143	.2493	2.375	.011875
293.15	.00857143	.3845	2.116	.01058
298.15	.00857143	.1859	2.675	.013375
298.15	.00857143	.4985	2.083	.010415
298.15	.00857143	.3029	2.54	.0127
298.15	.00857143	.0987	2.217	.011085
298.15	.00857143	.6954	1.678	.00839
298.15	.00857143	.9013	1.393	.006965
298.15	.00857143	1	1.318	.00659
298.15	.00857143	.0463	1.475	.007375
298.15	.00857143	.1449	2.51	.01255
298.15	.00857143	.2493	2.613	.013065
298.15	.00857143	.3845	2.364	.01182
303.15	.00857143	.1859	2.902	.01451
303.15	.00857143	.4985	2.334	.01167
303.15	.00857143	.3029	2.792	.01396
303.15	.00857143	.0987	2.384	.01192
303.15	.00857143	.6954	1.913	.009565
303.15	.00857143	.9013	1.609	.008045
303.15	.00857143	1	1.527	.007635
303.15	.00857143	.0463	1.579	.007895
303.15	.00857143	.1449	2.714	.01357
303.15	.00857143	.2493	2.856	.01428
303.15	.00857143	.3845	2.62	.0131
313.15	.00857143	.1859	3.373	.016865
313.15	.00857143	.4985	2.876	.01438
313.15	.00857143	.3029	3.321	.016605
313.15	.00857143	.0987	2.73	.01365
313.15	.00857143	.6954	2.427	.012135
313.15	.00857143	.9013	2.091	.010455
313.15	.00857143	1	1.997	.009985
313.15	.00857143	.0463	1.793	.008965
313.15	.00857143	.1449	3.134	.01567
313.15	.00857143	.2493	3.364	.01682
313.15	.00857143	.3845	3.164	.01582
323.15	.00857143	.1859	3.859	.019295
323.15	.00857143	.4985	3.459	.017295
323.15	.00857143	.3029	3.877	.019385
323.15	.00857143	.0987	3.083	.015415
323.15	.00857143	.6954	2.994	.01497
323.15	.00857143	.9013	2.634	.01317
323.15	.00857143	1	2.529	.012645
323.15	.00857143	.0463	2.011	.010055
323.15	.00857143	.1449	3.567	.017835
323.15	.00857143	.2493	3.895	.019475
323.15	.00857143	.3845	3.744	.01872
273.15	.00892857	.1859	1.635	.008175
273.15	.00892857	.4985	1.028	.00514
273.15	.00892857	.3029	1.423	.007115
273.15	.00892857	.0987	1.426	.00713
273.15	.00892857	.6954	.742	.00371
273.15	.00892857	.9013	.563	.002815
273.15	.00892857	1	.523	.002615
273.15	.00892857	.0463	.978	.00489
273.15	.00892857	.1449	1.566	.00783
273.15	.00892857	.2493	1.517	.007585
273.15	.00892857	.3845	1.252	.00626
283.15	.00892857	.1859	2.028	.01014
283.15	.00892857	.4985	1.407	.007035
283.15	.00892857	.3029	1.841	.009205
283.15	.00892857	.0987	1.726	.00863
283.15	.00892857	.6954	1.07	.00535
283.15	.00892857	.9013	.849	.004245
283.15	.00892857	1	.786	.00393
283.15	.00892857	.0463	1.17	.00585
283.15	.00892857	.1449	1.926	.00963
283.15	.00892857	.2493	1.926	.00963
283.15	.00892857	.3845	1.659	.008295
293.15	.00892857	.1859	2.453	.012265
293.15	.00892857	.4985	1.843	.009215
293.15	.00892857	.3029	2.296	.01148
293.15	.00892857	.0987	2.051	.010255
293.15	.00892857	.6954	1.458	.00729
293.15	.00892857	.9013	1.192	.00596
293.15	.00892857	1	1.124	.00562
293.15	.00892857	.0463	1.371	.006855
293.15	.00892857	.1449	2.31	.01155
293.15	.00892857	.2493	2.375	.011875
293.15	.00892857	.3845	2.117	.010585
298.15	.00892857	.1859	2.675	.013375
298.15	.00892857	.4985	2.083	.010415
298.15	.00892857	.3029	2.54	.0127
298.15	.00892857	.0987	2.217	.011085
298.15	.00892857	.6954	1.678	.00839
298.15	.00892857	.9013	1.393	.006965
298.15	.00892857	1	1.318	.00659
298.15	.00892857	.0463	1.475	.007375
298.15	.00892857	.1449	2.511	.012555
298.15	.00892857	.2493	2.614	.01307
298.15	.00892857	.3845	2.364	.01182
303.15	.00892857	.1859	2.902	.01451
303.15	.00892857	.4985	2.334	.01167
303.15	.00892857	.3029	2.792	.01396
303.15	.00892857	.0987	2.385	.011925
303.15	.00892857	.6954	1.913	.009565
303.15	.00892857	.9013	1.609	.008045
303.15	.00892857	1	1.527	.007635
303.15	.00892857	.0463	1.579	.007895
303.15	.00892857	.1449	2.714	.01357
303.15	.00892857	.2493	2.857	.014285
303.15	.00892857	.3845	2.62	.0131
313.15	.00892857	.1859	3.374	.01687
313.15	.00892857	.4985	2.876	.01438
313.15	.00892857	.3029	3.321	.016605
313.15	.00892857	.0987	2.73	.01365
313.15	.00892857	.6954	2.427	.012135
313.15	.00892857	.9013	2.091	.010455
313.15	.00892857	1	1.997	.009985
313.15	.00892857	.0463	1.793	.008965
313.15	.00892857	.1449	3.134	.01567
313.15	.00892857	.2493	3.364	.01682
313.15	.00892857	.3845	3.164	.01582
323.15	.00892857	.1859	3.859	.019295
323.15	.00892857	.4985	3.459	.017295
323.15	.00892857	.3029	3.877	.019385
323.15	.00892857	.0987	3.083	.015415
323.15	.00892857	.6954	2.994	.01497
323.15	.00892857	.9013	2.634	.01317
323.15	.00892857	1	2.529	.012645
323.15	.00892857	.0463	2.011	.010055
323.15	.00892857	.1449	3.567	.017835
323.15	.00892857	.2493	3.896	.01948
323.15	.00892857	.3845	3.744	.01872
273.15	.00961538	.1859	1.635	.008175
273.15	.00961538	.4985	1.028	.00514
273.15	.00961538	.3029	1.423	.007115
273.15	.00961538	.0987	1.426	.00713
273.15	.00961538	.6954	.742	.00371
273.15	.00961538	.9013	.563	.002815
273.15	.00961538	1	.523	.002615
273.15	.00961538	.0463	.978	.00489
273.15	.00961538	.1449	1.566	.00783
273.15	.00961538	.2493	1.517	.007585
273.15	.00961538	.3845	1.252	.00626
283.15	.00961538	.1859	2.028	.01014
283.15	.00961538	.4985	1.407	.007035
283.15	.00961538	.3029	1.841	.009205
283.15	.00961538	.0987	1.726	.00863
283.15	.00961538	.6954	1.07	.00535
283.15	.00961538	.9013	.849	.004245
283.15	.00961538	1	.786	.00393
283.15	.00961538	.0463	1.17	.00585
283.15	.00961538	.1449	1.926	.00963
283.15	.00961538	.2493	1.927	.009635
283.15	.00961538	.3845	1.659	.008295
293.15	.00961538	.1859	2.453	.012265
293.15	.00961538	.4985	1.843	.009215
293.15	.00961538	.3029	2.296	.01148
293.15	.00961538	.0987	2.051	.010255
293.15	.00961538	.6954	1.458	.00729
293.15	.00961538	.9013	1.192	.00596
293.15	.00961538	1	1.124	.00562
293.15	.00961538	.0463	1.371	.006855
293.15	.00961538	.1449	2.31	.01155
293.15	.00961538	.2493	2.375	.011875
293.15	.00961538	.3845	2.117	.010585
298.15	.00961538	.1859	2.676	.01338
298.15	.00961538	.4985	2.083	.010415
298.15	.00961538	.3029	2.541	.012705
298.15	.00961538	.0987	2.217	.011085
298.15	.00961538	.6954	1.678	.00839
298.15	.00961538	.9013	1.393	.006965
298.15	.00961538	1	1.318	.00659
298.15	.00961538	.0463	1.475	.007375
298.15	.00961538	.1449	2.511	.012555
298.15	.00961538	.2493	2.614	.01307
298.15	.00961538	.3845	2.364	.01182
303.15	.00961538	.1859	2.903	.014515
303.15	.00961538	.4985	2.334	.01167
303.15	.00961538	.3029	2.792	.01396
303.15	.00961538	.0987	2.385	.011925
303.15	.00961538	.6954	1.913	.009565
303.15	.00961538	.9013	1.609	.008045
303.15	.00961538	1	1.527	.007635
303.15	.00961538	.0463	1.579	.007895
303.15	.00961538	.1449	2.714	.01357
303.15	.00961538	.2493	2.857	.014285
303.15	.00961538	.3845	2.62	.0131
313.15	.00961538	.1859	3.374	.01687
313.15	.00961538	.4985	2.876	.01438
313.15	.00961538	.3029	3.322	.01661
313.15	.00961538	.0987	2.731	.013655
313.15	.00961538	.6954	2.427	.012135
313.15	.00961538	.9013	2.091	.010455
313.15	.00961538	1	1.997	.009985
313.15	.00961538	.0463	1.793	.008965
313.15	.00961538	.1449	3.134	.01567
313.15	.00961538	.2493	3.364	.01682
313.15	.00961538	.3845	3.164	.01582
323.15	.00961538	.1859	3.86	.0193
323.15	.00961538	.4985	3.459	.017295
323.15	.00961538	.3029	3.878	.01939
323.15	.00961538	.0987	3.083	.015415
323.15	.00961538	.6954	2.995	.014975
323.15	.00961538	.9013	2.635	.013175
323.15	.00961538	1	2.529	.012645
323.15	.00961538	.0463	2.011	.010055
323.15	.00961538	.1449	3.567	.017835
323.15	.00961538	.2493	3.896	.01948
323.15	.00961538	.3845	3.744	.01872
273.15	.01	.1859	1.635	.008175
273.15	.01	.4985	1.028	.00514
273.15	.01	.3029	1.423	.007115
273.15	.01	.0987	1.426	.00713
273.15	.01	.6954	.742	.00371
273.15	.01	.9013	.563	.002815
273.15	.01	1	.523	.002615
273.15	.01	.0463	.978	.00489
273.15	.01	.1449	1.566	.00783
273.15	.01	.2493	1.517	.007585
273.15	.01	.3845	1.252	.00626
283.15	.01	.1859	2.028	.01014
283.15	.01	.4985	1.407	.007035
283.15	.01	.3029	1.841	.009205
283.15	.01	.0987	1.726	.00863
283.15	.01	.6954	1.07	.00535
283.15	.01	.9013	.849	.004245
283.15	.01	1	.786	.00393
283.15	.01	.0463	1.17	.00585
283.15	.01	.1449	1.926	.00963
283.15	.01	.2493	1.927	.009635
283.15	.01	.3845	1.659	.008295
293.15	.01	.1859	2.453	.012265
293.15	.01	.4985	1.842	.00921
293.15	.01	.3029	2.296	.01148
293.15	.01	.0987	2.051	.010255
293.15	.01	.6954	1.458	.00729
293.15	.01	.9013	1.192	.00596
293.15	.01	1	1.124	.00562
293.15	.01	.0463	1.371	.006855
293.15	.01	.1449	2.31	.01155
293.15	.01	.2493	2.375	.011875
293.15	.01	.3845	2.117	.010585
298.15	.01	.1859	2.676	.01338
298.15	.01	.4985	2.083	.010415
298.15	.01	.3029	2.541	.012705
298.15	.01	.0987	2.218	.01109
298.15	.01	.6954	1.678	.00839
298.15	.01	.9013	1.393	.006965
298.15	.01	1	1.318	.00659
298.15	.01	.0463	1.475	.007375
298.15	.01	.1449	2.511	.012555
298.15	.01	.2493	2.614	.01307
298.15	.01	.3845	2.364	.01182
303.15	.01	.1859	2.903	.014515
303.15	.01	.4985	2.334	.01167
303.15	.01	.3029	2.792	.01396
303.15	.01	.0987	2.385	.011925
303.15	.01	.6954	1.913	.009565
303.15	.01	.9013	1.609	.008045
303.15	.01	1	1.527	.007635
303.15	.01	.0463	1.579	.007895
303.15	.01	.1449	2.714	.01357
303.15	.01	.2493	2.857	.014285
303.15	.01	.3845	2.62	.0131
313.15	.01	.1859	3.374	.01687
313.15	.01	.4985	2.876	.01438
313.15	.01	.3029	3.322	.01661
313.15	.01	.0987	2.731	.013655
313.15	.01	.6954	2.427	.012135
313.15	.01	.9013	2.092	.01046
313.15	.01	1	1.997	.009985
313.15	.01	.0463	1.793	.008965
313.15	.01	.1449	3.134	.01567
313.15	.01	.2493	3.364	.01682
313.15	.01	.3845	3.164	.01582
323.15	.01	.1859	3.86	.0193
323.15	.01	.4985	3.459	.017295
323.15	.01	.3029	3.878	.01939
323.15	.01	.0987	3.084	.01542
323.15	.01	.6954	2.995	.014975
323.15	.01	.9013	2.635	.013175
323.15	.01	1	2.529	.012645
323.15	.01	.0463	2.011	.010055
323.15	.01	.1449	3.567	.017835
323.15	.01	.2493	3.896	.01948
323.15	.01	.3845	3.744	.01872
