Measured thermophysical data. Ternary equilibrium data of mixtures consisting of 2-butanol, water, and heavy alcohols at T = 298.2 K
Source: J. Chem. Thermodyn., 2012, 10.1016/j.jct.2012.01.003
Compound 1: butan-2-ol, C4H10O, purity 99%
Compound 2: 1-hydroxyhexane, C6H14O, purity 99%
Compound 3: enanthic alcohol, C7H16O, purity 99%
Compound 4: octyl alcohol, C8H18O, purity 99%
Compound 5: 1-decanol, C10H22O, purity 99%
Compound 6: water, H2O

System: butan-2-ol; phases: Liquid
Fixed: Pressure, kPa = 101.325
Property: Refractive index (Na D-line) (Liquid); method: Standard Abbe refractometry
Temperature, K	Refractive index (Na D-line)	uncertainty
298.2	1.3949	.0001

System: butan-2-ol; phases: Liquid
Fixed: Pressure, kPa = 101.325
Property: Mass density, kg/m3 (Liquid); method: Kyoto 210 Density Meter
Temperature, K	Mass density, kg/m3	uncertainty
298.2	802.34	.01

System: 1-hydroxyhexane; phases: Liquid
Fixed: Pressure, kPa = 101.325
Property: Refractive index (Na D-line) (Liquid); method: Standard Abbe refractometry
Temperature, K	Refractive index (Na D-line)	uncertainty
298.2	1.4155	.0001

System: 1-hydroxyhexane; phases: Liquid
Fixed: Pressure, kPa = 101.325
Property: Mass density, kg/m3 (Liquid); method: Kyoto 210 Density Meter
Temperature, K	Mass density, kg/m3	uncertainty
298.2	815.21	.01

System: enanthic alcohol; phases: Liquid
Fixed: Pressure, kPa = 101.325
Property: Refractive index (Na D-line) (Liquid); method: Standard Abbe refractometry
Temperature, K	Refractive index (Na D-line)	uncertainty
298.2	1.4224	.0001

System: enanthic alcohol; phases: Liquid
Fixed: Pressure, kPa = 101.325
Property: Mass density, kg/m3 (Liquid); method: Kyoto 210 Density Meter
Temperature, K	Mass density, kg/m3	uncertainty
298.2	818.83	.01

System: octyl alcohol; phases: Liquid
Fixed: Pressure, kPa = 101.325
Property: Refractive index (Na D-line) (Liquid); method: Standard Abbe refractometry
Temperature, K	Refractive index (Na D-line)	uncertainty
298.2	1.427	.0001

System: octyl alcohol; phases: Liquid
Fixed: Pressure, kPa = 101.325
Property: Mass density, kg/m3 (Liquid); method: Kyoto 210 Density Meter
Temperature, K	Mass density, kg/m3	uncertainty
298.2	825.1	.01

System: 1-decanol; phases: Liquid
Fixed: Pressure, kPa = 101.325
Property: Refractive index (Na D-line) (Liquid); method: Standard Abbe refractometry
Temperature, K	Refractive index (Na D-line)	uncertainty
298.2	1.4344	.0001

System: 1-decanol; phases: Liquid
Fixed: Pressure, kPa = 101.325
Property: Mass density, kg/m3 (Liquid); method: Kyoto 210 Density Meter
Temperature, K	Mass density, kg/m3	uncertainty
298.2	826.86	.01

System: water; phases: Liquid
Fixed: Pressure, kPa = 101.325
Property: Refractive index (Na D-line) (Liquid); method: Standard Abbe refractometry
Temperature, K	Refractive index (Na D-line)	uncertainty
298.2	1.3324	.0001

System: water; phases: Liquid
Fixed: Pressure, kPa = 101.325
Property: Mass density, kg/m3 (Liquid); method: Kyoto 210 Density Meter
Temperature, K	Mass density, kg/m3	uncertainty
298.2	997.09	.01

System: butan-2-ol + 1-hydroxyhexane + water; phases: Liquid mixture 1, Liquid mixture 2
Fixed: Pressure, kPa = 101.3
Fixed: Temperature, K = 298.2
Property: Mass fraction of water (Liquid mixture 1); method: KF titration
Mass fraction of butan-2-ol	Mass fraction of water	uncertainty
0	.056	.001
.047	.067	.001
.1	.07	.001
.147	.074	.001
.23	.083	.001
.357	.104	.001
.438	.122	.001
.51	.143	.001
.583	.168	.001
.646	.193	.001
.675	.247	.001
.61	.391	.001
0	.995	.001
.028	.969	.001
.055	.941	.001
.075	.921	.001
.151	.848	.001
.2	.801	.001

System: butan-2-ol + 1-hydroxyhexane + water; phases: Liquid mixture 2, Liquid mixture 1
Fixed: Pressure, kPa = 101.3
Fixed: Temperature, K = 298.2
Property: Mass fraction of water (Liquid mixture 2); method: Index of refraction calibration data
Property: Mass fraction of water (Liquid mixture 1); method: Index of refraction calibration data
Property: Mass fraction of butan-2-ol (Liquid mixture 1); method: Index of refraction calibration data
Mass fraction of butan-2-ol	Mass fraction of water	uncertainty	Mass fraction of water	uncertainty	Mass fraction of butan-2-ol	uncertainty
.087	.053	.001	.975	.001	.02	.001
.187	.082	.001	.963	.001	.033	.001
.251	.095	.001	.947	.001	.049	.001
.345	.113	.001	.941	.001	.055	.001
.423	.128	.001	.921	.001	.076	.001
.463	.136	.001	.905	.001	.092	.001

System: butan-2-ol + 1-hydroxyhexane + water; phases: Liquid mixture 1, Liquid mixture 2
Fixed: Temperature, K = 298.2
Property: Refractive index (Na D-line) (Liquid mixture 1); method: Standard Abbe refractometry
Mass fraction of water	Mass fraction of butan-2-ol	Refractive index (Na D-line)	uncertainty
.975	.02	1.3302	.0001
.963	.033	1.3314	.0001
.947	.049	1.3329	.0001
.941	.055	1.3335	.0001
.921	.076	1.3355	.0001
.905	.092	1.337	.0001

System: butan-2-ol + 1-hydroxyhexane + water; phases: Liquid mixture 2, Liquid mixture 1
Fixed: Temperature, K = 298.2
Property: Refractive index (Na D-line) (Liquid mixture 2); method: Standard Abbe refractometry
Mass fraction of water	Mass fraction of butan-2-ol	Refractive index (Na D-line)	uncertainty
.053	.087	1.4052	.0001
.082	.187	1.4015	.0001
.095	.251	1.3991	.0001
.113	.345	1.3956	.0001
.128	.423	1.3927	.0001
.136	.463	1.3912	.0001

System: butan-2-ol + enanthic alcohol + water; phases: Liquid mixture 1, Liquid mixture 2
Fixed: Pressure, kPa = 101.3
Fixed: Temperature, K = 298.2
Property: Mass fraction of water (Liquid mixture 1); method: KF titration
Mass fraction of butan-2-ol	Mass fraction of water	uncertainty
0	.04	.001
.066	.044	.001
.118	.045	.001
.226	.052	.001
.75	.25	.001
.377	.074	.001
.449	.091	.001
.521	.113	.001
.631	.157	.001
.689	.211	.001
.663	.297	.001
.61	.391	.001
0	.993	.001
.046	.95	.001
.071	.926	.001
.116	.882	.001
.148	.851	.001
.2	.801	.001

System: butan-2-ol + enanthic alcohol + water; phases: Liquid mixture 2, Liquid mixture 1
Fixed: Pressure, kPa = 101.3
Fixed: Temperature, K = 298.2
Property: Mass fraction of water (Liquid mixture 2); method: Index of refraction calibration data
Property: Mass fraction of water (Liquid mixture 1); method: Index of refraction calibration data
Property: Mass fraction of butan-2-ol (Liquid mixture 1); method: Index of refraction calibration data
Mass fraction of butan-2-ol	Mass fraction of water	uncertainty	Mass fraction of water	uncertainty	Mass fraction of butan-2-ol	uncertainty
.098	.034	.001	.981	.001	.012	.001
.198	.053	.001	.96	.001	.034	.001
.31	.073	.001	.939	.001	.057	.001
.386	.087	.001	.926	.001	.07	.001
.448	.099	.001	.917	.001	.08	.001
.519	.111	.001	.909	.001	.089	.001

System: butan-2-ol + enanthic alcohol + water; phases: Liquid mixture 2, Liquid mixture 1
Fixed: Temperature, K = 298.2
Property: Refractive index (Na D-line) (Liquid mixture 2); method: Standard Abbe refractometry
Mass fraction of water	Mass fraction of butan-2-ol	Refractive index (Na D-line)	uncertainty
.034	.098	1.4165	.0001
.053	.198	1.4128	.0001
.073	.31	1.4087	.0001
.087	.386	1.4059	.0001
.099	.448	1.4036	.0001
.111	.519	1.401	.0001

System: butan-2-ol + enanthic alcohol + water; phases: Liquid mixture 1, Liquid mixture 2
Fixed: Temperature, K = 298.2
Property: Refractive index (Na D-line) (Liquid mixture 1); method: Standard Abbe refractometry
Mass fraction of water	Mass fraction of butan-2-ol	Refractive index (Na D-line)	uncertainty
.981	.012	1.3344	.0001
.96	.034	1.3365	.0001
.939	.057	1.3386	.0001
.926	.07	1.3399	.0001
.917	.08	1.3408	.0001
.909	.089	1.3416	.0001

System: butan-2-ol + octyl alcohol + water; phases: Liquid mixture 1, Liquid mixture 2
Fixed: Pressure, kPa = 101.3
Fixed: Temperature, K = 298.2
Property: Mass fraction of water (Liquid mixture 1); method: KF titration
Mass fraction of butan-2-ol	Mass fraction of water	uncertainty
0	.01	.001
.05	.014	.001
.104	.021	.001
.193	.034	.001
.284	.051	.001
.366	.069	.001
.46	.096	.001
.526	.117	.001
.6	.145	.001
.661	.17	.001
.692	.23	.001
.61	.391	.001
0	.996	.001
.098	.9	.001
.118	.881	.001
.131	.868	.001
.168	.831	.001
.2	.801	.001

System: butan-2-ol + octyl alcohol + water; phases: Liquid mixture 2, Liquid mixture 1
Fixed: Pressure, kPa = 101.3
Fixed: Temperature, K = 298.2
Property: Mass fraction of water (Liquid mixture 2); method: Index of refraction calibration data
Property: Mass fraction of water (Liquid mixture 1); method: Index of refraction calibration data
Property: Mass fraction of butan-2-ol (Liquid mixture 1); method: Index of refraction calibration data
Mass fraction of butan-2-ol	Mass fraction of water	uncertainty	Mass fraction of water	uncertainty	Mass fraction of butan-2-ol	uncertainty
.112	.02	.001	.985	.001	.012	.001
.234	.048	.001	.964	.001	.033	.001
.291	.061	.001	.941	.001	.056	.001
.408	.086	.001	.915	.001	.082	.001
.437	.093	.001	.903	.001	.094	.001
.482	.103	.001	.894	.001	.103	.001

System: butan-2-ol + octyl alcohol + water; phases: Liquid mixture 2, Liquid mixture 1
Fixed: Temperature, K = 298.2
Property: Refractive index (Na D-line) (Liquid mixture 2); method: Standard Abbe refractometry
Mass fraction of water	Mass fraction of butan-2-ol	Refractive index (Na D-line)	uncertainty
.02	.112	1.4191	.0001
.048	.234	1.4129	.0001
.061	.291	1.41	.0001
.086	.408	1.4041	.0001
.093	.437	1.4026	.0001
.103	.482	1.4003	.0001

System: butan-2-ol + octyl alcohol + water; phases: Liquid mixture 1, Liquid mixture 2
Fixed: Temperature, K = 298.2
Property: Refractive index (Na D-line) (Liquid mixture 1); method: Standard Abbe refractometry
Mass fraction of water	Mass fraction of butan-2-ol	Refractive index (Na D-line)	uncertainty
.985	.012	1.3293	.0001
.964	.033	1.3314	.0001
.941	.056	1.3338	.0001
.915	.082	1.3364	.0001
.903	.094	1.3376	.0001
.894	.103	1.3385	.0001

System: butan-2-ol + 1-decanol + water; phases: Liquid mixture 1, Liquid mixture 2
Fixed: Pressure, kPa = 101.3
Fixed: Temperature, K = 298.2
Property: Mass fraction of water (Liquid mixture 1); method: KF titration
Mass fraction of butan-2-ol	Mass fraction of water	uncertainty
0	.006	.001
.073	.012	.001
.124	.013	.001
.226	.021	.001
.303	.032	.001
.421	.058	.001
.467	.072	.001
.589	.121	.001
.625	.141	.001
.696	.186	.001
.692	.235	.001
.61	.391	.001
0	.999	.001
.055	.944	.001
.098	.902	.001
.115	.884	.001
.133	.866	.001
.2	.801	.001

System: butan-2-ol + 1-decanol + water; phases: Liquid mixture 2, Liquid mixture 1
Fixed: Pressure, kPa = 101.3
Fixed: Temperature, K = 298.2
Property: Mass fraction of water (Liquid mixture 2); method: Index of refraction calibration data
Property: Mass fraction of water (Liquid mixture 1); method: Index of refraction calibration data
Property: Mass fraction of butan-2-ol (Liquid mixture 1); method: Index of refraction calibration data
Mass fraction of butan-2-ol	Mass fraction of water	uncertainty	Mass fraction of water	uncertainty	Mass fraction of butan-2-ol	uncertainty
.115	.007	.001	.989	.001	.01	.001
.199	.024	.001	.969	.001	.03	.001
.301	.045	.001	.948	.001	.051	.001
.385	.063	.001	.923	.001	.076	.001
.446	.076	.001	.915	.001	.085	.001
.493	.085	.001	.903	.001	.096	.001

System: butan-2-ol + 1-decanol + water; phases: Liquid mixture 2, Liquid mixture 1
Fixed: Temperature, K = 298.2
Property: Refractive index (Na D-line) (Liquid mixture 2); method: Standard Abbe refractometry
Mass fraction of water	Mass fraction of butan-2-ol	Refractive index (Na D-line)	uncertainty
.007	.115	1.43	.0001
.024	.199	1.4253	.0001
.045	.301	1.4196	.0001
.063	.385	1.4149	.0001
.076	.446	1.4115	.0001
.085	.493	1.4089	.0001

System: butan-2-ol + 1-decanol + water; phases: Liquid mixture 1, Liquid mixture 2
Fixed: Temperature, K = 298.2
Property: Refractive index (Na D-line) (Liquid mixture 1); method: Standard Abbe refractometry
Mass fraction of water	Mass fraction of butan-2-ol	Refractive index (Na D-line)	uncertainty
.989	.01	1.3346	.0001
.969	.03	1.3364	.0001
.948	.051	1.3383	.0001
.923	.076	1.3406	.0001
.915	.085	1.3414	.0001
.903	.096	1.3425	.0001
