Measured thermophysical data. Thermophysical properties and phase equilibria study of the binary systems {N-hexylquinolinium bis(trifluoromethylsulfonyl)imide + aromatic hydrocarbons, or an alcohol}
Source: J. Chem. Thermodyn., 2011, 10.1016/j.jct.2010.12.021
Compound 1: N-hexylquinolinium bis(trifluoromethylsulfonyl)imide, C17H20F6N2O4S2, purity 98%
Compound 2: benzene, C6H6, purity 99%
Compound 3: toluene, C7H8, purity 99%
Compound 4: ethylbenzene, C8H10, purity 99%
Compound 5: propylbenzene, C9H12, purity 99%
Compound 6: butan-1-ol, C4H10O, purity 99%
Compound 7: pentylcarbinol, C6H14O, purity 99%
Compound 8: 1-octanol, C8H18O, purity 99%
Compound 9: 1-decanol, C10H22O, purity 99%

System: N-hexylquinolinium bis(trifluoromethylsulfonyl)imide; phases: Crystal, Liquid, Air at 1 atmosphere
Property: Normal melting temperature, K (Crystal); method: DSC/DTA
Normal melting temperature, K	uncertainty
317.2	.05

System: N-hexylquinolinium bis(trifluoromethylsulfonyl)imide; phases: Crystal, Liquid, Air at 1 atmosphere
Property: Molar enthalpy of transition or fusion, kJ/mol (Crystal); method: DSC/DTA
Molar enthalpy of transition or fusion, kJ/mol	uncertainty
63.54	1.2708

System: N-hexylquinolinium bis(trifluoromethylsulfonyl)imide; phases: Crystal
Fixed: Pressure, kPa = 101.325
Property: Molar heat capacity at constant pressure, J/K/mol (Crystal); method: Small sample (50 mg) DSC
Temperature, K	Molar heat capacity at constant pressure, J/K/mol	uncertainty
203.05	300.39	15.0195
203.04	300.18	15.009
203.04	300.06	15.003
203.04	300.57	15.0285
203.04	303.68	15.184
203.05	306.52	15.326
203.06	305.88	15.294
203.08	302.69	15.1345
203.13	298.95	14.9475
203.21	298.13	14.9065
203.35	295.39	14.7695
203.56	285.68	14.284
203.85	280.12	14.006
204.22	282.02	14.101
204.66	288.24	14.412
205.16	293.91	14.6955
205.7	295.33	14.7665
206.26	301.86	15.093
206.82	315.29	15.7645
207.36	320.59	16.0295
207.9	319.02	15.951
208.43	317.61	15.8805
208.95	317.22	15.861
209.48	316.74	15.837
210.02	313.5	15.675
210.58	310.53	15.5265
211.15	311.06	15.553
211.74	311.71	15.5855
212.32	311.41	15.5705
212.92	311.93	15.5965
213.51	313.38	15.669
214.11	314.64	15.732
214.7	315.47	15.7735
215.3	316.35	15.8175
215.9	317.1	15.855
216.5	317.71	15.8855
217.1	318.5	15.925
217.7	319.34	15.967
218.3	320.14	16.007
218.9	320.94	16.047
219.5	321.78	16.089
220.1	322.65	16.1325
220.7	323.47	16.1735
221.3	324.32	16.216
221.9	325.15	16.2575
222.5	325.93	16.2965
223.1	326.77	16.3385
223.7	327.6	16.38
224.3	328.43	16.4215
224.9	329.26	16.463
225.5	330.08	16.504
226.1	330.9	16.545
226.7	331.78	16.589
227.3	332.65	16.6325
227.9	333.52	16.676
228.5	334.39	16.7195
229.1	335.29	16.7645
229.7	336.19	16.8095
230.3	337.06	16.853
230.9	337.92	16.896
231.5	338.75	16.9375
232.1	339.57	16.9785
232.7	340.41	17.0205
233.3	341.25	17.0625
233.9	342.13	17.1065
234.5	343.04	17.152
235.11	343.9	17.195
235.71	344.83	17.2415
236.31	345.73	17.2865
236.91	346.55	17.3275
237.51	347.39	17.3695
238.11	348.22	17.411
238.71	348.99	17.4495
239.31	349.79	17.4895
239.91	350.56	17.528
240.51	351.35	17.5675
241.11	352.21	17.6105
241.71	353.05	17.6525
242.31	353.86	17.693
242.91	354.74	17.737
243.51	355.63	17.7815
244.11	356.56	17.828
244.71	357.47	17.8735
245.31	358.35	17.9175
245.91	359.26	17.963
246.51	360.13	18.0065
247.11	360.95	18.0475
247.71	361.75	18.0875
248.31	362.5	18.125
248.91	363.25	18.1625
249.51	363.98	18.199
250.11	364.75	18.2375
250.71	365.53	18.2765
251.31	366.32	18.316
251.91	367.13	18.3565
252.51	367.96	18.398
253.11	368.8	18.44
253.71	369.64	18.482
254.31	370.52	18.526
254.91	371.43	18.5715
255.51	372.34	18.617
256.11	373.31	18.6655
256.71	374.34	18.717
257.31	375.35	18.7675
257.91	376.38	18.819
258.51	377.4	18.87
259.11	378.39	18.9195
259.71	379.39	18.9695
260.31	380.35	19.0175
260.91	381.29	19.0645
261.51	382.27	19.1135
262.11	383.27	19.1635
262.71	384.28	19.214
263.31	385.29	19.2645
263.91	386.31	19.3155
264.51	387.3	19.365
265.11	388.31	19.4155
265.71	389.33	19.4665
266.32	390.32	19.516
266.92	391.31	19.5655
267.52	392.31	19.6155
268.12	393.27	19.6635
268.72	394.25	19.7125
269.32	395.21	19.7605
269.92	396.11	19.8055
270.52	397.07	19.8535
271.12	398.06	19.903
271.72	399.04	19.952
272.32	400.09	20.0045
272.92	401.2	20.06
273.52	402.31	20.1155
274.12	403.5	20.175
274.72	404.68	20.234
275.32	405.86	20.293
275.92	407.08	20.354
276.52	408.31	20.4155
277.12	409.49	20.4745
277.72	410.7	20.535
278.32	411.89	20.5945
278.92	413.04	20.652
279.52	414.18	20.709
280.12	415.29	20.7645
280.72	416.38	20.819
281.32	417.47	20.8735
281.92	418.55	20.9275
282.52	419.65	20.9825
283.12	420.81	21.0405
283.72	421.99	21.0995
284.32	423.19	21.1595
284.92	424.39	21.2195
285.52	425.58	21.279
286.12	426.78	21.339
286.72	427.94	21.397
287.32	429.07	21.4535
287.92	430.21	21.5105
288.52	431.37	21.5685
289.12	432.53	21.6265
289.72	433.71	21.6855
290.32	434.96	21.748
290.92	436.29	21.8145
291.52	437.63	21.8815
292.12	439.04	21.952
292.72	440.54	22.027
293.32	442.04	22.102
293.92	443.6	22.18
294.52	445.19	22.2595
295.12	446.81	22.3405
295.72	448.46	22.423
296.32	450.18	22.509
296.92	451.92	22.596
297.52	453.71	22.6855
298.12	455.57	22.7785
298.72	457.56	22.878
299.32	459.55	22.9775
299.92	461.52	23.076
300.52	463.69	23.1845
301.12	465.97	23.2985
301.72	468.26	23.413
302.32	470.81	23.5405
302.92	473.57	23.6785
303.52	476.39	23.8195
304.12	479.52	23.976
304.73	483.2	24.16
305.33	487.13	24.3565
305.93	491.57	24.5785
306.53	497.37	24.8685
307.13	504.13	25.2065
307.72	510.47	25.5235
308.32	518.68	25.934
308.92	531.59	26.5795
309.52	546.05	27.3025
310.12	573.74	28.687
310.72	653.81	32.6905
311.32	795.64	39.782
311.92	921.44	46.072
312.51	1266.75	63.3375
313.09	2288.54	114.427
313.66	3477.29	173.8645
314.23	4855.97	242.7985
314.8	6301.52	315.076
315.37	7631.79	381.5895
315.94	9002.32	450.116
316.54	9157.65	457.8825

System: N-hexylquinolinium bis(trifluoromethylsulfonyl)imide; phases: Liquid
Fixed: Pressure, kPa = 101.325
Property: Molar heat capacity at constant pressure, J/K/mol (Liquid); method: Small sample (50 mg) DSC
Temperature, K	Molar heat capacity at constant pressure, J/K/mol	uncertainty
317.17	7971.73	398.5865
317.8	6765.52	338.276
318.43	5315.36	265.768
319.06	3937.28	196.864
319.69	2716.66	135.833
320.31	1646.21	82.3105
320.92	1124.18	56.209
321.52	783.96	39.198
322.12	605.73	30.2865
322.72	578.47	28.9235
323.33	579.09	28.9545
323.93	579.53	28.9765
324.53	579.5	28.975
325.13	579.81	28.9905
325.73	580.31	29.0155
326.33	580.35	29.0175
326.93	580.48	29.024
327.53	580.91	29.0455
329.93	582.05	29.1025
330.53	582.3	29.115
331.13	582.61	29.1305
331.73	582.85	29.1425
332.33	583.14	29.157
332.93	583.5	29.175
333.53	583.82	29.191
334.13	584.2	29.21
334.73	584.61	29.2305
335.33	585.06	29.253
335.93	585.62	29.281
336.53	586.11	29.3055
337.13	586.52	29.326
337.73	586.92	29.346
338.33	587.33	29.3665
338.93	587.69	29.3845
339.53	587.94	29.397
340.13	588.08	29.404
340.73	588.35	29.4175
341.33	588.62	29.431
341.93	588.83	29.4415
342.538	589.03	29.4515
343.13	589.23	29.4615
343.73	589.47	29.4735
344.33	589.68	29.484
344.93	589.8	29.49
345.53	589.91	29.4955
346.13	590.01	29.5005
346.73	590.17	29.5085
347.33	590.33	29.5165
347.93	590.52	29.526
348.53	590.79	29.5395
349.13	591.11	29.5555
349.73	591.46	29.573
350.33	591.81	29.5905
350.93	592.11	29.6055
351.53	592.4	29.62
352.13	592.64	29.632
352.73	592.89	29.6445
353.33	593.12	29.656
353.93	593.32	29.666
354.53	593.58	29.679
355.13	593.86	29.693
355.73	594.11	29.7055
356.33	594.37	29.7185
356.93	594.62	29.731
357.53	594.9	29.745
358.13	595.2	29.76
358.73	595.42	29.771
359.33	595.58	29.779
359.93	595.78	29.789
360.53	595.96	29.798
361.13	596.12	29.806
361.73	596.19	29.8095
362.33	596.29	29.8145
362.93	596.51	29.8255
363.53	596.79	29.8395
364.13	597.06	29.853
364.73	597.35	29.8675
365.33	597.68	29.884
365.93	598.06	29.903
366.53	598.36	29.918
367.13	598.59	29.9295
367.73	598.82	29.941
368.33	599	29.95
368.93	599.12	29.956
369.53	599.24	29.962
370.13	599.38	29.969

System: N-hexylquinolinium bis(trifluoromethylsulfonyl)imide; phases: Liquid
Fixed: Pressure, kPa = 101.325
Property: Mass density, kg/m3 (Liquid); method: Vibrating tube method
Temperature, K	Mass density, kg/m3	uncertainty
323.15	1365.94	.1
328.15	1361.65	.1
333.15	1357.35	.1
338.15	1353.06	.1
343.15	1348.77	.1
348.15	1344.52	.1

System: N-hexylquinolinium bis(trifluoromethylsulfonyl)imide; phases: Liquid
Fixed: Pressure, kPa = 101.325
Property: Viscosity, Pa*s (Liquid); method: Falling or rolling sphere viscometry
Temperature, K	Viscosity, Pa*s	uncertainty
323.15	.1001	.0001001
328.15	.07797	.00007797
333.15	.06178	.00006178
338.15	.05009	.00005009
343.15	.04108	.00004108
348.15	.03422	.00003422

System: benzene + N-hexylquinolinium bis(trifluoromethylsulfonyl)imide; phases: Liquid, Crystal
Fixed: Pressure, kPa = 101
Property: Solid-liquid equilibrium temperature, K (Liquid); method: Visual observation
Mole fraction of N-hexylquinolinium bis(trifluoromethylsulfonyl)imide	Solid-liquid equilibrium temperature, K	uncertainty
1	317.2	.05
.9446	315.9	.05
.9047	314.5	.05
.8415	313.3	.05
.7964	311.7	.05
.7237	309.2	.05
.6614	306.6	.05
.6091	304.3	.05
.5614	301.9	.05
.5095	298.4	.05
.4564	294.6	.05
.4035	290.2	.05
.362	286.2	.05
.325	281.7	.05
.2861	276.3	.05
.2526	270.9	.05

System: benzene + N-hexylquinolinium bis(trifluoromethylsulfonyl)imide; phases: Liquid, Crystal
Fixed: Pressure, kPa = 101
Property: Solid-liquid equilibrium temperature, K (Liquid); method: Visual observation
Mole fraction of N-hexylquinolinium bis(trifluoromethylsulfonyl)imide	Solid-liquid equilibrium temperature, K	uncertainty
.2251	268.9	.05
.2134	270.1	.05
.2041	271.2	.05
.1954	272.3	.05
.1874	273.3	.05
.1798	274.2	.05
.1716	275	.05
.164	275.8	.05
.1532	276.7	.05
.1432	277.5	.05
.1348	278	.05
.1268	278.4	.05
.1195	278.5	.05
.1137	278.6	.05

System: toluene + N-hexylquinolinium bis(trifluoromethylsulfonyl)imide; phases: Liquid, Crystal
Fixed: Pressure, kPa = 101
Property: Solid-liquid equilibrium temperature, K (Liquid); method: Visual observation
Mole fraction of N-hexylquinolinium bis(trifluoromethylsulfonyl)imide	Solid-liquid equilibrium temperature, K	uncertainty
1	317.2	.05
.9151	314.7	.05
.8346	312.9	.05
.7671	310.7	.05
.6999	308.5	.05
.6465	306	.05
.5927	303.8	.05
.5395	301.1	.05
.4851	297.8	.05
.4415	294.8	.05
.3946	290.9	.05
.3478	286.3	.05
.3055	281.4	.05
.2674	276.2	.05
.2286	270.4	.05
.2099	267.6	.05
.1946	265.3	.05
.1808	263.6	.05
.1706	262.6	.05
.1615	261.6	.05
.1536	261.6	.05

System: ethylbenzene + N-hexylquinolinium bis(trifluoromethylsulfonyl)imide; phases: Liquid, Crystal
Fixed: Pressure, kPa = 101
Property: Solid-liquid equilibrium temperature, K (Liquid); method: Visual observation
Mole fraction of N-hexylquinolinium bis(trifluoromethylsulfonyl)imide	Solid-liquid equilibrium temperature, K	uncertainty
1	317.2	.05
.9667	316.1	.05
.9315	315.2	.05
.8781	313.8	.05
.8315	312.3	.05
.7737	310.1	.05
.7079	307.3	.05
.6457	304.7	.05
.5903	302.2	.05
.5197	298.6	.05
.4614	295.2	.05
.4123	291.8	.05
.3829	289.8	.05
.3558	287.9	.05
.3322	286.1	.05
.3074	284.2	.05
.2875	282.6	.05
.2595	280.6	.05
.2404	279.3	.05
.2194	279.2	.05

System: propylbenzene + N-hexylquinolinium bis(trifluoromethylsulfonyl)imide; phases: Liquid, Crystal
Fixed: Pressure, kPa = 101
Property: Solid-liquid equilibrium temperature, K (Liquid); method: Visual observation
Mole fraction of N-hexylquinolinium bis(trifluoromethylsulfonyl)imide	Solid-liquid equilibrium temperature, K	uncertainty
1	317.2	.05
.9584	316.2	.05
.9202	315.3	.05
.8741	314	.05
.8318	312.9	.05
.7873	311.2	.05
.7856	311.5	.05
.7226	309.6	.05
.6691	308.1	.05
.6077	305.4	.05
.5966	304.6	.05
.541	302.6	.05
.4879	300.5	.05
.4588	299.3	.05
.427	297.5	.05
.4079	296.1	.05
.4006	295.4	.05
.3851	294.9	.05
.3757	294.3	.05
.3623	293.6	.05
.3461	292.7	.05
.3283	291.8	.05
.3177	291.1	.05
.3119	290.8	.05
.3064	290.6	.05
.2998	290.2	.05
.2962	290.3	.05
.2911	289.7	.05
.2831	289.3	.05
.2742	289.3	.05
.2203	289.3	.05

System: butan-1-ol + N-hexylquinolinium bis(trifluoromethylsulfonyl)imide; phases: Liquid, Crystal
Fixed: Pressure, kPa = 101
Property: Solid-liquid equilibrium temperature, K (Liquid); method: Visual observation
Mole fraction of N-hexylquinolinium bis(trifluoromethylsulfonyl)imide	Solid-liquid equilibrium temperature, K	uncertainty
1	317.2	.05
.913	314.5	.05
.8343	312.3	.05
.7657	310.8	.05
.6725	308.6	.05
.6014	307.3	.05
.5244	305.6	.05
.4574	304.3	.05
.4021	303.3	.05
.3595	302.5	.05
.2827	301.6	.05
.2275	301	.05
.1833	300.7	.05
.1546	300.4	.05
.1154	300.3	.05
.0838	300	.05
.0661	299.8	.05
.0487	299.5	.05
.0386	299.3	.05
.0281	298.8	.05
.0167	297.7	.05
.0107	295.4	.05

System: pentylcarbinol + N-hexylquinolinium bis(trifluoromethylsulfonyl)imide; phases: Liquid, Crystal
Fixed: Pressure, kPa = 101
Property: Solid-liquid equilibrium temperature, K (Liquid); method: Visual observation
Mole fraction of N-hexylquinolinium bis(trifluoromethylsulfonyl)imide	Solid-liquid equilibrium temperature, K	uncertainty
1	317.2	.05
.9226	315.1	.05
.8549	313.4	.05
.8463	313.3	.05
.7829	311.6	.05
.7211	309.9	.05
.6398	308.4	.05
.6255	308.4	.05
.5827	307.5	.05
.5292	307	.05
.4763	306.3	.05
.4287	306	.05
.4176	306	.05
.3847	306	.05
.3466	306	.05
.3005	306	.05
.2711	306	.05
.2474	306	.05
.2407	306	.05
.2152	306	.05
.1939	306	.05
.1705	306	.05
.1534	306	.05
.1421	306	.05
.1079	306	.05
.0765	306	.05
.0517	306	.05
.0482	306	.05
.0347	306	.05
.0239	306	.05
.0209	306	.05
.0126	306	.05

System: pentylcarbinol + N-hexylquinolinium bis(trifluoromethylsulfonyl)imide; phases: Liquid mixture 1, Liquid mixture 2
Fixed: Pressure, kPa = 101
Property: Liquid-liquid equilibrium temperature, K (Liquid mixture 1); method: Visual observation
Mole fraction of N-hexylquinolinium bis(trifluoromethylsulfonyl)imide	Liquid-liquid equilibrium temperature, K	uncertainty
.4176	306.9	.05
.3847	309.3	.05
.3466	312.1	.05
.3005	315	.05
.2711	316.5	.05
.2474	317.9	.05
.2407	317.8	.05
.2152	318.7	.05
.1939	319.2	.05
.1705	319.6	.05
.1534	320	.05
.1421	319.8	.05
.1079	319.9	.05
.0765	319.6	.05
.0517	318.2	.05
.0482	317.7	.05
.0347	315.8	.05
.0239	311.6	.05
.0209	310.6	.05
.0126	307.5	.05

System: 1-octanol + N-hexylquinolinium bis(trifluoromethylsulfonyl)imide; phases: Liquid, Crystal
Fixed: Pressure, kPa = 101
Property: Solid-liquid equilibrium temperature, K (Liquid); method: Visual observation
Mole fraction of N-hexylquinolinium bis(trifluoromethylsulfonyl)imide	Solid-liquid equilibrium temperature, K	uncertainty
1	317.2	.05
.9253	314.9	.05
.8636	313.6	.05
.8045	312.5	.05
.7352	310.9	.05
.6675	310.5	.05
.6288	310.3	.05
.5992	310.4	.05
.5646	310.4	.05
.5257	310.4	.05
.4969	310.4	.05
.4571	310.4	.05
.4239	310.4	.05
.3893	310.4	.05
.3493	310.4	.05
.3158	310.4	.05
.2846	310.4	.05
.2587	310.4	.05
.2316	310.4	.05
.2053	310.4	.05
.1832	310.4	.05
.1661	310.4	.05
.1393	310.4	.05
.1034	310.4	.05
.0696	310.4	.05
.0556	310.4	.05
.0411	310.4	.05
.033	310.4	.05
.0239	310.4	.05
.0184	310.4	.05
.015	310.4	.05
.0113	310.4	.05

System: 1-octanol + N-hexylquinolinium bis(trifluoromethylsulfonyl)imide; phases: Liquid mixture 1, Liquid mixture 2
Fixed: Pressure, kPa = 101
Property: Liquid-liquid equilibrium temperature, K (Liquid mixture 1); method: Visual observation
Mole fraction of N-hexylquinolinium bis(trifluoromethylsulfonyl)imide	Liquid-liquid equilibrium temperature, K	uncertainty
.5992	313.9	.05
.5646	317	.05
.5257	321.4	.05
.4969	324	.05
.4571	327.9	.05
.4239	331.3	.05
.3893	334.5	.05
.3493	337.9	.05
.3158	340	.05
.2846	341.7	.05
.2587	343.1	.05
.2316	344.2	.05
.2053	344.8	.05
.1832	345.5	.05
.1661	345.9	.05
.1393	346.1	.05
.1034	345.8	.05
.0696	344.9	.05
.0556	343.9	.05
.0411	341.7	.05
.033	339.7	.05
.0239	336.4	.05
.0184	333.3	.05
.015	330.6	.05
.0113	327.5	.05

System: 1-decanol + N-hexylquinolinium bis(trifluoromethylsulfonyl)imide; phases: Liquid, Crystal
Fixed: Pressure, kPa = 101
Property: Solid-liquid equilibrium temperature, K (Liquid); method: Visual observation
Mole fraction of N-hexylquinolinium bis(trifluoromethylsulfonyl)imide	Solid-liquid equilibrium temperature, K	uncertainty
1	317.2	.05
.9784	316.7	.05
.9178	315.3	.05
.8633	314.2	.05
.8284	313.4	.05
.7961	312.7	.05
.7235	312.7	.05
.6871	312.7	.05
.6417	312.7	.05
.6051	312.7	.05
.5482	312.7	.05
.4898	312.7	.05
.437	312.7	.05
.4098	312.7	.05
.3281	312.7	.05
.2834	312.7	.05
.1918	312.7	.05
.098	312.7	.05
.0971	312.7	.05
.0545	312.7	.05
.0467	312.7	.05
.0292	312.7	.05
.0242	312.7	.05
.0156	312.7	.05

System: 1-decanol + N-hexylquinolinium bis(trifluoromethylsulfonyl)imide; phases: Liquid mixture 1, Liquid mixture 2
Fixed: Pressure, kPa = 101
Property: Liquid-liquid equilibrium temperature, K (Liquid mixture 1); method: Visual observation
Mole fraction of N-hexylquinolinium bis(trifluoromethylsulfonyl)imide	Liquid-liquid equilibrium temperature, K	uncertainty
.7235	320	.05
.6871	326.5	.05
.6417	332.8	.05
.6051	339	.05
.5482	345.1	.05
.4898	352.4	.05
.437	356.9	.05
.4098	359.5	.05
.3281	365.8	.05
.2834	368.7	.05
.1918	371.4	.05
.098	371.8	.05
.0971	371.5	.05
.0545	369.7	.05
.0467	368.4	.05
.0292	363.9	.05
.0242	361.3	.05
.0156	356.6	.05
