Measured thermophysical data. Binary diffusion coefficients of L-histidine methyl ester dihydrochloride in aqueous solutions
Source: J. Chem. Thermodyn., 2015, 10.1016/j.jct.2015.05.013
Compound 1: methyl L-histidinate dihydrochloride, C7H13Cl2N3O2, purity 97%
Compound 2: water, H2O

System: methyl L-histidinate dihydrochloride + water; phases: Liquid
Fixed: Pressure, kPa = 101.3
Fixed: Temperature, K = 298.15
Property: Binary diffusion coefficient, m2/s (Liquid); method: Taylor dispersion method
Amount concentration (molarity), mol/dm3 of methyl L-histidinate dihydrochloride	Binary diffusion coefficient, m2/s	uncertainty
.001	0.000000001045	.00000000002
.005	0.000000001006	.00000000002
.01	0.000000000982	.00000000002
.02	0.00000000096	.00000000002
.05	0.000000000921	.00000000002
.1	0.000000000861	.00000000002
