Measured thermophysical data. (Liquid + liquid) equilibria of quaternary systems containing water, phosphoric acid, dichloromethane and 1,2-dichloroethane
Source: J. Chem. Thermodyn., 2014, 10.1016/j.jct.2013.05.016
Compound 1: dichloromethane, CH2Cl2, purity 99%
Compound 2: 1,2-dichloroethane, C2H4Cl2, purity 99%
Compound 3: water, H2O

System: dichloromethane + 1,2-dichloroethane + water; phases: Liquid mixture 1, Liquid mixture 2
Fixed: Pressure, kPa = 100
Fixed: Temperature, K = 298.15
Property: Mass fraction of water (Liquid mixture 1); method: Titration method
Solvent: Mass fraction of dichloromethane	Mass fraction of water	uncertainty
.25	.0266	.0133
.25	.96	.48
.5	.0566	.0283
.5	.959	.4795
.75	.0939	.04695
.75	.955	.4775
