Measured thermophysical data. Rheological and time domain 1H NMR relaxation studies of some polyhydroxy solutes in presence of L-glycine
Source: J. Chem. Thermodyn., 2016, 10.1016/j.jct.2016.04.006
Compound 1: D(+)-glucose, C6H12O6, purity 99%
Compound 2: D-mannose, C6H12O6, purity 99%
Compound 3: methyl .alpha.-D-mannopyranoside, C7H14O6, purity 99%
Compound 4: D-mannitol, C6H14O6, purity 99%
Compound 5: 6-deoxy-D-mannose, C6H12O5, purity 99%
Compound 6: D-(+)-maltose, C12H22O11, purity 99%
Compound 7: D-(+)-cellobiose, C12H22O11, purity 98%
Compound 8: glycine, C2H5NO2, purity 99%
Compound 9: water, H2O

System: water; phases: Liquid
Property: Viscosity, Pa*s (Liquid); method: Capillary tube (Ostwald; Ubbelohde) method
Temperature, K	Pressure, kPa	Viscosity, Pa*s	uncertainty
288.15	100	.001138	
298.15	100	.00089	
308.15	100	.000719	
318.15	100	.000596	

System: D(+)-glucose + glycine + water; phases: Liquid
Fixed: Pressure, kPa = 100
Property: Viscosity, Pa*s (Liquid); method: Capillary tube (Ostwald; Ubbelohde) method
Solvent: Molality, mol/kg of glycine	Temperature, K	Molality, mol/kg of D(+)-glucose	Viscosity, Pa*s	uncertainty
0	288.15	0	.001138	
0	288.15	.0523	.001171	
0	288.15	.0745	.001183	
0	288.15	.0885	.001185	
0	288.15	.1034	.001192	
0	288.15	.1197	.001205	
0	288.15	.142	.001219	
0	298.15	0	.00089	
0	298.15	.0523	.000911	
0	298.15	.0745	.000921	
0	298.15	.0885	.000926	
0	298.15	.1034	.000933	
0	298.15	.1197	.000938	
0	298.15	.142	.000948	
0	308.15	0	.000719	
0	308.15	.0523	.000735	
0	308.15	.0745	.000743	
0	308.15	.0885	.000747	
0	308.15	.1034	.000751	
0	308.15	.1197	.000756	
0	308.15	.142	.000762	
0	318.15	0	.000596	
0	318.15	.0523	.000609	
0	318.15	.0745	.000614	
0	318.15	.0885	.000618	
0	318.15	.1034	.000621	
0	318.15	.1197	.000625	
0	318.15	.142	.00063	
.05	288.15	0	.001146	
.05	288.15	.0565	.001179	
.05	288.15	.0697	.001188	
.05	288.15	.0918	.001201	
.05	288.15	.1331	.001221	
.05	288.15	.1444	.001231	
.05	288.15	.1529	.001238	
.05	288.15	.1947	.001261	
.05	288.15	.205	.001271	
.05	298.15	0	.000896	
.05	298.15	.0565	.000917	
.05	298.15	.0697	.000926	
.05	298.15	.0918	.000936	
.05	298.15	.1331	.000954	
.05	298.15	.1444	.000958	
.05	298.15	.1529	.000963	
.05	298.15	.1947	.000977	
.05	298.15	.205	.000982	
.05	308.15	0	.000723	
.05	308.15	.0565	.000741	
.05	308.15	.0697	.000745	
.05	308.15	.0918	.000753	
.05	308.15	.1331	.000764	
.05	308.15	.1444	.000767	
.05	308.15	.1529	.000771	
.05	308.15	.1947	.000783	
.05	308.15	.205	.000788	
.05	318.15	0	.000603	
.05	318.15	.0565	.000616	
.05	318.15	.0697	.00062	
.05	318.15	.0918	.000625	
.05	318.15	.1331	.000636	
.05	318.15	.1444	.000639	
.05	318.15	.1529	.000641	
.05	318.15	.1947	.00065	
.05	318.15	.205	.000653	
.15	288.15	0	.00116	
.15	288.15	.0575	.001194	
.15	288.15	.0725	.001206	
.15	288.15	.0908	.001217	
.15	288.15	.1162	.001234	
.15	288.15	.131	.001242	
.15	288.15	.148	.001254	
.15	288.15	.1739	.001267	
.15	288.15	.2088	.001291	
.15	298.15	0	.000909	
.15	298.15	.0575	.000935	
.15	298.15	.0725	.000943	
.15	298.15	.0908	.00095	
.15	298.15	.1162	.000961	
.15	298.15	.131	.000969	
.15	298.15	.148	.000978	
.15	298.15	.1739	.000985	
.15	298.15	.2088	.000998	
.15	308.15	0	.000735	
.15	308.15	.0575	.000754	
.15	308.15	.0725	.000761	
.15	308.15	.0908	.000765	
.15	308.15	.1162	.000774	
.15	308.15	.131	.000779	
.15	308.15	.148	.000784	
.15	308.15	.1739	.000792	
.15	308.15	.2088	.000802	
.15	318.15	0	.000609	
.15	318.15	.0575	.000622	
.15	318.15	.0725	.000625	
.15	318.15	.0908	.000631	
.15	318.15	.1162	.000637	
.15	318.15	.131	.000641	
.15	318.15	.148	.000646	
.15	318.15	.1739	.000654	
.15	318.15	.2088	.000664	
.25	288.15	0	.001175	
.25	288.15	.0582	.001215	
.25	288.15	.0794	.001229	
.25	288.15	.0857	.001234	
.25	288.15	.1143	.001252	
.25	288.15	.1402	.001263	
.25	288.15	.1651	.001278	
.25	288.15	.1822	.001294	
.25	288.15	.2119	.001315	
.25	298.15	0	.000921	
.25	298.15	.0582	.000947	
.25	298.15	.0794	.000957	
.25	298.15	.0857	.000962	
.25	298.15	.1143	.000975	
.25	298.15	.1402	.000985	
.25	298.15	.1651	.000998	
.25	298.15	.1822	.001006	
.25	298.15	.2119	.001018	
.25	308.15	0	.000745	
.25	308.15	.0582	.000764	
.25	308.15	.0794	.000773	
.25	308.15	.0857	.000776	
.25	308.15	.1143	.000785	
.25	308.15	.1402	.000795	
.25	308.15	.1651	.000803	
.25	308.15	.1822	.000805	
.25	308.15	.2119	.000817	
.25	318.15	0	.000618	
.25	318.15	.0582	.000632	
.25	318.15	.0794	.000639	
.25	318.15	.0857	.000642	
.25	318.15	.1143	.000648	
.25	318.15	.1402	.000654	
.25	318.15	.1651	.000663	
.25	318.15	.1822	.000665	
.25	318.15	.2119	.000673	
.35	288.15	0	.00119	
.35	288.15	.0571	.001231	
.35	288.15	.0766	.001243	
.35	288.15	.0959	.001257	
.35	288.15	.1307	.00128	
.35	288.15	.1393	.001285	
.35	288.15	.1597	.001295	
.35	288.15	.1655	.001302	
.35	288.15	.1912	.001319	
.35	298.15	0	.000934	
.35	298.15	.0571	.000962	
.35	298.15	.0766	.000972	
.35	298.15	.0959	.000982	
.35	298.15	.1307	.000997	
.35	298.15	.1393	.001002	
.35	298.15	.1597	.00101	
.35	298.15	.1655	.001014	
.35	298.15	.1912	.001025	
.35	308.15	0	.000755	
.35	308.15	.0571	.000775	
.35	308.15	.0766	.000783	
.35	308.15	.0959	.000789	
.35	308.15	.1307	.000803	
.35	308.15	.1393	.000805	
.35	308.15	.1597	.000811	
.35	308.15	.1655	.000814	
.35	308.15	.1912	.000823	
.35	318.15	0	.000626	
.35	318.15	.0571	.000644	
.35	318.15	.0766	.000649	
.35	318.15	.0959	.000656	
.35	318.15	.1307	.000661	
.35	318.15	.1393	.000663	
.35	318.15	.1597	.000669	
.35	318.15	.1655	.000671	
.35	318.15	.1912	.000677	
.5	288.15	0	.001213	
.5	288.15	.0476	.001243	
.5	288.15	.0659	.001257	
.5	288.15	.0895	.001279	
.5	288.15	.1168	.001296	
.5	288.15	.1389	.00131	
.5	288.15	.1612	.001326	
.5	288.15	.1793	.00134	
.5	288.15	.19	.001349	
.5	298.15	0	.000953	
.5	298.15	.0476	.000974	
.5	298.15	.0659	.000984	
.5	298.15	.0895	.000999	
.5	298.15	.1168	.001012	
.5	298.15	.1389	.001024	
.5	298.15	.1612	.001032	
.5	298.15	.1793	.001044	
.5	298.15	.19	.001049	
.5	308.15	0	.00077	
.5	308.15	.0476	.000785	
.5	308.15	.0659	.000794	
.5	308.15	.0895	.000804	
.5	308.15	.1168	.000812	
.5	308.15	.1389	.000822	
.5	308.15	.1612	.00083	
.5	308.15	.1793	.000838	
.5	308.15	.19	.000843	
.5	318.15	0	.000639	
.5	318.15	.0476	.000651	
.5	318.15	.0659	.000657	
.5	318.15	.0895	.000663	
.5	318.15	.1168	.000673	
.5	318.15	.1389	.000681	
.5	318.15	.1612	.000684	
.5	318.15	.1793	.00069	
.5	318.15	.19	.000693	

System: glycine + D-mannose + water; phases: Liquid
Fixed: Pressure, kPa = 100
Property: Viscosity, Pa*s (Liquid); method: Capillary tube (Ostwald; Ubbelohde) method
Solvent: Molality, mol/kg of glycine	Temperature, K	Molality, mol/kg of D-mannose	Viscosity, Pa*s	uncertainty
0	288.15	.0607	.001171	
0	288.15	.0751	.001183	
0	288.15	.0977	.001195	
0	288.15	.1215	.001207	
0	288.15	.134	.001216	
0	288.15	.1525	.001224	
0	288.15	.1822	.001243	
0	298.15	.0607	.000914	
0	298.15	.0751	.000921	
0	298.15	.0977	.000931	
0	298.15	.1215	.00094	
0	298.15	.134	.000945	
0	298.15	.1525	.000954	
0	298.15	.1822	.000966	
0	308.15	.0607	.000739	
0	308.15	.0751	.000744	
0	308.15	.0977	.000749	
0	308.15	.1215	.000757	
0	308.15	.134	.00076	
0	308.15	.1525	.000767	
0	308.15	.1822	.000776	
0	318.15	.0607	.00061	
0	318.15	.0751	.000614	
0	318.15	.0977	.00062	
0	318.15	.1215	.000625	
0	318.15	.134	.000629	
0	318.15	.1525	.000635	
0	318.15	.1822	.00064	
.05	288.15	.059	.001183	
.05	288.15	.0838	.001194	
.05	288.15	.1035	.001208	
.05	288.15	.1279	.001225	
.05	288.15	.155	.001241	
.05	288.15	.169	.001252	
.05	288.15	.1933	.001265	
.05	288.15	.2157	.001276	
.05	298.15	.059	.00092	
.05	298.15	.0838	.000934	
.05	298.15	.1035	.000944	
.05	298.15	.1279	.000956	
.05	298.15	.155	.000966	
.05	298.15	.169	.000971	
.05	298.15	.1933	.00098	
.05	298.15	.2157	.00099	
.05	308.15	.059	.000744	
.05	308.15	.0838	.000751	
.05	308.15	.1035	.000759	
.05	308.15	.1279	.000767	
.05	308.15	.155	.000776	
.05	308.15	.169	.000781	
.05	308.15	.1933	.000787	
.05	308.15	.2157	.000794	
.05	318.15	.059	.000619	
.05	318.15	.0838	.000625	
.05	318.15	.1035	.000632	
.05	318.15	.1279	.000638	
.05	318.15	.155	.000645	
.05	318.15	.169	.000649	
.05	318.15	.1933	.000655	
.05	318.15	.2157	.000661	
.15	288.15	.0509	.001192	
.15	288.15	.0743	.001208	
.15	288.15	.0957	.001221	
.15	288.15	.1158	.001233	
.15	288.15	.1362	.001245	
.15	288.15	.1541	.001258	
.15	288.15	.1717	.001267	
.15	288.15	.2001	.001284	
.15	298.15	.0509	.000935	
.15	298.15	.0743	.000945	
.15	298.15	.0957	.000956	
.15	298.15	.1158	.000964	
.15	298.15	.1362	.000971	
.15	298.15	.1541	.000977	
.15	298.15	.1717	.000987	
.15	298.15	.2001	.000999	
.15	308.15	.0509	.000753	
.15	308.15	.0743	.000762	
.15	308.15	.0957	.000769	
.15	308.15	.1158	.000775	
.15	308.15	.1362	.000784	
.15	308.15	.1541	.00079	
.15	308.15	.1717	.000795	
.15	308.15	.2001	.000804	
.15	318.15	.0509	.000625	
.15	318.15	.0743	.000631	
.15	318.15	.0957	.000637	
.15	318.15	.1158	.000642	
.15	318.15	.1362	.000647	
.15	318.15	.1541	.000653	
.15	318.15	.1717	.000657	
.15	318.15	.2001	.000664	
.25	288.15	.0584	.001212	
.25	288.15	.0739	.001221	
.25	288.15	.0937	.001236	
.25	288.15	.1168	.001253	
.25	288.15	.142	.001267	
.25	288.15	.1549	.001275	
.25	288.15	.179	.00129	
.25	288.15	.2104	.00131	
.25	298.15	.0584	.000948	
.25	298.15	.0739	.000955	
.25	298.15	.0937	.000966	
.25	298.15	.1168	.000977	
.25	298.15	.142	.000989	
.25	298.15	.1549	.000995	
.25	298.15	.179	.001006	
.25	298.15	.2104	.001021	
.25	308.15	.0584	.000765	
.25	308.15	.0739	.00077	
.25	308.15	.0937	.000779	
.25	308.15	.1168	.000788	
.25	308.15	.142	.000798	
.25	308.15	.1549	.000802	
.25	308.15	.179	.000809	
.25	308.15	.2104	.000821	
.25	318.15	.0584	.000632	
.25	318.15	.0739	.000638	
.25	318.15	.0937	.000645	
.25	318.15	.1168	.000652	
.25	318.15	.142	.000659	
.25	318.15	.1549	.000665	
.25	318.15	.179	.000671	
.25	318.15	.2104	.00068	
.35	288.15	.0465	.001218	
.35	288.15	.0615	.001229	
.35	288.15	.0907	.001251	
.35	288.15	.1118	.001263	
.35	288.15	.1292	.001277	
.35	288.15	.1588	.001298	
.35	288.15	.1757	.001309	
.35	288.15	.198	.001322	
.35	298.15	.0465	.000956	
.35	298.15	.0615	.000962	
.35	298.15	.0907	.000978	
.35	298.15	.1118	.000992	
.35	298.15	.1292	.000999	
.35	298.15	.1588	.001012	
.35	298.15	.1757	.00102	
.35	298.15	.198	.00103	
.35	308.15	.0465	.000772	
.35	308.15	.0615	.000777	
.35	308.15	.0907	.000789	
.35	308.15	.1118	.000798	
.35	308.15	.1292	.000806	
.35	308.15	.1588	.000816	
.35	308.15	.1757	.000821	
.35	308.15	.198	.00083	
.35	318.15	.0465	.000639	
.35	318.15	.0615	.000644	
.35	318.15	.0907	.000651	
.35	318.15	.1118	.00066	
.35	318.15	.1292	.000664	
.35	318.15	.1588	.000676	
.35	318.15	.1757	.00068	
.35	318.15	.198	.000686	
.5	288.15	.0538	.001248	
.5	288.15	.0714	.00126	
.5	288.15	.0865	.001272	
.5	288.15	.1097	.001289	
.5	288.15	.1329	.001307	
.5	288.15	.1573	.001325	
.5	288.15	.1739	.001337	
.5	288.15	.1913	.001349	
.5	298.15	.0538	.000981	
.5	298.15	.0714	.000991	
.5	298.15	.0865	.000999	
.5	298.15	.1097	.001011	
.5	298.15	.1329	.001023	
.5	298.15	.1573	.001035	
.5	298.15	.1739	.001041	
.5	298.15	.1913	.00105	
.5	308.15	.0538	.00079	
.5	308.15	.0714	.000797	
.5	308.15	.0865	.000803	
.5	308.15	.1097	.000812	
.5	308.15	.1329	.000823	
.5	308.15	.1573	.000833	
.5	308.15	.1739	.000841	
.5	308.15	.1913	.000847	
.5	318.15	.0538	.000657	
.5	318.15	.0714	.000663	
.5	318.15	.0865	.000666	
.5	318.15	.1097	.000676	
.5	318.15	.1329	.000683	
.5	318.15	.1573	.000689	
.5	318.15	.1739	.000694	
.5	318.15	.1913	.000699	
0	288.15	0	.001138	
0	298.15	0	.00089	
0	308.15	0	.000719	
0	318.15	0	.000596	
.05	288.15	0	.001146	
.05	298.15	0	.000896	
.05	308.15	0	.000723	
.05	318.15	0	.000603	
.15	288.15	0	.00116	
.15	298.15	0	.000909	
.15	308.15	0	.000735	
.15	318.15	0	.000609	
.25	288.15	0	.001175	
.25	298.15	0	.000921	
.25	308.15	0	.000745	
.25	318.15	0	.000618	
.35	288.15	0	.00119	
.35	298.15	0	.000934	
.35	308.15	0	.000755	
.35	318.15	0	.000626	
.5	288.15	0	.001213	
.5	298.15	0	.000953	
.5	308.15	0	.00077	
.5	318.15	0	.000639	

System: glycine + methyl .alpha.-D-mannopyranoside + water; phases: Liquid
Fixed: Pressure, kPa = 100
Property: Viscosity, Pa*s (Liquid); method: Capillary tube (Ostwald; Ubbelohde) method
Solvent: Molality, mol/kg of glycine	Temperature, K	Molality, mol/kg of methyl .alpha.-D-mannopyranoside	Viscosity, Pa*s	uncertainty
0	288.15	.0569	.001172	
0	288.15	.0853	.001188	
0	288.15	.1142	.001208	
0	288.15	.1318	.001217	
0	288.15	.1443	.001229	
0	298.15	.0569	.000913	
0	298.15	.0853	.000925	
0	298.15	.1142	.000942	
0	298.15	.1318	.00095	
0	298.15	.1443	.00096	
0	308.15	.0569	.000742	
0	308.15	.0853	.00075	
0	308.15	.1142	.000756	
0	308.15	.1318	.000765	
0	308.15	.1443	.00077	
0	318.15	.0569	.00061	
0	318.15	.0853	.000619	
0	318.15	.1142	.000625	
0	318.15	.1318	.000633	
0	318.15	.1443	.000636	
.05	288.15	.0548	.001192	
.05	288.15	.0615	.001199	
.05	288.15	.0887	.001219	
.05	288.15	.1232	.001249	
.05	288.15	.1491	.001269	
.05	298.15	.0548	.00093	
.05	298.15	.0615	.000936	
.05	298.15	.0887	.000957	
.05	298.15	.1232	.000982	
.05	298.15	.1491	.000996	
.05	308.15	.0548	.000753	
.05	308.15	.0615	.000758	
.05	308.15	.0887	.000774	
.05	308.15	.1232	.000791	
.05	308.15	.1491	.000808	
.05	318.15	.0548	.00063	
.05	318.15	.0615	.000634	
.05	318.15	.0887	.000647	
.05	318.15	.1232	.000664	
.05	318.15	.1491	.000677	
.15	288.15	.055	.001205	
.15	288.15	.0663	.001217	
.15	288.15	.0913	.00124	
.15	288.15	.1108	.001257	
.15	288.15	.1278	.001271	
.15	298.15	.055	.00095	
.15	298.15	.0663	.000959	
.15	298.15	.0913	.000976	
.15	298.15	.1108	.000989	
.15	298.15	.1278	.001003	
.15	308.15	.055	.000769	
.15	308.15	.0663	.000777	
.15	308.15	.0913	.000791	
.15	308.15	.1108	.000804	
.15	308.15	.1278	.000814	
.15	318.15	.055	.000637	
.15	318.15	.0663	.000645	
.15	318.15	.0913	.000656	
.15	318.15	.1108	.00067	
.15	318.15	.1278	.000678	
.25	288.15	.0432	.001208	
.25	288.15	.0651	.001226	
.25	288.15	.085	.001246	
.25	288.15	.1202	.001274	
.25	288.15	.1504	.001302	
.25	298.15	.0432	.00095	
.25	298.15	.0651	.000966	
.25	298.15	.085	.000981	
.25	298.15	.1202	.001006	
.25	298.15	.1504	.00103	
.25	308.15	.0432	.00077	
.25	308.15	.0651	.000786	
.25	308.15	.085	.000799	
.25	308.15	.1202	.000819	
.25	308.15	.1504	.000838	
.25	318.15	.0432	.00064	
.25	318.15	.0651	.000652	
.25	318.15	.085	.000663	
.25	318.15	.1202	.000681	
.25	318.15	.1504	.000696	
.35	288.15	.0412	.001222	
.35	288.15	.0709	.001246	
.35	288.15	.0951	.001269	
.35	288.15	.1214	.00129	
.35	288.15	.1519	.001316	
.35	298.15	.0412	.000961	
.35	298.15	.0709	.000983	
.35	298.15	.0951	.001001	
.35	298.15	.1214	.00102	
.35	298.15	.1519	.001044	
.35	308.15	.0412	.000779	
.35	308.15	.0709	.000798	
.35	308.15	.0951	.000814	
.35	308.15	.1214	.000828	
.35	308.15	.1519	.000848	
.35	318.15	.0412	.000647	
.35	318.15	.0709	.000663	
.35	318.15	.0951	.000677	
.35	318.15	.1214	.000691	
.35	318.15	.1519	.000705	
.5	288.15	.0492	.001256	
.5	288.15	.0605	.001268	
.5	288.15	.0887	.001295	
.5	288.15	.1046	.00131	
.5	288.15	.1345	.001336	
.5	298.15	.0492	.000989	
.5	298.15	.0605	.000999	
.5	298.15	.0887	.001022	
.5	298.15	.1046	.001035	
.5	298.15	.1345	.00106	
.5	308.15	.0492	.000804	
.5	308.15	.0605	.000812	
.5	308.15	.0887	.000831	
.5	308.15	.1046	.000843	
.5	308.15	.1345	.000862	
.5	318.15	.0492	.000667	
.5	318.15	.0605	.000674	
.5	318.15	.0887	.000691	
.5	318.15	.1046	.000701	
.5	318.15	.1345	.00072	
0	288.15	0	.001138	
0	298.15	0	.00089	
0	308.15	0	.000719	
0	318.15	0	.000596	
.05	288.15	0	.001146	
.05	298.15	0	.000896	
.05	308.15	0	.000723	
.05	318.15	0	.000603	
.15	288.15	0	.00116	
.15	298.15	0	.000909	
.15	308.15	0	.000735	
.15	318.15	0	.000609	
.25	288.15	0	.001175	
.25	298.15	0	.000921	
.25	308.15	0	.000745	
.25	318.15	0	.000618	
.35	288.15	0	.00119	
.35	298.15	0	.000934	
.35	308.15	0	.000755	
.35	318.15	0	.000626	
.5	288.15	0	.001213	
.5	298.15	0	.000953	
.5	308.15	0	.00077	
.5	318.15	0	.000639	

System: glycine + D-mannitol + water; phases: Liquid
Fixed: Pressure, kPa = 100
Property: Viscosity, Pa*s (Liquid); method: Capillary tube (Ostwald; Ubbelohde) method
Solvent: Molality, mol/kg of glycine	Temperature, K	Molality, mol/kg of D-mannitol	Viscosity, Pa*s	uncertainty
0	288.15	.0578	.001181	
0	288.15	.0701	.00119	
0	288.15	.0837	.001199	
0	288.15	.12	.001224	
0	288.15	.1409	.001236	
0	288.15	.1659	.001254	
0	288.15	.1943	.001278	
0	298.15	.0578	.000919	
0	298.15	.0701	.000928	
0	298.15	.0837	.000935	
0	298.15	.12	.000949	
0	298.15	.1409	.000959	
0	298.15	.1659	.000974	
0	298.15	.1943	.000986	
0	308.15	.0578	.000741	
0	308.15	.0701	.000746	
0	308.15	.0837	.000753	
0	308.15	.12	.000763	
0	308.15	.1409	.000771	
0	308.15	.1659	.000779	
0	308.15	.1943	.000791	
0	318.15	.0578	.000611	
0	318.15	.0701	.000617	
0	318.15	.0837	.00062	
0	318.15	.12	.000629	
0	318.15	.1409	.000636	
0	318.15	.1659	.000644	
0	318.15	.1943	.000651	
.05	288.15	.0434	.001189	
.05	288.15	.0675	.001211	
.05	288.15	.0787	.001221	
.05	288.15	.1025	.001243	
.05	288.15	.1183	.001263	
.05	288.15	.1404	.001282	
.05	288.15	.1765	.001314	
.05	288.15	.1881	.001323	
.05	298.15	.0434	.000927	
.05	298.15	.0675	.000947	
.05	298.15	.0787	.000955	
.05	298.15	.1025	.000973	
.05	298.15	.1183	.000988	
.05	298.15	.1404	.001003	
.05	298.15	.1765	.001029	
.05	298.15	.1881	.001041	
.05	308.15	.0434	.000752	
.05	308.15	.0675	.000769	
.05	308.15	.0787	.000777	
.05	308.15	.1025	.000791	
.05	308.15	.1183	.000802	
.05	308.15	.1404	.000818	
.05	308.15	.1765	.000841	
.05	308.15	.1881	.000847	
.05	318.15	.0434	.000627	
.05	318.15	.0675	.000639	
.05	318.15	.0787	.00065	
.05	318.15	.1025	.000662	
.05	318.15	.1183	.00067	
.05	318.15	.1404	.000684	
.05	318.15	.1765	.000706	
.05	318.15	.1881	.000712	
.15	288.15	.0476	.001204	
.15	288.15	.0598	.001222	
.15	288.15	.0854	.001243	
.15	288.15	.1088	.001269	
.15	288.15	.1282	.001286	
.15	288.15	.1494	.001305	
.15	288.15	.159	.001313	
.15	288.15	.1756	.001332	
.15	298.15	.0476	.000946	
.15	298.15	.0598	.000956	
.15	298.15	.0854	.000975	
.15	298.15	.1088	.000996	
.15	298.15	.1282	.001011	
.15	298.15	.1494	.001027	
.15	298.15	.159	.001034	
.15	298.15	.1756	.001046	
.15	308.15	.0476	.000767	
.15	308.15	.0598	.000777	
.15	308.15	.0854	.000792	
.15	308.15	.1088	.00081	
.15	308.15	.1282	.000823	
.15	308.15	.1494	.000838	
.15	308.15	.159	.000844	
.15	308.15	.1756	.000855	
.15	318.15	.0476	.000639	
.15	318.15	.0598	.000646	
.15	318.15	.0854	.00066	
.15	318.15	.1088	.000673	
.15	318.15	.1282	.000685	
.15	318.15	.1494	.000694	
.15	318.15	.159	.000702	
.15	318.15	.1756	.000715	
.25	288.15	.0508	.001228	
.25	288.15	.0732	.001249	
.25	288.15	.0811	.001258	
.25	288.15	.1113	.001285	
.25	288.15	.1305	.0013	
.25	288.15	.1645	.001329	
.25	288.15	.1763	.001341	
.25	288.15	.1946	.001354	
.25	298.15	.0508	.000958	
.25	298.15	.0732	.000978	
.25	298.15	.0811	.000984	
.25	298.15	.1113	.001008	
.25	298.15	.1305	.001023	
.25	298.15	.1645	.001048	
.25	298.15	.1763	.001057	
.25	298.15	.1946	.00107	
.25	308.15	.0508	.00078	
.25	308.15	.0732	.000795	
.25	308.15	.0811	.0008	
.25	308.15	.1113	.000821	
.25	308.15	.1305	.000835	
.25	308.15	.1645	.000855	
.25	308.15	.1763	.000863	
.25	308.15	.1946	.000878	
.25	318.15	.0508	.000651	
.25	318.15	.0732	.000664	
.25	318.15	.0811	.000668	
.25	318.15	.1113	.000686	
.25	318.15	.1305	.000696	
.25	318.15	.1645	.000714	
.25	318.15	.1763	.000722	
.25	318.15	.1946	.000731	
.35	288.15	.0551	.001249	
.35	288.15	.0746	.001268	
.35	288.15	.0939	.001287	
.35	288.15	.1077	.0013	
.35	288.15	.1369	.001325	
.35	288.15	.1522	.001341	
.35	288.15	.1731	.001357	
.35	288.15	.1747	.001359	
.35	298.15	.0551	.000978	
.35	298.15	.0746	.000996	
.35	298.15	.0939	.001012	
.35	298.15	.1077	.001023	
.35	298.15	.1369	.001044	
.35	298.15	.1522	.001053	
.35	298.15	.1731	.001074	
.35	298.15	.1747	.001075	
.35	308.15	.0551	.000795	
.35	308.15	.0746	.00081	
.35	308.15	.0939	.000824	
.35	308.15	.1077	.000833	
.35	308.15	.1369	.000851	
.35	308.15	.1522	.000865	
.35	308.15	.1731	.000874	
.35	308.15	.1747	.000878	
.35	318.15	.0551	.00066	
.35	318.15	.0746	.000673	
.35	318.15	.0939	.000685	
.35	318.15	.1077	.000692	
.35	318.15	.1369	.000712	
.35	318.15	.1522	.000723	
.35	318.15	.1731	.00073	
.35	318.15	.1747	.000734	
.5	288.15	.0539	.00127	
.5	288.15	.0789	.001295	
.5	288.15	.0995	.001318	
.5	288.15	.1292	.001348	
.5	288.15	.1563	.001378	
.5	288.15	.1659	.001383	
.5	288.15	.1793	.001396	
.5	288.15	.2276	.001444	
.5	298.15	.0539	.000998	
.5	298.15	.0789	.001022	
.5	298.15	.0995	.001036	
.5	298.15	.1292	.001059	
.5	298.15	.1563	.001082	
.5	298.15	.1659	.001093	
.5	298.15	.1793	.001104	
.5	298.15	.2276	.001144	
.5	308.15	.0539	.000808	
.5	308.15	.0789	.000826	
.5	308.15	.0995	.000845	
.5	308.15	.1292	.000864	
.5	308.15	.1563	.000886	
.5	308.15	.1659	.000891	
.5	308.15	.1793	.000903	
.5	308.15	.2276	.000938	
.5	318.15	.0539	.000673	
.5	318.15	.0789	.000691	
.5	318.15	.0995	.000703	
.5	318.15	.1292	.000722	
.5	318.15	.1563	.000742	
.5	318.15	.1659	.000747	
.5	318.15	.1793	.000755	
.5	318.15	.2276	.000785	
0	288.15	0	.001138	
0	298.15	0	.00089	
0	308.15	0	.000719	
0	318.15	0	.000596	
.05	288.15	0	.001146	
.05	298.15	0	.000896	
.05	308.15	0	.000723	
.05	318.15	0	.000603	
.15	288.15	0	.00116	
.15	298.15	0	.000909	
.15	308.15	0	.000735	
.15	318.15	0	.000609	
.25	288.15	0	.001175	
.25	298.15	0	.000921	
.25	308.15	0	.000745	
.25	318.15	0	.000618	
.35	288.15	0	.00119	
.35	298.15	0	.000934	
.35	308.15	0	.000755	
.35	318.15	0	.000626	
.5	288.15	0	.001213	
.5	298.15	0	.000953	
.5	308.15	0	.00077	
.5	318.15	0	.000639	

System: glycine + 6-deoxy-D-mannose + water; phases: Liquid
Fixed: Pressure, kPa = 100
Property: Viscosity, Pa*s (Liquid); method: Capillary tube (Ostwald; Ubbelohde) method
Solvent: Molality, mol/kg of glycine	Temperature, K	Molality, mol/kg of 6-deoxy-D-mannose	Viscosity, Pa*s	uncertainty
0	288.15	.0395	.001164	
0	288.15	.0753	.001183	
0	288.15	.1036	.0012	
0	288.15	.1173	.001208	
0	288.15	.1403	.00122	
0	298.15	.0395	.00091	
0	298.15	.0753	.000922	
0	298.15	.1036	.000933	
0	298.15	.1173	.000945	
0	298.15	.1403	.000951	
0	308.15	.0395	.000732	
0	308.15	.0753	.000744	
0	308.15	.1036	.000753	
0	308.15	.1173	.000759	
0	308.15	.1403	.000766	
0	318.15	.0395	.000607	
0	318.15	.0753	.000616	
0	318.15	.1036	.000623	
0	318.15	.1173	.000626	
0	318.15	.1403	.000633	
.05	288.15	.0471	.001189	
.0499	288.15	.0847	.001222	
.0499	288.15	.107	.001246	
.0499	288.15	.125	.001259	
.0499	288.15	.1446	.00128	
.05	298.15	.0471	.00093	
.0499	298.15	.0847	.00096	
.0499	298.15	.107	.000976	
.0499	298.15	.125	.000993	
.0499	298.15	.1446	.001007	
.05	308.15	.0471	.000755	
.0499	308.15	.0847	.000778	
.0499	308.15	.107	.000793	
.0499	308.15	.125	.000805	
.0499	308.15	.1446	.000818	
.05	318.15	.0471	.00063	
.0499	318.15	.0847	.000652	
.0499	318.15	.107	.000662	
.0499	318.15	.125	.000674	
.0499	318.15	.1446	.000685	
.1499	288.15	.0488	.001212	
.1498	288.15	.0892	.001246	
.1497	288.15	.1114	.001268	
.1496	288.15	.1341	.001287	
.1496	288.15	.1463	.001293	
.1499	298.15	.0488	.000952	
.1498	298.15	.0892	.000979	
.1497	298.15	.1114	.000999	
.1496	298.15	.1341	.001011	
.1496	298.15	.1463	.00102	
.1499	308.15	.0488	.000768	
.1498	308.15	.0892	.000796	
.1497	308.15	.1114	.000811	
.1496	308.15	.1341	.000824	
.1496	308.15	.1463	.000832	
.1499	318.15	.0488	.000641	
.1498	318.15	.0892	.00066	
.1497	318.15	.1114	.000675	
.1496	318.15	.1341	.000684	
.1496	318.15	.1463	.000694	
.2498	288.15	.0554	.001234	
.2496	288.15	.086	.001262	
.2495	288.15	.1098	.001283	
.2494	288.15	.1376	.001304	
.2493	288.15	.1496	.001312	
.2498	298.15	.0554	.00097	
.2496	298.15	.086	.000991	
.2495	298.15	.1098	.001011	
.2494	298.15	.1376	.001026	
.2493	298.15	.1496	.001034	
.2498	308.15	.0554	.000787	
.2496	308.15	.086	.000802	
.2495	308.15	.1098	.000821	
.2494	308.15	.1376	.000835	
.2493	308.15	.1496	.000845	
.2498	318.15	.0554	.000649	
.2496	318.15	.086	.00067	
.2495	318.15	.1098	.000683	
.2494	318.15	.1376	.000696	
.2493	318.15	.1496	.000705	
.3497	288.15	.0428	.001242	
.3496	288.15	.0609	.001259	
.3495	288.15	.0834	.001282	
.3493	288.15	.1095	.001306	
.3491	288.15	.1319	.001322	
.3497	298.15	.0428	.000976	
.3496	298.15	.0609	.000991	
.3495	298.15	.0834	.001009	
.3493	298.15	.1095	.00103	
.3491	298.15	.1319	.001045	
.3497	308.15	.0428	.000788	
.3496	308.15	.0609	.000802	
.3495	308.15	.0834	.000816	
.3493	308.15	.1095	.000837	
.3491	308.15	.1319	.000854	
.3497	318.15	.0428	.000655	
.3496	318.15	.0609	.000669	
.3495	318.15	.0834	.000682	
.3493	318.15	.1095	.000696	
.3491	318.15	.1319	.000706	
.4995	288.15	.0489	.001264	
.4993	288.15	.076	.001292	
.499	288.15	.107	.001322	
.4988	288.15	.1271	.001345	
.4986	288.15	.1472	.001361	
.4995	298.15	.0489	.000997	
.4993	298.15	.076	.00102	
.499	298.15	.107	.001044	
.4988	298.15	.1271	.00106	
.4986	298.15	.1472	.001079	
.4995	308.15	.0489	.000805	
.4993	308.15	.076	.000828	
.499	308.15	.107	.000851	
.4988	308.15	.1271	.000862	
.4986	308.15	.1472	.000874	
.4995	318.15	.0489	.000671	
.4993	318.15	.076	.000687	
.499	318.15	.107	.000706	
.4988	318.15	.1271	.000717	
.4986	318.15	.1472	.000731	
0	288.15	0	.001138	
0	298.15	0	.00089	
0	308.15	0	.000719	
0	318.15	0	.000596	
.05	288.15	0	.001146	
.05	298.15	0	.000896	
.05	308.15	0	.000723	
.05	318.15	0	.000603	
.15	288.15	0	.00116	
.15	298.15	0	.000909	
.15	308.15	0	.000735	
.15	318.15	0	.000609	
.25	288.15	0	.001175	
.25	298.15	0	.000921	
.25	308.15	0	.000745	
.25	318.15	0	.000618	
.35	288.15	0	.00119	
.35	298.15	0	.000934	
.35	308.15	0	.000755	
.35	318.15	0	.000626	
.5	288.15	0	.001213	
.5	298.15	0	.000953	
.5	308.15	0	.00077	
.5	318.15	0	.000639	

System: glycine + D-(+)-maltose + water; phases: Liquid
Fixed: Pressure, kPa = 100
Property: Viscosity, Pa*s (Liquid); method: Capillary tube (Ostwald; Ubbelohde) method
Solvent: Molality, mol/kg of glycine	Temperature, K	Molality, mol/kg of D-(+)-maltose	Viscosity, Pa*s	uncertainty
0	288.15	.0542	.001208	
0	288.15	.0743	.001231	
0	288.15	.0875	.001248	
0	288.15	.1011	.001265	
0	288.15	.1206	.00129	
0	288.15	.1232	.001293	
0	298.15	.0542	.000942	
0	298.15	.0743	.00096	
0	298.15	.0875	.000972	
0	298.15	.1011	.000985	
0	298.15	.1206	.001004	
0	298.15	.1232	.001009	
0	308.15	.0542	.000763	
0	308.15	.0743	.000776	
0	308.15	.0875	.000786	
0	308.15	.1011	.000794	
0	308.15	.1206	.000804	
0	308.15	.1232	.00081	
0	318.15	.0542	.000628	
0	318.15	.0743	.000639	
0	318.15	.0875	.000645	
0	318.15	.1011	.000655	
0	318.15	.1206	.000667	
0	318.15	.1232	.000669	
.05	288.15	.0491	.001221	
.0499	288.15	.0518	.001226	
.0499	288.15	.0675	.001251	
.0499	288.15	.0859	.001274	
.0499	288.15	.1063	.001304	
.0499	288.15	.1258	.001327	
.0499	288.15	.147	.001359	
.05	298.15	.0491	.00095	
.0499	298.15	.0518	.000952	
.0499	298.15	.0675	.00097	
.0499	298.15	.0859	.000988	
.0499	298.15	.1063	.001011	
.0499	298.15	.1258	.001031	
.0499	298.15	.147	.001054	
.05	308.15	.0491	.000763	
.0499	308.15	.0518	.000768	
.0499	308.15	.0675	.00078	
.0499	308.15	.0859	.000794	
.0499	308.15	.1063	.000811	
.0499	308.15	.1258	.000825	
.0499	308.15	.147	.000842	
.05	318.15	.0491	.000635	
.0499	318.15	.0518	.000637	
.0499	318.15	.0675	.000645	
.0499	318.15	.0859	.000659	
.0499	318.15	.1063	.000671	
.0499	318.15	.1258	.000682	
.0499	318.15	.147	.000694	
.1499	288.15	.0471	.001237	
.1498	288.15	.079	.001296	
.1497	288.15	.1095	.00134	
.1497	288.15	.1234	.001358	
.1496	288.15	.1493	.001402	
.1495	288.15	.1656	.001419	
.1495	288.15	.1753	.001435	
.1494	288.15	.2232	.001511	
.1499	298.15	.0471	.000968	
.1498	298.15	.079	.001004	
.1497	298.15	.1095	.001033	
.1497	298.15	.1234	.001052	
.1496	298.15	.1493	.001077	
.1495	298.15	.1656	.001107	
.1495	298.15	.1753	.001112	
.1494	298.15	.2232	.001164	
.1499	308.15	.0471	.000776	
.1498	308.15	.079	.00081	
.1497	308.15	.1095	.000832	
.1497	308.15	.1234	.000842	
.1496	308.15	.1493	.000864	
.1495	308.15	.1656	.000883	
.1495	308.15	.1753	.000888	
.1494	308.15	.2232	.000931	
.1499	318.15	.0471	.000641	
.1498	318.15	.079	.000663	
.1497	318.15	.1095	.000683	
.1497	318.15	.1234	.000693	
.1496	318.15	.1493	.000707	
.1495	318.15	.1656	.000717	
.1495	318.15	.1753	.000724	
.1494	318.15	.2232	.000754	
.2497	288.15	.0535	.001274	
.2497	288.15	.0748	.001307	
.2496	288.15	.0932	.001338	
.2495	288.15	.1029	.001355	
.2494	288.15	.1371	.001407	
.2494	288.15	.1378	.00141	
.2492	288.15	.1679	.00146	
.2492	288.15	.1744	.001468	
.2497	298.15	.0535	.000988	
.2497	298.15	.0748	.00102	
.2496	298.15	.0932	.001039	
.2495	298.15	.1029	.001053	
.2494	298.15	.1371	.001092	
.2494	298.15	.1378	.001095	
.2492	298.15	.1679	.001126	
.2492	298.15	.1744	.001135	
.2497	308.15	.0535	.000798	
.2497	308.15	.0748	.000819	
.2496	308.15	.0932	.000838	
.2495	308.15	.1029	.000846	
.2494	308.15	.1371	.000876	
.2494	308.15	.1378	.00088	
.2492	308.15	.1679	.0009	
.2492	308.15	.1744	.000903	
.2497	318.15	.0535	.000656	
.2497	318.15	.0748	.000673	
.2496	318.15	.0932	.000688	
.2495	318.15	.1029	.000696	
.2494	318.15	.1371	.000712	
.2494	318.15	.1378	.000716	
.2492	318.15	.1679	.000737	
.2492	318.15	.1744	.000742	
.3498	288.15	.0242	.001235	
.3496	288.15	.0652	.001311	
.3495	288.15	.0781	.001334	
.3494	288.15	.0984	.001371	
.3493	288.15	.1123	.001396	
.3491	288.15	.133	.001432	
.3491	288.15	.1445	.001453	
.3489	288.15	.1707	.001499	
.3498	298.15	.0242	.000969	
.3496	298.15	.0652	.001021	
.3495	298.15	.0781	.001042	
.3494	298.15	.0984	.001066	
.3493	298.15	.1123	.001082	
.3491	298.15	.133	.001109	
.3491	298.15	.1445	.001123	
.3489	298.15	.1707	.001158	
.3498	308.15	.0242	.000779	
.3496	308.15	.0652	.000823	
.3495	308.15	.0781	.000836	
.3494	308.15	.0984	.000853	
.3493	308.15	.1123	.00087	
.3491	308.15	.133	.000887	
.3491	308.15	.1445	.000896	
.3489	308.15	.1707	.000922	
.3498	318.15	.0242	.000646	
.3496	318.15	.0652	.000675	
.3495	318.15	.0781	.000686	
.3494	318.15	.0984	.000701	
.3493	318.15	.1123	.000712	
.3491	318.15	.133	.000726	
.3491	318.15	.1445	.000735	
.3489	318.15	.1707	.000754	
.4997	288.15	.0294	.001273	
.4995	288.15	.0536	.00132	
.4993	288.15	.0744	.00137	
.499	288.15	.1026	.001421	
.4989	288.15	.1147	.00145	
.4988	288.15	.134	.001474	
.4985	288.15	.158	.001516	
.4983	288.15	.1775	.001554	
.4997	298.15	.0294	.000996	
.4995	298.15	.0536	.001031	
.4993	298.15	.0744	.001059	
.499	298.15	.1026	.001094	
.4989	298.15	.1147	.001116	
.4988	298.15	.134	.001132	
.4985	298.15	.158	.00117	
.4983	298.15	.1775	.001193	
.4997	308.15	.0294	.000804	
.4995	308.15	.0536	.000828	
.4993	308.15	.0744	.000851	
.499	308.15	.1026	.000887	
.4989	308.15	.1147	.000898	
.4988	308.15	.134	.000913	
.4985	308.15	.158	.000938	
.4983	308.15	.1775	.000957	
.4997	318.15	.0294	.000662	
.4995	318.15	.0536	.00068	
.4993	318.15	.0744	.0007	
.499	318.15	.1026	.000724	
.4989	318.15	.1147	.000733	
.4988	318.15	.134	.000746	
.4985	318.15	.158	.000765	
.4983	318.15	.1775	.000781	
0	288.15	0	.001138	
0	298.15	0	.00089	
0	308.15	0	.000719	
0	318.15	0	.000596	
.05	288.15	0	.001146	
.05	298.15	0	.000896	
.05	308.15	0	.000723	
.05	318.15	0	.000603	
.15	288.15	0	.00116	
.15	298.15	0	.000909	
.15	308.15	0	.000735	
.15	318.15	0	.000609	
.25	288.15	0	.001175	
.25	298.15	0	.000921	
.25	308.15	0	.000745	
.25	318.15	0	.000618	
.35	288.15	0	.00119	
.35	298.15	0	.000934	
.35	308.15	0	.000755	
.35	318.15	0	.000626	
.5	288.15	0	.001213	
.5	298.15	0	.000953	
.5	308.15	0	.00077	
.5	318.15	0	.000639	

System: glycine + D-(+)-cellobiose + water; phases: Liquid
Fixed: Pressure, kPa = 100
Property: Viscosity, Pa*s (Liquid); method: Capillary tube (Ostwald; Ubbelohde) method
Solvent: Molality, mol/kg of glycine	Temperature, K	Molality, mol/kg of D-(+)-cellobiose	Viscosity, Pa*s	uncertainty
0	288.15	.0529	.001193	
0	288.15	.0639	.001203	
0	288.15	.0903	.001231	
0	288.15	.1292	.001269	
0	288.15	.1479	.001286	
0	288.15	.1603	.0013	
0	298.15	.0529	.000928	
0	298.15	.0639	.000941	
0	298.15	.0903	.000961	
0	298.15	.1292	.00099	
0	298.15	.1479	.001001	
0	298.15	.1603	.001011	
0	308.15	.0529	.000748	
0	308.15	.0639	.000757	
0	308.15	.0903	.000771	
0	308.15	.1292	.000796	
0	308.15	.1479	.000807	
0	308.15	.1603	.000813	
0	318.15	.0529	.000621	
0	318.15	.0639	.000625	
0	318.15	.0903	.00064	
0	318.15	.1292	.000657	
0	318.15	.1479	.000664	
0	318.15	.1603	.00067	
.05	288.15	.0182	.00117	
.05	288.15	.04	.001194	
.05	288.15	.0732	.001236	
.05	288.15	.0984	.001264	
.05	288.15	.123	.001291	
.05	288.15	.1414	.001313	
.05	288.15	.1676	.001346	
.05	298.15	.0182	.000915	
.05	298.15	.04	.000937	
.05	298.15	.0732	.000967	
.05	298.15	.0984	.000993	
.05	298.15	.123	.001014	
.05	298.15	.1414	.001034	
.05	298.15	.1676	.001056	
.05	308.15	.0182	.000737	
.05	308.15	.04	.000755	
.05	308.15	.0732	.000782	
.05	308.15	.0984	.000803	
.05	308.15	.123	.000824	
.05	308.15	.1414	.000836	
.05	308.15	.1676	.000857	
.05	318.15	.0182	.000616	
.05	318.15	.04	.00063	
.05	318.15	.0732	.000653	
.05	318.15	.0984	.000671	
.05	318.15	.123	.000688	
.05	318.15	.1414	.000701	
.05	318.15	.1676	.000717	
.15	288.15	.0422	.001216	
.15	288.15	.0669	.001247	
.15	288.15	.0863	.00127	
.15	288.15	.1059	.001296	
.15	288.15	.1302	.001323	
.15	288.15	.1352	.001328	
.15	288.15	.1517	.001348	
.15	298.15	.0422	.000954	
.15	298.15	.0669	.00098	
.15	298.15	.0863	.000999	
.15	298.15	.1059	.00102	
.15	298.15	.1302	.001044	
.15	298.15	.1352	.001048	
.15	298.15	.1517	.001064	
.15	308.15	.0422	.000774	
.15	308.15	.0669	.000795	
.15	308.15	.0863	.000812	
.15	308.15	.1059	.000827	
.15	308.15	.1302	.000846	
.15	308.15	.1352	.000852	
.15	308.15	.1517	.000863	
.15	318.15	.0422	.000641	
.15	318.15	.0669	.00066	
.15	318.15	.0863	.000673	
.15	318.15	.1059	.000689	
.15	318.15	.1302	.000706	
.15	318.15	.1352	.000709	
.15	318.15	.1517	.000722	
.25	288.15	.0546	.001248	
.25	288.15	.0781	.00128	
.25	288.15	.0919	.001296	
.25	288.15	.1243	.001338	
.25	288.15	.1335	.001352	
.25	288.15	.1524	.001373	
.25	288.15	.1585	.001377	
.25	298.15	.0546	.000985	
.25	298.15	.0781	.001012	
.25	298.15	.0919	.001024	
.25	298.15	.1243	.001056	
.25	298.15	.1335	.001069	
.25	298.15	.1524	.001086	
.25	298.15	.1585	.001095	
.25	308.15	.0546	.000795	
.25	308.15	.0781	.000818	
.25	308.15	.0919	.000834	
.25	308.15	.1243	.000859	
.25	308.15	.1335	.000866	
.25	308.15	.1524	.000886	
.25	308.15	.1585	.000889	
.25	318.15	.0546	.000661	
.25	318.15	.0781	.000682	
.25	318.15	.0919	.000691	
.25	318.15	.1243	.00072	
.25	318.15	.1335	.000726	
.25	318.15	.1524	.000735	
.25	318.15	.1585	.000744	
.35	288.15	.0503	.00126	
.35	288.15	.0845	.001308	
.35	288.15	.1094	.001342	
.35	288.15	.1124	.001353	
.35	288.15	.1293	.001373	
.35	288.15	.1395	.001388	
.35	288.15	.1598	.001409	
.35	298.15	.0503	.000993	
.35	298.15	.0845	.001031	
.35	298.15	.1094	.001066	
.35	298.15	.1124	.001068	
.35	298.15	.1293	.001083	
.35	298.15	.1395	.001101	
.35	298.15	.1598	.001125	
.35	308.15	.0503	.000804	
.35	308.15	.0845	.000841	
.35	308.15	.1094	.000864	
.35	308.15	.1124	.000871	
.35	308.15	.1293	.000882	
.35	308.15	.1395	.000893	
.35	308.15	.1598	.000914	
.35	318.15	.0503	.000673	
.35	318.15	.0845	.000703	
.35	318.15	.1094	.000722	
.35	318.15	.1124	.000724	
.35	318.15	.1293	.000737	
.35	318.15	.1395	.000748	
.35	318.15	.1598	.000765	
.5	288.15	.0516	.001296	
.5	288.15	.085	.001349	
.5	288.15	.093	.001362	
.5	288.15	.1066	.001381	
.5	288.15	.1136	.001391	
.5	288.15	.1287	.001412	
.5	288.15	.1508	.001447	
.5	298.15	.0516	.001027	
.5	298.15	.085	.001067	
.5	298.15	.093	.001078	
.5	298.15	.1066	.001092	
.5	298.15	.1136	.001101	
.5	298.15	.1287	.00112	
.5	298.15	.1508	.001146	
.5	308.15	.0516	.000832	
.5	308.15	.085	.000868	
.5	308.15	.093	.000876	
.5	308.15	.1066	.000885	
.5	308.15	.1136	.000897	
.5	308.15	.1287	.000914	
.5	308.15	.1508	.000939	
.5	318.15	.0516	.00069	
.5	318.15	.085	.000721	
.5	318.15	.093	.000731	
.5	318.15	.1066	.000746	
.5	318.15	.1136	.000752	
.5	318.15	.1287	.000769	
.5	318.15	.1508	.000788	
0	288.15	0	.001138	
0	298.15	0	.00089	
0	308.15	0	.000719	
0	318.15	0	.000596	
.05	288.15	0	.001146	
.05	298.15	0	.000896	
.05	308.15	0	.000723	
.05	318.15	0	.000603	
.15	288.15	0	.00116	
.15	298.15	0	.000909	
.15	308.15	0	.000735	
.15	318.15	0	.000609	
.25	288.15	0	.001175	
.25	298.15	0	.000921	
.25	308.15	0	.000745	
.25	318.15	0	.000618	
.35	288.15	0	.00119	
.35	298.15	0	.000934	
.35	308.15	0	.000755	
.35	318.15	0	.000626	
.5	288.15	0	.001213	
.5	298.15	0	.000953	
.5	308.15	0	.00077	
.5	318.15	0	.000639	

System: D(+)-glucose + water; phases: Liquid
Property: Viscosity, Pa*s (Liquid); method: Capillary tube (Ostwald; Ubbelohde) method
Temperature, K	Molality, mol/kg of D(+)-glucose	Pressure, kPa	Viscosity, Pa*s	uncertainty
288.15	.0523	100	.001171	
288.15	.0745	100	.001183	
288.15	.0885	100	.001185	
288.15	.1034	100	.001192	
288.15	.1197	100	.001205	
288.15	.142	100	.001219	
298.15	.0523	100	.000911	
298.15	.0745	100	.000921	
298.15	.0885	100	.000926	
298.15	.1034	100	.000933	
298.15	.1197	100	.000938	
298.15	.142	100	.000948	
308.15	.0523	100	.000735	
308.15	.0745	100	.000743	
308.15	.0885	100	.000747	
308.15	.1034	100	.000751	
308.15	.1197	100	.000756	
308.15	.142	100	.000762	
318.15	.0523	100	.000609	
318.15	.0745	100	.000614	
318.15	.0885	100	.000618	
318.15	.1034	100	.000621	
318.15	.1197	100	.000625	
318.15	.142	100	.00063	

System: glycine + water; phases: Liquid
Property: Viscosity, Pa*s (Liquid); method: Capillary tube (Ostwald; Ubbelohde) method
Molality, mol/kg of glycine	Temperature, K	Pressure, kPa	Viscosity, Pa*s	uncertainty
.05	288.15	100	.001146	
.05	298.15	100	.000896	
.05	308.15	100	.000723	
.05	318.15	100	.000603	
.15	288.15	100	.00116	
.15	298.15	100	.000909	
.15	308.15	100	.000735	
.15	318.15	100	.000609	
.25	288.15	100	.001175	
.25	298.15	100	.000921	
.25	308.15	100	.000745	
.25	318.15	100	.000618	
.35	288.15	100	.00119	
.35	298.15	100	.000934	
.35	308.15	100	.000755	
.35	318.15	100	.000626	
.5	288.15	100	.001213	
.5	298.15	100	.000953	
.5	308.15	100	.00077	
.5	318.15	100	.000639	

System: D-mannose + water; phases: Liquid
Property: Viscosity, Pa*s (Liquid); method: Capillary tube (Ostwald; Ubbelohde) method
Temperature, K	Molality, mol/kg of D-mannose	Pressure, kPa	Viscosity, Pa*s	uncertainty
288.15	.0607	100	.001171	
288.15	.0751	100	.001183	
288.15	.0977	100	.001195	
288.15	.1215	100	.001207	
288.15	.134	100	.001216	
288.15	.1525	100	.001224	
288.15	.1822	100	.001243	
298.15	.0607	100	.000914	
298.15	.0751	100	.000921	
298.15	.0977	100	.000931	
298.15	.1215	100	.00094	
298.15	.134	100	.000945	
298.15	.1525	100	.000954	
298.15	.1822	100	.000966	
308.15	.0607	100	.000739	
308.15	.0751	100	.000744	
308.15	.0977	100	.000749	
308.15	.1215	100	.000757	
308.15	.134	100	.00076	
308.15	.1525	100	.000767	
308.15	.1822	100	.000776	
318.15	.0607	100	.00061	
318.15	.0751	100	.000614	
318.15	.0977	100	.00062	
318.15	.1215	100	.000625	
318.15	.134	100	.000629	
318.15	.1525	100	.000635	
318.15	.1822	100	.00064	

System: methyl .alpha.-D-mannopyranoside + water; phases: Liquid
Property: Viscosity, Pa*s (Liquid); method: Capillary tube (Ostwald; Ubbelohde) method
Temperature, K	Molality, mol/kg of methyl .alpha.-D-mannopyranoside	Pressure, kPa	Viscosity, Pa*s	uncertainty
288.15	.0569	100	.001172	
288.15	.0853	100	.001188	
288.15	.1142	100	.001208	
288.15	.1318	100	.001217	
288.15	.1443	100	.001229	
298.15	.0569	100	.000913	
298.15	.0853	100	.000925	
298.15	.1142	100	.000942	
298.15	.1318	100	.00095	
298.15	.1443	100	.00096	
308.15	.0569	100	.000742	
308.15	.0853	100	.00075	
308.15	.1142	100	.000756	
308.15	.1318	100	.000765	
308.15	.1443	100	.00077	
318.15	.0569	100	.00061	
318.15	.0853	100	.000619	
318.15	.1142	100	.000625	
318.15	.1318	100	.000633	
318.15	.1443	100	.000636	

System: D-mannitol + water; phases: Liquid
Property: Viscosity, Pa*s (Liquid); method: Capillary tube (Ostwald; Ubbelohde) method
Temperature, K	Molality, mol/kg of D-mannitol	Pressure, kPa	Viscosity, Pa*s	uncertainty
288.15	.0578	100	.001181	
288.15	.0701	100	.00119	
288.15	.0837	100	.001199	
288.15	.12	100	.001224	
288.15	.1409	100	.001236	
288.15	.1659	100	.001254	
288.15	.1943	100	.001278	
298.15	.0578	100	.000919	
298.15	.0701	100	.000928	
298.15	.0837	100	.000935	
298.15	.12	100	.000949	
298.15	.1409	100	.000959	
298.15	.1659	100	.000974	
298.15	.1943	100	.000986	
308.15	.0578	100	.000741	
308.15	.0701	100	.000746	
308.15	.0837	100	.000753	
308.15	.12	100	.000763	
308.15	.1409	100	.000771	
308.15	.1659	100	.000779	
308.15	.1943	100	.000791	
318.15	.0578	100	.000611	
318.15	.0701	100	.000617	
318.15	.0837	100	.00062	
318.15	.12	100	.000629	
318.15	.1409	100	.000636	
318.15	.1659	100	.000644	
318.15	.1943	100	.000651	

System: 6-deoxy-D-mannose + water; phases: Liquid
Property: Viscosity, Pa*s (Liquid); method: Capillary tube (Ostwald; Ubbelohde) method
Temperature, K	Molality, mol/kg of 6-deoxy-D-mannose	Pressure, kPa	Viscosity, Pa*s	uncertainty
288.15	.0395	100	.001164	
288.15	.0753	100	.001183	
288.15	.1036	100	.0012	
288.15	.1173	100	.001208	
288.15	.1403	100	.00122	
298.15	.0395	100	.00091	
298.15	.0753	100	.000922	
298.15	.1036	100	.000933	
298.15	.1173	100	.000945	
298.15	.1403	100	.000951	
308.15	.0395	100	.000732	
308.15	.0753	100	.000744	
308.15	.1036	100	.000753	
308.15	.1173	100	.000759	
308.15	.1403	100	.000766	
318.15	.0395	100	.000607	
318.15	.0753	100	.000616	
318.15	.1036	100	.000623	
318.15	.1173	100	.000626	
318.15	.1403	100	.000633	

System: D-(+)-maltose + water; phases: Liquid
Property: Viscosity, Pa*s (Liquid); method: Capillary tube (Ostwald; Ubbelohde) method
Temperature, K	Molality, mol/kg of D-(+)-maltose	Pressure, kPa	Viscosity, Pa*s	uncertainty
288.15	.0542	100	.001208	
288.15	.0743	100	.001231	
288.15	.0875	100	.001248	
288.15	.1011	100	.001265	
288.15	.1206	100	.00129	
288.15	.1232	100	.001293	
298.15	.0542	100	.000942	
298.15	.0743	100	.00096	
298.15	.0875	100	.000972	
298.15	.1011	100	.000985	
298.15	.1206	100	.001004	
298.15	.1232	100	.001009	
308.15	.0542	100	.000763	
308.15	.0743	100	.000776	
308.15	.0875	100	.000786	
308.15	.1011	100	.000794	
308.15	.1206	100	.000804	
308.15	.1232	100	.00081	
318.15	.0542	100	.000628	
318.15	.0743	100	.000639	
318.15	.0875	100	.000645	
318.15	.1011	100	.000655	
318.15	.1206	100	.000667	
318.15	.1232	100	.000669	

System: D-(+)-cellobiose + water; phases: Liquid
Property: Viscosity, Pa*s (Liquid); method: Capillary tube (Ostwald; Ubbelohde) method
Temperature, K	Molality, mol/kg of D-(+)-cellobiose	Pressure, kPa	Viscosity, Pa*s	uncertainty
288.15	.0529	100	.001193	
288.15	.0639	100	.001203	
288.15	.0903	100	.001231	
288.15	.1292	100	.001269	
288.15	.1479	100	.001286	
288.15	.1603	100	.0013	
298.15	.0529	100	.000928	
298.15	.0639	100	.000941	
298.15	.0903	100	.000961	
298.15	.1292	100	.00099	
298.15	.1479	100	.001001	
298.15	.1603	100	.001011	
308.15	.0529	100	.000748	
308.15	.0639	100	.000757	
308.15	.0903	100	.000771	
308.15	.1292	100	.000796	
308.15	.1479	100	.000807	
308.15	.1603	100	.000813	
318.15	.0529	100	.000621	
318.15	.0639	100	.000625	
318.15	.0903	100	.00064	
318.15	.1292	100	.000657	
318.15	.1479	100	.000664	
318.15	.1603	100	.00067	
