Measured thermophysical data. High-temperature heat capacity of SPS-processed Y3Al5O12 (YAG) and Nd:YAG
Source: J. Chem. Thermodyn., 2016, 10.1016/j.jct.2015.09.035
Compound 1: aluminum yttrium oxide (Al5Y3O12), Al5O12Y3, purity 99.995%

System: aluminum yttrium oxide (Al5Y3O12); phases: Crystal
Fixed: Pressure, kPa = 101.325
Property: Molar heat capacity at constant pressure, J/K/mol (Crystal); method: Small sample (50 mg) scanning calorimetry
Temperature, K	Molar heat capacity at constant pressure, J/K/mol	uncertainty
298	348.9	6
300	350.42	6
400	406.17	6
500	438.58	6
600	459.32	6
700	473.39	6
800	483.29	6
900	490.42	6
1000	495.6	6
1100	499.37	6
1200	502.07	6
1300	503.96	6
1400	505.21	6
1500	505.94	6
1600	506.26	6

System: aluminum yttrium oxide (Al5Y3O12); phases: Crystal
Fixed: Pressure, kPa = 101.325
Property: Molar heat capacity at constant pressure, J/K/mol (Crystal); method: Small sample (50 mg) scanning calorimetry
Temperature, K	Molar heat capacity at constant pressure, J/K/mol	uncertainty
298	348.93	4
300	350.48	4
400	407.63	4
500	441.33	4
600	463.29	4
700	478.55	4
800	489.62	4
900	497.9	4
1000	504.22	4
1100	509.12	4
1200	512.95	4
1300	515.96	4
1400	518.33	4
1500	520.18	4
1600	521.62	4
