Measured thermophysical data. Solubilities of imidazolium-based ionic liquids in aqueous salt solutions at 298.15 K
Source: J. Chem. Thermodyn., 2011, 10.1016/j.jct.2011.03.002
Compound 1: 1-butyl-3-methylimidazolium hexafluorophosphate, C8H15F6N2P, purity 99%
Compound 2: 1-octyl-3-methylimidazolium hexafluorophosphate, C12H23F6N2P, purity 99%
Compound 3: 1-octyl-3-methylimidazolium tetrafluoroborate, C12H23BF4N2, purity 99%
Compound 4: potassium chloride, ClK, purity 99.8%
Compound 5: lithium chloride, ClLi, purity 97%
Compound 6: magnesium chloride, Cl2Mg, purity 98%
Compound 7: sodium bromide, BrNa, purity 99%
Compound 8: sodium iodide, INa, purity 99%
Compound 9: sodium hydroxide, HNaO, purity 98%
Compound 10: sodium dihydrogen phosphate anhydrous, H2NaO4P, purity 99%
Compound 11: sodium nitrate, NNaO3, purity 99.5%
Compound 12: sodium tetrafluoroborate, BF4Na, purity 98%
Compound 13: sodium chloride, ClNa, purity 99.8%
Compound 14: acetic acid, sodium salt, C2H3NaO2, purity 99%
Compound 15: sodium thiocyanate, CNNaS, purity 98.5%
Compound 16: sodium carbonate, CNa2O3, purity 99.8%
Compound 17: sodium sulfate, Na2O4S, purity 96%
Compound 18: trisodium phosphate, Na3O4P, purity 98%
Compound 19: sodium perchlorate, ClNaO4, purity 99.5%
Compound 20: trifluoroacetate, C2F3NaO2, purity 97%
Compound 21: water, H2O, purity 99.9%

System: potassium chloride + water + 1-butyl-3-methylimidazolium hexafluorophosphate; phases: Liquid, Crystal
Fixed: Pressure, kPa = 101
Fixed: Temperature, K = 298.15
Property: Molality, mol/kg of 1-butyl-3-methylimidazolium hexafluorophosphate (Liquid); method: Cloud Point Method
Solvent: Molality, mol/kg of potassium chloride	Molality, mol/kg of 1-butyl-3-methylimidazolium hexafluorophosphate	uncertainty
.4	.0009607	.0000144105

System: lithium chloride + water + 1-butyl-3-methylimidazolium hexafluorophosphate; phases: Liquid, Crystal
Fixed: Pressure, kPa = 101
Fixed: Temperature, K = 298.15
Property: Molality, mol/kg of 1-butyl-3-methylimidazolium hexafluorophosphate (Liquid); method: Cloud Point Method
Solvent: Molality, mol/kg of lithium chloride	Molality, mol/kg of 1-butyl-3-methylimidazolium hexafluorophosphate	uncertainty
.4	.0006443	.0000096645

System: water + magnesium chloride + 1-butyl-3-methylimidazolium hexafluorophosphate; phases: Liquid, Crystal
Fixed: Pressure, kPa = 101
Fixed: Temperature, K = 298.15
Property: Molality, mol/kg of 1-butyl-3-methylimidazolium hexafluorophosphate (Liquid); method: Cloud Point Method
Solvent: Molality, mol/kg of magnesium chloride	Molality, mol/kg of 1-butyl-3-methylimidazolium hexafluorophosphate	uncertainty
.4	.005733	.000085995

System: sodium bromide + water + 1-butyl-3-methylimidazolium hexafluorophosphate; phases: Liquid, Crystal
Fixed: Pressure, kPa = 101
Fixed: Temperature, K = 298.15
Property: Molality, mol/kg of 1-butyl-3-methylimidazolium hexafluorophosphate (Liquid); method: Cloud Point Method
Solvent: Molality, mol/kg of sodium bromide	Molality, mol/kg of 1-butyl-3-methylimidazolium hexafluorophosphate	uncertainty
.4	.007508	.00011262

System: sodium iodide + water + 1-butyl-3-methylimidazolium hexafluorophosphate; phases: Liquid, Crystal
Fixed: Pressure, kPa = 101
Fixed: Temperature, K = 298.15
Property: Molality, mol/kg of 1-butyl-3-methylimidazolium hexafluorophosphate (Liquid); method: Cloud Point Method
Solvent: Molality, mol/kg of sodium iodide	Molality, mol/kg of 1-butyl-3-methylimidazolium hexafluorophosphate	uncertainty
.4	.00556	.0000834

System: sodium hydroxide + water + 1-butyl-3-methylimidazolium hexafluorophosphate; phases: Liquid, Crystal
Fixed: Pressure, kPa = 101
Fixed: Temperature, K = 298.15
Property: Molality, mol/kg of 1-butyl-3-methylimidazolium hexafluorophosphate (Liquid); method: Cloud Point Method
Solvent: Molality, mol/kg of sodium hydroxide	Molality, mol/kg of 1-butyl-3-methylimidazolium hexafluorophosphate	uncertainty
.4	.004806	.00007209

System: sodium dihydrogen phosphate anhydrous + water + 1-butyl-3-methylimidazolium hexafluorophosphate; phases: Liquid, Crystal
Fixed: Pressure, kPa = 101
Fixed: Temperature, K = 298.15
Property: Molality, mol/kg of 1-butyl-3-methylimidazolium hexafluorophosphate (Liquid); method: Cloud Point Method
Solvent: Molality, mol/kg of sodium dihydrogen phosphate anhydrous	Molality, mol/kg of 1-butyl-3-methylimidazolium hexafluorophosphate	uncertainty
.4	.004043	.000060645

System: sodium nitrate + water + 1-butyl-3-methylimidazolium hexafluorophosphate; phases: Liquid, Crystal
Fixed: Pressure, kPa = 101
Fixed: Temperature, K = 298.15
Property: Molality, mol/kg of 1-butyl-3-methylimidazolium hexafluorophosphate (Liquid); method: Cloud Point Method
Solvent: Molality, mol/kg of sodium nitrate	Molality, mol/kg of 1-butyl-3-methylimidazolium hexafluorophosphate	uncertainty
.4	.006729	.000100935

System: water + sodium tetrafluoroborate + 1-butyl-3-methylimidazolium hexafluorophosphate; phases: Liquid, Crystal
Fixed: Pressure, kPa = 101
Fixed: Temperature, K = 298.15
Property: Molality, mol/kg of 1-butyl-3-methylimidazolium hexafluorophosphate (Liquid); method: Cloud Point Method
Solvent: Molality, mol/kg of sodium tetrafluoroborate	Molality, mol/kg of 1-butyl-3-methylimidazolium hexafluorophosphate	uncertainty
.4	.002475	.000037125

System: sodium chloride + water + 1-butyl-3-methylimidazolium hexafluorophosphate; phases: Liquid, Crystal
Fixed: Pressure, kPa = 101
Fixed: Temperature, K = 298.15
Property: Molality, mol/kg of 1-butyl-3-methylimidazolium hexafluorophosphate (Liquid); method: Cloud Point Method
Solvent: Molality, mol/kg of sodium chloride	Molality, mol/kg of 1-butyl-3-methylimidazolium hexafluorophosphate	uncertainty
.4	.007405	.000111075

System: acetic acid, sodium salt + water + 1-butyl-3-methylimidazolium hexafluorophosphate; phases: Liquid, Crystal
Fixed: Pressure, kPa = 101
Fixed: Temperature, K = 298.15
Property: Molality, mol/kg of 1-butyl-3-methylimidazolium hexafluorophosphate (Liquid); method: Cloud Point Method
Solvent: Molality, mol/kg of acetic acid, sodium salt	Molality, mol/kg of 1-butyl-3-methylimidazolium hexafluorophosphate	uncertainty
.4	.005753	.000086295

System: sodium thiocyanate + water + 1-butyl-3-methylimidazolium hexafluorophosphate; phases: Liquid, Crystal
Fixed: Pressure, kPa = 101
Fixed: Temperature, K = 298.15
Property: Molality, mol/kg of 1-butyl-3-methylimidazolium hexafluorophosphate (Liquid); method: Cloud Point Method
Solvent: Molality, mol/kg of sodium thiocyanate	Molality, mol/kg of 1-butyl-3-methylimidazolium hexafluorophosphate	uncertainty
.4	.004976	.00007464

System: sodium carbonate + water + 1-butyl-3-methylimidazolium hexafluorophosphate; phases: Liquid, Crystal
Fixed: Pressure, kPa = 101
Fixed: Temperature, K = 298.15
Property: Molality, mol/kg of 1-butyl-3-methylimidazolium hexafluorophosphate (Liquid); method: Cloud Point Method
Solvent: Molality, mol/kg of sodium carbonate	Molality, mol/kg of 1-butyl-3-methylimidazolium hexafluorophosphate	uncertainty
.4	.004913	.000073695

System: water + sodium sulfate + 1-butyl-3-methylimidazolium hexafluorophosphate; phases: Liquid, Crystal
Fixed: Pressure, kPa = 101
Fixed: Temperature, K = 298.15
Property: Molality, mol/kg of 1-butyl-3-methylimidazolium hexafluorophosphate (Liquid); method: Cloud Point Method
Solvent: Molality, mol/kg of sodium sulfate	Molality, mol/kg of 1-butyl-3-methylimidazolium hexafluorophosphate	uncertainty
.4	.003444	.00005166

System: trisodium phosphate + water + 1-butyl-3-methylimidazolium hexafluorophosphate; phases: Liquid, Crystal
Fixed: Pressure, kPa = 101
Fixed: Temperature, K = 298.15
Property: Molality, mol/kg of 1-butyl-3-methylimidazolium hexafluorophosphate (Liquid); method: Cloud Point Method
Solvent: Molality, mol/kg of trisodium phosphate	Molality, mol/kg of 1-butyl-3-methylimidazolium hexafluorophosphate	uncertainty
.4	.003399	.000050985

System: sodium perchlorate + water + 1-butyl-3-methylimidazolium hexafluorophosphate; phases: Liquid, Crystal
Fixed: Pressure, kPa = 101
Fixed: Temperature, K = 298.15
Property: Molality, mol/kg of 1-butyl-3-methylimidazolium hexafluorophosphate (Liquid); method: Cloud Point Method
Solvent: Molality, mol/kg of sodium perchlorate	Molality, mol/kg of 1-butyl-3-methylimidazolium hexafluorophosphate	uncertainty
.4	.002069	.000031035

System: trifluoroacetate + water + 1-butyl-3-methylimidazolium hexafluorophosphate; phases: Liquid, Crystal
Fixed: Pressure, kPa = 101
Fixed: Temperature, K = 298.15
Property: Molality, mol/kg of 1-butyl-3-methylimidazolium hexafluorophosphate (Liquid); method: Cloud Point Method
Solvent: Molality, mol/kg of trifluoroacetate	Molality, mol/kg of 1-butyl-3-methylimidazolium hexafluorophosphate	uncertainty
.4	.00796	.0001194

System: sodium nitrate + water + 1-octyl-3-methylimidazolium hexafluorophosphate; phases: Liquid, Crystal
Fixed: Pressure, kPa = 101
Fixed: Temperature, K = 298.15
Property: Molality, mol/kg of 1-octyl-3-methylimidazolium hexafluorophosphate (Liquid); method: Cloud Point Method
Solvent: Molality, mol/kg of sodium nitrate	Molality, mol/kg of 1-octyl-3-methylimidazolium hexafluorophosphate	uncertainty
.4	.05391	.00080865

System: water + sodium sulfate + 1-octyl-3-methylimidazolium hexafluorophosphate; phases: Liquid, Crystal
Fixed: Pressure, kPa = 101
Fixed: Temperature, K = 298.15
Property: Molality, mol/kg of 1-octyl-3-methylimidazolium hexafluorophosphate (Liquid); method: Cloud Point Method
Solvent: Molality, mol/kg of sodium sulfate	Molality, mol/kg of 1-octyl-3-methylimidazolium hexafluorophosphate	uncertainty
.4	.063	.000945

System: trisodium phosphate + water + 1-octyl-3-methylimidazolium hexafluorophosphate; phases: Liquid, Crystal
Fixed: Pressure, kPa = 101
Fixed: Temperature, K = 298.15
Property: Molality, mol/kg of 1-octyl-3-methylimidazolium hexafluorophosphate (Liquid); method: Cloud Point Method
Solvent: Molality, mol/kg of trisodium phosphate	Molality, mol/kg of 1-octyl-3-methylimidazolium hexafluorophosphate	uncertainty
.4	.05073	.00076095

System: sodium perchlorate + water + 1-octyl-3-methylimidazolium hexafluorophosphate; phases: Liquid, Crystal
Fixed: Pressure, kPa = 101
Fixed: Temperature, K = 298.15
Property: Molality, mol/kg of 1-octyl-3-methylimidazolium hexafluorophosphate (Liquid); method: Cloud Point Method
Solvent: Molality, mol/kg of sodium perchlorate	Molality, mol/kg of 1-octyl-3-methylimidazolium hexafluorophosphate	uncertainty
.4	.01167	.00017505

System: trifluoroacetate + water + 1-octyl-3-methylimidazolium hexafluorophosphate; phases: Liquid, Crystal
Fixed: Pressure, kPa = 101
Fixed: Temperature, K = 298.15
Property: Molality, mol/kg of 1-octyl-3-methylimidazolium hexafluorophosphate (Liquid); method: Cloud Point Method
Solvent: Molality, mol/kg of trifluoroacetate	Molality, mol/kg of 1-octyl-3-methylimidazolium hexafluorophosphate	uncertainty
.4	.05528	.0008292

System: water + sodium tetrafluoroborate + 1-octyl-3-methylimidazolium tetrafluoroborate; phases: Liquid, Crystal
Fixed: Pressure, kPa = 101
Fixed: Temperature, K = 298.15
Property: Molality, mol/kg of 1-octyl-3-methylimidazolium tetrafluoroborate (Liquid); method: Cloud Point Method
Solvent: Molality, mol/kg of sodium tetrafluoroborate	Molality, mol/kg of 1-octyl-3-methylimidazolium tetrafluoroborate	uncertainty
.5	.07146	.0010719

System: sodium chloride + water + 1-octyl-3-methylimidazolium tetrafluoroborate; phases: Liquid, Crystal
Fixed: Pressure, kPa = 101
Fixed: Temperature, K = 298.15
Property: Molality, mol/kg of 1-octyl-3-methylimidazolium tetrafluoroborate (Liquid); method: Cloud Point Method
Solvent: Molality, mol/kg of sodium chloride	Molality, mol/kg of 1-octyl-3-methylimidazolium tetrafluoroborate	uncertainty
.5	.06742	.0010113

System: acetic acid, sodium salt + water + 1-octyl-3-methylimidazolium tetrafluoroborate; phases: Liquid, Crystal
Fixed: Pressure, kPa = 101
Fixed: Temperature, K = 298.15
Property: Molality, mol/kg of 1-octyl-3-methylimidazolium tetrafluoroborate (Liquid); method: Cloud Point Method
Solvent: Molality, mol/kg of acetic acid, sodium salt	Molality, mol/kg of 1-octyl-3-methylimidazolium tetrafluoroborate	uncertainty
.5	.06139	.00092085

System: sodium thiocyanate + water + 1-octyl-3-methylimidazolium tetrafluoroborate; phases: Liquid, Crystal
Fixed: Pressure, kPa = 101
Fixed: Temperature, K = 298.15
Property: Molality, mol/kg of 1-octyl-3-methylimidazolium tetrafluoroborate (Liquid); method: Cloud Point Method
Solvent: Molality, mol/kg of sodium thiocyanate	Molality, mol/kg of 1-octyl-3-methylimidazolium tetrafluoroborate	uncertainty
.5	.1004	.001506

System: sodium carbonate + water + 1-octyl-3-methylimidazolium tetrafluoroborate; phases: Liquid, Crystal
Fixed: Pressure, kPa = 101
Fixed: Temperature, K = 298.15
Property: Molality, mol/kg of 1-octyl-3-methylimidazolium tetrafluoroborate (Liquid); method: Cloud Point Method
Solvent: Molality, mol/kg of sodium carbonate	Molality, mol/kg of 1-octyl-3-methylimidazolium tetrafluoroborate	uncertainty
.5	.04005	.00060075

System: water + sodium sulfate + 1-octyl-3-methylimidazolium tetrafluoroborate; phases: Liquid, Crystal
Fixed: Pressure, kPa = 101
Fixed: Temperature, K = 298.15
Property: Molality, mol/kg of 1-octyl-3-methylimidazolium tetrafluoroborate (Liquid); method: Cloud Point Method
Solvent: Molality, mol/kg of water	Molality, mol/kg of 1-octyl-3-methylimidazolium tetrafluoroborate	uncertainty
.5	.04545	.00068175

System: trisodium phosphate + water + 1-octyl-3-methylimidazolium tetrafluoroborate; phases: Liquid, Crystal
Fixed: Pressure, kPa = 101
Fixed: Temperature, K = 298.15
Property: Molality, mol/kg of 1-octyl-3-methylimidazolium tetrafluoroborate (Liquid); method: Cloud Point Method
Solvent: Molality, mol/kg of trisodium phosphate	Molality, mol/kg of 1-octyl-3-methylimidazolium tetrafluoroborate	uncertainty
.5	.03541	.00053115

System: sodium perchlorate + water + 1-octyl-3-methylimidazolium tetrafluoroborate; phases: Liquid, Crystal
Fixed: Pressure, kPa = 101
Fixed: Temperature, K = 298.15
Property: Molality, mol/kg of 1-octyl-3-methylimidazolium tetrafluoroborate (Liquid); method: Cloud Point Method
Solvent: Molality, mol/kg of sodium perchlorate	Molality, mol/kg of 1-octyl-3-methylimidazolium tetrafluoroborate	uncertainty
.5	.06523	.00097845

System: trifluoroacetate + water + 1-octyl-3-methylimidazolium tetrafluoroborate; phases: Liquid, Crystal
Fixed: Pressure, kPa = 101
Fixed: Temperature, K = 298.15
Property: Molality, mol/kg of 1-octyl-3-methylimidazolium tetrafluoroborate (Liquid); method: Cloud Point Method
Solvent: Molality, mol/kg of trifluoroacetate	Molality, mol/kg of 1-octyl-3-methylimidazolium tetrafluoroborate	uncertainty
.5	.07447	.00111705

System: water + 1-butyl-3-methylimidazolium hexafluorophosphate; phases: Liquid, Crystal
Fixed: Pressure, kPa = 101
Property: Molality, mol/kg of 1-butyl-3-methylimidazolium hexafluorophosphate (Liquid); method: Cloud Point Method
Temperature, K	Molality, mol/kg of 1-butyl-3-methylimidazolium hexafluorophosphate	uncertainty
298.15	.005493	.000082395

System: water + 1-octyl-3-methylimidazolium hexafluorophosphate; phases: Liquid, Crystal
Fixed: Pressure, kPa = 101
Property: Molality, mol/kg of 1-octyl-3-methylimidazolium hexafluorophosphate (Liquid); method: Cloud Point Method
Temperature, K	Molality, mol/kg of 1-octyl-3-methylimidazolium hexafluorophosphate	uncertainty
298.15	.06916	.0010374

System: water + 1-octyl-3-methylimidazolium tetrafluoroborate; phases: Liquid, Crystal
Fixed: Pressure, kPa = 101
Property: Molality, mol/kg of 1-octyl-3-methylimidazolium tetrafluoroborate (Liquid); method: Cloud Point Method
Temperature, K	Molality, mol/kg of 1-octyl-3-methylimidazolium tetrafluoroborate	uncertainty
298.15	.05784	.0008676
