Measured thermophysical data. Determination and thermodynamic modeling of solid-liquid phase equilibrium for 3,5-dichloroaniline in pure solvents and ternary 3,5-dichloroaniline + 1,3,5-trichlorobenzene + toluene system
Source: J. Chem. Thermodyn., 2016, 10.1016/j.jct.2016.03.007
Compound 1: 3,5-dichloroaniline, C6H5Cl2N, purity 97.8%
Compound 2: 1,3,5-trichlorobenzene, C6H3Cl3
Compound 3: n-propanol, C3H8O, purity 99.4%
Compound 4: isopropanol, C3H8O, purity 99.6%
Compound 5: n-butanol, C4H10O, purity 99.7%
Compound 6: isobutanol, C4H10O, purity 99.6%
Compound 7: toluene, C7H8, purity 99.5%
Compound 8: ethyl acetate, C4H8O2, purity 99.7%
Compound 9: acetone, C3H6O, purity 99.6%

System: 3,5-dichloroaniline; phases: Crystal, Liquid, Air at 1 atmosphere
Property: Normal melting temperature, K (Crystal); method: Visual observation
Normal melting temperature, K	uncertainty
323.16	.5

System: 3,5-dichloroaniline; phases: Crystal, Liquid, Air at 1 atmosphere
Property: Molar enthalpy of transition or fusion, kJ/mol (Crystal); method: DSC
Molar enthalpy of transition or fusion, kJ/mol	uncertainty
19.3	.4

System: 3,5-dichloroaniline; phases: Crystal
Fixed: Pressure, kPa = 101.325
Property: Mass density, kg/m3 (Crystal); method: Pycnometric method
Temperature, K	Mass density, kg/m3	uncertainty
298.15	1591.3	1.1

System: 1,3,5-trichlorobenzene; phases: Crystal
Fixed: Pressure, kPa = 101.325
Property: Mass density, kg/m3 (Crystal); method: Pycnometric method
Temperature, K	Mass density, kg/m3	uncertainty
298.15	1446.7	1.1

System: n-propanol + 3,5-dichloroaniline; phases: Liquid, Crystal
Fixed: Pressure, kPa = 101.3
Property: Mole fraction of 3,5-dichloroaniline (Liquid); method: Chromatography
Temperature, K	Mole fraction of 3,5-dichloroaniline	uncertainty
283.15	.2323	
285.65	.2516	
288.15	.2786	
290.65	.3092	
293.15	.3456	
295.65	.3823	
298.15	.4275	
300.65	.4725	
303.15	.5183	
305.65	.5724	
308.15	.6305	

System: isopropanol + 3,5-dichloroaniline; phases: Liquid, Crystal
Fixed: Pressure, kPa = 101.3
Property: Mole fraction of 3,5-dichloroaniline (Liquid); method: Chromatography
Temperature, K	Mole fraction of 3,5-dichloroaniline	uncertainty
283.15	.2715	
285.65	.2984	
288.15	.3296	
290.65	.3599	
293.15	.3957	
295.65	.4327	
298.15	.4728	
300.65	.5187	
303.15	.5645	
305.65	.6099	
308.15	.6597	

System: n-butanol + 3,5-dichloroaniline; phases: Liquid, Crystal
Fixed: Pressure, kPa = 101.3
Property: Mole fraction of 3,5-dichloroaniline (Liquid); method: Chromatography
Temperature, K	Mole fraction of 3,5-dichloroaniline	uncertainty
283.15	.2441	
285.65	.2748	
288.15	.3046	
290.65	.3432	
293.15	.3821	
295.65	.4286	
298.15	.4691	
300.65	.5183	
303.15	.5623	
305.65	.612	
308.15	.6698	

System: isobutanol + 3,5-dichloroaniline; phases: Liquid, Crystal
Fixed: Pressure, kPa = 101.3
Property: Mole fraction of 3,5-dichloroaniline (Liquid); method: Chromatography
Temperature, K	Mole fraction of 3,5-dichloroaniline	uncertainty
283.15	.2077	
285.65	.2342	
288.15	.2608	
290.65	.2869	
293.15	.3199	
295.65	.3539	
298.15	.3952	
300.65	.4423	
303.15	.4839	
305.65	.5336	
308.15	.5858	

System: toluene + 3,5-dichloroaniline; phases: Liquid, Crystal
Fixed: Pressure, kPa = 101.3
Property: Mole fraction of 3,5-dichloroaniline (Liquid); method: Chromatography
Temperature, K	Mole fraction of 3,5-dichloroaniline	uncertainty
283.15	.2902	
285.65	.3166	
288.15	.341	
290.65	.3675	
293.15	.3942	
295.65	.4196	
298.15	.447	
300.65	.4754	
303.15	.5066	
305.65	.5472	
308.15	.5924	

System: toluene + 3,5-dichloroaniline; phases: Liquid, Crystal
Property: Mass fraction of 3,5-dichloroaniline (Liquid); method: Chromatography
Temperature, K	Pressure, kPa	Mass fraction of 3,5-dichloroaniline	uncertainty
283.15	101.3	.4182	
293.15	101.3	.5336	
303.15	101.3	.6436	

System: ethyl acetate + 3,5-dichloroaniline; phases: Liquid, Crystal
Fixed: Pressure, kPa = 101.3
Property: Mole fraction of 3,5-dichloroaniline (Liquid); method: Chromatography
Temperature, K	Mole fraction of 3,5-dichloroaniline	uncertainty
283.15	.3203	
285.65	.3467	
288.15	.3727	
290.65	.4069	
293.15	.4438	
295.65	.4787	
298.15	.5147	
300.65	.5537	
303.15	.5941	
305.65	.6341	
308.15	.6763	

System: acetone + 3,5-dichloroaniline; phases: Liquid, Crystal
Fixed: Pressure, kPa = 101.3
Property: Mole fraction of 3,5-dichloroaniline (Liquid); method: Chromatography
Temperature, K	Mole fraction of 3,5-dichloroaniline	uncertainty
283.15	.2812	
285.65	.3092	
288.15	.3417	
290.65	.375	
293.15	.4139	
295.65	.4538	
298.15	.4972	
300.65	.5357	
303.15	.5762	
305.65	.6172	
308.15	.6659	

System: 1,3,5-trichlorobenzene + toluene + 3,5-dichloroaniline; phases: Liquid, Crystal
Fixed: Pressure, kPa = 101.3
Property: Mass fraction of 1,3,5-trichlorobenzene (Liquid); method: Chromatography
Temperature, K	Mass fraction of 3,5-dichloroaniline	Mass fraction of 1,3,5-trichlorobenzene	uncertainty
283.15	.0536	.3704	
283.15	.0938	.3634	
283.15	.1312	.3523	
283.15	.1832	.333	
283.15	.2243	.3258	
283.15	.2597	.3126	
283.15	.2798	.3045	
283.15	.3167	.2921	
293.15	.0774	.467	
293.15	.1317	.4421	
293.15	.1722	.4197	
293.15	.2146	.4003	
293.15	.2556	.3784	
293.15	.2911	.3624	
293.15	.3351	.3476	
293.15	.3757	.3295	
303.15	.0766	.5657	
303.15	.1334	.536	
303.15	.2148	.484	
303.15	.2911	.4402	
303.15	.3355	.4191	
303.15	.3642	.4014	
303.15	.4151	.3733	
303.15	.4501	.3581	

System: 1,3,5-trichlorobenzene + toluene + 3,5-dichloroaniline; phases: Liquid, Crystal, Crystal
Fixed: Pressure, kPa = 101.3
Property: Mass fraction of 1,3,5-trichlorobenzene (Liquid); method: Chromatography
Temperature, K	Mass fraction of 1,3,5-trichlorobenzene	uncertainty
283.15	.2921	
293.15	.3295	
303.15	.3581	

System: 1,3,5-trichlorobenzene + toluene + 3,5-dichloroaniline; phases: Liquid, Crystal, Crystal
Fixed: Pressure, kPa = 101.3
Property: Mass fraction of 3,5-dichloroaniline (Liquid); method: Chromatography
Temperature, K	Mass fraction of 3,5-dichloroaniline	uncertainty
283.15	.3167	
293.15	.3757	
303.15	.4501	

System: 1,3,5-trichlorobenzene + toluene + 3,5-dichloroaniline; phases: Liquid, Crystal
Fixed: Pressure, kPa = 101.3
Property: Mass fraction of 1,3,5-trichlorobenzene (Liquid); method: Chromatography
Temperature, K	Mass fraction of 3,5-dichloroaniline	Mass fraction of 1,3,5-trichlorobenzene	uncertainty
283.15	.3167	.2921	
283.15	.3291	.2301	
283.15	.3488	.1803	
283.15	.3761	.1059	
283.15	.4182	0	
293.15	.3757	.3295	
293.15	.3971	.2933	
293.15	.424	.2264	
293.15	.4798	.09635	
293.15	.5336	0	
303.15	.4501	.3581	
303.15	.4781	.3129	
303.15	.5291	.2329	
303.15	.5766	.1376	
303.15	.6436	0	
