Measured thermophysical data. Isobaric (vapour + liquid) equilibrium for N-methyl-2-pyrrolidone  with branched alcohols
Source: J. Chem. Thermodyn., 2009, 10.1016/j.jct.2008.09.021
Compound 1: N-methyl-2-pyrrolidone, C5H9NO, purity 99%
Compound 2: 2-propanol, C3H8O
Compound 3: 2-butanol, dl-, C4H10O
Compound 4: 2-methyl-1-propanol, C4H10O
Compound 5: 2-methyl-2-propanol, C4H10O
Compound 6: 3-methyl-1-butanol, C5H12O

System: N-methyl-2-pyrrolidone; phases: Liquid
Fixed: Pressure, kPa = 101.325
Property: Mass density, kg/m3 (Liquid); method: Pycnometric method
Temperature, K	Mass density, kg/m3	uncertainty
303.15	1023.4	

System: N-methyl-2-pyrrolidone; phases: Liquid
Fixed: Pressure, kPa = 101.325
Property: Refractive index (Na D-line) (Liquid); method: Standard Abbe refractometry
Temperature, K	Refractive index (Na D-line)	uncertainty
298.15	1.4674	.0002

System: N-methyl-2-pyrrolidone; phases: Liquid, Gas
Property: Vapor or sublimation pressure, kPa (Liquid); method: Ebulliometric method (Recirculating still)
Temperature, K	Vapor or sublimation pressure, kPa	uncertainty
473.25	95.3	.13

System: 2-propanol; phases: Liquid
Fixed: Pressure, kPa = 101.325
Property: Mass density, kg/m3 (Liquid); method: Pycnometric method
Temperature, K	Mass density, kg/m3	uncertainty
303.15	776.88	

System: 2-propanol; phases: Liquid
Fixed: Pressure, kPa = 101.325
Property: Refractive index (Na D-line) (Liquid); method: Standard Abbe refractometry
Temperature, K	Refractive index (Na D-line)	uncertainty
298.15	1.375	.0002

System: 2-propanol; phases: Liquid, Gas
Property: Vapor or sublimation pressure, kPa (Liquid); method: Ebulliometric method (Recirculating still)
Temperature, K	Vapor or sublimation pressure, kPa	uncertainty
353.85	95.3	.13

System: 2-butanol, dl-; phases: Liquid
Fixed: Pressure, kPa = 101.325
Property: Mass density, kg/m3 (Liquid); method: Pycnometric method
Temperature, K	Mass density, kg/m3	uncertainty
303.15	798.92	

System: 2-butanol, dl-; phases: Liquid
Fixed: Pressure, kPa = 101.325
Property: Refractive index (Na D-line) (Liquid); method: Standard Abbe refractometry
Temperature, K	Refractive index (Na D-line)	uncertainty
298.15	1.3954	.0002

System: 2-butanol, dl-; phases: Liquid, Gas
Property: Vapor or sublimation pressure, kPa (Liquid); method: Ebulliometric method (Recirculating still)
Temperature, K	Vapor or sublimation pressure, kPa	uncertainty
371.05	95.3	.13

System: 2-methyl-1-propanol; phases: Liquid
Fixed: Pressure, kPa = 101.325
Property: Mass density, kg/m3 (Liquid); method: Pycnometric method
Temperature, K	Mass density, kg/m3	uncertainty
303.15	794.34	

System: 2-methyl-1-propanol; phases: Liquid
Fixed: Pressure, kPa = 101.325
Property: Refractive index (Na D-line) (Liquid); method: Standard Abbe refractometry
Temperature, K	Refractive index (Na D-line)	uncertainty
298.15	1.3939	.0002

System: 2-methyl-1-propanol; phases: Liquid, Gas
Property: Vapor or sublimation pressure, kPa (Liquid); method: Ebulliometric method (Recirculating still)
Temperature, K	Vapor or sublimation pressure, kPa	uncertainty
379.35	95.3	.13

System: 2-methyl-2-propanol; phases: Liquid
Fixed: Pressure, kPa = 101.325
Property: Mass density, kg/m3 (Liquid); method: Pycnometric method
Temperature, K	Mass density, kg/m3	uncertainty
303.15	776.16	

System: 2-methyl-2-propanol; phases: Liquid
Fixed: Pressure, kPa = 101.325
Property: Refractive index (Na D-line) (Liquid); method: Standard Abbe refractometry
Temperature, K	Refractive index (Na D-line)	uncertainty
298.15	1.3851	.0002

System: 2-methyl-2-propanol; phases: Liquid, Gas
Property: Vapor or sublimation pressure, kPa (Liquid); method: Ebulliometric method (Recirculating still)
Temperature, K	Vapor or sublimation pressure, kPa	uncertainty
353.95	95.3	.13

System: 3-methyl-1-butanol; phases: Liquid
Fixed: Pressure, kPa = 101.325
Property: Mass density, kg/m3 (Liquid); method: Pycnometric method
Temperature, K	Mass density, kg/m3	uncertainty
303.15	801.76	

System: 3-methyl-1-butanol; phases: Liquid
Fixed: Pressure, kPa = 101.325
Property: Refractive index (Na D-line) (Liquid); method: Standard Abbe refractometry
Temperature, K	Refractive index (Na D-line)	uncertainty
298.15	1.4053	.0002

System: 3-methyl-1-butanol; phases: Liquid, Gas
Property: Vapor or sublimation pressure, kPa (Liquid); method: Ebulliometric method (Recirculating still)
Temperature, K	Vapor or sublimation pressure, kPa	uncertainty
401.85	95.3	.13

System: 2-propanol + N-methyl-2-pyrrolidone; phases: Liquid, Gas
Fixed: Pressure, kPa = 95.3
Property: Boiling temperature at pressure P, K (Liquid); method: Ebulliometric method (Recirculating still)
Mole fraction of 2-propanol	Boiling temperature at pressure P, K	uncertainty
0	473.25	.2
.0821	454.25	.2
.1727	435.25	.2
.343	406.95	.2
.5562	381.95	.2
.6347	374.85	.2
.7782	364.25	.2
.8979	357.55	.2
.9438	355.65	.2
1	353.85	.2

System: 2-butanol, dl- + N-methyl-2-pyrrolidone; phases: Liquid, Gas
Fixed: Pressure, kPa = 95.3
Property: Boiling temperature at pressure P, K (Liquid); method: Ebulliometric method (Recirculating still)
Mole fraction of 2-butanol, dl-	Boiling temperature at pressure P, K	uncertainty
0	473.25	.2
.0721	468.35	.2
.1298	461.75	.2
.2716	439.15	.2
.4273	414.75	.2
.5939	395.25	.2
.7091	385.45	.2
.8298	377.85	.2
.9321	373.25	.2
1	371.05	.2

System: 2-methyl-1-propanol + N-methyl-2-pyrrolidone; phases: Liquid, Gas
Fixed: Pressure, kPa = 95.3
Property: Boiling temperature at pressure P, K (Liquid); method: Ebulliometric method (Recirculating still)
Mole fraction of 2-methyl-1-propanol	Boiling temperature at pressure P, K	uncertainty
0	473.25	.2
.0723	465.65	.2
.1821	452.95	.2
.3082	438.05	.2
.4261	424.65	.2
.6245	404.75	.2
.7349	395.35	.2
.8472	387.05	.2
.9221	382.55	.2
1	379.35	.2

System: 2-methyl-2-propanol + N-methyl-2-pyrrolidone; phases: Liquid, Gas
Fixed: Pressure, kPa = 95.3
Property: Boiling temperature at pressure P, K (Liquid); method: Ebulliometric method (Recirculating still)
Mole fraction of 2-methyl-2-propanol	Boiling temperature at pressure P, K	uncertainty
0	473.25	.2
.0812	454.45	.2
.1845	426.05	.2
.2837	404.55	.2
.4044	386.85	.2
.6708	365.85	.2
.8029	359.95	.2
.9106	356.35	.2
.9612	354.95	.2
1	353.95	.2

System: 3-methyl-1-butanol + N-methyl-2-pyrrolidone; phases: Liquid, Gas
Fixed: Pressure, kPa = 95.3
Property: Boiling temperature at pressure P, K (Liquid); method: Ebulliometric method (Recirculating still)
Mole fraction of 3-methyl-1-butanol	Boiling temperature at pressure P, K	uncertainty
0	473.25	.2
.0723	465.65	.2
.1587	456.65	.2
.3057	441.85	.2
.409	432.65	.2
.6378	416.85	.2
.7555	410.85	.2
.8604	406.45	.2
.933	403.85	.2
1	401.85	.2
