Measured thermophysical data. Ultrasound speeds and molar isentropic compressions of aqueous 1-propoxypropan-2-ol mixtures from T = (283.15 to 303.15) K. Influence of solute structure
Source: J. Chem. Thermodyn., 2012, 10.1016/j.jct.2011.09.008
Compound 1: 1-propoxy-2-propanol, C6H14O2, purity 99%
Compound 2: water, H2O

System: 1-propoxy-2-propanol; phases: Liquid
Property: Speed of sound, m/s (Liquid); method: Sing-around technique in a fixed-path interferometer
Temperature, K	Pressure, kPa	Speed of sound, m/s	uncertainty
283.15	101	1301.94	.5
288.15	101	1283.21	.5
293.15	101	1264.52	.5
298.15	101	1245.79	.5
303.15	101	1227.33	.5

System: water; phases: Liquid
Property: Speed of sound, m/s (Liquid); method: Sing-around technique in a fixed-path interferometer
Temperature, K	Pressure, kPa	Speed of sound, m/s	uncertainty
283.15	101	1447.31	.5
288.15	101	1465.93	.5
293.15	101	1482.34	.5
298.15	101	1496.7	.5
303.15	101	1509.13	.5

System: 1-propoxy-2-propanol + water; phases: Liquid
Fixed: Pressure, kPa = 101
Property: Speed of sound, m/s (Liquid); method: Sing-around technique in a fixed-path interferometer
Temperature, K	Mole fraction of 1-propoxy-2-propanol	Speed of sound, m/s	uncertainty
283.15	0	1447.31	.5
283.15	.00326	1470.68	.5
283.15	.00845	1503.08	.5
283.15	.01369	1533.31	.5
283.15	.01942	1563.43	.5
283.15	.02453	1582.58	.5
283.15	.02855	1594.93	.5
283.15	.03532	1597.95	.5
283.15	.04675	1577.1	.5
283.15	.06359	1545.29	.5
283.15	.08224	1520.54	.5
283.15	.09758	1504.92	.5
283.15	.11853	1487.76	.5
283.15	.145	1470.86	.5
283.15	.1945	1447.25	.5
283.15	.22131	1437.3	.5
283.15	.26857	1422.11	.5
283.15	.34316	1402.5	.5
283.15	.44243	1381.25	.5
283.15	.5415	1363.04	.5
283.15	.64438	1346.46	.5
283.15	.7056	1337.28	.5
283.15	.75691	1330.32	.5
283.15	.79507	1325.2	.5
283.15	.83736	1320.15	.5
283.15	.88004	1314.62	.5
283.15	.91928	1310.31	.5
283.15	.95971	1305.96	.5
283.15	1	1301.94	.5
288.15	0	1465.93	.5
288.15	.00326	1487.14	.5
288.15	.00845	1516.8	.5
288.15	.01369	1543.71	.5
288.15	.01942	1570.11	.5
288.15	.02453	1585.63	.5
288.15	.02855	1593.99	.5
288.15	.03532	1590.94	.5
288.15	.04675	1566.91	.5
288.15	.06359	1535.15	.5
288.15	.08224	1509.61	.5
288.15	.09758	1493.23	.5
288.15	.11853	1475.39	.5
288.15	.145	1457.64	.5
288.15	.1945	1433.12	.5
288.15	.22131	1422.43	.5
288.15	.26857	1406.9	.5
288.15	.34316	1386.55	.5
288.15	.44243	1364.48	.5
288.15	.5415	1345.69	.5
288.15	.64438	1328.59	.5
288.15	.7056	1319.3	.5
288.15	.75691	1312.01	.5
288.15	.79507	1306.86	.5
288.15	.83736	1301.43	.5
288.15	.88004	1296.22	.5
288.15	.91928	1291.74	.5
288.15	.95971	1287.34	.5
288.15	1	1283.21	.5
293.15	0	1482.34	.5
293.15	.00326	1501.5	.5
293.15	.00845	1528.71	.5
293.15	.01369	1552.46	.5
293.15	.01942	1575.68	.5
293.15	.02453	1586.91	.5
293.15	.02855	1591.72	.5
293.15	.03532	1583.25	.5
293.15	.04675	1557.04	.5
293.15	.06359	1524.6	.5
293.15	.08224	1498.08	.5
293.15	.09758	1481.02	.5
293.15	.11853	1462.29	.5
293.15	.145	1443.99	.5
293.15	.1945	1418.58	.5
293.15	.22131	1407.89	.5
293.15	.26857	1391.66	.5
293.15	.34316	1370.78	.5
293.15	.44243	1347.77	.5
293.15	.5415	1328.39	.5
293.15	.64438	1310.85	.5
293.15	.7056	1301.3	.5
293.15	.75691	1293.9	.5
293.15	.79507	1288.72	.5
293.15	.83736	1283.15	.5
293.15	.88004	1277.8	.5
293.15	.91928	1273.39	.5
293.15	.95971	1268.89	.5
293.15	1	1264.52	.5
298.15	0	1496.7	.5
298.15	.00326	1514.22	.5
298.15	.00845	1538.75	.5
298.15	.01369	1560.12	.5
298.15	.01942	1579.2	.5
298.15	.02453	1586.72	.5
298.15	.02855	1587.7	.5
298.15	.03532	1575.06	.5
298.15	.04675	1547.09	.5
298.15	.06359	1513.46	.5
298.15	.08224	1485.95	.5
298.15	.09758	1467.85	.5
298.15	.11853	1448.6	.5
298.15	.145	1429.64	.5
298.15	.1945	1403.72	.5
298.15	.22131	1392.68	.5
298.15	.26857	1376.05	.5
298.15	.34316	1354.49	.5
298.15	.44243	1330.94	.5
298.15	.5415	1310.95	.5
298.15	.64438	1293.05	.5
298.15	.7056	1283.3	.5
298.15	.75691	1275.69	.5
298.15	.79507	1270.39	.5
298.15	.83736	1264.78	.5
298.15	.88004	1259.4	.5
298.15	.91928	1254.85	.5
298.15	.95971	1250.18	.5
298.15	1	1245.79	.5
303.15	0	1509.13	.5
303.15	.00326	1527.51	.5
303.15	.00845	1548.35	.5
303.15	.01369	1565.51	.5
303.15	.01942	1581.51	.5
303.15	.02453	1585.65	.5
303.15	.02855	1582.44	.5
303.15	.03532	1566.61	.5
303.15	.04675	1536.79	.5
303.15	.06359	1501.62	.5
303.15	.08224	1472.57	.5
303.15	.09758	1453.97	.5
303.15	.11853	1433.97	.5
303.15	.145	1414.56	.5
303.15	.1945	1388.42	.5
303.15	.22131	1377.49	.5
303.15	.26857	1360.57	.5
303.15	.34316	1338.46	.5
303.15	.44243	1314.16	.5
303.15	.5415	1293.73	.5
303.15	.64438	1275.34	.5
303.15	.7056	1265.34	.5
303.15	.75691	1257.68	.5
303.15	.79507	1252.37	.5
303.15	.83736	1246.5	.5
303.15	.88004	1240.93	.5
303.15	.91928	1236.45	.5
303.15	.95971	1231.66	.5
303.15	1	1227.33	.5
