Measured thermophysical data. Isothermal (vapour + liquid) equilibrium for the binary {1,1,2,2-tetrafluoroethane (R134) + propane (R290)} and {1,1,2,2-tetrafluoroethane (R134) + isobutane (R600a)} systems
Source: J. Chem. Thermodyn., 2010, 10.1016/j.jct.2010.04.016
Compound 1: 1,1,2,2-tetrafluoroethane, C2H2F4, purity 99.5%
Compound 2: n-propane, C3H8, purity 99.9%
Compound 3: propane, 2-methyl-, C4H10, purity 99.99%

System: n-propane + 1,1,2,2-tetrafluoroethane; phases: Liquid, Gas
Property: Vapor or sublimation pressure, kPa (Liquid); method: Ebulliometric method (Recirculating still)
Mole fraction of 1,1,2,2-tetrafluoroethane	Temperature, K	Vapor or sublimation pressure, kPa	uncertainty
0	263.15	348	5
.093	263.15	396	5
.177	263.15	410	5
.244	263.15	415	5
.265	263.15	415	5
.292	263.15	415	5
.338	263.15	414	5
.362	263.15	414	5
.417	263.15	412	5
.676	263.15	395	5
.958	263.15	235	5
1	263.15	155	5
0	268.15	408	5
.092	268.15	464	5
.177	268.15	482	5
.243	268.15	487	5
.265	268.15	487	5
.291	268.15	487	5
.338	268.15	487	5
.359	268.15	486	5
.416	268.15	484	5
.669	268.15	461	5
.963	268.15	276	5
1	268.15	189	5
0	273.15	477	5
.092	273.15	540	5
.177	273.15	561	5
.243	273.15	567	5
.263	273.15	568	5
.291	273.15	569	5
.339	273.15	569	5
.362	273.15	568	5
.412	273.15	565	5
.665	273.15	534	5
.963	273.15	319	5
1	273.15	227	5
0	278.15	554	5
.092	278.15	625	5
.176	278.15	651	5
.245	278.15	658	5
.264	278.15	659	5
.292	278.15	660	5
.337	278.15	659	5
.356	278.15	659	5
.415	278.15	655	5
.67	278.15	615	5
.961	278.15	367	5
1	278.15	276	5

System: n-propane + 1,1,2,2-tetrafluoroethane; phases: Gas, Liquid
Property: Mole fraction of 1,1,2,2-tetrafluoroethane (Gas); method: Chromatography
Mole fraction of 1,1,2,2-tetrafluoroethane	Temperature, K	Mole fraction of 1,1,2,2-tetrafluoroethane	uncertainty
0	263.15	0	.005
.093	263.15	.177	.005
.177	263.15	.241	.005
.244	263.15	.268	.005
.265	263.15	.276	.005
.292	263.15	.283	.005
.338	263.15	.294	.005
.362	263.15	.3	.005
.417	263.15	.308	.005
.676	263.15	.343	.005
.958	263.15	.635	.005
1	263.15	1	.005
0	268.15	0	.005
.092	268.15	.173	.005
.177	268.15	.24	.005
.243	268.15	.271	.005
.265	268.15	.279	.005
.291	268.15	.287	.005
.338	268.15	.299	.005
.359	268.15	.304	.005
.416	268.15	.316	.005
.669	268.15	.361	.005
.963	268.15	.667	.005
1	268.15	1	.005
0	273.15	0	.005
.092	273.15	.171	.005
.177	273.15	.235	.005
.243	273.15	.272	.005
.263	273.15	.281	.005
.291	273.15	.289	.005
.339	273.15	.304	.005
.362	273.15	.309	.005
.412	273.15	.322	.005
.665	273.15	.377	.005
.963	273.15	.7	.005
1	273.15	1	.005
0	278.15	0	.005
.092	278.15	.167	.005
.176	278.15	.237	.005
.245	278.15	.274	.005
.264	278.15	.283	.005
.292	278.15	.293	.005
.337	278.15	.308	.005
.356	278.15	.316	.005
.415	278.15	.329	.005
.67	278.15	.393	.005
.961	278.15	.731	.005
1	278.15	1	.005

System: n-propane + 1,1,2,2-tetrafluoroethane; phases: Liquid, Gas
Property: Azeotropic composition: mole fraction of 1,1,2,2-tetrafluoroethane (Liquid); method: By X=Y
Pressure, kPa	Azeotropic composition: mole fraction of 1,1,2,2-tetrafluoroethane	uncertainty
415	.285	.005
487	.301	.005
569	.301	.005
660	.301	.005

System: n-propane + 1,1,2,2-tetrafluoroethane; phases: Liquid, Gas
Property: Azeotropic composition: mole fraction of 1,1,2,2-tetrafluoroethane (Liquid); method: By X=Y
Temperature, K	Azeotropic composition: mole fraction of 1,1,2,2-tetrafluoroethane	uncertainty
263.15	.285	.005
268.15	.301	.005
273.15	.301	.005
278.15	.301	.005

System: propane, 2-methyl- + 1,1,2,2-tetrafluoroethane; phases: Liquid, Gas
Property: Vapor or sublimation pressure, kPa (Liquid); method: Ebulliometric method (Recirculating still)
Mole fraction of 1,1,2,2-tetrafluoroethane	Temperature, K	Vapor or sublimation pressure, kPa	uncertainty
0	268.15	132	5
.092	268.15	207	5
.431	268.15	264	5
.549	268.15	266	5
.598	268.15	266	5
.632	268.15	266	5
.671	268.15	266	5
.801	268.15	261	5
1	268.15	189	5
0	273.15	159	5
.093	273.15	243	5
.432	273.15	313	5
.548	273.15	316	5
.601	273.15	316	5
.632	273.15	316	5
.672	273.15	316	5
.8	273.15	310	5
1	273.15	227	5
0	278.15	189	5
.096	278.15	284	5
.429	278.15	369	5
.547	278.15	372	5
.596	278.15	373	5
.636	278.15	373	5
.672	278.15	373	5
.796	278.15	367	5
1	278.15	276	5
0	288.15	262	5
.107	288.15	381	5
.445	288.15	503	5
.552	288.15	511	5
.607	288.15	511	5
.637	288.15	512	5
.675	288.15	511	5
.8	288.15	502	5
1	288.15	386	5

System: propane, 2-methyl- + 1,1,2,2-tetrafluoroethane; phases: Gas, Liquid
Property: Mole fraction of 1,1,2,2-tetrafluoroethane (Gas); method: Chromatography
Mole fraction of 1,1,2,2-tetrafluoroethane	Temperature, K	Mole fraction of 1,1,2,2-tetrafluoroethane	uncertainty
0	268.15	0	.005
.092	268.15	.382	.005
.431	268.15	.586	.005
.549	268.15	.6	.005
.598	268.15	.607	.005
.632	268.15	.61	.005
.671	268.15	.616	.005
.801	268.15	.651	.005
1	268.15	1	.005
0	273.15	0	.005
.093	273.15	.373	.005
.432	273.15	.584	.005
.548	273.15	.603	.005
.601	273.15	.612	.005
.632	273.15	.616	.005
.672	273.15	.625	.005
.8	273.15	.66	.005
1	273.15	1	.005
0	278.15	0	.005
.096	278.15	.363	.005
.429	278.15	.587	.005
.547	278.15	.607	.005
.596	278.15	.616	.005
.636	278.15	.623	.005
.672	278.15	.63	.005
.796	278.15	.67	.005
1	278.15	1	.005
0	288.15	0	.005
.107	288.15	.358	.005
.445	288.15	.588	.005
.552	288.15	.621	.005
.607	288.15	.622	.005
.637	288.15	.63	.005
.675	288.15	.642	.005
.8	288.15	.689	.005
1	288.15	1	.005

System: propane, 2-methyl- + 1,1,2,2-tetrafluoroethane; phases: Liquid, Gas
Property: Azeotropic composition: mole fraction of 1,1,2,2-tetrafluoroethane (Liquid); method: By X=Y
Pressure, kPa	Azeotropic composition: mole fraction of 1,1,2,2-tetrafluoroethane	uncertainty
266	.608	.005
316	.612	.005
373	.622	.005
512	.646	.005

System: propane, 2-methyl- + 1,1,2,2-tetrafluoroethane; phases: Liquid, Gas
Property: Azeotropic composition: mole fraction of 1,1,2,2-tetrafluoroethane (Liquid); method: By X=Y
Temperature, K	Azeotropic composition: mole fraction of 1,1,2,2-tetrafluoroethane	uncertainty
268.15	.608	.005
273.15	.612	.005
278.15	.622	.005
288.15	.646	.005
