Measured thermophysical data. (Liquid + liquid) equilibria in the binary systems (aliphatic, or aromatic  hydrocarbons + 1-ethyl-3-methylimidazolium ethylsulfate, or  1-butyl-3-methylimidazolium methylsulfate ionic liquids)
Source: J. Chem. Thermodyn., 2010, 10.1016/j.jct.2009.07.023
Compound 1: 1-ethyl-3-methylimidazolium ethylsulfate, C8H16N2O4S, purity 95%
Compound 2: 1-butyl-3-methylimidazolium methylsulfate, C9H18N2O4S, purity 95%
Compound 3: hexane, C6H14, purity 99%
Compound 4: heptane, C7H16, purity 99.5%
Compound 5: benzene, C6H6, purity 99.5%
Compound 6: toluene, C7H8, purity 99.7%
Compound 7: 1,2-dimethylbenzene, C8H10, purity 99%
Compound 8: 1,3-dimethylbenzene, C8H10, purity 99%
Compound 9: 1,4-dimethylbenzene, C8H10, purity 99%

System: hexane + 1-ethyl-3-methylimidazolium ethylsulfate; phases: Liquid mixture 1, Liquid mixture 2
Fixed: Pressure, kPa = 101.3
Property: Mole fraction of 1-ethyl-3-methylimidazolium ethylsulfate (Liquid mixture 1); method: Chromatography
Temperature, K	Mole fraction of 1-ethyl-3-methylimidazolium ethylsulfate	uncertainty
293.2	.9913	.0002
298.3	.9912	.0002
303.1	.9911	.0002
308.2	.9909	.0002
313.2	.9908	.0002
318.1	.9907	.0002
323	.9906	.0002
328.1	.9904	.0002
333.1	.9901	.0002

System: heptane + 1-ethyl-3-methylimidazolium ethylsulfate; phases: Liquid mixture 1, Liquid mixture 2
Fixed: Pressure, kPa = 101.3
Property: Mole fraction of 1-ethyl-3-methylimidazolium ethylsulfate (Liquid mixture 1); method: Chromatography
Temperature, K	Mole fraction of 1-ethyl-3-methylimidazolium ethylsulfate	uncertainty
293.3	.9956	.0002
298.4	.995	.0002
303.3	.9945	.0002
308.2	.9943	.0002
313.1	.9937	.0002
318.1	.9935	.0002
323.1	.9934	.0002
328	.993	.0002
333.1	.9927	.0002

System: benzene + 1-ethyl-3-methylimidazolium ethylsulfate; phases: Liquid mixture 1, Liquid mixture 2
Fixed: Pressure, kPa = 101.3
Property: Mole fraction of 1-ethyl-3-methylimidazolium ethylsulfate (Liquid mixture 1); method: Chromatography
Temperature, K	Mole fraction of 1-ethyl-3-methylimidazolium ethylsulfate	uncertainty
293.1	.5683	.0004
297.6	.5648	.0004
303.3	.5633	.0004
307.3	.5622	.0004
312.1	.562	.0004
317	.5607	.0004
322.5	.556	.0004
327.4	.5519	.0004
333.1	.5517	.0004

System: toluene + 1-ethyl-3-methylimidazolium ethylsulfate; phases: Liquid mixture 1, Liquid mixture 2
Fixed: Pressure, kPa = 101.3
Property: Mole fraction of 1-ethyl-3-methylimidazolium ethylsulfate (Liquid mixture 1); method: Chromatography
Temperature, K	Mole fraction of 1-ethyl-3-methylimidazolium ethylsulfate	uncertainty
293.3	.7583	.0004
298.4	.7402	.0004
303.1	.7366	.0004
308	.7308	.0004
312.9	.7208	.0004
317.6	.7058	.0004
322.6	.6956	.0004
327.8	.6844	.0004
332.8	.6757	.0004

System: 1,2-dimethylbenzene + 1-ethyl-3-methylimidazolium ethylsulfate; phases: Liquid mixture 1, Liquid mixture 2
Fixed: Pressure, kPa = 101.3
Property: Mole fraction of 1-ethyl-3-methylimidazolium ethylsulfate (Liquid mixture 1); method: Chromatography
Temperature, K	Mole fraction of 1-ethyl-3-methylimidazolium ethylsulfate	uncertainty
293.4	.8528	.0004
298.3	.8497	.0004
303.1	.8463	.0004
307.9	.8444	.0004
313.1	.8422	.0004
317.8	.8419	.0004
322.9	.8417	.0004
327.7	.8415	.0004
332.7	.8413	.0004

System: 1,3-dimethylbenzene + 1-ethyl-3-methylimidazolium ethylsulfate; phases: Liquid mixture 1, Liquid mixture 2
Fixed: Pressure, kPa = 101.3
Property: Mole fraction of 1-ethyl-3-methylimidazolium ethylsulfate (Liquid mixture 1); method: Chromatography
Temperature, K	Mole fraction of 1-ethyl-3-methylimidazolium ethylsulfate	uncertainty
293.3	.9014	.0004
298.3	.9012	.0004
303.1	.8947	.0004
308	.8935	.0004
313	.8912	.0004
317.7	.8907	.0004
322.9	.8874	.0004
327.8	.8836	.0004
332.7	.8835	.0004

System: 1,4-dimethylbenzene + 1-ethyl-3-methylimidazolium ethylsulfate; phases: Liquid mixture 1, Liquid mixture 2
Fixed: Pressure, kPa = 101.3
Property: Mole fraction of 1-ethyl-3-methylimidazolium ethylsulfate (Liquid mixture 1); method: Chromatography
Temperature, K	Mole fraction of 1-ethyl-3-methylimidazolium ethylsulfate	uncertainty
293.5	.8971	.0004
298.3	.8907	.0004
303.1	.8874	.0004
308	.8844	.0004
312.9	.8782	.0004
317.8	.8767	.0004
322.8	.8735	.0004
327.8	.8718	.0004
332.7	.8653	.0004

System: hexane + 1-butyl-3-methylimidazolium methylsulfate; phases: Liquid mixture 1, Liquid mixture 2
Fixed: Pressure, kPa = 101.3
Property: Mole fraction of 1-butyl-3-methylimidazolium methylsulfate (Liquid mixture 1); method: Chromatography
Temperature, K	Mole fraction of 1-butyl-3-methylimidazolium methylsulfate	uncertainty
293.3	.9849	.0002
298.3	.9831	.0002
303.1	.9825	.0002
308.1	.9805	.0002
313.1	.9755	.0002
318	.9739	.0002
322.9	.9735	.0002
327.9	.9728	.0002
332.8	.971	.0002

System: heptane + 1-butyl-3-methylimidazolium methylsulfate; phases: Liquid mixture 1, Liquid mixture 2
Fixed: Pressure, kPa = 101.3
Property: Mole fraction of 1-butyl-3-methylimidazolium methylsulfate (Liquid mixture 1); method: Chromatography
Temperature, K	Mole fraction of 1-butyl-3-methylimidazolium methylsulfate	uncertainty
293.2	.9927	.0002
298.3	.9921	.0002
303.3	.9917	.0002
308.2	.9902	.0002
313.1	.9895	.0002
318.1	.9877	.0002
323	.9874	.0002
327.9	.9871	.0002
333	.9866	.0002

System: benzene + 1-butyl-3-methylimidazolium methylsulfate; phases: Liquid mixture 1, Liquid mixture 2
Fixed: Pressure, kPa = 101.3
Property: Mole fraction of 1-butyl-3-methylimidazolium methylsulfate (Liquid mixture 1); method: Chromatography
Temperature, K	Mole fraction of 1-butyl-3-methylimidazolium methylsulfate	uncertainty
293.2	.491	.0004
298.2	.4888	.0004
303.1	.483	.0004
308.1	.4782	.0004
313.1	.4721	.0004
318	.4707	.0004
322.8	.4654	.0004
327.8	.4625	.0004
332.7	.4615	.0004

System: toluene + 1-butyl-3-methylimidazolium methylsulfate; phases: Liquid mixture 1, Liquid mixture 2
Fixed: Pressure, kPa = 101.3
Property: Mole fraction of 1-butyl-3-methylimidazolium methylsulfate (Liquid mixture 1); method: Chromatography
Temperature, K	Mole fraction of 1-butyl-3-methylimidazolium methylsulfate	uncertainty
293.2	.6749	.0004
298.3	.6724	.0004
303.1	.6686	.0004
308	.6524	.0004
312.9	.6397	.0004
317.6	.6303	.0004
322.5	.6211	.0004
327.7	.5962	.0004
332.7	.5831	.0004

System: 1,2-dimethylbenzene + 1-butyl-3-methylimidazolium methylsulfate; phases: Liquid mixture 1, Liquid mixture 2
Fixed: Pressure, kPa = 101.3
Property: Mole fraction of 1-butyl-3-methylimidazolium methylsulfate (Liquid mixture 1); method: Chromatography
Temperature, K	Mole fraction of 1-butyl-3-methylimidazolium methylsulfate	uncertainty
293.3	.7953	.0004
298.2	.7885	.0004
303.1	.7837	.0004
307.9	.7824	.0004
313.1	.7772	.0004
317.8	.7675	.0004
322.9	.7655	.0004
327.6	.7628	.0004
332.6	.7617	.0004

System: 1,3-dimethylbenzene + 1-butyl-3-methylimidazolium methylsulfate; phases: Liquid mixture 1, Liquid mixture 2
Fixed: Pressure, kPa = 101.3
Property: Mole fraction of 1-butyl-3-methylimidazolium methylsulfate (Liquid mixture 1); method: Chromatography
Temperature, K	Mole fraction of 1-butyl-3-methylimidazolium methylsulfate	uncertainty
293.2	.849	.0004
298.2	.8449	.0004
303.1	.8438	.0004
308	.8436	.0004
313	.8427	.0004
317.7	.8408	.0004
322.8	.8384	.0004
327.7	.8327	.0004
333.6	.8311	.0004

System: 1,4-dimethylbenzene + 1-butyl-3-methylimidazolium methylsulfate; phases: Liquid mixture 1, Liquid mixture 2
Fixed: Pressure, kPa = 101.3
Property: Mole fraction of 1-butyl-3-methylimidazolium methylsulfate (Liquid mixture 1); method: Chromatography
Temperature, K	Mole fraction of 1-butyl-3-methylimidazolium methylsulfate	uncertainty
293.4	.8524	.0004
298.2	.849	.0004
303.1	.8426	.0004
308	.8337	.0004
312.9	.8287	.0004
317.8	.8253	.0004
322.7	.8212	.0004
327.7	.8194	.0004
332.6	.818	.0004
