Measured thermophysical data. Solubility comparison and partial molar volumes of 1,2-hexanediol before  and after end-group modification by methyl oxalyl chloride and ethyl oxalyl  monochloride in supercritical CO2
Source: J. Chem. Thermodyn., 2013, 10.1016/j.jct.2012.08.020
Compound 1: 1,2-hexanediol, C6H14O2, purity 99%
Compound 2: bis(methoxyoxalic)-1,2-haxenediester, C12H18O8
Compound 3: bis(ethoxyoxalic)-1,2-haxenediester, C14H22O8
Compound 4: carbon dioxide, CO2, purity 99.99%

System: carbon dioxide + 1,2-hexanediol; phases: Fluid (supercritical or subcritical phases), Crystal
Property: Mass density, kg/m3 (Fluid (supercritical or subcritical phases)); method: Unspecified
Temperature, K	Mole fraction of 1,2-hexanediol	Mass density, kg/m3	uncertainty
313	.00073	677.07	.002
313	.00136	730.15	.002
313	.00197	756.91	.002
313	.00256	778.16	.002
313	.0031	802.54	.002
333	.00091	547.92	.002
333	.00169	589.92	.002
333	.00241	619.81	.002
333	.00312	638.84	.002
333	.0038	655.62	.002
353	.00109	457.46	.002
353	.00196	506.95	.002
353	.00281	530.61	.002
353	.00363	549.26	.002
353	.00442	563.72	.002

System: carbon dioxide + 1,2-hexanediol; phases: Fluid (supercritical or subcritical phases), Crystal
Property: Phase boundary pressure, kPa (Fluid (supercritical or subcritical phases)); method: Visual Observation
Temperature, K	Mole fraction of 1,2-hexanediol	Phase boundary pressure, kPa	uncertainty
313	.00073	10800	50
313	.00136	12400	50
313	.00197	13600	50
313	.00256	14800	50
313	.0031	16500	50
333	.00091	13700	50
333	.00169	14600	50
333	.00241	15400	50
333	.00312	16000	50
333	.0038	16600	50
353	.00109	15700	50
353	.00196	17000	50
353	.00281	17700	50
353	.00363	18300	50
353	.00442	18800	50

System: bis(methoxyoxalic)-1,2-haxenediester + carbon dioxide; phases: Fluid (supercritical or subcritical phases), Crystal
Property: Mass density, kg/m3 (Fluid (supercritical or subcritical phases)); method: Unspecified
Temperature, K	Mole fraction of bis(methoxyoxalic)-1,2-haxenediester	Mass density, kg/m3	uncertainty
313	.00173	436.05	.002
313	.00309	492.75	.002
313	.00442	517.19	.002
313	.00567	538.22	.002
313	.00686	556.08	.002
333	.00241	316.53	.002
333	.00416	366.67	.002
333	.00576	397.42	.002
333	.00739	413.01	.002
333	.00874	436.26	.002
353	.00318	239.41	.002
353	.00558	273.18	.002
353	.00729	314.05	.002
353	.00921	331.22	.002
353	.01094	348.73	.002

System: bis(methoxyoxalic)-1,2-haxenediester + carbon dioxide; phases: Fluid (supercritical or subcritical phases), Crystal
Property: Phase boundary pressure, kPa (Fluid (supercritical or subcritical phases)); method: Visual Observation
Temperature, K	Mole fraction of bis(methoxyoxalic)-1,2-haxenediester	Phase boundary pressure, kPa	uncertainty
313	.00173	8800	50
313	.00309	9000	50
313	.00442	9100	50
313	.00567	9200	50
313	.00686	9300	50
333	.00241	10400	50
333	.00416	11100	50
333	.00576	11500	50
333	.00739	11700	50
333	.00874	12000	50
353	.00318	10500	50
353	.00558	11400	50
353	.00729	12400	50
353	.00921	12800	50
353	.01094	13200	50

System: bis(ethoxyoxalic)-1,2-haxenediester + carbon dioxide; phases: Fluid (supercritical or subcritical phases), Crystal
Property: Mass density, kg/m3 (Fluid (supercritical or subcritical phases)); method: Unspecified
Temperature, K	Mole fraction of bis(ethoxyoxalic)-1,2-haxenediester	Mass density, kg/m3	uncertainty
313	.00125	556.08	.002
313	.00238	584.52	.002
313	.00345	606.4	.002
313	.00447	624.05	.002
313	.00552	631.74	.002
333	.00179	389.65	.002
333	.00331	420.8	.002
333	.00471	443.89	.002
333	.00608	458.89	.002
333	.00748	466.23	.002
353	.00251	277.12	.002
353	.00456	305.62	.002
353	.00632	331.22	.002
353	.00821	339.94	.002
353	.00988	353.15	.002

System: bis(ethoxyoxalic)-1,2-haxenediester + carbon dioxide; phases: Fluid (supercritical or subcritical phases), Crystal
Property: Phase boundary pressure, kPa (Fluid (supercritical or subcritical phases)); method: Visual Observation
Temperature, K	Mole fraction of bis(ethoxyoxalic)-1,2-haxenediester	Phase boundary pressure, kPa	uncertainty
313	.00125	9300	50
313	.00238	9500	50
313	.00345	9700	50
313	.00447	9900	50
313	.00552	10000	50
333	.00179	11400	50
333	.00331	11800	50
333	.00471	12100	50
333	.00608	12300	50
333	.00748	12400	50
353	.00251	11500	50
353	.00456	12200	50
353	.00632	12800	50
353	.00821	13000	50
353	.00988	13300	50
