Measured thermophysical data. Thermodynamic properties of L-Theanine in different solvents
Source: J. Chem. Thermodyn., 2017, 10.1016/j.jct.2016.10.017
Compound 1: L-theanine, C7H14N2O3, purity 99%
Compound 2: acetone, C3H6O, purity 99.5%
Compound 3: methanol, CH4O, purity 99.5%
Compound 4: ethanol, C2H6O, purity 99.5%
Compound 5: water, H2O

System: L-theanine; phases: Crystal, Liquid, Air at 1 atmosphere
Property: Normal melting temperature, K (Crystal); method: DSC/DTA
Normal melting temperature, K	uncertainty
482.45	5

System: methanol + L-theanine + water; phases: Liquid, Crystal
Fixed: Pressure, kPa = 100
Property: Mole fraction of L-theanine (Liquid); method: gravimetric
Solvent: Mole fraction of water	Temperature, K	Mole fraction of L-theanine	uncertainty
.0999	278.15	.00064	
.0999	283.15	.000683	
.0999	288.15	.000722	
.0999	293.15	.000801	
.0999	298.15	.00088	
.0999	303.15	.00098	
.0999	308.15	.00105	
.0999	313.15	.00116	
.1999	278.15	.00101	
.1999	283.15	.00111	
.1999	288.15	.0012	
.1999	293.15	.00135	
.1999	298.15	.00149	
.1999	303.15	.00164	
.1999	308.15	.00188	
.1999	313.15	.00212	
.2998	278.15	.00189	
.2998	283.15	.00213	
.2998	288.15	.00226	
.2998	293.15	.00256	
.2998	298.15	.00288	
.2998	303.15	.00315	
.2998	308.15	.0035	
.2998	313.15	.00396	
.3998	278.15	.00275	
.3998	283.15	.00297	
.3998	288.15	.00319	
.3998	293.15	.00355	
.3998	298.15	.00399	
.3998	303.15	.0045	
.3998	308.15	.00511	
.3998	313.15	.00578	
.4997	278.15	.00454	
.4997	283.15	.00493	
.4997	288.15	.00542	
.4997	293.15	.00592	
.4997	298.15	.00661	
.4997	303.15	.00724	
.4997	308.15	.00786	
.4997	313.15	.00881	
.5999	278.15	.00669	
.5999	283.15	.00708	
.5999	288.15	.00771	
.5999	293.15	.00866	
.5999	298.15	.00956	
.5999	303.15	.0103	
.5999	308.15	.0115	
.5999	313.15	.0127	
.6996	278.15	.00958	
.6996	283.15	.0104	
.6996	288.15	.0112	
.6996	293.15	.0124	
.6996	298.15	.0138	
.6996	303.15	.0149	
.6996	308.15	.0161	
.6996	313.15	.0178	
1	278.15	.035	
1	283.15	.0351	
1	288.15	.0352	
1	293.15	.0354	
1	298.15	.0356	
1	303.15	.0361	
1	308.15	.0367	
1	313.15	.038	

System: ethanol + L-theanine + water; phases: Liquid, Crystal
Fixed: Pressure, kPa = 100
Property: Mole fraction of L-theanine (Liquid); method: gravimetric
Solvent: Mole fraction of water	Temperature, K	Mole fraction of L-theanine	uncertainty
.2998	278.15	.000606	
.2998	283.15	.00068	
.2998	288.15	.000801	
.2998	293.15	.000899	
.2998	298.15	.000997	
.2998	303.15	.00113	
.2998	308.15	.00131	
.2998	313.15	.00161	
.4996	278.15	.00265	
.4996	283.15	.00279	
.4996	288.15	.00305	
.4996	293.15	.00337	
.4996	298.15	.00384	
.4996	303.15	.00431	
.4996	308.15	.00479	
.4996	313.15	.00537	
.6996	278.15	.00903	
.6996	283.15	.00964	
.6996	288.15	.0102	
.6996	293.15	.0113	
.6996	298.15	.0123	
.6996	303.15	.0135	
.6996	308.15	.0145	
.6996	313.15	.0162	
.3994	278.15	.00141	
.3994	283.15	.00149	
.3994	288.15	.00175	
.3994	293.15	.00201	
.3994	298.15	.00233	
.3994	303.15	.00261	
.3994	308.15	.00295	
.3994	313.15	.00333	
.5997	278.15	.00542	
.5997	283.15	.00578	
.5997	288.15	.00638	
.5997	293.15	.00694	
.5997	298.15	.00786	
.5997	303.15	.00872	
.5997	308.15	.00953	
.5997	313.15	.0107	
1	278.15	.035	
1	283.15	.0351	
1	288.15	.0352	
1	293.15	.0354	
1	298.15	.0356	
1	303.15	.0361	
1	308.15	.0367	
1	313.15	.038	

System: acetone + L-theanine + water; phases: Liquid, Crystal
Fixed: Pressure, kPa = 100
Property: Mole fraction of L-theanine (Liquid); method: gravimetric
Solvent: Mole fraction of water	Temperature, K	Mole fraction of L-theanine	uncertainty
.4999	278.15	.000501	
.4999	283.15	.000602	
.4999	288.15	.000722	
.4999	293.15	.000821	
.4999	298.15	.000943	
.4999	303.15	.00105	
.4999	308.15	.00121	
.4999	313.15	.00145	
.6996	278.15	.00337	
.6996	283.15	.0037	
.6996	288.15	.00404	
.6996	293.15	.00444	
.6996	298.15	.00492	
.6996	303.15	.00552	
.6996	308.15	.00622	
.6996	313.15	.00715	
.8998	278.15	.0157	
.8998	283.15	.0164	
.8998	288.15	.0172	
.8998	293.15	.018	
.8998	298.15	.0188	
.8998	303.15	.0195	
.8998	308.15	.0205	
.8998	313.15	.0221	
.5996	278.15	.00134	
.5996	283.15	.00157	
.5996	288.15	.00169	
.5996	293.15	.00182	
.5996	298.15	.00204	
.5996	303.15	.00222	
.5996	308.15	.00251	
.5996	313.15	.00287	
.7998	278.15	.00771	
.7998	283.15	.00838	
.7998	288.15	.00921	
.7998	293.15	.00975	
.7998	298.15	.0106	
.7998	303.15	.0114	
.7998	308.15	.0124	
.7998	313.15	.0139	
1	278.15	.035	
1	283.15	.0351	
1	288.15	.0352	
1	293.15	.0354	
1	298.15	.0356	
1	303.15	.0361	
1	308.15	.0367	
1	313.15	.038	

System: L-theanine + water; phases: Liquid, Crystal
Property: Mole fraction of L-theanine (Liquid); method: gravimetric
Temperature, K	Pressure, kPa	Mole fraction of L-theanine	uncertainty
278.15	100	.035	
283.15	100	.0351	
288.15	100	.0352	
293.15	100	.0354	
298.15	100	.0356	
303.15	100	.0361	
308.15	100	.0367	
313.15	100	.038	
