Measured thermophysical data. Study of intermolecular interactions through dielectric properties of the mixtures consisting of 1,4-butanediol, primary amyl alcohols and 1,4-dioxane at various temperatures
Source: J. Chem. Thermodyn., 2015, 10.1016/j.jct.2015.08.021
Compound 1: 1,4-butanediol, C4H10O2, purity 98%
Compound 2: amyl alcohol, C5H12O, purity 99%
Compound 3: isoamyl alcohol, C5H12O, purity 99%
Compound 4: 1,4-dioxane, C4H8O2, purity 99.5%

System: 1,4-butanediol; phases: Liquid
Fixed: Pressure, kPa = 101.325
Property: Mass density, kg/m3 (Liquid); method: Vibrating tube method
Temperature, K	Mass density, kg/m3	uncertainty
298.15	1013.4	.03

System: 1,4-butanediol; phases: Liquid
Fixed: Frequency, MHz = 0.1
Property: Relative permittivity at various frequencies (Liquid); method: Coaxial cylinder capacitor
Temperature, K	Pressure, kPa	Relative permittivity at various frequencies	uncertainty
298.15	101.3	31.587	.189522
308.15	101.3	29.482	.176892
318.15	101.3	27.203	.163218

System: 1,4-butanediol; phases: Liquid
Property: Refractive index (Na D-line) (Liquid); method: Standard Abbe refractometry
Temperature, K	Pressure, kPa	Refractive index (Na D-line)	uncertainty
308.15	101.3	1.4417	.0005
318.15	101.3	1.4393	.0005
298.15	101.3	1.4445	.0005

System: amyl alcohol; phases: Liquid
Fixed: Pressure, kPa = 101.325
Property: Mass density, kg/m3 (Liquid); method: Vibrating tube method
Temperature, K	Mass density, kg/m3	uncertainty
298.15	811.1	.03

System: amyl alcohol; phases: Liquid
Fixed: Frequency, MHz = 0.1
Property: Relative permittivity at various frequencies (Liquid); method: Coaxial cylinder capacitor
Temperature, K	Pressure, kPa	Relative permittivity at various frequencies	uncertainty
298.15	101.3	15.11	.09066
308.15	101.3	13.72	.08232
318.15	101.3	12.391	.074346

System: amyl alcohol; phases: Liquid
Property: Refractive index (Na D-line) (Liquid); method: Standard Abbe refractometry
Temperature, K	Pressure, kPa	Refractive index (Na D-line)	uncertainty
298.15	101.3	1.4082	.0005
308.15	101.3	1.4041	.0005
318.15	101.3	1.4001	.0005

System: isoamyl alcohol; phases: Liquid
Fixed: Pressure, kPa = 101.325
Property: Mass density, kg/m3 (Liquid); method: Vibrating tube method
Temperature, K	Mass density, kg/m3	uncertainty
298.15	807.16	.03

System: isoamyl alcohol; phases: Liquid
Fixed: Frequency, MHz = 0.1
Property: Relative permittivity at various frequencies (Liquid); method: Coaxial cylinder capacitor
Temperature, K	Pressure, kPa	Relative permittivity at various frequencies	uncertainty
298.15	101.3	14.93	.08958
308.15	101.3	13.402	.080412
318.15	101.3	12.051	.072306

System: isoamyl alcohol; phases: Liquid
Property: Refractive index (Na D-line) (Liquid); method: Standard Abbe refractometry
Temperature, K	Pressure, kPa	Refractive index (Na D-line)	uncertainty
298.15	101.3	1.4048	.0005
308.15	101.3	1.4011	.0005
318.15	101.3	1.3973	.0005

System: 1,4-dioxane; phases: Liquid
Fixed: Pressure, kPa = 101.325
Property: Mass density, kg/m3 (Liquid); method: Vibrating tube method
Temperature, K	Mass density, kg/m3	uncertainty
298.15	1027.86	.03

System: 1,4-dioxane; phases: Liquid
Fixed: Frequency, MHz = 0.1
Property: Relative permittivity at various frequencies (Liquid); method: Coaxial cylinder capacitor
Temperature, K	Pressure, kPa	Relative permittivity at various frequencies	uncertainty
298.15	101.3	2.229	.013374
308.15	101.3	2.209	.013254
318.15	101.3	2.187	.013122

System: 1,4-dioxane; phases: Liquid
Property: Refractive index (Na D-line) (Liquid); method: Standard Abbe refractometry
Temperature, K	Pressure, kPa	Refractive index (Na D-line)	uncertainty
298.15	101.3	1.4202	.0005
308.15	101.3	1.4144	.0005
318.15	101.3	1.4086	.0005

System: amyl alcohol + 1,4-dioxane; phases: Liquid
Fixed: Pressure, kPa = 101.3
Fixed: Frequency, MHz = 0.1
Property: Relative permittivity at various frequencies (Liquid); method: Coaxial cylinder capacitor
Temperature, K	Mole fraction of amyl alcohol	Relative permittivity at various frequencies	uncertainty
298.15	0	2.229	.013374
298.15	.1	2.657	.015942
298.15	.2	3.255	.01953
298.15	.3	4.016	.024096
298.15	.4	4.941	.029646
298.15	.501	6.082	.036492
298.15	.599	7.387	.044322
298.15	.699	8.915	.05349
298.15	.801	10.714	.064284
298.15	.9	12.796	.076776
298.15	1	15.11	.09066
308.15	0	2.209	.013254
308.15	.1	2.587	.015522
308.15	.2	3.124	.018744
308.15	.3	3.77	.02262
308.15	.4	4.63	.02778
308.15	.501	5.652	.033912
308.15	.599	6.781	.040686
308.15	.699	8.18	.04908
308.15	.801	9.793	.058758
308.15	.9	11.622	.069732
308.15	1	13.72	.08232
318.15	0	2.187	.013122
318.15	.1	2.527	.015162
318.15	.2	3.024	.018144
318.15	.3	3.63	.02178
318.15	.4	4.402	.026412
318.15	.501	5.34	.03204
318.15	.599	6.332	.037992
318.15	.699	7.529	.045174
318.15	.801	8.951	.053706
318.15	.9	10.578	.063468
318.15	1	12.391	.074346

System: amyl alcohol + 1,4-dioxane; phases: Liquid
Fixed: Pressure, kPa = 101.3
Property: Refractive index (Na D-line) (Liquid); method: Standard Abbe refractometry
Temperature, K	Mole fraction of amyl alcohol	Refractive index (Na D-line)	uncertainty
298.15	0	1.4202	.0005
298.15	.1	1.4181	.0005
298.15	.2	1.4161	.0005
298.15	.3	1.4144	.0005
298.15	.4	1.4128	.0005
298.15	.501	1.4114	.0005
298.15	.599	1.4104	.0005
298.15	.699	1.4096	.0005
298.15	.801	1.409	.0005
298.15	.9	1.4086	.0005
298.15	1	1.4082	.0005
308.15	0	1.4144	.0005
308.15	.1	1.4121	.0005
308.15	.2	1.4103	.0005
308.15	.3	1.4088	.0005
308.15	.4	1.4074	.0005
308.15	.501	1.4063	.0005
308.15	.599	1.4055	.0005
308.15	.699	1.4048	.0005
308.15	.801	1.4044	.0005
308.15	.9	1.4042	.0005
308.15	1	1.4041	.0005
318.15	0	1.4086	.0005
318.15	.1	1.407	.0005
318.15	.2	1.4055	.0005
318.15	.3	1.4042	.0005
318.15	.4	1.403	.0005
318.15	.501	1.4021	.0005
318.15	.599	1.4014	.0005
318.15	.699	1.4008	.0005
318.15	.801	1.4004	.0005
318.15	.9	1.4002	.0005
318.15	1	1.4001	.0005

System: isoamyl alcohol + 1,4-dioxane; phases: Liquid
Fixed: Pressure, kPa = 101.3
Fixed: Frequency, MHz = 0.1
Property: Relative permittivity at various frequencies (Liquid); method: Coaxial cylinder capacitor
Temperature, K	Mole fraction of isoamyl alcohol	Relative permittivity at various frequencies	uncertainty
298.15	0	2.229	.013374
298.15	.1	2.694	.016164
298.15	.203	3.292	.019752
298.15	.301	4.014	.024084
298.15	.4	4.91	.02946
298.15	.5	6.024	.036144
298.15	.601	7.327	.043962
298.15	.699	8.82	.05292
298.15	.8	10.64	.06384
298.15	.899	12.649	.075894
298.15	1	14.93	.08958
308.15	0	2.209	.013254
308.15	.1	2.634	.015804
308.15	.203	3.168	.019008
308.15	.301	3.804	.022824
308.15	.4	4.629	.027774
308.15	.5	5.611	.033666
308.15	.601	6.743	.040458
308.15	.699	8.037	.048222
308.15	.8	9.655	.05793
308.15	.899	11.434	.068604
308.15	1	13.402	.080412
318.15	0	2.187	.013122
318.15	.1	2.57	.01542
318.15	.203	3.055	.01833
318.15	.301	3.632	.021792
318.15	.4	4.376	.026256
318.15	.5	5.239	.031434
318.15	.601	6.232	.037392
318.15	.699	7.343	.044058
318.15	.8	8.702	.052212
318.15	.899	10.315	.06189
318.15	1	12.051	.072306

System: isoamyl alcohol + 1,4-dioxane; phases: Liquid
Fixed: Pressure, kPa = 101.3
Property: Refractive index (Na D-line) (Liquid); method: Standard Abbe refractometry
Temperature, K	Mole fraction of isoamyl alcohol	Refractive index (Na D-line)	uncertainty
298.15	0	1.4202	.0005
298.15	.1	1.4177	.0005
298.15	.203	1.4151	.0005
298.15	.301	1.4133	.0005
298.15	.4	1.4114	.0005
298.15	.5	1.4098	.0005
298.15	.601	1.4084	.0005
298.15	.699	1.4072	.0005
298.15	.8	1.4063	.0005
298.15	.899	1.4054	.0005
298.15	1	1.4048	.0005
308.15	0	1.4144	.0005
308.15	.1	1.4125	.0005
308.15	.203	1.4105	.0005
308.15	.301	1.4088	.0005
308.15	.4	1.4072	.0005
308.15	.5	1.4057	.0005
308.15	.601	1.4045	.0005
308.15	.699	1.4034	.0005
308.15	.8	1.4023	.0005
308.15	.899	1.4013	.0005
308.15	1	1.4011	.0005
318.15	0	1.4086	.0005
318.15	.1	1.4069	.0005
318.15	.203	1.4054	.0005
318.15	.301	1.4039	.0005
318.15	.4	1.4026	.0005
318.15	.5	1.4012	.0005
318.15	.601	1.4001	.0005
318.15	.699	1.3992	.0005
318.15	.8	1.3984	.0005
318.15	.899	1.3978	.0005
318.15	1	1.3973	.0005

System: amyl alcohol + 1,4-butanediol; phases: Liquid
Fixed: Pressure, kPa = 101.3
Fixed: Frequency, MHz = 0.1
Property: Relative permittivity at various frequencies (Liquid); method: Coaxial cylinder capacitor
Temperature, K	Mole fraction of 1,4-butanediol	Relative permittivity at various frequencies	uncertainty
298.15	0	15.11	.09066
298.15	.1	16.037	.096222
298.15	.2	17.171	.103026
298.15	.3	18.467	.110802
298.15	.403	19.924	.119544
298.15	.501	21.49	.12894
298.15	.601	23.245	.13947
298.15	.701	25.108	.150648
298.15	.8	27.105	.16263
298.15	.9	29.265	.17559
298.15	1	31.587	.189522
308.15	0	13.72	.08232
308.15	.1	14.699	.088194
308.15	.2	15.827	.094962
308.15	.3	17.054	.102324
308.15	.403	18.471	.110826
308.15	.501	19.97	.11982
308.15	.601	21.632	.129792
308.15	.701	23.459	.140754
308.15	.8	25.339	.152034
308.15	.9	27.356	.164136
308.15	1	29.482	.176892
318.15	0	12.391	.074346
318.15	.1	13.391	.080346
318.15	.2	14.452	.086712
318.15	.3	15.646	.093876
318.15	.403	17.026	.102156
318.15	.501	18.416	.110496
318.15	.601	19.971	.119826
318.15	.701	21.616	.129696
318.15	.8	23.393	.140358
318.15	.9	25.251	.151506
318.15	1	27.203	.163218

System: amyl alcohol + 1,4-butanediol; phases: Liquid
Fixed: Pressure, kPa = 101.3
Property: Refractive index (Na D-line) (Liquid); method: Standard Abbe refractometry
Temperature, K	Mole fraction of 1,4-butanediol	Refractive index (Na D-line)	uncertainty
298.15	0	1.4082	.0005
298.15	.1	1.4118	.0005
298.15	.2	1.4147	.0005
298.15	.3	1.4185	.0005
298.15	.403	1.4226	.0005
298.15	.501	1.4256	.0005
298.15	.601	1.4302	.0005
298.15	.701	1.4334	.0005
298.15	.8	1.4375	.0005
298.15	.9	1.441	.0005
298.15	1	1.4445	.0005
308.15	0	1.4041	.0005
308.15	.1	1.4081	.0005
308.15	.2	1.4114	.0005
308.15	.3	1.4149	.0005
308.15	.403	1.4193	.0005
308.15	.501	1.4234	.0005
308.15	.601	1.4267	.0005
308.15	.701	1.431	.0005
308.15	.8	1.4345	.0005
308.15	.9	1.4382	.0005
308.15	1	1.4417	.0005
318.15	0	1.4001	.0005
318.15	.1	1.4051	.0005
318.15	.2	1.4089	.0005
318.15	.3	1.4119	.0005
318.15	.403	1.4166	.0005
318.15	.501	1.4201	.0005
318.15	.601	1.4242	.0005
318.15	.701	1.428	.0005
318.15	.8	1.4324	.0005
318.15	.9	1.4358	.0005
318.15	1	1.4393	.0005

System: 1,4-butanediol + isoamyl alcohol; phases: Liquid
Fixed: Pressure, kPa = 101.3
Fixed: Frequency, MHz = 0.1
Property: Relative permittivity at various frequencies (Liquid); method: Coaxial cylinder capacitor
Temperature, K	Mole fraction of 1,4-butanediol	Relative permittivity at various frequencies	uncertainty
298.15	0	14.93	.08958
298.15	.101	15.856	.095136
298.15	.2	16.963	.101778
298.15	.299	18.26	.10956
298.15	.4	19.772	.118632
298.15	.5	21.409	.128454
298.15	.6	23.176	.139056
298.15	.699	25.066	.150396
298.15	.801	27.119	.162714
298.15	.9	29.28	.17568
298.15	1	31.587	.189522
308.15	0	13.402	.080412
308.15	.101	14.411	.086466
308.15	.2	15.522	.093132
308.15	.299	16.765	.10059
308.15	.4	18.22	.10932
308.15	.5	19.78	.11868
308.15	.6	21.499	.128994
308.15	.699	23.351	.140106
308.15	.801	25.335	.15201
308.15	.9	27.371	.164226
308.15	1	29.482	.176892
318.15	0	12.051	.072306
318.15	.101	13.099	.078594
318.15	.2	14.197	.085182
318.15	.299	15.4	.0924
318.15	.4	16.76	.10056
318.15	.5	18.225	.10935
318.15	.6	19.794	.118764
318.15	.699	21.52	.12912
318.15	.801	23.403	.140418
318.15	.9	25.287	.151722
318.15	1	27.203	.163218

System: 1,4-butanediol + isoamyl alcohol; phases: Liquid
Fixed: Pressure, kPa = 101.3
Property: Refractive index (Na D-line) (Liquid); method: Standard Abbe refractometry
Temperature, K	Mole fraction of 1,4-butanediol	Refractive index (Na D-line)	uncertainty
298.15	0	1.4048	.0005
298.15	.101	1.4088	.0005
298.15	.2	1.4123	.0005
298.15	.299	1.4165	.0005
298.15	.4	1.4203	.0005
298.15	.5	1.4244	.0005
298.15	.6	1.4291	.0005
298.15	.699	1.4325	.0005
298.15	.801	1.4372	.0005
298.15	.9	1.4409	.0005
298.15	1	1.4445	.0005
308.15	0	1.4011	.0005
308.15	.101	1.4052	.0005
308.15	.2	1.4087	.0005
308.15	.299	1.4122	.0005
308.15	.4	1.4166	.0005
308.15	.5	1.4207	.0005
308.15	.6	1.4252	.0005
308.15	.699	1.4295	.0005
308.15	.801	1.4336	.0005
308.15	.9	1.4376	.0005
308.15	1	1.4417	.0005
318.15	0	1.3973	.0005
318.15	.101	1.4014	.0005
318.15	.2	1.4055	.0005
318.15	.299	1.4093	.0005
318.15	.4	1.4137	.0005
318.15	.5	1.4175	.0005
318.15	.6	1.4222	.0005
318.15	.699	1.426	.0005
318.15	.801	1.4309	.0005
318.15	.9	1.4353	.0005
318.15	1	1.4393	.0005
