Measured thermophysical data. Vapour pressures for 1-(butoxymethoxy)butane (dibutoxymethane) and 1,1,1,2,2,3,3,4,4-nonafluoro-4-methoxybutane (methyl nonafluorobutyl ether) over the pressure range of (15-80) kPa
Source: J. Chem. Thermodyn., 2016, 10.1016/j.jct.2016.06.025
Compound 1: 1-methoxy-nonafluorobutane, C5H3F9O, purity 98%
Compound 2: dibutoxymethane, C9H20O2, purity 99%

System: 1-methoxy-nonafluorobutane; phases: Liquid, Gas
Property: Vapor or sublimation pressure, kPa (Liquid); method: Ebulliometric method (Recirculating still)
Temperature, K	Vapor or sublimation pressure, kPa	uncertainty
294.6	21	
296.9	24	
299	27	
301.3	30	
303.5	33	
305.5	36	
307.5	39	
308.7	41	
310.4	44	
312	47	
313.5	50	
315	53	
316.5	56	
317.8	59	
318.7	61	
320	64	
321.2	67	
322.4	70	

System: dibutoxymethane; phases: Liquid, Gas
Property: Vapor or sublimation pressure, kPa (Liquid); method: Ebulliometric method (Recirculating still)
Temperature, K	Vapor or sublimation pressure, kPa	uncertainty
390.4	15	
396.5	18.5	
401.1	21.8	
404.6	25	
409	28.5	
411.4	31.4	
415.1	34.7	
417.9	38.5	
419.8	41	
422.8	44.8	
424.4	47.1	
425	47.6	
428.8	53.3	
430.5	56.2	
432.5	59.1	
434.7	63.1	
436.5	66.3	
438.9	71.7	
440.6	74.8	
442.7	79.5	
