Measured thermophysical data. A 1-alkylcyanopyridinium-based ionic liquid in the separation processes
Source: J. Chem. Thermodyn., 2016, 10.1016/j.jct.2016.01.017
Compound 1: pentane, C5H12, purity 99%
Compound 2: hexane, C6H14, purity 99%
Compound 3: 3-methylpentane, C6H14, purity 99%
Compound 4: 2,2-dimethylbutane, C6H14, purity 99%
Compound 5: heptane, C7H16, purity 99.5%
Compound 6: octane, C8H18, purity 99%
Compound 7: 2,2,4-trimethylpentane, C8H18, purity 99%
Compound 8: nonane, C9H20, purity 99%
Compound 9: decane, C10H22, purity 99%
Compound 10: cyclopentane, C5H10, purity 99%
Compound 11: cyclohexane, C6H12, purity 99%
Compound 12: methylcyclohexane, C7H14, purity 99%
Compound 13: cycloheptane, C7H14, purity 98%
Compound 14: cyclooctane, C8H16, purity 99%
Compound 15: 1-pentene, C5H10, purity 98.5%
Compound 16: 1-hexene, C6H12, purity 99%
Compound 17: cyclohexene, C6H10, purity 99%
Compound 18: 1-heptene, C7H14, purity 99%
Compound 19: 1-octene, C8H16, purity 98%
Compound 20: 1-decene, C10H20, purity 97%
Compound 21: 1-pentyne, C5H8, purity 99%
Compound 22: 1-hexyne, C6H10, purity 97%
Compound 23: 1-heptyne, C7H12, purity 98%
Compound 24: 1-octyne, C8H14, purity 97%
Compound 25: benzene, C6H6, purity 99.8%
Compound 26: toluene, C7H8, purity 99.8%
Compound 27: ethylbenzene, C8H10, purity 99.8%
Compound 28: o-xylene, C8H10, purity 99%
Compound 29: m-xylene, C8H10, purity 99%
Compound 30: p-xylene, C8H10, purity 99%
Compound 31: propylbenzene, C9H12, purity 98%
Compound 32: isopropylbenzene, C9H12, purity 99%
Compound 33: styrene, C8H8, purity 99.9%
Compound 34: .alpha.-methylstyrene, C9H10, purity 99%
Compound 35: thiophene, C4H4S, purity 99%
Compound 36: pyridine, C5H5N, purity 99.8%
Compound 37: methanol, CH4O, purity 99.9%
Compound 38: ethanol, C2H6O, purity 99.8%
Compound 39: 1-propanol, C3H8O, purity 99.9%
Compound 40: 2-propanol, C3H8O, purity 99.9%
Compound 41: 1-butanol, C4H10O, purity 99.8%
Compound 42: 2-butanol, C4H10O, purity 99.5%
Compound 43: 2-methyl-1-propanol, C4H10O, purity 99.8%
Compound 44: 1-pentanol, C5H12O, purity 99.8%
Compound 45: water, H2O
Compound 46: methyl acetate, C3H6O2, purity 99.8%
Compound 47: methyl propanoate, C4H8O2, purity 99%
Compound 48: methyl butanoate, C5H10O2, purity 99%
Compound 49: ethyl acetate, C4H8O2, purity 99.8%
Compound 50: tetrahydrofuran, C4H8O, purity 99.9%
Compound 51: 1,4-dioxane, C4H8O2, purity 99.8%
Compound 52: tert-butyl methyl ether, C5H12O, purity 99.8%
Compound 53: tert-butyl ethyl ether, C6H14O, purity 99%
Compound 54: tert-amyl methyl ether, C6H14O, purity 97%
Compound 55: diethyl ether, C4H10O, purity 99.9%
Compound 56: dipropyl ether, C6H14O, purity 99%
Compound 57: diisopropyl ether, C6H14O, purity 99%
Compound 58: dibutyl ether, C8H18O, purity 99.3%
Compound 59: 2-propanone, C3H6O, purity 99.9%
Compound 60: 2-pentanone, C5H10O, purity 99%
Compound 61: 3-pentanone, C5H10O, purity 99%
Compound 62: butanal, C4H8O, purity 99%
Compound 63: acetonitrile, C2H3N, purity 99.9%
Compound 64: 1-nitropropane, C3H7NO2, purity 98.5%
Compound 65: 1-butyl-4-cyanopyridinium bis(trifluoromethylsulfonyl)imide, C12H13F6N3O4S2, purity 98%
Compound 66: 2-methyl-2-propanol, C4H10O, purity 99.7%

System: pentane + 1-butyl-4-cyanopyridinium bis(trifluoromethylsulfonyl)imide; phases: Liquid
Fixed: Pressure, kPa = 100
Fixed: Mole fraction of pentane = 0
Property: Activity coefficient of pentane (Liquid); method: Chromatography
Temperature, K	Activity coefficient of pentane	uncertainty
308.15	26.7	
318.15	24.2	
328.15	22	
338.15	20.2	
348.15	18.6	
358.15	17.2	
368.15	16	

System: hexane + 1-butyl-4-cyanopyridinium bis(trifluoromethylsulfonyl)imide; phases: Liquid
Fixed: Pressure, kPa = 100
Fixed: Mole fraction of hexane = 0
Property: Activity coefficient of hexane (Liquid); method: Chromatography
Temperature, K	Activity coefficient of hexane	uncertainty
308.15	33	
318.15	30.7	
328.15	28.8	
338.15	27.1	
348.15	25.6	
358.15	24.2	
368.15	23.1	

System: 3-methylpentane + 1-butyl-4-cyanopyridinium bis(trifluoromethylsulfonyl)imide; phases: Liquid
Fixed: Pressure, kPa = 100
Fixed: Mole fraction of 3-methylpentane = 0
Property: Activity coefficient of 3-methylpentane (Liquid); method: Chromatography
Temperature, K	Activity coefficient of 3-methylpentane	uncertainty
308.15	30.7	
318.15	28.4	
328.15	26.4	
338.15	24.7	
348.15	23.1	
358.15	21.7	
368.15	20.6	

System: 2,2-dimethylbutane + 1-butyl-4-cyanopyridinium bis(trifluoromethylsulfonyl)imide; phases: Liquid
Fixed: Pressure, kPa = 100
Fixed: Mole fraction of 2,2-dimethylbutane = 0
Property: Activity coefficient of 2,2-dimethylbutane (Liquid); method: Chromatography
Temperature, K	Activity coefficient of 2,2-dimethylbutane	uncertainty
308.15	34.9	
318.15	31.3	
328.15	28.2	
338.15	25.6	
348.15	23.4	
358.15	21.4	
368.15	19.7	

System: heptane + 1-butyl-4-cyanopyridinium bis(trifluoromethylsulfonyl)imide; phases: Liquid
Fixed: Pressure, kPa = 100
Fixed: Mole fraction of heptane = 0
Property: Activity coefficient of heptane (Liquid); method: Chromatography
Temperature, K	Activity coefficient of heptane	uncertainty
308.15	45.8	
318.15	42.5	
328.15	39.8	
338.15	37.4	
348.15	35.3	
358.15	33.5	
368.15	31.7	

System: octane + 1-butyl-4-cyanopyridinium bis(trifluoromethylsulfonyl)imide; phases: Liquid
Fixed: Pressure, kPa = 100
Fixed: Mole fraction of octane = 0
Property: Activity coefficient of octane (Liquid); method: Chromatography
Temperature, K	Activity coefficient of octane	uncertainty
308.15	65	
318.15	59.9	
328.15	55.3	
338.15	51.3	
348.15	47.9	
358.15	45	
368.15	42.4	

System: 2,2,4-trimethylpentane + 1-butyl-4-cyanopyridinium bis(trifluoromethylsulfonyl)imide; phases: Liquid
Fixed: Pressure, kPa = 100
Fixed: Mole fraction of 2,2,4-trimethylpentane = 0
Property: Activity coefficient of 2,2,4-trimethylpentane (Liquid); method: Chromatography
Temperature, K	Activity coefficient of 2,2,4-trimethylpentane	uncertainty
308.15	46.5	
318.15	42.9	
328.15	39.8	
338.15	37	
348.15	34.7	
358.15	32.5	
368.15	30.7	

System: nonane + 1-butyl-4-cyanopyridinium bis(trifluoromethylsulfonyl)imide; phases: Liquid
Fixed: Pressure, kPa = 100
Fixed: Mole fraction of nonane = 0
Property: Activity coefficient of nonane (Liquid); method: Chromatography
Temperature, K	Activity coefficient of nonane	uncertainty
308.15	92.9	
318.15	85.9	
328.15	79.8	
338.15	74.1	
348.15	69.4	
358.15	65.3	
368.15	61.5	

System: decane + 1-butyl-4-cyanopyridinium bis(trifluoromethylsulfonyl)imide; phases: Liquid
Fixed: Pressure, kPa = 100
Fixed: Mole fraction of decane = 0
Property: Activity coefficient of decane (Liquid); method: Chromatography
Temperature, K	Activity coefficient of decane	uncertainty
308.15	124	
318.15	115	
328.15	107	
338.15	99.8	
348.15	93.8	
358.15	88.2	
368.15	83.6	

System: cyclopentane + 1-butyl-4-cyanopyridinium bis(trifluoromethylsulfonyl)imide; phases: Liquid
Fixed: Pressure, kPa = 100
Fixed: Mole fraction of cyclopentane = 0
Property: Activity coefficient of cyclopentane (Liquid); method: Chromatography
Temperature, K	Activity coefficient of cyclopentane	uncertainty
308.15	12.7	
318.15	11.6	
328.15	10.7	
338.15	9.97	
348.15	9.31	
358.15	8.69	
368.15	8.14	

System: cyclohexane + 1-butyl-4-cyanopyridinium bis(trifluoromethylsulfonyl)imide; phases: Liquid
Fixed: Pressure, kPa = 100
Fixed: Mole fraction of cyclohexane = 0
Property: Activity coefficient of cyclohexane (Liquid); method: Chromatography
Temperature, K	Activity coefficient of cyclohexane	uncertainty
308.15	17.7	
318.15	16.3	
328.15	15.1	
338.15	14.2	
348.15	13.2	
358.15	12.4	
368.15	11.7	

System: methylcyclohexane + 1-butyl-4-cyanopyridinium bis(trifluoromethylsulfonyl)imide; phases: Liquid
Fixed: Pressure, kPa = 100
Fixed: Mole fraction of methylcyclohexane = 0
Property: Activity coefficient of methylcyclohexane (Liquid); method: Chromatography
Temperature, K	Activity coefficient of methylcyclohexane	uncertainty
308.15	23.4	
318.15	21.8	
328.15	20.4	
338.15	19.1	
348.15	18	
358.15	17.1	
368.15	16.2	

System: cycloheptane + 1-butyl-4-cyanopyridinium bis(trifluoromethylsulfonyl)imide; phases: Liquid
Fixed: Pressure, kPa = 100
Fixed: Mole fraction of cycloheptane = 0
Property: Activity coefficient of cycloheptane (Liquid); method: Chromatography
Temperature, K	Activity coefficient of cycloheptane	uncertainty
308.15	22.3	
318.15	20.6	
328.15	19.1	
338.15	17.8	
348.15	16.7	
358.15	15.6	
368.15	14.8	

System: cyclooctane + 1-butyl-4-cyanopyridinium bis(trifluoromethylsulfonyl)imide; phases: Liquid
Fixed: Pressure, kPa = 100
Fixed: Mole fraction of cyclooctane = 0
Property: Activity coefficient of cyclooctane (Liquid); method: Chromatography
Temperature, K	Activity coefficient of cyclooctane	uncertainty
308.15	26.5	
318.15	25.2	
328.15	24.1	
338.15	23.2	
348.15	22.4	
358.15	21.6	
368.15	20.9	

System: 1-pentene + 1-butyl-4-cyanopyridinium bis(trifluoromethylsulfonyl)imide; phases: Liquid
Fixed: Pressure, kPa = 100
Fixed: Mole fraction of 1-pentene = 0
Property: Activity coefficient of 1-pentene (Liquid); method: Chromatography
Temperature, K	Activity coefficient of 1-pentene	uncertainty
308.15	11.5	
318.15	10.9	
328.15	10.3	
338.15	9.83	
348.15	9.41	
358.15	9.02	
368.15	8.65	

System: 1-hexene + 1-butyl-4-cyanopyridinium bis(trifluoromethylsulfonyl)imide; phases: Liquid
Fixed: Pressure, kPa = 100
Fixed: Mole fraction of 1-hexene = 0
Property: Activity coefficient of 1-hexene (Liquid); method: Chromatography
Temperature, K	Activity coefficient of 1-hexene	uncertainty
308.15	14.1	
318.15	13.8	
328.15	13.5	
338.15	13.2	
348.15	12.9	
358.15	12.7	
368.15	12.5	

System: cyclohexene + 1-butyl-4-cyanopyridinium bis(trifluoromethylsulfonyl)imide; phases: Liquid
Fixed: Pressure, kPa = 100
Fixed: Mole fraction of cyclohexene = 0
Property: Activity coefficient of cyclohexene (Liquid); method: Chromatography
Temperature, K	Activity coefficient of cyclohexene	uncertainty
308.15	7.51	
318.15	7.4	
328.15	7.28	
338.15	7.19	
348.15	7.1	
358.15	7.1	
368.15	6.9	

System: 1-heptene + 1-butyl-4-cyanopyridinium bis(trifluoromethylsulfonyl)imide; phases: Liquid
Fixed: Pressure, kPa = 100
Fixed: Mole fraction of 1-heptene = 0
Property: Activity coefficient of 1-heptene (Liquid); method: Chromatography
Temperature, K	Activity coefficient of 1-heptene	uncertainty
308.15	21.3	
318.15	20.7	
328.15	20	
338.15	19.5	
348.15	19	
358.15	18.5	
368.15	18.1	

System: 1-octene + 1-butyl-4-cyanopyridinium bis(trifluoromethylsulfonyl)imide; phases: Liquid
Fixed: Pressure, kPa = 100
Fixed: Mole fraction of 1-octene = 0
Property: Activity coefficient of 1-octene (Liquid); method: Chromatography
Temperature, K	Activity coefficient of 1-octene	uncertainty
308.15	31.7	
318.15	30.1	
328.15	28.6	
338.15	27.3	
348.15	26.3	
358.15	25.3	
368.15	24.3	

System: 1-decene + 1-butyl-4-cyanopyridinium bis(trifluoromethylsulfonyl)imide; phases: Liquid
Fixed: Pressure, kPa = 100
Fixed: Mole fraction of 1-decene = 0
Property: Activity coefficient of 1-decene (Liquid); method: Chromatography
Temperature, K	Activity coefficient of 1-decene	uncertainty
308.15	59.4	
318.15	57.3	
328.15	55.2	
338.15	53.5	
348.15	51.8	
358.15	50.4	
368.15	49	

System: 1-pentyne + 1-butyl-4-cyanopyridinium bis(trifluoromethylsulfonyl)imide; phases: Liquid
Fixed: Pressure, kPa = 100
Fixed: Mole fraction of 1-pentyne = 0
Property: Activity coefficient of 1-pentyne (Liquid); method: Chromatography
Temperature, K	Activity coefficient of 1-pentyne	uncertainty
308.15	3.4	
318.15	3.48	
328.15	3.56	
338.15	3.64	
348.15	3.7	
358.15	3.77	
368.15	3.84	

System: 1-hexyne + 1-butyl-4-cyanopyridinium bis(trifluoromethylsulfonyl)imide; phases: Liquid
Fixed: Pressure, kPa = 100
Fixed: Mole fraction of 1-hexyne = 0
Property: Activity coefficient of 1-hexyne (Liquid); method: Chromatography
Temperature, K	Activity coefficient of 1-hexyne	uncertainty
308.15	4.81	
318.15	4.91	
328.15	5.01	
338.15	5.1	
348.15	5.19	
358.15	5.28	
368.15	5.36	

System: 1-heptyne + 1-butyl-4-cyanopyridinium bis(trifluoromethylsulfonyl)imide; phases: Liquid
Fixed: Pressure, kPa = 100
Fixed: Mole fraction of 1-heptyne = 0
Property: Activity coefficient of 1-heptyne (Liquid); method: Chromatography
Temperature, K	Activity coefficient of 1-heptyne	uncertainty
308.15	6.92	
318.15	7.02	
328.15	7.11	
338.15	7.21	
348.15	7.3	
358.15	7.39	
368.15	7.48	

System: 1-octyne + 1-butyl-4-cyanopyridinium bis(trifluoromethylsulfonyl)imide; phases: Liquid
Fixed: Pressure, kPa = 100
Fixed: Mole fraction of 1-octyne = 0
Property: Activity coefficient of 1-octyne (Liquid); method: Chromatography
Temperature, K	Activity coefficient of 1-octyne	uncertainty
308.15	10.1	
318.15	10.2	
328.15	10.3	
338.15	10.3	
348.15	10.4	
358.15	10.4	
368.15	10.5	

System: benzene + 1-butyl-4-cyanopyridinium bis(trifluoromethylsulfonyl)imide; phases: Liquid
Fixed: Pressure, kPa = 100
Fixed: Mole fraction of benzene = 0
Property: Activity coefficient of benzene (Liquid); method: Chromatography
Temperature, K	Activity coefficient of benzene	uncertainty
308.15	1.07	
318.15	1.12	
328.15	1.17	
338.15	1.22	
348.15	1.28	
358.15	1.32	
368.15	1.38	

System: toluene + 1-butyl-4-cyanopyridinium bis(trifluoromethylsulfonyl)imide; phases: Liquid
Fixed: Pressure, kPa = 100
Fixed: Mole fraction of toluene = 0
Property: Activity coefficient of toluene (Liquid); method: Chromatography
Temperature, K	Activity coefficient of toluene	uncertainty
308.15	1.46	
318.15	1.54	
328.15	1.62	
338.15	1.7	
348.15	1.78	
358.15	1.86	
368.15	1.94	

System: ethylbenzene + 1-butyl-4-cyanopyridinium bis(trifluoromethylsulfonyl)imide; phases: Liquid
Fixed: Pressure, kPa = 100
Fixed: Mole fraction of ethylbenzene = 0
Property: Activity coefficient of ethylbenzene (Liquid); method: Chromatography
Temperature, K	Activity coefficient of ethylbenzene	uncertainty
308.15	2.49	
318.15	2.58	
328.15	2.67	
338.15	2.77	
348.15	2.85	
358.15	2.93	
368.15	3.03	

System: o-xylene + 1-butyl-4-cyanopyridinium bis(trifluoromethylsulfonyl)imide; phases: Liquid
Fixed: Pressure, kPa = 100
Fixed: Mole fraction of o-xylene = 0
Property: Activity coefficient of o-xylene (Liquid); method: Chromatography
Temperature, K	Activity coefficient of o-xylene	uncertainty
308.15	1.79	
318.15	1.89	
328.15	2	
338.15	2.1	
348.15	2.21	
358.15	2.3	
368.15	2.39	

System: m-xylene + 1-butyl-4-cyanopyridinium bis(trifluoromethylsulfonyl)imide; phases: Liquid
Fixed: Pressure, kPa = 100
Fixed: Mole fraction of m-xylene = 0
Property: Activity coefficient of m-xylene (Liquid); method: Chromatography
Temperature, K	Activity coefficient of m-xylene	uncertainty
308.15	2.13	
318.15	2.25	
328.15	2.37	
338.15	2.49	
348.15	2.6	
358.15	2.71	
368.15	2.83	

System: p-xylene + 1-butyl-4-cyanopyridinium bis(trifluoromethylsulfonyl)imide; phases: Liquid
Fixed: Pressure, kPa = 100
Fixed: Mole fraction of p-xylene = 0
Property: Activity coefficient of p-xylene (Liquid); method: Chromatography
Temperature, K	Activity coefficient of p-xylene	uncertainty
308.15	2.15	
318.15	2.28	
328.15	2.4	
338.15	2.52	
348.15	2.65	
358.15	2.77	
368.15	2.89	

System: propylbenzene + 1-butyl-4-cyanopyridinium bis(trifluoromethylsulfonyl)imide; phases: Liquid
Fixed: Pressure, kPa = 100
Fixed: Mole fraction of propylbenzene = 0
Property: Activity coefficient of propylbenzene (Liquid); method: Chromatography
Temperature, K	Activity coefficient of propylbenzene	uncertainty
308.15	3.8	
318.15	3.94	
328.15	4.07	
338.15	4.21	
348.15	4.33	
358.15	4.45	
368.15	4.58	

System: isopropylbenzene + 1-butyl-4-cyanopyridinium bis(trifluoromethylsulfonyl)imide; phases: Liquid
Fixed: Pressure, kPa = 100
Fixed: Mole fraction of isopropylbenzene = 0
Property: Activity coefficient of isopropylbenzene (Liquid); method: Chromatography
Temperature, K	Activity coefficient of isopropylbenzene	uncertainty
308.15	4.04	
318.15	4.13	
328.15	4.22	
338.15	4.31	
348.15	4.39	
358.15	4.47	
368.15	4.56	

System: styrene + 1-butyl-4-cyanopyridinium bis(trifluoromethylsulfonyl)imide; phases: Liquid
Fixed: Pressure, kPa = 100
Fixed: Mole fraction of styrene = 0
Property: Activity coefficient of styrene (Liquid); method: Chromatography
Temperature, K	Activity coefficient of styrene	uncertainty
308.15	1.28	
318.15	1.36	
328.15	1.44	
338.15	1.52	
348.15	1.6	
358.15	1.67	
368.15	1.75	

System: .alpha.-methylstyrene + 1-butyl-4-cyanopyridinium bis(trifluoromethylsulfonyl)imide; phases: Liquid
Fixed: Pressure, kPa = 100
Fixed: Mole fraction of .alpha.-methylstyrene = 0
Property: Activity coefficient of .alpha.-methylstyrene (Liquid); method: Chromatography
Temperature, K	Activity coefficient of .alpha.-methylstyrene	uncertainty
308.15	1.94	
318.15	2.09	
328.15	2.24	
338.15	2.4	
348.15	2.55	
358.15	2.7	
368.15	2.86	

System: thiophene + 1-butyl-4-cyanopyridinium bis(trifluoromethylsulfonyl)imide; phases: Liquid
Fixed: Pressure, kPa = 100
Fixed: Mole fraction of thiophene = 0
Property: Activity coefficient of thiophene (Liquid); method: Chromatography
Temperature, K	Activity coefficient of thiophene	uncertainty
308.15	.916	
318.15	.96	
328.15	1	
338.15	1.05	
348.15	1.1	
358.15	1.14	
368.15	1.18	

System: pyridine + 1-butyl-4-cyanopyridinium bis(trifluoromethylsulfonyl)imide; phases: Liquid
Fixed: Pressure, kPa = 100
Fixed: Mole fraction of pyridine = 0
Property: Activity coefficient of pyridine (Liquid); method: Chromatography
Temperature, K	Activity coefficient of pyridine	uncertainty
308.15	.47	
318.15	.5	
328.15	.53	
338.15	.56	
348.15	.591	
358.15	.62	
368.15	.65	

System: methanol + 1-butyl-4-cyanopyridinium bis(trifluoromethylsulfonyl)imide; phases: Liquid
Fixed: Pressure, kPa = 100
Fixed: Mole fraction of methanol = 0
Property: Activity coefficient of methanol (Liquid); method: Chromatography
Temperature, K	Activity coefficient of methanol	uncertainty
308.15	1.33	
318.15	1.27	
328.15	1.21	
338.15	1.17	
348.15	1.12	
358.15	1.08	
368.15	1.05	

System: ethanol + 1-butyl-4-cyanopyridinium bis(trifluoromethylsulfonyl)imide; phases: Liquid
Fixed: Pressure, kPa = 100
Fixed: Mole fraction of ethanol = 0
Property: Activity coefficient of ethanol (Liquid); method: Chromatography
Temperature, K	Activity coefficient of ethanol	uncertainty
308.15	1.86	
318.15	1.74	
328.15	1.64	
338.15	1.55	
348.15	1.47	
358.15	1.39	
368.15	1.33	

System: 1-propanol + 1-butyl-4-cyanopyridinium bis(trifluoromethylsulfonyl)imide; phases: Liquid
Fixed: Pressure, kPa = 100
Fixed: Mole fraction of 1-propanol = 0
Property: Activity coefficient of 1-propanol (Liquid); method: Chromatography
Temperature, K	Activity coefficient of 1-propanol	uncertainty
308.15	2.38	
318.15	2.23	
328.15	2.1	
338.15	1.98	
348.15	1.88	
358.15	1.79	
368.15	1.7	

System: 2-propanol + 1-butyl-4-cyanopyridinium bis(trifluoromethylsulfonyl)imide; phases: Liquid
Fixed: Pressure, kPa = 100
Fixed: Mole fraction of 2-propanol = 0
Property: Activity coefficient of 2-propanol (Liquid); method: Chromatography
Temperature, K	Activity coefficient of 2-propanol	uncertainty
308.15	2.25	
318.15	2.08	
328.15	1.95	
338.15	1.83	
348.15	1.73	
358.15	1.63	
368.15	1.55	

System: 1-butanol + 1-butyl-4-cyanopyridinium bis(trifluoromethylsulfonyl)imide; phases: Liquid
Fixed: Pressure, kPa = 100
Fixed: Mole fraction of 1-butanol = 0
Property: Activity coefficient of 1-butanol (Liquid); method: Chromatography
Temperature, K	Activity coefficient of 1-butanol	uncertainty
308.15	3.19	
318.15	2.94	
328.15	2.74	
338.15	2.56	
348.15	2.41	
358.15	2.28	
368.15	2.15	

System: 2-butanol + 1-butyl-4-cyanopyridinium bis(trifluoromethylsulfonyl)imide; phases: Liquid
Fixed: Pressure, kPa = 100
Fixed: Mole fraction of 2-butanol = 0
Property: Activity coefficient of 2-butanol (Liquid); method: Chromatography
Temperature, K	Activity coefficient of 2-butanol	uncertainty
308.15	2.69	
318.15	2.5	
328.15	2.33	
338.15	2.18	
348.15	2.06	
358.15	1.94	
368.15	1.84	

System: 2-methyl-1-propanol + 1-butyl-4-cyanopyridinium bis(trifluoromethylsulfonyl)imide; phases: Liquid
Fixed: Pressure, kPa = 100
Fixed: Mole fraction of 2-methyl-1-propanol = 0
Property: Activity coefficient of 2-methyl-1-propanol (Liquid); method: Chromatography
Temperature, K	Activity coefficient of 2-methyl-1-propanol	uncertainty
308.15	3.2	
318.15	2.93	
328.15	2.7	
338.15	2.5	
348.15	2.32	
358.15	2.18	
368.15	2.04	

System: 2-methyl-2-propanol + 1-butyl-4-cyanopyridinium bis(trifluoromethylsulfonyl)imide; phases: Liquid
Fixed: Pressure, kPa = 100
Fixed: Mole fraction of 2-methyl-2-propanol = 0
Property: Activity coefficient of 2-methyl-2-propanol (Liquid); method: Chromatography
Temperature, K	Activity coefficient of 2-methyl-2-propanol	uncertainty
308.15	2.28	
318.15	2.14	
328.15	2.01	
338.15	1.9	
348.15	1.8	
358.15	1.71	
368.15	1.63	

System: 1-pentanol + 1-butyl-4-cyanopyridinium bis(trifluoromethylsulfonyl)imide; phases: Liquid
Fixed: Pressure, kPa = 100
Fixed: Mole fraction of 1-pentanol = 0
Property: Activity coefficient of 1-pentanol (Liquid); method: Chromatography
Temperature, K	Activity coefficient of 1-pentanol	uncertainty
308.15	3.84	
318.15	3.58	
328.15	3.358	
338.15	3.15	
348.15	2.97	
358.15	2.81	
368.15	2.67	

System: water + 1-butyl-4-cyanopyridinium bis(trifluoromethylsulfonyl)imide; phases: Liquid
Fixed: Pressure, kPa = 100
Fixed: Mole fraction of water = 0
Property: Activity coefficient of water (Liquid); method: Chromatography
Temperature, K	Activity coefficient of water	uncertainty
308.15	3.31	
318.15	3.01	
328.15	2.74	
338.15	2.52	
348.15	2.33	
358.15	2.16	
368.15	2	

System: methyl acetate + 1-butyl-4-cyanopyridinium bis(trifluoromethylsulfonyl)imide; phases: Liquid
Fixed: Pressure, kPa = 100
Fixed: Mole fraction of methyl acetate = 0
Property: Activity coefficient of methyl acetate (Liquid); method: Chromatography
Temperature, K	Activity coefficient of methyl acetate	uncertainty
308.15	.607	
318.15	.646	
328.15	.685	
338.15	.724	
348.15	.762	
358.15	.8	
368.15	.839	

System: methyl propanoate + 1-butyl-4-cyanopyridinium bis(trifluoromethylsulfonyl)imide; phases: Liquid
Fixed: Pressure, kPa = 100
Fixed: Mole fraction of methyl propanoate = 0
Property: Activity coefficient of methyl propanoate (Liquid); method: Chromatography
Temperature, K	Activity coefficient of methyl propanoate	uncertainty
308.15	.8	
318.15	.855	
328.15	.905	
338.15	.956	
348.15	1.01	
358.15	1.06	
368.15	1.11	

System: methyl butanoate + 1-butyl-4-cyanopyridinium bis(trifluoromethylsulfonyl)imide; phases: Liquid
Fixed: Pressure, kPa = 100
Fixed: Mole fraction of methyl butanoate = 0
Property: Activity coefficient of methyl butanoate (Liquid); method: Chromatography
Temperature, K	Activity coefficient of methyl butanoate	uncertainty
308.15	1.15	
318.15	1.22	
328.15	1.28	
338.15	1.35	
348.15	1.42	
358.15	1.48	
368.15	1.55	

System: ethyl acetate + 1-butyl-4-cyanopyridinium bis(trifluoromethylsulfonyl)imide; phases: Liquid
Fixed: Pressure, kPa = 100
Fixed: Mole fraction of ethyl acetate = 0
Property: Activity coefficient of ethyl acetate (Liquid); method: Chromatography
Temperature, K	Activity coefficient of ethyl acetate	uncertainty
308.15	.839	
318.15	.89	
328.15	.941	
338.15	.995	
348.15	1.05	
358.15	1.1	
368.15	1.15	

System: tetrahydrofuran + 1-butyl-4-cyanopyridinium bis(trifluoromethylsulfonyl)imide; phases: Liquid
Fixed: Pressure, kPa = 100
Fixed: Mole fraction of tetrahydrofuran = 0
Property: Activity coefficient of tetrahydrofuran (Liquid); method: Chromatography
Temperature, K	Activity coefficient of tetrahydrofuran	uncertainty
308.15	.622	
318.15	.661	
328.15	.701	
338.15	.742	
348.15	.779	
358.15	.818	
368.15	.858	

System: 1,4-dioxane + 1-butyl-4-cyanopyridinium bis(trifluoromethylsulfonyl)imide; phases: Liquid
Fixed: Pressure, kPa = 100
Fixed: Mole fraction of 1,4-dioxane = 0
Property: Activity coefficient of 1,4-dioxane (Liquid); method: Chromatography
Temperature, K	Activity coefficient of 1,4-dioxane	uncertainty
308.15	.419	
318.15	.461	
328.15	.502	
338.15	.544	
348.15	.587	
358.15	.631	
368.15	.676	

System: tert-butyl methyl ether + 1-butyl-4-cyanopyridinium bis(trifluoromethylsulfonyl)imide; phases: Liquid
Fixed: Pressure, kPa = 100
Fixed: Mole fraction of tert-butyl methyl ether = 0
Property: Activity coefficient of tert-butyl methyl ether (Liquid); method: Chromatography
Temperature, K	Activity coefficient of tert-butyl methyl ether	uncertainty
308.15	3.01	
318.15	3.13	
328.15	3.24	
338.15	3.35	
348.15	3.45	
358.15	3.56	
368.15	3.66	

System: tert-butyl ethyl ether + 1-butyl-4-cyanopyridinium bis(trifluoromethylsulfonyl)imide; phases: Liquid
Fixed: Pressure, kPa = 100
Fixed: Mole fraction of tert-butyl ethyl ether = 0
Property: Activity coefficient of tert-butyl ethyl ether (Liquid); method: Chromatography
Temperature, K	Activity coefficient of tert-butyl ethyl ether	uncertainty
308.15	8.97	
318.15	8.89	
328.15	8.84	
338.15	8.8	
348.15	8.78	
358.15	8.73	
368.15	8.68	

System: tert-amyl methyl ether + 1-butyl-4-cyanopyridinium bis(trifluoromethylsulfonyl)imide; phases: Liquid
Fixed: Pressure, kPa = 100
Fixed: Mole fraction of tert-amyl methyl ether = 0
Property: Activity coefficient of tert-amyl methyl ether (Liquid); method: Chromatography
Temperature, K	Activity coefficient of tert-amyl methyl ether	uncertainty
308.15	4.33	
318.15	4.48	
328.15	4.62	
338.15	4.76	
348.15	4.88	
358.15	5.01	
368.15	5.13	

System: diethyl ether + 1-butyl-4-cyanopyridinium bis(trifluoromethylsulfonyl)imide; phases: Liquid
Fixed: Pressure, kPa = 100
Fixed: Mole fraction of diethyl ether = 0
Property: Activity coefficient of diethyl ether (Liquid); method: Chromatography
Temperature, K	Activity coefficient of diethyl ether	uncertainty
308.15	3.17	
318.15	3.24	
328.15	3.31	
338.15	3.37	
348.15	3.44	
358.15	3.5	
368.15	3.56	

System: dipropyl ether + 1-butyl-4-cyanopyridinium bis(trifluoromethylsulfonyl)imide; phases: Liquid
Fixed: Pressure, kPa = 100
Fixed: Mole fraction of dipropyl ether = 0
Property: Activity coefficient of dipropyl ether (Liquid); method: Chromatography
Temperature, K	Activity coefficient of dipropyl ether	uncertainty
308.15	8.88	
318.15	8.84	
328.15	8.83	
338.15	8.78	
348.15	8.75	
358.15	8.73	
368.15	8.71	

System: diisopropyl ether + 1-butyl-4-cyanopyridinium bis(trifluoromethylsulfonyl)imide; phases: Liquid
Fixed: Pressure, kPa = 100
Fixed: Mole fraction of diisopropyl ether = 0
Property: Activity coefficient of diisopropyl ether (Liquid); method: Chromatography
Temperature, K	Activity coefficient of diisopropyl ether	uncertainty
308.15	9.7	
318.15	9.65	
328.15	9.59	
338.15	9.57	
348.15	9.53	
358.15	9.48	
368.15	9.45	

System: dibutyl ether + 1-butyl-4-cyanopyridinium bis(trifluoromethylsulfonyl)imide; phases: Liquid
Fixed: Pressure, kPa = 100
Fixed: Mole fraction of dibutyl ether = 0
Property: Activity coefficient of dibutyl ether (Liquid); method: Chromatography
Temperature, K	Activity coefficient of dibutyl ether	uncertainty
308.15	19.3	
318.15	18.6	
328.15	18	
338.15	17.4	
348.15	16.8	
358.15	16.3	
368.15	15.9	

System: 2-propanone + 1-butyl-4-cyanopyridinium bis(trifluoromethylsulfonyl)imide; phases: Liquid
Fixed: Pressure, kPa = 100
Fixed: Mole fraction of 2-propanone = 0
Property: Activity coefficient of 2-propanone (Liquid); method: Chromatography
Temperature, K	Activity coefficient of 2-propanone	uncertainty
308.15	.377	
318.15	.403	
328.15	.427	
338.15	.453	
348.15	.479	
358.15	.505	
368.15	.531	

System: 2-pentanone + 1-butyl-4-cyanopyridinium bis(trifluoromethylsulfonyl)imide; phases: Liquid
Fixed: Pressure, kPa = 100
Fixed: Mole fraction of 2-pentanone = 0
Property: Activity coefficient of 2-pentanone (Liquid); method: Chromatography
Temperature, K	Activity coefficient of 2-pentanone	uncertainty
308.15	.697	
318.15	.739	
328.15	.783	
338.15	.824	
348.15	.868	
358.15	.909	
368.15	.95	

System: 3-pentanone + 1-butyl-4-cyanopyridinium bis(trifluoromethylsulfonyl)imide; phases: Liquid
Fixed: Pressure, kPa = 100
Fixed: Mole fraction of 3-pentanone = 0
Property: Activity coefficient of 3-pentanone (Liquid); method: Chromatography
Temperature, K	Activity coefficient of 3-pentanone	uncertainty
308.15	.697	
318.15	.746	
328.15	.792	
338.15	.84	
348.15	.889	
358.15	.936	
368.15	.984	

System: butanal + 1-butyl-4-cyanopyridinium bis(trifluoromethylsulfonyl)imide; phases: Liquid
Fixed: Pressure, kPa = 100
Fixed: Mole fraction of butanal = 0
Property: Activity coefficient of butanal (Liquid); method: Chromatography
Temperature, K	Activity coefficient of butanal	uncertainty
308.15	.7	
318.15	.738	
328.15	.773	
338.15	.811	
348.15	.848	
358.15	.884	
368.15	.917	

System: acetonitrile + 1-butyl-4-cyanopyridinium bis(trifluoromethylsulfonyl)imide; phases: Liquid
Fixed: Pressure, kPa = 100
Fixed: Mole fraction of acetonitrile = 0
Property: Activity coefficient of acetonitrile (Liquid); method: Chromatography
Temperature, K	Activity coefficient of acetonitrile	uncertainty
308.15	.432	
318.15	.449	
328.15	.466	
338.15	.483	
348.15	.5	
358.15	.516	
368.15	.531	

System: 1-nitropropane + 1-butyl-4-cyanopyridinium bis(trifluoromethylsulfonyl)imide; phases: Liquid
Fixed: Pressure, kPa = 100
Fixed: Mole fraction of 1-nitropropane = 0
Property: Activity coefficient of 1-nitropropane (Liquid); method: Chromatography
Temperature, K	Activity coefficient of 1-nitropropane	uncertainty
308.15	.74	
318.15	.768	
328.15	.796	
338.15	.824	
348.15	.851	
358.15	.877	
368.15	.904	
