Measured thermophysical data. Solubility of erythromycin in ionic liquids
Source: J. Chem. Thermodyn., 2012, 10.1016/j.jct.2011.08.004
Compound 1: erythromycin, C37H67NO13, purity 96.2%
Compound 2: 1-butyl-3-methylimidazolium bis[(trifluoromethyl)sulfonyl]amide, C10H15F6N3O4S2, purity 98%
Compound 3: 1-decyl-3-methylimidazolium bis(trifluoromethylsulfonyl)imide, C16H23F6N3O4S2, purity 98%
Compound 4: trihexyl(tetradecyl)phosphonium chloride, C32H68ClP, purity 95%
Compound 5: butyltrimethylammonium bis(trifluoromethylsulfonyl)imide, C9H18F6N2O4S2, purity 99%
Compound 6: methyltrioctylammonium bis(trifluoromethylsulfonyl)imide, C27H54F6N2O4S2, purity 99%
Compound 7: 1-butyl-1-methylpyrrolidinium bis[(trifluoromethyl)sulfonyl]imide, C11H20F6N2O4S2, purity 99%

System: erythromycin + 1-butyl-3-methylimidazolium bis[(trifluoromethyl)sulfonyl]amide; phases: Liquid, Crystal
Fixed: Pressure, kPa = 101
Property: Mole fraction of erythromycin (Liquid); method: visual dynamic method
Temperature, K	Mole fraction of erythromycin	uncertainty
285.1	.03	.002
291.9	.032	.002
296.9	.035	.002
302.1	.037	.002
305	.038	.002
307.7	.038	.002
313.5	.04	.002
319.2	.042	.002
333.9	.044	.002
348.2	.047	.002

System: erythromycin + 1-decyl-3-methylimidazolium bis(trifluoromethylsulfonyl)imide; phases: Liquid, Crystal
Fixed: Pressure, kPa = 101
Property: Mole fraction of erythromycin (Liquid); method: visual dynamic method
Temperature, K	Mole fraction of erythromycin	uncertainty
288.2	.07	.002
305.4	.072	.002
321.4	.073	.002
356.2	.074	.002

System: erythromycin + trihexyl(tetradecyl)phosphonium chloride; phases: Liquid, Crystal
Fixed: Pressure, kPa = 101
Property: Mole fraction of erythromycin (Liquid); method: visual dynamic method
Temperature, K	Mole fraction of erythromycin	uncertainty
298	.085	.002
306.1	.088	.002
327.6	.092	.002
357.2	.097	.002

System: erythromycin + butyltrimethylammonium bis(trifluoromethylsulfonyl)imide; phases: Liquid, Crystal
Fixed: Pressure, kPa = 101
Property: Mole fraction of erythromycin (Liquid); method: visual dynamic method
Temperature, K	Mole fraction of erythromycin	uncertainty
296.8	.053	.002
312.5	.054	.002
336.1	.055	.002
354.5	.056	.002

System: erythromycin + methyltrioctylammonium bis(trifluoromethylsulfonyl)imide; phases: Liquid, Crystal
Fixed: Pressure, kPa = 101
Property: Mole fraction of erythromycin (Liquid); method: visual dynamic method
Temperature, K	Mole fraction of erythromycin	uncertainty
310.2	.097	.002
320.3	.099	.002
332.4	.101	.002
345.8	.103	.002
358	.106	.002

System: erythromycin + methyltrioctylammonium bis(trifluoromethylsulfonyl)imide; phases: Liquid mixture 1, Liquid mixture 2
Fixed: Pressure, kPa = 101
Property: Mole fraction of erythromycin (Liquid mixture 1); method: visual dynamic method
Temperature, K	Mole fraction of erythromycin	uncertainty
294.1	.012	.002
302.4	.015	.002
309.1	.02	.002
313.7	.023	.002
324.5	.031	.002
326	.036	.002
328.5	.046	.002
329	.052	.002
328.4	.069	.002
325.5	.076	.002
319.7	.084	.002
312.9	.093	.002

System: erythromycin + 1-butyl-1-methylpyrrolidinium bis[(trifluoromethyl)sulfonyl]imide; phases: Liquid, Crystal
Fixed: Pressure, kPa = 101
Property: Mole fraction of erythromycin (Liquid); method: visual dynamic method
Temperature, K	Mole fraction of erythromycin	uncertainty
284.4	.016	.002
299.4	.017	.002
318.2	.018	.002
335.4	.019	.002
354.2	.02	.002
