Measured thermophysical data. Measuring the solubility of CO2 and H2S in sulfolane and the density and viscosity of saturated liquid binary mixtures of (sulfolane + CO2) and (sulfolane + H2S)
Source: J. Chem. Thermodyn., 2015, 10.1016/j.jct.2015.01.001
Compound 1: hydrogen sulfide, H2S, purity 99.95%
Compound 2: carbon dioxide, CO2, purity 99.5%
Compound 3: methanol, CH4O, purity 99.5%
Compound 4: sulfolane, C4H8O2S, purity 99%

System: methanol; phases: Liquid, Gas
Property: Vapor or sublimation pressure, kPa (Liquid); method: Closed cell (Static) method
Temperature, K	Vapor or sublimation pressure, kPa	uncertainty
298.15	17	.4
303.15	21.9	.4
308.15	27.9	.4
313.15	35.6	.4

System: methanol; phases: Liquid, Gas
Property: Mass density, kg/m3 (Liquid); method: Vibrating tube method
Temperature, K	Mass density, kg/m3	uncertainty
298.15	786.7	1
303.15	782	1
308.15	777.3	1
313.15	772.5	1

System: methanol; phases: Liquid, Gas
Property: Viscosity, Pa*s (Liquid); method: Falling or rolling sphere viscometry
Temperature, K	Viscosity, Pa*s	uncertainty
298.15	.000544	.00005
303.15	.000512	.00005
308.15	.000486	.00005
313.15	.00046	.00005

System: sulfolane; phases: Liquid, Gas
Property: Mass density, kg/m3 (Liquid); method: Vibrating tube method
Temperature, K	Mass density, kg/m3	uncertainty
303.15	1262	1
313.15	1253	1
323.15	1244	1
333.15	1235	1
343.15	1226	1
353.15	1218	1
363.15	1209	1

System: sulfolane; phases: Liquid, Gas
Property: Viscosity, Pa*s (Liquid); method: Falling or rolling sphere viscometry
Temperature, K	Viscosity, Pa*s	uncertainty
303.15	.0103	.0003
313.15	.00801	.0002
323.15	.00632	.00016
333.15	.00516	.00013
343.15	.00422	.0001
353.15	.0035	.00009
363.15	.00292	.00007
303.15	.0102	.0003

System: methanol + carbon dioxide; phases: Liquid, Gas
Property: Mole fraction of carbon dioxide (Liquid); method: Mass balance and pVT data
Temperature, K	Pressure, kPa	Mole fraction of carbon dioxide	uncertainty
298.15	467.6	.037	.001
298.15	1827.6	.155	.004
298.15	2059.2	.176	.004
298.15	2411.7	.207	.005
298.15	2609.8	.225	.006
298.15	3070.8	.268	.007
303.15	514.4	.034	.001
303.15	1357.8	.099	.002
303.15	2202.1	.164	.004
303.15	2582.4	.194	.005
303.15	2803.7	.212	.005
303.15	3272.7	.249	.006
308.15	543.8	.032	.001
308.15	1454.6	.094	.002
308.15	2129.6	.14	.003
308.15	2391.6	.158	.004
308.15	2760.3	.184	.005
308.15	3001.7	.201	.005
308.15	3529.4	.238	.006
313.15	629.5	.031	.001
313.15	1587.2	.091	.002
313.15	2265.6	.133	.003
313.15	2523.6	.149	.004
313.15	2943.3	.175	.004
313.15	3205.9	.191	.005
313.15	3774.9	.227	.006

System: methanol + carbon dioxide; phases: Liquid
Property: Mass density, kg/m3 (Liquid); method: Vibrating tube method
Pressure, kPa	Temperature, K	Mole fraction of carbon dioxide	Mass density, kg/m3	uncertainty
17	298.15	0	786.7	1
467.6	298.15	.037	792.7	1
1827.6	298.15	.155	811.4	1
2059.2	298.15	.176	814.6	1
2411.7	298.15	.207	819.5	1
2609.8	298.15	.225	822.2	1
3070.8	298.15	.268	828.6	1
21.9	303.15	0	782	1
514.4	303.15	.034	787	1
1357.8	303.15	.099	796.3	1
2202.1	303.15	.164	805.7	1
2582.4	303.15	.194	809.9	1
2803.7	303.15	.212	812.4	1
3272.7	303.15	.249	817.7	1
27.9	308.15	0	777.3	1
543.8	308.15	.032	783.2	1
1454.6	308.15	.094	791.6	1
2129.6	308.15	.14	797.9	1
2391.6	308.15	.158	800.3	1
2760.3	308.15	.184	803.7	1
3001.7	308.15	.201	806	1
3529.4	308.15	.238	810.9	1
35.6	313.15	0	772.5	1
629.5	313.15	.031	777.5	1
1587.2	313.15	.091	787.1	1
2265.6	313.15	.133	793.6	1
2523.6	313.15	.149	796	1
2943.3	313.15	.175	800.1	1
3205.9	313.15	.191	802.6	1
3774.9	313.15	.227	808	1

System: methanol + carbon dioxide; phases: Liquid
Property: Viscosity, Pa*s (Liquid); method: Falling or rolling sphere viscometry
Temperature, K	Pressure, kPa	Mole fraction of carbon dioxide	Viscosity, Pa*s	uncertainty
298.15	17	0	.000544	.00005
298.15	467.6	.037	.000523	.00005
298.15	1827.6	.155	.00045	.00005
298.15	2059.2	.176	.000436	.00005
298.15	2411.7	.207	.000418	.00005
298.15	2609.8	.225	.000407	.00005
298.15	3070.8	.268	.000383	.00005
303.15	21.9	0	.000512	.00005
303.15	514.4	.034	.000497	.00005
303.15	1357.8	.099	.000459	.00005
303.15	2202.1	.164	.000421	.00005
303.15	2582.4	.194	.000403	.00005
303.15	2803.7	.212	.000392	.00005
303.15	3272.7	.249	.00037	.00005
308.15	27.9	0	.000486	.00005
308.15	543.8	.032	.000467	.00005
308.15	1454.6	.094	.000434	.00005
308.15	2129.6	.14	.000408	.00005
308.15	2391.6	.158	.000398	.00005
308.15	2760.3	.184	.000385	.00005
308.15	3001.7	.201	.000375	.00005
308.15	3529.4	.238	.000356	.00005
313.15	35.6	0	.00046	.00005
313.15	629.5	.031	.000443	.00005
313.15	1587.2	.091	.00041	.00005
313.15	2265.6	.133	.00039	.00005
313.15	2523.6	.149	.000378	.00005
313.15	2943.3	.175	.000368	.00005
313.15	3205.9	.191	.000356	.00005
313.15	3774.9	.227	.000337	.00005

System: carbon dioxide + sulfolane; phases: Liquid, Gas
Property: Molality, mol/kg of carbon dioxide (Liquid); method: Mass balance and pVT data
Temperature, K	Pressure, kPa	Molality, mol/kg of carbon dioxide	uncertainty
303.15	118.4	.103	.004
303.15	191.2	.174	.005
303.15	316.5	.284	.007
303.15	495.3	.438	.01
303.15	648.5	.598	.014
303.15	777.7	.709	.016
303.15	1063.8	1.001	.02
303.15	1253.8	1.205	.022
303.15	1447.1	1.423	.023
323.15	141.1	.093	.004
323.15	238.4	.163	.005
323.15	392.8	.266	.007
323.15	632	.417	.01
323.15	817.7	.557	.013
323.15	993.9	.692	.015
323.15	1413.4	1.019	.02
323.15	1706.6	1.217	.022
323.15	2006.9	1.472	.023
343.15	168.2	.087	.004
343.15	296.7	.155	.005
343.15	477.6	.249	.007
343.15	758.5	.402	.01
343.15	978.6	.526	.012
343.15	1118.9	.603	.014
343.15	1538.6	.853	.018
343.15	1852.6	1.011	.02
343.15	2326.1	1.305	.023
363.15	188.8	.076	.004
363.15	327.8	.133	.005
363.15	555	.225	.007
363.15	902.8	.366	.01
363.15	1404.2	.573	.013
363.15	2015	.822	.017
313.15	121.8	.0954	.0037
313.15	200.8	.1579	.0048
313.15	324.9	.2571	.007
313.15	526	.4296	.0101
313.15	732.9	.5763	.0134
313.15	855.1	.6803	.0152
313.15	1169.6	.9594	.0191
313.15	1383.5	1.1593	.0215
313.15	1644.1	1.3846	.022
333.15	153.2	.091	.004
333.15	263.6	.158	.005
333.15	436.2	.257	.007
333.15	694.6	.415	.01
333.15	896.4	.54	.013
333.15	1035.8	.626	.014
333.15	1456.6	.886	.019
333.15	1761.6	1.061	.021
353.15	178.9	.08	.004
353.15	305	.137	.005
353.15	509.4	.232	.007
353.15	828	.38	.01
353.15	1248.9	.581	.014
353.15	1720.3	.822	.018
353.15	1911.1	.924	.019

System: carbon dioxide + sulfolane; phases: Liquid
Property: Mass density, kg/m3 (Liquid); method: Vibrating tube method
Temperature, K	Pressure, kPa	Molality, mol/kg of carbon dioxide	Mass density, kg/m3	uncertainty
303.15	118.4	.103	1260	1
303.15	191.2	.174	1259	1
303.15	316.5	.284	1258	1
303.15	495.3	.438	1256	1
303.15	648.5	.598	1255	1
303.15	777.7	.709	1254	1
303.15	1063.8	1.001	1253	1
303.15	1253.8	1.205	1252	1
303.15	1447.1	1.423	1252	1
323.15	141.1	.093	1242	1
323.15	238.4	.163	1241	1
323.15	392.8	.266	1239	1
323.15	632	.417	1237	1
323.15	817.7	.557	1235	1
323.15	993.9	.692	1234	1
323.15	1413.4	1.019	1232	1
323.15	1706.6	1.217	1231	1
323.15	2006.9	1.472	1231	1
343.15	168.2	.087	1223	1
343.15	296.7	.155	1222	1
343.15	477.6	.249	1219	1
343.15	758.5	.402	1216	1
343.15	978.6	.526	1213	1
343.15	1118.9	.603	1211	1
343.15	1538.6	.853	1207	1
343.15	1852.6	1.011	1205	1
343.15	2326.1	1.305	1203	1
363.15	188.8	.076	1205	1
363.15	327.8	.133	1203	1
363.15	555	.225	1199	1
363.15	902.8	.366	1194	1
363.15	1404.2	.573	1189	1
363.15	2015	.822	1185	1
313.15	121.8	.0954	1252	1
313.15	200.8	.1579	1250	1
313.15	324.9	.2571	1249	1
313.15	526	.4296	1247	1
313.15	732.9	.5763	1246	1
313.15	855.1	.6803	1245	1
313.15	1169.6	.9594	1243	1
313.15	1383.5	1.1593	1243	1
313.15	1644.1	1.3846	1242	1
333.15	153.2	.091	1233	1
333.15	263.6	.158	1232	1
333.15	436.2	.257	1229	1
333.15	694.6	.415	1226	1
333.15	896.4	.54	1224	1
333.15	1035.8	.626	1223	1
333.15	1456.6	.886	1220	1
333.15	1761.6	1.061	1218	1
353.15	178.9	.08	1215	1
353.15	305	.137	1212	1
353.15	509.4	.232	1209	1
353.15	828	.38	1205	1
353.15	1248.9	.581	1199	1
353.15	1720.3	.822	1194	1
353.15	1911.1	.924	1192	1

System: carbon dioxide + sulfolane; phases: Liquid
Property: Viscosity, Pa*s (Liquid); method: Falling or rolling sphere viscometry
Temperature, K	Pressure, kPa	Molality, mol/kg of carbon dioxide	Viscosity, Pa*s	uncertainty
303.15	118.4	.103	.00999	.00025
303.15	191.2	.174	.0098	.00025
303.15	316.5	.284	.00936	.00024
303.15	495.3	.438	.00897	.00023
303.15	648.5	.598	.00834	.00022
303.15	777.7	.709	.00785	.00022
303.15	1063.8	1.001	.007	.0002
303.15	1253.8	1.205	.00648	.00019
303.15	1447.1	1.423	.00596	.00018
323.15	141.1	.093	.00621	.00015
323.15	238.4	.163	.0061	.00015
323.15	392.8	.266	.00597	.00014
323.15	632	.417	.00569	.00013
323.15	817.7	.557	.00546	.00013
323.15	993.9	.692	.00516	.00012
323.15	1413.4	1.019	.00468	.00011
323.15	1706.6	1.217	.00428	.0001
323.15	2006.9	1.472	.00398	.00009
343.15	168.2	.087	.00419	.0001
343.15	296.7	.155	.00406	.0001
343.15	477.6	.249	.004	.0001
343.15	758.5	.402	.00361	.00009
343.15	978.6	.526	.00363	.00009
343.15	1118.9	.603	.00346	.00008
343.15	1538.6	.853	.00324	.00008
343.15	1852.6	1.011	.00302	.00007
343.15	2326.1	1.305	.00292	.00006
363.15	188.8	.076	.00284	.00007
363.15	327.8	.133	.00274	.00007
363.15	555	.225	.00264	.00007
363.15	902.8	.366	.00249	.00006
363.15	1404.2	.573	.00239	.00006
363.15	2015	.822	.00224	.00005
313.15	121.8	.0954	.00798	.00019
313.15	200.8	.1579	.00773	.00019
313.15	324.9	.2571	.00761	.00018
313.15	526	.4296	.00713	.00017
313.15	732.9	.5763	.00688	.00017
313.15	855.1	.6803	.00636	.00016
313.15	1169.6	.9594	.00581	.00015
313.15	1383.5	1.1593	.00528	.00014
313.15	1644.1	1.3846	.00499	.00013
333.15	153.2	.091	.00514	.00012
333.15	263.6	.158	.00509	.00012
333.15	436.2	.257	.00492	.00012
333.15	694.6	.415	.0045	.00011
333.15	896.4	.54	.0044	.0001
333.15	1035.8	.626	.00427	.0001
333.15	1456.6	.886	.00387	.00009
333.15	1761.6	1.061	.00369	.00009
353.15	178.9	.08	.0035	.00008
353.15	305	.137	.00327	.00008
353.15	509.4	.232	.00314	.00008
353.15	828	.38	.00316	.00008
353.15	1248.9	.581	.003	.00007
353.15	1720.3	.822	.00278	.00006
353.15	1911.1	.924	.00262	.00006

System: sulfolane + hydrogen sulfide; phases: Liquid, Gas
Property: Molality, mol/kg of hydrogen sulfide (Liquid); method: Mass balance and pVT data
Temperature, K	Pressure, kPa	Molality, mol/kg of hydrogen sulfide	uncertainty
303.15	86.7	.389	.01
303.15	137.1	.623	.014
303.15	193.6	.915	.018
303.15	230.1	1.128	.021
303.15	304.1	1.435	.025
303.15	364.8	1.764	.029
303.15	401.1	2.032	.032
303.15	503.2	2.605	.038
303.15	616.7	3.291	.045
303.15	738.4	4.17	.053
303.15	889.7	5.327	.063
303.15	1040.5	6.929	.076
313.15	160.8	.626	.014
313.15	227	.884	.018
313.15	273.9	1.021	.02
313.15	362.7	1.408	.024
313.15	419.7	1.723	.028
313.15	481.3	2.009	.031
313.15	586.5	2.375	.035
313.15	718.4	3.078	.043
313.15	859.9	3.931	.051
313.15	1035.5	5.164	.061
323.15	76.1	.222	.007
323.15	118.7	.378	.01
323.15	190.1	.579	.013
323.15	267.2	.823	.017
323.15	317.2	1.009	.019
323.15	430.1	1.389	.024
323.15	490.4	1.704	.028
323.15	565.2	1.985	.031
323.15	688.7	2.348	.035
323.15	843.7	3.097	.043
323.15	1009.9	3.97	.051
333.15	88.3	.218	.007
333.15	139.2	.372	.01
333.15	219.9	.571	.013
333.15	314.1	.811	.017
333.15	370.5	.995	.019
333.15	505.9	1.368	.024
333.15	576.7	1.681	.028
333.15	664	1.959	.031
333.15	800	2.462	.036
343.15	96	.205	.006
343.15	159.7	.347	.009
343.15	253.3	.563	.013
343.15	368.1	.797	.016
343.15	428.2	.981	.019
343.15	590.6	1.347	.024
343.15	678.9	1.654	.027
343.15	782.1	1.927	.031
343.15	914	2.221	.034
343.15	1119.8	2.876	.041
353.15	116.1	.202	.006
353.15	179.9	.319	.009
353.15	288.8	.546	.013
353.15	427.9	.802	.016
353.15	494.2	.965	.019
353.15	683.1	1.324	.023
353.15	795.9	1.624	.027
353.15	911.1	1.894	.03
363.15	131.7	.195	.006
363.15	201.9	.304	.008
363.15	327.1	.504	.012
363.15	494.7	.767	.016
363.15	565.7	.912	.018
363.15	784.2	1.3	.023
363.15	928.7	1.591	.027
363.15	1052.3	1.86	.03

System: sulfolane + hydrogen sulfide; phases: Liquid
Property: Mass density, kg/m3 (Liquid); method: Vibrating tube method
Temperature, K	Pressure, kPa	Molality, mol/kg of hydrogen sulfide	Mass density, kg/m3	uncertainty
303.15	86.7	.389	1257	1
303.15	137.1	.623	1255	1
303.15	193.6	.915	1253	1
303.15	230.1	1.128	1251	1
303.15	304.1	1.435	1248	1
303.15	364.8	1.764	1246	1
303.15	401.1	2.032	1244	1
303.15	503.2	2.605	1242	1
303.15	616.7	3.291	1238	1
303.15	738.4	4.17	1237	1
303.15	889.7	5.327	1233	1
303.15	1040.5	6.929	1230	1
313.15	160.8	.626	1246	1
313.15	227	.884	1242	1
313.15	273.9	1.021	1242	1
313.15	362.7	1.408	1238	1
313.15	419.7	1.723	1236	1
313.15	481.3	2.009	1234	1
313.15	586.5	2.375	1231	1
313.15	718.4	3.078	1228	1
313.15	859.9	3.931	1225	1
313.15	1035.5	5.164	1223	1
323.15	76.1	.222	1243	1
323.15	118.7	.378	1242	1
323.15	190.1	.579	1239	1
323.15	267.2	.823	1236	1
323.15	317.2	1.009	1234	1
323.15	430.1	1.389	1229	1
323.15	490.4	1.704	1226	1
323.15	565.2	1.985	1223	1
323.15	688.7	2.348	1220	1
323.15	843.7	3.097	1216	1
323.15	1009.9	3.97	1215	1
333.15	88.3	.218	1233	1
333.15	139.2	.372	1231	1
333.15	219.9	.571	1228	1
333.15	314.1	.811	1225	1
333.15	370.5	.995	1223	1
333.15	505.9	1.368	1219	1
333.15	576.7	1.681	1215	1
333.15	664	1.959	1212	1
333.15	800	2.462	1208	1
343.15	96	.205	1223	1
343.15	159.7	.347	1220	1
343.15	253.3	.563	1218	1
343.15	368.1	.797	1215	1
343.15	428.2	.981	1214	1
343.15	590.6	1.347	1211	1
343.15	678.9	1.654	1204	1
343.15	782.1	1.927	1202	1
343.15	914	2.221	1200	1
343.15	1119.8	2.876	1196	1
353.15	116.1	.202	1216	1
353.15	179.9	.319	1214	1
353.15	288.8	.546	1210	1
353.15	427.9	.802	1209	1
353.15	494.2	.965	1206	1
353.15	683.1	1.324	1199	1
353.15	795.9	1.624	1195	1
353.15	911.1	1.894	1193	1
363.15	131.7	.195	1208	1
363.15	201.9	.304	1206	1
363.15	327.1	.504	1202	1
363.15	494.7	.767	1199	1
363.15	565.7	.912	1196	1
363.15	784.2	1.3	1190	1
363.15	928.7	1.591	1185	1
363.15	1052.3	1.86	1184	1

System: sulfolane + hydrogen sulfide; phases: Liquid
Property: Viscosity, Pa*s (Liquid); method: Falling or rolling sphere viscometry
Temperature, K	Pressure, kPa	Molality, mol/kg of hydrogen sulfide	Viscosity, Pa*s	uncertainty
303.15	86.7	.389	.00933	.00023
303.15	137.1	.623	.00858	.00022
303.15	193.6	.915	.00776	.0002
303.15	230.1	1.128	.00688	.00019
303.15	304.1	1.435	.00631	.00018
303.15	364.8	1.764	.00555	.00016
303.15	401.1	2.032	.00509	.00015
303.15	503.2	2.605	.00444	.00012
303.15	616.7	3.291	.0037	.0001
303.15	738.4	4.17	.00295	.00007
303.15	889.7	5.327	.00208	.00005
303.15	1040.5	6.929	.00147	.00003
313.15	160.8	.626	.0067	.00016
313.15	227	.884	.00603	.00015
313.15	273.9	1.021	.0055	.00014
313.15	362.7	1.408	.00507	.00012
313.15	419.7	1.723	.00454	.00011
313.15	481.3	2.009	.00402	.0001
313.15	586.5	2.375	.00374	.00008
313.15	718.4	3.078	.00307	.00006
313.15	859.9	3.931	.00244	.00004
313.15	1035.5	5.164	.0018	.00002
323.15	76.1	.222	.00609	.00014
323.15	118.7	.378	.00555	.00014
323.15	190.1	.579	.00516	.00013
323.15	267.2	.823	.00449	.00012
323.15	317.2	1.009	.00435	.00011
323.15	430.1	1.389	.00374	.00009
323.15	490.4	1.704	.00341	.00008
323.15	565.2	1.985	.00309	.00007
323.15	688.7	2.348	.00286	.00006
323.15	843.7	3.097	.00235	.00004
323.15	1009.9	3.97	.00189	.00003
333.15	88.3	.218	.00478	.00012
333.15	139.2	.372	.00465	.00011
333.15	219.9	.571	.00429	.0001
333.15	314.1	.811	.00386	.0001
333.15	370.5	.995	.00358	.00009
333.15	505.9	1.368	.00317	.00008
333.15	576.7	1.681	.0028	.00007
333.15	664	1.959	.00255	.00006
333.15	800	2.462	.00229	.00005
343.15	96	.205	.00395	.0001
343.15	159.7	.347	.00374	.00009
343.15	253.3	.563	.0035	.00009
343.15	368.1	.797	.00313	.00008
343.15	428.2	.981	.00299	.00007
343.15	590.6	1.347	.00265	.00006
343.15	678.9	1.654	.00234	.00006
343.15	782.1	1.927	.00218	.00005
343.15	914	2.221	.00201	.00004
343.15	1119.8	2.876	.00165	.00003
353.15	116.1	.202	.00324	.00008
353.15	179.9	.319	.00311	.00008
353.15	288.8	.546	.00269	.00007
353.15	427.9	.802	.00253	.00007
353.15	494.2	.965	.00246	.00006
353.15	683.1	1.324	.0022	.00005
353.15	795.9	1.624	.00198	.00005
353.15	911.1	1.894	.00181	.00004
363.15	131.7	.195	.00271	.00007
363.15	201.9	.304	.00261	.00006
363.15	327.1	.504	.00246	.00006
363.15	494.7	.767	.00221	.00005
363.15	565.7	.912	.00205	.00005
363.15	784.2	1.3	.00174	.00004
363.15	928.7	1.591	.0015	.00004
363.15	1052.3	1.86	.00137	.00003
