Measured thermophysical data. Thermodynamics of fenoxycarb in solution
Source: J. Chem. Thermodyn., 2013, 10.1016/j.jct.2013.06.007
Compound 1: fenoxycarb, C17H19NO4
Compound 2: isopropanol, C3H8O
Compound 3: methanol, CH4O
Compound 4: ethanol, C2H6O
Compound 5: ethyl acetate, C4H8O2
Compound 6: toluene, C7H8

System: fenoxycarb; phases: Crystal, Liquid, Air at 1 atmosphere
Property: Normal melting temperature, K (Crystal); method: DSC/DTA
Normal melting temperature, K	uncertainty
326.62	

System: fenoxycarb; phases: Crystal, Liquid, Air at 1 atmosphere
Property: Molar enthalpy of transition or fusion, kJ/mol (Crystal); method: DSC/DTA
Molar enthalpy of transition or fusion, kJ/mol	uncertainty
28.24	

System: fenoxycarb; phases: Crystal, Liquid, Air at 1 atmosphere
Property: Normal melting temperature, K (Crystal); method: DSC/DTA
Normal melting temperature, K	uncertainty
325.85	.4

System: fenoxycarb; phases: Crystal, Liquid, Air at 1 atmosphere
Property: Molar enthalpy of transition or fusion, kJ/mol (Crystal); method: DSC/DTA
Molar enthalpy of transition or fusion, kJ/mol	uncertainty
26.75	.5

System: isopropanol + fenoxycarb; phases: Liquid, Crystal
Fixed: Pressure, kPa = 101
Property: Mole fraction of fenoxycarb (Liquid); method: gravimetric method
Temperature, K	Mole fraction of fenoxycarb	uncertainty
278.17	.0121	.00003025
283.14	.0175	.00004375
288.17	.0288	.000072
293.15	.0504	.000126
298.14	.1081	.00027025
303.1	.2612	.000653
308.06	.4242	.0010605
313.15	.6054	.0015135
317.8	.7409	.00185225

System: methanol + fenoxycarb; phases: Liquid, Crystal
Fixed: Pressure, kPa = 101
Property: Mole fraction of fenoxycarb (Liquid); method: gravimetric method
Temperature, K	Mole fraction of fenoxycarb	uncertainty
278.17	.0188	.000047
283.14	.0298	.0000745
288.17	.0551	.00013775
293.15	.1196	.000299
298.14	.2151	.00053775
303.1	.3693	.00092325
308.06	.4654	.0011635
313.15	.6426	.0016065
317.8	.7548	.001887

System: ethanol + fenoxycarb; phases: Liquid, Crystal
Fixed: Pressure, kPa = 101
Property: Mole fraction of fenoxycarb (Liquid); method: gravimetric method
Temperature, K	Mole fraction of fenoxycarb	uncertainty
278.17	.0195	.00004875
283.14	.0287	.00007175
288.17	.044	.00011
293.15	.0798	.0001995
298.14	.1578	.0003945
303.1	.2969	.00074225
308.06	.4354	.0010885
313.15	.6151	.00153775
317.8	.7348	.001837

System: ethyl acetate + fenoxycarb; phases: Liquid, Crystal
Fixed: Pressure, kPa = 101
Property: Mole fraction of fenoxycarb (Liquid); method: gravimetric method
Temperature, K	Mole fraction of fenoxycarb	uncertainty
278.17	.182	.000455
283.14	.2195	.00054875
288.17	.2694	.0006735
293.15	.3272	.000818
303.1	.4682	.0011705
313.15	.6587	.00164675

System: toluene + fenoxycarb; phases: Liquid, Crystal
Fixed: Pressure, kPa = 101
Property: Mole fraction of fenoxycarb (Liquid); method: gravimetric method
Temperature, K	Mole fraction of fenoxycarb	uncertainty
278.17	.1242	.0003105
283.14	.1648	.000412
288.17	.2143	.00053575
292.99	.2735	.00068375
303.1	.4416	.001104
313.15	.6495	.00162375
