Measured thermophysical data. Excess molar properties for binary systems of alkylimidazolium-based ionic  liquids + nitromethane. Experimental results and ERAS-model calculations
Source: J. Chem. Thermodyn., 2009, 10.1016/j.jct.2008.09.002
Compound 1: 1-butyl-3-methylimidazolium tetrafluoroborate, C8H15BF4N2
Compound 2: 1-hexyl-3-methylimidazolium tetrafluoroborate, C10H19BF4N2
Compound 3: 1-ethyl-3-methylimidazolium ethyl sulfate, C8H16N2O4S
Compound 4: 1-butyl-3-methylimidazolium methylsulfate, C9H18N2O4S
Compound 5: 1-ethyl-3-methylimidazolium trifluoromethanesulfonate, C7H11F3N2O3S
Compound 6: 1-butyl-3-methylimidazolium trifluoromethanesulfonate, C9H15F3N2O3S
Compound 7: nitromethane, CH3NO2, purity 98.5%
Compound 8: 1-butyl-3-methylpyridinium tetrafluoroborate, C10H16BF4N

System: 1-butyl-3-methylimidazolium tetrafluoroborate; phases: Liquid
Fixed: Pressure, kPa = 101.325
Property: Mass density, kg/m3 (Liquid); method: Vibrating tube method
Temperature, K	Mass density, kg/m3	uncertainty
293.15	1207.6	.1
298.15	1204.1	.1
303.15	1200.5	.1
308.15	1197	.1
313.15	1193.4	.1
318.15	1189.9	.1

System: 1-butyl-3-methylimidazolium tetrafluoroborate; phases: Liquid
Fixed: Pressure, kPa = 101.325
Property: Molar heat capacity at constant pressure, J/K/mol (Liquid); method: Small sample (50 mg) DSC
Temperature, K	Molar heat capacity at constant pressure, J/K/mol	uncertainty
293.15	359.8	1.0794
298.15	363.1	1.0893
303.15	366.1	1.0983
308.15	368.7	1.1061
313.15	371	1.113
318.15	372.9	1.1187

System: 1-butyl-3-methylimidazolium tetrafluoroborate; phases: Liquid
Fixed: Pressure, kPa = 101.325
Property: Speed of sound, m/s (Liquid); method: Anton-Paar DSA48 sound analyzer
Temperature, K	Speed of sound, m/s	uncertainty
293.15	1594.9	
298.15	1576.1	
303.15	1555.5	
308.15	1543.9	
313.15	1532.5	
318.15	1521.2	

System: 1-hexyl-3-methylimidazolium tetrafluoroborate; phases: Liquid
Fixed: Pressure, kPa = 101.325
Property: Mass density, kg/m3 (Liquid); method: Vibrating tube method
Temperature, K	Mass density, kg/m3	uncertainty
293.15	1148.8	.1
298.15	1145.3	.1
303.15	1141.8	.1
308.15	1138.4	.1
313.15	1135	.1
318.15	1131.6	.1

System: 1-hexyl-3-methylimidazolium tetrafluoroborate; phases: Liquid
Fixed: Pressure, kPa = 101.325
Property: Molar heat capacity at constant pressure, J/K/mol (Liquid); method: Small sample (50 mg) DSC
Temperature, K	Molar heat capacity at constant pressure, J/K/mol	uncertainty
293.15	425.1	1.2753
298.15	427.8	1.2834
303.15	430.4	1.2912
308.15	433	1.299
313.15	435.5	1.3065
318.15	438.1	1.3143

System: 1-hexyl-3-methylimidazolium tetrafluoroborate; phases: Liquid
Fixed: Pressure, kPa = 101.325
Property: Speed of sound, m/s (Liquid); method: Anton-Paar DSA48 sound analyzer
Temperature, K	Speed of sound, m/s	uncertainty
293.15	1532.7	
298.15	1519.5	
303.15	1506.9	
308.15	1494.5	
313.15	1482.3	
318.15	1470.5	

System: 1-ethyl-3-methylimidazolium ethyl sulfate; phases: Liquid
Fixed: Pressure, kPa = 101.325
Property: Mass density, kg/m3 (Liquid); method: Vibrating tube method
Temperature, K	Mass density, kg/m3	uncertainty
293.15	1240.6	.1
298.15	1237.2	.1
303.15	1233.8	.1
308.15	1230.4	.1
313.15	1227	.1
318.15	1223.7	.1

System: 1-ethyl-3-methylimidazolium ethyl sulfate; phases: Liquid
Fixed: Pressure, kPa = 101.325
Property: Molar heat capacity at constant pressure, J/K/mol (Liquid); method: Small sample (50 mg) DSC
Temperature, K	Molar heat capacity at constant pressure, J/K/mol	uncertainty
293.15	392.2	1.1766
298.15	394.4	1.1832
303.15	396.8	1.1904
308.15	399.3	1.1979
313.15	402	1.206
318.15	404.9	1.2147

System: 1-ethyl-3-methylimidazolium ethyl sulfate; phases: Liquid
Fixed: Pressure, kPa = 101.325
Property: Speed of sound, m/s (Liquid); method: Anton-Paar DSA48 sound analyzer
Temperature, K	Speed of sound, m/s	uncertainty
293.15	1691.4	
298.15	1679	
303.15	1666.6	
308.15	1654	
313.15	1641.6	
318.15	1629.2	

System: 1-butyl-3-methylimidazolium methylsulfate; phases: Liquid
Fixed: Pressure, kPa = 101.325
Property: Mass density, kg/m3 (Liquid); method: Vibrating tube method
Temperature, K	Mass density, kg/m3	uncertainty
293.15	1210.7	.1
298.15	1207.4	.1
303.15	1204.1	.1
308.15	1200.8	.1
313.15	1197.5	.1
318.15	1194.2	.1

System: 1-butyl-3-methylimidazolium methylsulfate; phases: Liquid
Fixed: Pressure, kPa = 101.325
Property: Molar heat capacity at constant pressure, J/K/mol (Liquid); method: Small sample (50 mg) DSC
Temperature, K	Molar heat capacity at constant pressure, J/K/mol	uncertainty
293.15	413.7	1.2411
298.15	416.2	1.2486
303.15	418.5	1.2555
308.15	420.9	1.2627
313.15	423.3	1.2699
318.15	425.6	1.2768

System: 1-butyl-3-methylimidazolium methylsulfate; phases: Liquid
Fixed: Pressure, kPa = 101.325
Property: Speed of sound, m/s (Liquid); method: Anton-Paar DSA48 sound analyzer
Temperature, K	Speed of sound, m/s	uncertainty
293.15	1670.9	
298.15	1658.4	
303.15	1646	
308.15	1633.5	
313.15	1621.1	
318.15	1608.6	

System: 1-ethyl-3-methylimidazolium trifluoromethanesulfonate; phases: Liquid
Fixed: Pressure, kPa = 101.325
Property: Mass density, kg/m3 (Liquid); method: Vibrating tube method
Temperature, K	Mass density, kg/m3	uncertainty
293.15	1389.5	.1
298.15	1385.3	.1
303.15	1381.1	.1
308.15	1376.9	.1
313.15	1372.7	.1
318.15	1368.6	.1

System: 1-ethyl-3-methylimidazolium trifluoromethanesulfonate; phases: Liquid
Fixed: Pressure, kPa = 101.325
Property: Molar heat capacity at constant pressure, J/K/mol (Liquid); method: Small sample (50 mg) DSC
Temperature, K	Molar heat capacity at constant pressure, J/K/mol	uncertainty
293.15	361.1	1.0833
298.15	363.2	1.0896
303.15	365.3	1.0959
308.15	367.4	1.1022
313.15	369.6	1.1088
318.15	371.8	1.1154

System: 1-ethyl-3-methylimidazolium trifluoromethanesulfonate; phases: Liquid
Fixed: Pressure, kPa = 101.325
Property: Speed of sound, m/s (Liquid); method: Anton-Paar DSA48 sound analyzer
Temperature, K	Speed of sound, m/s	uncertainty
293.15	1447	
298.15	1435.6	
303.15	1424.3	
308.15	1413.1	
313.15	1402.1	
318.15	1391.1	

System: 1-butyl-3-methylimidazolium trifluoromethanesulfonate; phases: Liquid
Fixed: Pressure, kPa = 101.325
Property: Mass density, kg/m3 (Liquid); method: Vibrating tube method
Temperature, K	Mass density, kg/m3	uncertainty
293.15	1301.6	.1
298.15	1297.6	.1
303.15	1293.7	.1
308.15	1289.7	.1
313.15	1285.8	.1
318.15	1281.9	.1

System: 1-butyl-3-methylimidazolium trifluoromethanesulfonate; phases: Liquid
Fixed: Pressure, kPa = 101.325
Property: Molar heat capacity at constant pressure, J/K/mol (Liquid); method: Small sample (50 mg) DSC
Temperature, K	Molar heat capacity at constant pressure, J/K/mol	uncertainty
293.15	421.6	1.2648
298.15	424.1	1.2723
303.15	426.7	1.2801
308.15	429.5	1.2885
313.15	432.4	1.2972
318.15	435.5	1.3065

System: 1-butyl-3-methylimidazolium trifluoromethanesulfonate; phases: Liquid
Fixed: Pressure, kPa = 101.325
Property: Speed of sound, m/s (Liquid); method: Anton-Paar DSA48 sound analyzer
Temperature, K	Speed of sound, m/s	uncertainty
293.15	1403.4	
298.15	1392.1	
303.15	1380.9	
308.15	1369.8	
313.15	1358.8	
318.15	1348.1	

System: nitromethane; phases: Liquid
Fixed: Pressure, kPa = 101.325
Property: Mass density, kg/m3 (Liquid); method: Vibrating tube method
Temperature, K	Mass density, kg/m3	uncertainty
293.15	1140.2	.1
298.15	1133.4	.1
303.15	1126.6	.1
308.15	1119.7	.1
313.15	1112.9	.1
318.15	1106	.1

System: nitromethane; phases: Liquid
Fixed: Pressure, kPa = 101.325
Property: Molar heat capacity at constant pressure, J/K/mol (Liquid); method: Small sample (50 mg) DSC
Temperature, K	Molar heat capacity at constant pressure, J/K/mol	uncertainty
293.15	106.6	.3198
298.15	106.9	.3207
303.15	107.3	.3219
308.15	107.7	.3231
313.15	108.2	.3246
318.15	108.6	.3258

System: nitromethane; phases: Liquid
Fixed: Pressure, kPa = 101.325
Property: Speed of sound, m/s (Liquid); method: Anton-Paar DSA48 sound analyzer
Temperature, K	Speed of sound, m/s	uncertainty
293.15	1339.6	
298.15	1320.1	
303.15	1300.5	
308.15	1280.7	
313.15	1261.1	
318.15	1241.6	

System: 1-butyl-3-methylpyridinium tetrafluoroborate; phases: Liquid
Fixed: Pressure, kPa = 101.325
Property: Speed of sound, m/s (Liquid); method: Anton-Paar DSA48 sound analyzer
Temperature, K	Speed of sound, m/s	uncertainty
293.15	1599.8	
298.15	1587	
303.15	1574.8	
308.15	1562.6	
313.15	1550.7	
318.15	1538.9	

System: nitromethane + 1-butyl-3-methylpyridinium tetrafluoroborate; phases: Liquid
Fixed: Pressure, kPa = 101.3
Fixed: Temperature, K = 303.15
Property: Excess molar enthalpy (molar enthalpy of mixing), kJ/mol (Liquid); method: Calvet calorimetry
Mole fraction of 1-butyl-3-methylpyridinium tetrafluoroborate	Excess molar enthalpy (molar enthalpy of mixing), kJ/mol	uncertainty
.0992	-.252	-.01008
.1547	-.328	-.01312
.1998	-.401	-.01604
.3029	-.443	-.01772
.3978	-.476	-.01904
.4973	-.47	-.0188
.6053	-.396	-.01584
.7038	-.336	-.01344
.795	-.233	-.00932
.8525	-.162	-.00648

System: nitromethane + 1-hexyl-3-methylimidazolium tetrafluoroborate; phases: Liquid
Fixed: Pressure, kPa = 101.3
Fixed: Temperature, K = 303.15
Property: Excess molar enthalpy (molar enthalpy of mixing), kJ/mol (Liquid); method: Calvet calorimetry
Mole fraction of 1-hexyl-3-methylimidazolium tetrafluoroborate	Excess molar enthalpy (molar enthalpy of mixing), kJ/mol	uncertainty
.1	-.073	-.00292
.2074	-.124	-.00496
.3028	-.146	-.00584
.4096	-.16	-.0064
.5095	-.159	-.00636
.6072	-.143	-.00572
.7148	-.113	-.00452
.7891	-.094	-.00376
.8821	-.05	-.002

System: nitromethane + 1-hexyl-3-methylimidazolium tetrafluoroborate; phases: Liquid
Fixed: Pressure, kPa = 101.3
Property: Mass density, kg/m3 (Liquid); method: Vibrating tube method
Temperature, K	Mole fraction of 1-hexyl-3-methylimidazolium tetrafluoroborate	Mass density, kg/m3	uncertainty
293.15	.098	1148.7	.1
293.15	.1933	1150.7	.1
293.15	.3062	1151.2	.1
293.15	.3988	1151.1	.1
293.15	.4936	1150.9	.1
293.15	.5941	1150.5	.1
293.15	.5973	1150.5	.1
293.15	.6839	1150.1	.1
293.15	.6917	1150	.1
293.15	.7702	1149.8	.1
293.15	.7767	1149.7	.1
293.15	.786	1149.6	.1
293.15	.8514	1149.3	.1
293.15	.8665	1149.2	.1
293.15	.8727	1149.2	.1
298.15	.098	1143.2	.1
298.15	.1933	1145.8	.1
298.15	.3062	1146.7	.1
298.15	.3988	1146.9	.1
298.15	.4936	1146.8	.1
298.15	.5941	1146.6	.1
298.15	.5973	1146.6	.1
298.15	.6839	1146.4	.1
298.15	.6917	1146.2	.1
298.15	.7702	1146.1	.1
298.15	.7767	1146	.1
298.15	.786	1146	.1
298.15	.8514	1145.8	.1
298.15	.8665	1145.7	.1
298.15	.8727	1145.7	.1
303.15	.098	1137.7	.1
303.15	.1933	1140.9	.1
303.15	.3062	1142.3	.1
303.15	.3988	1142.7	.1
303.15	.4936	1142.8	.1
303.15	.5941	1142.8	.1
303.15	.5973	1142.8	.1
303.15	.6839	1142.6	.1
303.15	.6917	1142.5	.1
303.15	.7702	1142.5	.1
303.15	.7767	1142.4	.1
303.15	.786	1142.4	.1
303.15	.8514	1142.3	.1
303.15	.8665	1142.1	.1
303.15	.8727	1142.2	.1
308.15	.098	1132.1	.1
308.15	.1933	1136	.1
308.15	.3062	1137.8	.1
308.15	.3988	1138.5	.1
308.15	.4936	1138.8	.1
308.15	.5941	1138.9	.1
308.15	.5973	1138.9	.1
308.15	.6839	1138.9	.1
308.15	.6917	1138.8	.1
308.15	.7702	1138.9	.1
308.15	.7767	1138.8	.1
308.15	.786	1138.8	.1
308.15	.8514	1138.7	.1
308.15	.8665	1138.6	.1
308.15	.8727	1138.6	.1
313.15	.098	1126.6	.1
313.15	.1933	1131.1	.1
313.15	.3062	1133.4	.1
313.15	.3988	1134.3	.1
313.15	.4936	1134.8	.1
313.15	.5941	1135.1	.1
313.15	.5973	1135.1	.1
313.15	.6839	1135.2	.1
313.15	.6917	1135.1	.1
313.15	.7702	1135.3	.1
313.15	.7767	1135.2	.1
313.15	.786	1135.2	.1
313.15	.8514	1135.2	.1
313.15	.8665	1135.1	.1
313.15	.8727	1135.1	.1
318.15	.098	1121	.1
318.15	.1933	1126.2	.1
318.15	.3062	1129	.1
318.15	.3988	1130.2	.1
318.15	.4936	1130.9	.1
318.15	.5941	1131.3	.1
318.15	.5973	1131.3	.1
318.15	.6839	1131.5	.1
318.15	.6917	1131.4	.1
318.15	.7702	1131.6	.1
318.15	.7767	1131.6	.1
318.15	.786	1131.6	.1
318.15	.8514	1131.7	.1
318.15	.8665	1131.6	.1
318.15	.8727	1131.6	.1

System: nitromethane + 1-hexyl-3-methylimidazolium tetrafluoroborate; phases: Liquid
Fixed: Pressure, kPa = 101.3
Property: Molar heat capacity at constant pressure, J/K/mol (Liquid); method: Small sample (50 mg) DSC
Temperature, K	Mole fraction of 1-hexyl-3-methylimidazolium tetrafluoroborate	Molar heat capacity at constant pressure, J/K/mol	uncertainty
293.15	.098	136.3	.4089
293.15	.1933	166.4	.4992
293.15	.3062	202.6	.6078
293.15	.3988	232.4	.6972
293.15	.4936	262.8	.7884
293.15	.5941	295.4	.8862
293.15	.6917	326.6	.9798
293.15	.7702	351.4	1.0542
293.15	.8665	382.6	1.1478
298.15	.098	136.7	.4101
298.15	.1933	167	.501
298.15	.3062	203.5	.6105
298.15	.3988	233.4	.7002
298.15	.4936	264	.792
298.15	.5941	296.8	.8904
298.15	.6917	328.3	.9849
298.15	.7702	353.4	1.0602
298.15	.8665	384.8	1.1544
303.15	.098	137.2	.4116
303.15	.1933	167.7	.5031
303.15	.3062	204.4	.6132
303.15	.3988	234.5	.7035
303.15	.4936	265.4	.7962
303.15	.5941	298.3	.8949
303.15	.6917	330	.99
303.15	.7702	355.4	1.0662
303.15	.8665	387	1.161
308.15	.098	137.7	.4131
308.15	.1933	168.4	.5052
308.15	.3062	205.3	.6159
308.15	.3988	235.6	.7068
308.15	.4936	266.7	.8001
308.15	.5941	299.8	.8994
308.15	.6917	331.7	.9951
308.15	.7702	357.3	1.0719
308.15	.8665	389.1	1.1673
313.15	.098	138.3	.4149
313.15	.1933	169.2	.5076
313.15	.3062	206.3	.6189
313.15	.3988	236.9	.7107
313.15	.4936	268.2	.8046
313.15	.5941	301.3	.9039
313.15	.6917	333.4	1.0002
313.15	.7702	359.2	1.0776
313.15	.8665	391.3	1.1739
318.15	.098	138.8	.4164
318.15	.1933	169.9	.5097
318.15	.3062	207.3	.6219
318.15	.3988	238.1	.7143
318.15	.4936	269.6	.8088
318.15	.5941	302.8	.9084
318.15	.6917	335	1.005
318.15	.7702	361.1	1.0833
318.15	.8665	393.4	1.1802

System: nitromethane + 1-ethyl-3-methylimidazolium ethyl sulfate; phases: Liquid
Fixed: Pressure, kPa = 101.3
Fixed: Temperature, K = 303.15
Property: Excess molar enthalpy (molar enthalpy of mixing), kJ/mol (Liquid); method: Calvet calorimetry
Mole fraction of 1-ethyl-3-methylimidazolium ethyl sulfate	Excess molar enthalpy (molar enthalpy of mixing), kJ/mol	uncertainty
.1001	-.288	-.01152
.1977	-.485	-.0194
.3075	-.594	-.02376
.4001	-.644	-.02576
.5071	-.62	-.0248
.6026	-.547	-.02188
.6953	-.451	-.01804
.8026	-.308	-.01232
.8668	-.209	-.00836

System: nitromethane + 1-ethyl-3-methylimidazolium ethyl sulfate; phases: Liquid
Fixed: Pressure, kPa = 101.3
Property: Mass density, kg/m3 (Liquid); method: Vibrating tube method
Temperature, K	Mole fraction of 1-ethyl-3-methylimidazolium ethyl sulfate	Mass density, kg/m3	uncertainty
293.15	.0513	1162.5	.1
293.15	.0991	1176.4	.1
293.15	.2013	1196.4	.1
293.15	.3095	1209.6	.1
293.15	.4073	1217.8	.1
293.15	.5056	1223.9	.1
293.15	.5489	1226.3	.1
293.15	.5944	1228.3	.1
293.15	.689	1232.1	.1
293.15	.7805	1235.1	.1
293.15	.8817	1237.9	.1
293.15	.9398	1239.3	.1
293.15	.9522	1239.6	.1
298.15	.0513	1156.4	.1
298.15	.0991	1170.9	.1
298.15	.2013	1191.5	.1
298.15	.3095	1205.1	.1
298.15	.4073	1213.6	.1
298.15	.5056	1220	.1
298.15	.5489	1222.4	.1
298.15	.5944	1224.5	.1
298.15	.689	1228.4	.1
298.15	.7805	1231.5	.1
298.15	.8817	1234.4	.1
298.15	.9398	1235.8	.1
298.15	.9522	1236.2	.1
303.15	.0513	1150.4	.1
303.15	.0991	1165.3	.1
303.15	.2013	1186.6	.1
303.15	.3095	1200.7	.1
303.15	.4073	1209.5	.1
303.15	.5056	1216	.1
303.15	.5489	1218.5	.1
303.15	.5944	1220.7	.1
303.15	.689	1224.7	.1
303.15	.7805	1228	.1
303.15	.8817	1230.9	.1
303.15	.9398	1232.4	.1
303.15	.9522	1232.7	.1
308.15	.0513	1144.3	.1
308.15	.0991	1159.7	.1
308.15	.2013	1181.7	.1
308.15	.3095	1196.2	.1
308.15	.4073	1205.3	.1
308.15	.5056	1212.1	.1
308.15	.5489	1214.6	.1
308.15	.5944	1216.9	.1
308.15	.689	1221	.1
308.15	.7805	1224.4	.1
308.15	.8817	1227.5	.1
308.15	.9398	1229	.1
308.15	.9522	1229.3	.1
313.15	.0513	1138.2	.1
313.15	.0991	1154.2	.1
313.15	.2013	1176.9	.1
313.15	.3095	1191.8	.1
313.15	.4073	1201.2	.1
313.15	.5056	1208.2	.1
313.15	.5489	1210.8	.1
313.15	.5944	1213.1	.1
313.15	.689	1217.4	.1
313.15	.7805	1220.9	.1
313.15	.8817	1224	.1
313.15	.9398	1225.6	.1
313.15	.9522	1225.9	.1
318.15	.0513	1132.2	.1
318.15	.0991	1148.6	.1
318.15	.2013	1172	.1
318.15	.3095	1187.4	.1
318.15	.4073	1197.1	.1
318.15	.5056	1204.2	.1
318.15	.5489	1207	.1
318.15	.5944	1209.3	.1
318.15	.689	1213.8	.1
318.15	.7805	1217.3	.1
318.15	.8817	1220.6	.1
318.15	.9398	1222.2	.1
318.15	.9522	1222.5	.1

System: nitromethane + 1-ethyl-3-methylimidazolium ethyl sulfate; phases: Liquid
Fixed: Pressure, kPa = 101.3
Property: Molar heat capacity at constant pressure, J/K/mol (Liquid); method: Small sample (50 mg) DSC
Temperature, K	Mole fraction of 1-ethyl-3-methylimidazolium ethyl sulfate	Molar heat capacity at constant pressure, J/K/mol	uncertainty
293.15	.0513	120.8	.3624
293.15	.0991	134.3	.4029
293.15	.2013	164	.492
293.15	.3095	195.4	.5862
293.15	.4073	223.5	.6705
293.15	.5489	264	.792
293.15	.689	304	.912
293.15	.7805	329.9	.9897
293.15	.8817	358.6	1.0758
298.15	.0513	121.1	.3633
298.15	.0991	134.7	.4041
298.15	.2013	164.6	.4938
298.15	.3095	196.1	.5883
298.15	.4073	224.4	.6732
298.15	.5489	265.2	.7956
298.15	.689	305.5	.9165
298.15	.7805	331.6	.9948
298.15	.8817	360.5	1.0815
303.15	.0513	121.6	.3648
303.15	.0991	135.3	.4059
303.15	.2013	165.3	.4959
303.15	.3095	196.9	.5907
303.15	.4073	225.5	.6765
303.15	.5489	266.6	.7998
303.15	.689	307.2	.9216
303.15	.7805	333.5	1.0005
303.15	.8817	362.6	1.0878
308.15	.0513	122.1	.3663
308.15	.0991	135.9	.4077
308.15	.2013	166	.498
308.15	.3095	197.8	.5934
308.15	.4073	226.7	.6801
308.15	.5489	268.1	.8043
308.15	.689	308.9	.9267
308.15	.7805	335.5	1.0065
308.15	.8817	364.8	1.0944
313.15	.0513	122.7	.3681
313.15	.0991	136.6	.4098
313.15	.2013	166.8	.5004
313.15	.3095	198.7	.5961
313.15	.4073	227.9	.6837
313.15	.5489	269.7	.8091
313.15	.689	310.9	.9327
313.15	.7805	337.7	1.0131
313.15	.8817	367.1	1.1013
318.15	.0513	123.2	.3696
318.15	.0991	137.2	.4116
318.15	.2013	167.6	.5028
318.15	.3095	199.7	.5991
318.15	.4073	229.2	.6876
318.15	.5489	271.4	.8142
318.15	.689	312.9	.9387
318.15	.7805	340	1.02
318.15	.8817	369.6	1.1088

System: nitromethane + 1-ethyl-3-methylimidazolium trifluoromethanesulfonate; phases: Liquid
Fixed: Pressure, kPa = 101.3
Fixed: Temperature, K = 303.15
Property: Excess molar enthalpy (molar enthalpy of mixing), kJ/mol (Liquid); method: Calvet calorimetry
Mole fraction of 1-ethyl-3-methylimidazolium trifluoromethanesulfonate	Excess molar enthalpy (molar enthalpy of mixing), kJ/mol	uncertainty
.1234	-.126	-.00504
.2533	-.191	-.00764
.3774	-.196	-.00784
.5026	-.201	-.00804
.6253	-.167	-.00668
.7438	-.125	-.005
.8668	-.058	-.00232

System: nitromethane + 1-ethyl-3-methylimidazolium trifluoromethanesulfonate; phases: Liquid
Fixed: Pressure, kPa = 101.3
Property: Mass density, kg/m3 (Liquid); method: Vibrating tube method
Temperature, K	Mole fraction of 1-ethyl-3-methylimidazolium trifluoromethanesulfonate	Mass density, kg/m3	uncertainty
293.15	.0525	1186.8	.1
293.15	.0981	1217.2	.1
293.15	.2013	1266.6	.1
293.15	.3063	1300.5	.1
293.15	.4027	1323.1	.1
293.15	.4995	1340.5	.1
293.15	.5934	1353.9	.1
293.15	.6847	1364.4	.1
293.15	.7698	1372.6	.1
293.15	.8671	1380.5	.1
298.15	.0525	1180.5	.1
298.15	.0981	1211.2	.1
298.15	.2013	1261.1	.1
298.15	.3063	1295.4	.1
298.15	.4027	1318.2	.1
298.15	.4995	1335.7	.1
298.15	.5934	1349.2	.1
298.15	.6847	1359.9	.1
298.15	.7698	1368.2	.1
298.15	.8671	1376.2	.1
303.15	.0525	1174.3	.1
303.15	.0981	1205.3	.1
303.15	.2013	1255.7	.1
303.15	.3063	1290.3	.1
303.15	.4027	1313.3	.1
303.15	.4995	1331	.1
303.15	.5934	1344.7	.1
303.15	.6847	1355.4	.1
303.15	.7698	1363.8	.1
303.15	.8671	1371.9	.1
308.15	.0525	1168	.1
308.15	.0981	1199.3	.1
308.15	.2013	1250.2	.1
308.15	.3063	1285.2	.1
308.15	.4027	1308.4	.1
308.15	.4995	1326.3	.1
308.15	.5934	1340.1	.1
308.15	.6847	1351	.1
308.15	.7698	1359.4	.1
308.15	.8671	1367.6	.1
313.15	.0525	1161.7	.1
313.15	.0981	1193.4	.1
313.15	.2013	1244.8	.1
313.15	.3063	1280.1	.1
313.15	.4027	1303.6	.1
313.15	.4995	1321.6	.1
313.15	.5934	1335.5	.1
313.15	.6847	1346.5	.1
313.15	.7698	1355.1	.1
313.15	.8671	1363.4	.1
318.15	.0525	1155.4	.1
318.15	.0981	1187.4	.1
318.15	.2013	1239.3	.1
318.15	.3063	1275	.1
318.15	.4027	1298.7	.1
318.15	.4995	1316.9	.1
318.15	.5934	1331	.1
318.15	.6847	1342.1	.1
318.15	.7698	1350.7	.1
318.15	.8671	1359.1	.1

System: nitromethane + 1-ethyl-3-methylimidazolium trifluoromethanesulfonate; phases: Liquid
Fixed: Pressure, kPa = 101.3
Property: Molar heat capacity at constant pressure, J/K/mol (Liquid); method: Small sample (50 mg) DSC
Temperature, K	Mole fraction of 1-ethyl-3-methylimidazolium trifluoromethanesulfonate	Molar heat capacity at constant pressure, J/K/mol	uncertainty
293.15	.0525	119.2	.3576
293.15	.0981	130.6	.3918
293.15	.2013	157	.471
293.15	.3063	183.7	.5511
293.15	.4027	208.2	.6246
293.15	.4995	233.2	.6996
293.15	.5934	257.3	.7719
293.15	.6847	280.5	.8415
293.15	.7698	301.6	.9048
293.15	.8671	326.9	.9807
298.15	.0525	119.5	.3585
298.15	.0981	130.9	.3927
298.15	.2013	157.6	.4728
298.15	.3063	184.4	.5532
298.15	.4027	209.1	.6273
298.15	.4995	234.3	.7029
298.15	.5934	258.5	.7755
298.15	.6847	281.9	.8457
298.15	.7698	303.3	.9099
298.15	.8671	328.8	.9864
303.15	.0525	120	.36
303.15	.0981	131.4	.3942
303.15	.2013	158.3	.4749
303.15	.3063	185.2	.5556
303.15	.4027	210.1	.6303
303.15	.4995	235.5	.7065
303.15	.5934	259.9	.7797
303.15	.6847	283.3	.8499
303.15	.7698	305	.915
303.15	.8671	330.7	.9921
308.15	.0525	120.4	.3612
308.15	.0981	131.8	.3954
308.15	.2013	159.1	.4773
308.15	.3063	186.1	.5583
308.15	.4027	211.1	.6333
308.15	.4995	236.7	.7101
308.15	.5934	261.3	.7839
308.15	.6847	284.8	.8544
308.15	.7698	306.7	.9201
308.15	.8671	332.7	.9981
313.15	.0525	121	.363
313.15	.0981	132.4	.3972
313.15	.2013	160	.48
313.15	.3063	187	.561
313.15	.4027	212.1	.6363
313.15	.4995	238	.714
313.15	.5934	262.7	.7881
313.15	.6847	286.3	.8589
313.15	.7698	308.5	.9255
313.15	.8671	334.7	1.0041
318.15	.0525	121.4	.3642
318.15	.0981	132.8	.3984
318.15	.2013	160.8	.4824
318.15	.3063	188	.564
318.15	.4027	213	.639
318.15	.4995	239.2	.7176
318.15	.5934	264.2	.7926
318.15	.6847	287.8	.8634
318.15	.7698	310.3	.9309
318.15	.8671	336.7	1.0101

System: nitromethane + 1-butyl-3-methylimidazolium trifluoromethanesulfonate; phases: Liquid
Fixed: Pressure, kPa = 101.3
Fixed: Temperature, K = 303.15
Property: Excess molar enthalpy (molar enthalpy of mixing), kJ/mol (Liquid); method: Calvet calorimetry
Mole fraction of 1-butyl-3-methylimidazolium trifluoromethanesulfonate	Excess molar enthalpy (molar enthalpy of mixing), kJ/mol	uncertainty
.1022	.039	.00156
.1994	.057	.00228
.3029	.062	.00248
.4044	.059	.00236
.5067	.056	.00224
.5931	.045	.0018
.703	.031	.00124
.7814	.005	.0002
.8933	-.009	-.00036

System: nitromethane + 1-butyl-3-methylimidazolium trifluoromethanesulfonate; phases: Liquid
Fixed: Pressure, kPa = 101.3
Property: Mass density, kg/m3 (Liquid); method: Vibrating tube method
Temperature, K	Mole fraction of 1-butyl-3-methylimidazolium trifluoromethanesulfonate	Mass density, kg/m3	uncertainty
293.15	.0495	1173.6	.1
293.15	.0972	1196.4	.1
293.15	.2021	1229.9	.1
293.15	.2955	1249.1	.1
293.15	.4015	1264.3	.1
293.15	.495	1274.2	.1
293.15	.5993	1282.6	.1
293.15	.6939	1288.6	.1
293.15	.7858	1293.3	.1
293.15	.8697	1296.9	.1
293.15	.9286	1299.1	.1
298.15	.0495	1167.4	.1
298.15	.0972	1190.6	.1
298.15	.2021	1224.7	.1
298.15	.2955	1244.2	.1
298.15	.4015	1259.7	.1
298.15	.495	1269.7	.1
298.15	.5993	1278.2	.1
298.15	.6939	1284.3	.1
298.15	.7858	1289.1	.1
298.15	.8697	1292.8	.1
298.15	.9286	1295.1	.1
303.15	.0495	1161.2	.1
303.15	.0972	1184.8	.1
303.15	.2021	1219.4	.1
303.15	.2955	1239.3	.1
303.15	.4015	1255	.1
303.15	.495	1265.2	.1
303.15	.5993	1273.9	.1
303.15	.6939	1280.1	.1
303.15	.7858	1285	.1
303.15	.8697	1288.8	.1
303.15	.9286	1291.1	.1
308.15	.0495	1154.9	.1
308.15	.0972	1178.9	.1
308.15	.2021	1214.2	.1
308.15	.2955	1234.3	.1
308.15	.4015	1250.3	.1
308.15	.495	1260.7	.1
308.15	.5993	1269.6	.1
308.15	.6939	1275.9	.1
308.15	.7858	1280.9	.1
308.15	.8697	1284.7	.1
308.15	.9286	1287.1	.1
313.15	.0495	1148.8	.1
313.15	.0972	1173.2	.1
313.15	.2021	1209	.1
313.15	.2955	1229.5	.1
313.15	.4015	1245.7	.1
313.15	.495	1256.3	.1
313.15	.5993	1265.3	.1
313.15	.6939	1271.7	.1
313.15	.7858	1276.8	.1
313.15	.8697	1280.7	.1
313.15	.9286	1283.1	.1
318.15	.0495	1142.5	.1
318.15	.0972	1167.4	.1
318.15	.2021	1203.7	.1
318.15	.2955	1224.6	.1
318.15	.4015	1241.1	.1
318.15	.495	1251.8	.1
318.15	.5993	1261	.1
318.15	.6939	1267.5	.1
318.15	.7858	1272.7	.1
318.15	.8697	1276.7	.1
318.15	.9286	1279.1	.1

System: nitromethane + 1-butyl-3-methylimidazolium trifluoromethanesulfonate; phases: Liquid
Fixed: Pressure, kPa = 101.3
Property: Molar heat capacity at constant pressure, J/K/mol (Liquid); method: Small sample (50 mg) DSC
Temperature, K	Mole fraction of 1-butyl-3-methylimidazolium trifluoromethanesulfonate	Molar heat capacity at constant pressure, J/K/mol	uncertainty
293.15	.0495	121.1	.3633
293.15	.0972	136	.408
293.15	.2021	168.8	.5064
293.15	.2955	198.5	.5955
293.15	.4015	231.5	.6945
293.15	.495	261.4	.7842
293.15	.5993	294.6	.8838
293.15	.6939	324.4	.9732
293.15	.7858	353.8	1.0614
293.15	.8697	380.5	1.1415
293.15	.9286	398.8	1.1964
298.15	.0495	121.4	.3642
298.15	.0972	136.4	.4092
298.15	.2021	169.4	.5082
298.15	.2955	199.4	.5982
298.15	.4015	232.6	.6978
298.15	.495	262.6	.7878
298.15	.5993	296.1	.8883
298.15	.6939	326.1	.9783
298.15	.7858	355.6	1.0668
298.15	.8697	382.7	1.1481
298.15	.9286	400.9	1.2027
303.15	.0495	121.8	.3654
303.15	.0972	137	.411
303.15	.2021	170.1	.5103
303.15	.2955	200.3	.6009
303.15	.4015	233.9	.7017
303.15	.495	263.9	.7917
303.15	.5993	297.8	.8934
303.15	.6939	327.9	.9837
303.15	.7858	357.5	1.0725
303.15	.8697	385	1.155
303.15	.9286	403.3	1.2099
308.15	.0495	122.3	.3669
308.15	.0972	137.5	.4125
308.15	.2021	170.9	.5127
308.15	.2955	201.4	.6042
308.15	.4015	235.2	.7056
308.15	.495	265.3	.7959
308.15	.5993	299.5	.8985
308.15	.6939	329.8	.9894
308.15	.7858	359.6	1.0788
308.15	.8697	387.4	1.1622
308.15	.9286	405.7	1.2171
313.15	.0495	122.8	.3684
313.15	.0972	138.2	.4146
313.15	.2021	171.7	.5151
313.15	.2955	202.5	.6075
313.15	.4015	236.6	.7098
313.15	.495	266.8	.8004
313.15	.5993	301.3	.9039
313.15	.6939	331.8	.9954
313.15	.7858	361.8	1.0854
313.15	.8697	389.9	1.1697
313.15	.9286	408.3	1.2249
318.15	.0495	123.3	.3699
318.15	.0972	138.7	.4161
318.15	.2021	172.5	.5175
318.15	.2955	203.6	.6108
318.15	.4015	238	.714
318.15	.495	268.3	.8049
318.15	.5993	303.2	.9096
318.15	.6939	334	1.002
318.15	.7858	364.1	1.0923
318.15	.8697	392.6	1.1778
318.15	.9286	411.1	1.2333

System: nitromethane + 1-butyl-3-methylimidazolium tetrafluoroborate; phases: Liquid
Fixed: Pressure, kPa = 101.3
Property: Mass density, kg/m3 (Liquid); method: Vibrating tube method
Temperature, K	Mole fraction of 1-butyl-3-methylimidazolium tetrafluoroborate	Mass density, kg/m3	uncertainty
293.15	.1007	1167	.1
293.15	.2066	1181.1	.1
293.15	.2597	1185.9	.1
293.15	.3069	1189.3	.1
293.15	.3957	1194.4	.1
293.15	.41	1195	.1
293.15	.4866	1198.1	.1
293.15	.5058	1198.7	.1
293.15	.6016	1201.5	.1
293.15	.6455	1202.6	.1
293.15	.6837	1203.4	.1
293.15	.7793	1205.1	.1
293.15	.8867	1206.5	.1
298.15	.1007	1161.3	.1
298.15	.2066	1176.1	.1
298.15	.2597	1181.1	.1
298.15	.3069	1184.7	.1
298.15	.3957	1190	.1
298.15	.41	1190.6	.1
298.15	.4866	1193.9	.1
298.15	.5058	1194.6	.1
298.15	.6016	1197.5	.1
298.15	.6455	1198.6	.1
298.15	.6837	1199.5	.1
298.15	.7793	1201.3	.1
298.15	.8867	1202.9	.1
303.15	.1007	1155.7	.1
303.15	.2066	1171.1	.1
303.15	.2597	1176.4	.1
303.15	.3069	1180.1	.1
303.15	.3957	1185.6	.1
303.15	.41	1186.3	.1
303.15	.4866	1189.7	.1
303.15	.5058	1190.4	.1
303.15	.6016	1193.5	.1
303.15	.6455	1194.7	.1
303.15	.6837	1195.6	.1
303.15	.7793	1197.5	.1
303.15	.8867	1199.2	.1
308.15	.1007	1150	.1
308.15	.2066	1166	.1
308.15	.2597	1171.5	.1
308.15	.3069	1175.4	.1
308.15	.3957	1181.2	.1
308.15	.41	1181.9	.1
308.15	.4866	1185.5	.1
308.15	.5058	1186.3	.1
308.15	.6016	1189.5	.1
308.15	.6455	1190.8	.1
308.15	.6837	1191.7	.1
308.15	.7793	1193.7	.1
308.15	.8867	1195.6	.1
313.15	.1007	1144.4	.1
313.15	.2066	1161.1	.1
313.15	.2597	1166.8	.1
313.15	.3069	1170.9	.1
313.15	.3957	1176.9	.1
313.15	.41	1177.6	.1
313.15	.4866	1181.4	.1
313.15	.5058	1182.2	.1
313.15	.6016	1185.5	.1
313.15	.6455	1186.9	.1
313.15	.6837	1187.9	.1
313.15	.7793	1190	.1
313.15	.8867	1191.9	.1
318.15	.1007	1138.7	.1
318.15	.2066	1156.1	.1
318.15	.2597	1162.1	.1
318.15	.3069	1166.3	.1
318.15	.3957	1172.5	.1
318.15	.41	1173.3	.1
318.15	.4866	1177.2	.1
318.15	.5058	1178	.1
318.15	.6016	1181.6	.1
318.15	.6455	1183	.1
318.15	.6837	1184	.1
318.15	.7793	1186.3	.1
318.15	.8867	1188.3	.1

System: nitromethane + 1-butyl-3-methylimidazolium tetrafluoroborate; phases: Liquid
Fixed: Pressure, kPa = 101.3
Property: Molar heat capacity at constant pressure, J/K/mol (Liquid); method: Small sample (50 mg) DSC
Temperature, K	Mole fraction of 1-butyl-3-methylimidazolium tetrafluoroborate	Molar heat capacity at constant pressure, J/K/mol	uncertainty
293.15	.0525	119.2	.3576
293.15	.1029	131.6	.3948
293.15	.1943	154.9	.4647
293.15	.2941	180.5	.5415
293.15	.3911	205.4	.6162
293.15	.5609	248.8	.7464
293.15	.7062	285.8	.8574
293.15	.7578	299	.897
293.15	.897	334.5	1.0035
293.15	.9436	346.4	1.0392
293.15	.9716	353.6	1.0608
298.15	.0525	119.6	.3588
298.15	.1029	132.1	.3963
298.15	.1943	155.6	.4668
298.15	.2941	181.5	.5445
298.15	.3911	206.7	.6201
298.15	.5609	250.6	.7518
298.15	.7062	288.1	.8643
298.15	.7578	301.4	.9042
298.15	.897	337.4	1.0122
298.15	.9436	349.5	1.0485
298.15	.9716	356.7	1.0701
303.15	.0525	120	.36
303.15	.1029	132.7	.3981
303.15	.1943	156.4	.4692
303.15	.2941	182.5	.5475
303.15	.3911	208	.624
303.15	.5609	252.3	.7569
303.15	.7062	290.2	.8706
303.15	.7578	303.7	.9111
303.15	.897	340	1.02
303.15	.9436	352.3	1.0569
303.15	.9716	359.5	1.0785
308.15	.0525	120.5	.3615
308.15	.1029	133.3	.3999
308.15	.1943	157.1	.4713
308.15	.2941	183.3	.5499
308.15	.3911	209.1	.6273
308.15	.5609	253.8	.7614
308.15	.7062	292.1	.8763
308.15	.7578	305.6	.9168
308.15	.897	342.3	1.0269
308.15	.9436	354.7	1.0641
308.15	.9716	362	1.086
313.15	.0525	121	.363
313.15	.1029	133.9	.4017
313.15	.1943	157.8	.4734
313.15	.2941	184.1	.5523
313.15	.3911	210.1	.6303
313.15	.5609	255.1	.7653
313.15	.7062	293.7	.8811
313.15	.7578	307.3	.9219
313.15	.897	344.2	1.0326
313.15	.9436	356.8	1.0704
313.15	.9716	364.1	1.0923
318.15	.0525	121.4	.3642
318.15	.1029	134.3	.4029
318.15	.1943	158.3	.4749
318.15	.2941	184.7	.5541
318.15	.3911	210.9	.6327
318.15	.5609	256.2	.7686
318.15	.7062	295.1	.8853
318.15	.7578	308.7	.9261
318.15	.897	345.9	1.0377
318.15	.9436	358.5	1.0755
318.15	.9716	365.8	1.0974

System: nitromethane + 1-butyl-3-methylimidazolium methylsulfate; phases: Liquid
Fixed: Pressure, kPa = 101.3
Property: Mass density, kg/m3 (Liquid); method: Vibrating tube method
Temperature, K	Mole fraction of 1-butyl-3-methylimidazolium methylsulfate	Mass density, kg/m3	uncertainty
293.15	.0522	1158.1	.1
293.15	.1	1168.5	.1
293.15	.1966	1182.1	.1
293.15	.3059	1191.3	.1
293.15	.4061	1196.9	.1
293.15	.5025	1200.8	.1
293.15	.5889	1203.5	.1
293.15	.6844	1205.9	.1
293.15	.7832	1207.8	.1
293.15	.8654	1209.1	.1
293.15	.9289	1210	.1
298.15	.0522	1152.1	.1
298.15	.1	1163	.1
298.15	.1966	1177.3	.1
298.15	.3059	1186.9	.1
298.15	.4061	1192.8	.1
298.15	.5025	1196.9	.1
298.15	.5889	1199.8	.1
298.15	.6844	1202.2	.1
298.15	.7832	1204.3	.1
298.15	.8654	1205.7	.1
298.15	.9289	1206.7	.1
303.15	.0522	1146.1	.1
303.15	.1	1157.5	.1
303.15	.1966	1172.4	.1
303.15	.3059	1182.6	.1
303.15	.4061	1188.7	.1
303.15	.5025	1193	.1
303.15	.5889	1196	.1
303.15	.6844	1198.6	.1
303.15	.7832	1200.8	.1
303.15	.8654	1202.3	.1
303.15	.9289	1203.3	.1
308.15	.0522	1140.1	.1
308.15	.1	1152	.1
308.15	.1966	1167.6	.1
308.15	.3059	1178.2	.1
308.15	.4061	1184.7	.1
308.15	.5025	1189.2	.1
308.15	.5889	1192.3	.1
308.15	.6844	1195	.1
308.15	.7832	1197.4	.1
308.15	.8654	1199	.1
308.15	.9289	1200	.1
313.15	.0522	1134.1	.1
313.15	.1	1146.5	.1
313.15	.1966	1162.8	.1
313.15	.3059	1173.9	.1
313.15	.4061	1180.6	.1
313.15	.5025	1185.3	.1
313.15	.5889	1188.6	.1
313.15	.6844	1191.5	.1
313.15	.7832	1193.9	.1
313.15	.8654	1195.6	.1
313.15	.9289	1196.6	.1
318.15	.0522	1128.1	.1
318.15	.1	1141	.1
318.15	.1966	1158	.1
318.15	.3059	1169.5	.1
318.15	.4061	1176.6	.1
318.15	.5025	1181.5	.1
318.15	.5889	1184.9	.1
318.15	.6844	1187.9	.1
318.15	.7832	1190.4	.1
318.15	.8654	1192.2	.1
318.15	.9289	1193.3	.1

System: nitromethane + 1-butyl-3-methylimidazolium methylsulfate; phases: Liquid
Fixed: Pressure, kPa = 101.3
Property: Molar heat capacity at constant pressure, J/K/mol (Liquid); method: Small sample (50 mg) DSC
Temperature, K	Mole fraction of 1-butyl-3-methylimidazolium methylsulfate	Molar heat capacity at constant pressure, J/K/mol	uncertainty
293.15	.0522	122.1	.3663
293.15	.1	136.5	.4095
293.15	.1966	166.4	.4992
293.15	.3059	200.5	.6015
293.15	.4061	231.4	.6942
293.15	.5025	261.5	.7845
293.15	.5889	288	.864
293.15	.6844	317.2	.9516
293.15	.7832	347.4	1.0422
293.15	.8654	372.6	1.1178
293.15	.9289	392.1	1.1763
298.15	.0522	122.4	.3672
298.15	.1	137	.411
298.15	.1966	167	.501
298.15	.3059	201.3	.6039
298.15	.4061	232.5	.6975
298.15	.5025	262.7	.7881
298.15	.5889	289.4	.8682
298.15	.6844	318.9	.9567
298.15	.7832	349.2	1.0476
298.15	.8654	374.6	1.1238
298.15	.9289	394.3	1.1829
303.15	.0522	122.8	.3684
303.15	.1	137.5	.4125
303.15	.1966	167.7	.5031
303.15	.3059	202.3	.6069
303.15	.4061	233.6	.7008
303.15	.5025	263.9	.7917
303.15	.5889	290.9	.8727
303.15	.6844	320.6	.9618
303.15	.7832	351.1	1.0533
303.15	.8654	376.7	1.1301
303.15	.9289	396.5	1.1895
308.15	.0522	123.3	.3699
308.15	.1	138.1	.4143
308.15	.1966	168.4	.5052
308.15	.3059	203.2	.6096
308.15	.4061	234.8	.7044
308.15	.5025	265.1	.7953
308.15	.5889	292.4	.8772
308.15	.6844	322.2	.9666
308.15	.7832	352.9	1.0587
308.15	.8654	378.7	1.1361
308.15	.9289	398.7	1.1961
313.15	.0522	123.8	.3714
313.15	.1	138.7	.4161
313.15	.1966	169.1	.5073
313.15	.3059	204.1	.6123
313.15	.4061	235.9	.7077
313.15	.5025	266.3	.7989
313.15	.5889	293.8	.8814
313.15	.6844	323.9	.9717
313.15	.7832	354.7	1.0641
313.15	.8654	380.8	1.1424
313.15	.9289	400.8	1.2024
318.15	.0522	124.2	.3726
318.15	.1	139.1	.4173
318.15	.1966	169.7	.5091
318.15	.3059	205	.615
318.15	.4061	237	.711
318.15	.5025	267.4	.8022
318.15	.5889	295.3	.8859
318.15	.6844	325.6	.9768
318.15	.7832	356.5	1.0695
318.15	.8654	382.8	1.1484
318.15	.9289	403	1.209
