Measured thermophysical data. Ferulic acid solubility in supercritical carbon dioxide, ethanol and water mixtures
Source: J. Chem. Thermodyn., 2016, 10.1016/j.jct.2016.08.025
Compound 1: trans-ferulic acid, C10H10O4, purity 99%
Compound 2: carbon dioxide, CO2, purity 99.5%
Compound 3: ethanol, C2H6O
Compound 4: water, H2O, purity 99.8%

System: ethanol + trans-ferulic acid; phases: Liquid, Crystal
Fixed: Pressure, kPa = 94.3
Property: Mole fraction of trans-ferulic acid (Liquid); method: gravimetric method
Temperature, K	Mole fraction of trans-ferulic acid	uncertainty
293	.0234	
298	.026	
303	.0292	
308	.0307	
313	.0351	
318	.0405	
323	.045	
328	.049	
333	.058	

System: trans-ferulic acid + water; phases: Liquid, Crystal
Fixed: Pressure, kPa = 94.3
Property: Mole fraction of trans-ferulic acid (Liquid); method: gravimetric method
Temperature, K	Mole fraction of trans-ferulic acid	uncertainty
293	.000046	
298	.000049	
303	.000062	
308	.000079	
313	.000113	
318	.000135	
323	.000171	
328	.00022	
333	.00027	

System: ethanol + carbon dioxide + trans-ferulic acid; phases: Fluid (supercritical or subcritical phases), Crystal
Property: Mole fraction of trans-ferulic acid (Fluid (supercritical or subcritical phases)); method: gravimetric method
Temperature, K	Pressure, kPa	Solvent: Mole fraction of ethanol	Mole fraction of trans-ferulic acid	uncertainty
313	20000	.0578	.000189	
313	20000	.1092	.00049	
313	30000	.0537	.00028	
313	30000	.1058	.00056	
313	40000	.0545	.000292	
313	40000	.1062	.0007	
323	20000	.0545	.00026	
323	20000	.1091	.0008	
323	30000	.0543	.00043	
323	30000	.1052	.00104	
323	40000	.0548	.00039	
323	40000	.1034	.00084	
333	20000	.0548	.000336	
333	20000	.117	.0013	
333	30000	.0546	.0004	
333	30000	.1059	.00165	
333	40000	.0551	.000387	
333	40000	.1043	.0019	
