Measured thermophysical data. High pressure measurement and thermodynamic modelling of the solubility of carbon dioxide in N-methyldiethanolamine and 1-butyl-3-methylimidazolium acetate mixture
Source: J. Chem. Thermodyn., 2015, 10.1016/j.jct.2014.10.011
Compound 1: 1-butyl-3-methylimidazolium acetate, C10H18N2O2, purity 95%
Compound 2: carbon dioxide, CO2, purity 99.998%
Compound 3: N-methyldiethanolamine, C5H13NO2, purity 99%

System: N-methyldiethanolamine + carbon dioxide + 1-butyl-3-methylimidazolium acetate; phases: Liquid, Gas
Property: Molality, mol/kg of carbon dioxide (Liquid); method: volumetric method
Temperature, K	Pressure, kPa	Solvent: Mass fraction of 1-butyl-3-methylimidazolium acetate	Molality, mol/kg of carbon dioxide	uncertainty
303.15	265.2	.7	1.4	.01
303.15	454	.7	1.7	.01
303.15	696.2	.7	2	.01
303.15	1157.4	.7	2.45	.01
303.15	1572.2	.7	2.8	.08
303.15	2166.4	.7	3.24	.07
303.15	2777	.7	3.67	.02
303.15	3619.5	.7	4.23	.01
343.15	419.3	.7	.92	.01
343.15	676.1	.7	1.13	.01
343.15	974.5	.7	1.34	.01
343.15	1318.1	.7	1.54	.01
343.15	1797.3	.7	1.79	.01
343.15	2348.5	.7	2.06	.01
343.15	2914.8	.7	2.32	.01
343.15	3676	.7	2.63	.01
303.15	369.7	.5	1.23	.01
303.15	572.2	.5	1.53	.01
303.15	832.7	.5	1.83	.01
303.15	1228.1	.5	2.23	.01
303.15	1759.5	.5	2.65	.03
303.15	2328.8	.5	3.03	.03
303.15	2885.2	.5	3.41	.04
303.15	3609	.5	3.87	.02
343.15	169.9	.5	.4	.04
343.15	363.6	.5	.62	.02
343.15	662.4	.5	.87	.02
343.15	995.6	.5	1.06	.02
343.15	1391.8	.5	1.26	.01
343.15	1908	.5	1.51	.01
343.15	2472.8	.5	1.76	.01
343.15	3051.6	.5	2.1	.14
343.15	3872.1	.5	2.44	.14
