Measured thermophysical data. Determination and modeling of binary and ternary solid-liquid phase equilibrium for the systems formed by 3,5-dinitrobenzoic acid, m-nitrobenzoic acid and acetone
Source: J. Chem. Thermodyn., 2017, 10.1016/j.jct.2016.10.004
Compound 1: m-nitrobenzoic acid, C7H5NO4, purity 98.1%
Compound 2: 3,5-dinitrobenzoic acid, C7H4N2O6, purity 98.5%
Compound 3: acetone, C3H6O, purity 99.5%

System: acetone + 3,5-dinitrobenzoic acid; phases: Liquid, Crystal
Fixed: Pressure, kPa = 101.2
Property: Mole fraction of 3,5-dinitrobenzoic acid (Liquid); method: Chromatography
Temperature, K	Mole fraction of 3,5-dinitrobenzoic acid	uncertainty
283.15	.0939	
285.65	.0967	
288.15	.0996	
290.65	.1025	
293.15	.1056	
295.65	.1084	
298.15	.1119	
300.65	.1152	
303.15	.1189	
305.65	.1227	
308.15	.127	
310.65	.1313	
313.15	.1355	
315.65	.1403	
318.15	.1458	

System: acetone + 3,5-dinitrobenzoic acid + m-nitrobenzoic acid; phases: Liquid, Crystal
Fixed: Pressure, kPa = 101.2
Property: Mass fraction of 3,5-dinitrobenzoic acid (Liquid); method: Chromatography
Temperature, K	Mass fraction of m-nitrobenzoic acid	Mass fraction of 3,5-dinitrobenzoic acid	uncertainty
283.15	0	.2746	
283.15	.0611	.2519	
283.15	.1348	.2379	
283.15	.2106	.2129	
283.15	.2617	.1922	
283.15	.275	.1784	
298.15	0	.3152	
298.15	.0934	.2797	
298.15	.1801	.2581	
298.15	.2631	.2351	
298.15	.3135	.2186	
298.15	.3468	.1953	
313.15	0	.364	
313.15	.1098	.3239	
313.15	.2125	.2827	
313.15	.3117	.2454	
313.15	.3913	.2216	
313.15	.4142	.2028	

System: acetone + 3,5-dinitrobenzoic acid + m-nitrobenzoic acid; phases: Liquid, Crystal
Fixed: Pressure, kPa = 101.2
Property: Mass fraction of m-nitrobenzoic acid (Liquid); method: Chromatography
Temperature, K	Mass fraction of 3,5-dinitrobenzoic acid	Mass fraction of m-nitrobenzoic acid	uncertainty
283.15	.1784	.275	
283.15	.1457	.2873	
283.15	.1092	.3021	
283.15	.0602	.3206	
283.15	.0273	.3317	
298.15	.1953	.3468	
298.15	.1373	.3694	
298.15	.1054	.3795	
298.15	.0738	.3985	
298.15	.0272	.4191	
313.15	.2028	.4142	
313.15	.1666	.4207	
313.15	.125	.4428	
313.15	.0861	.4636	
313.15	.0445	.4871	

System: acetone + 3,5-dinitrobenzoic acid + m-nitrobenzoic acid; phases: Liquid, Crystal, Crystal
Fixed: Pressure, kPa = 101.2
Property: Mass fraction of m-nitrobenzoic acid (Liquid); method: Chromatography
Temperature, K	Mass fraction of m-nitrobenzoic acid	uncertainty
283.15	.275	
298.15	.3468	
313.15	.4142	

System: acetone + 3,5-dinitrobenzoic acid + m-nitrobenzoic acid; phases: Liquid, Crystal, Crystal
Fixed: Pressure, kPa = 101.2
Property: Mass fraction of 3,5-dinitrobenzoic acid (Liquid); method: Chromatography
Temperature, K	Mass fraction of 3,5-dinitrobenzoic acid	uncertainty
283.15	.1784	
298.15	.1953	
313.15	.2028	
