Measured thermophysical data. Volatility study of [C1C1im][NTf2] and [C2C3im][NTf2] ionic liquids
Source: J. Chem. Thermodyn., 2014, 10.1016/j.jct.2013.09.020
Compound 1: 1,3-dimethylimidazolium 1,1,1-trifluoro-N-[(trifluoromethyl)sulfonyl]methanesulfonamide, C7H9F6N3O4S2
Compound 2: 1-ethyl-3-propylimidazolium bis(trifluoromethylsulfonyl)imide, C10H15F6N3O4S2

System: 1,3-dimethylimidazolium 1,1,1-trifluoro-N-[(trifluoromethyl)sulfonyl]methanesulfonamide; phases: Liquid, Gas
Property: Vapor or sublimation pressure, kPa (Liquid); method: Knudsen effusion method
Temperature, K	Vapor or sublimation pressure, kPa	uncertainty
475.62	.0000415	.000002075
477.6	.000047	.00000235
479.6	.0000533	.000002665
481.59	.0000601	.000003005
483.59	.0000678	.00000339
485.6	.0000763	.000003815
487.6	.0000856	.00000428
489.62	.0000957	.000004785
491.67	.0001095	.000005475
493.68	.0001225	.000006125

System: 1-ethyl-3-propylimidazolium bis(trifluoromethylsulfonyl)imide; phases: Liquid, Gas
Property: Vapor or sublimation pressure, kPa (Liquid); method: Knudsen effusion method
Temperature, K	Vapor or sublimation pressure, kPa	uncertainty
463.58	.0000486	.00000243
465.61	.0000555	.000002775
467.59	.0000629	.000003145
469.6	.0000712	.00000356
471.62	.0000807	.000004035
473.62	.0000911	.000004555
475.62	.0001034	.00000517
477.63	.0001172	.00000586
479.56	.0001311	.000006555
481.58	.0001487	.000007435
483.6	.0001651	.000008255
485.61	.0001872	.00000936
487.62	.0002112	.00001056
489.62	.0002364	.00001182
