Measured thermophysical data. Densities and volumetric properties of binary mixtures  of N,N-dimethylformamide/N,N-dimethylacetamide with some alkyl acrylates  at temperatures from 288.15 K to 318.15 K
Source: J. Chem. Thermodyn., 2013, 10.1016/j.jct.2012.10.015
Compound 1: formamide, N,N-dimethyl-, C3H7NO, purity 99.5%
Compound 2: acetamide, N,N-dimethyl-, C4H9NO, purity 99.5%
Compound 3: acrylic acid, methyl ester, C4H6O2, purity 98%
Compound 4: propenoic acid, ethyl ester, C5H8O2, purity 99%
Compound 5: n-butyl acrylate, C7H12O2, purity 99%

System: formamide, N,N-dimethyl-; phases: Liquid
Fixed: Pressure, kPa = 101.325
Property: Mass density, kg/m3 (Liquid); method: Pycnometric method
Temperature, K	Mass density, kg/m3	uncertainty
298.15	944.6	

System: formamide, N,N-dimethyl-; phases: Liquid
Property: Mass density, kg/m3 (Liquid); method: Pycnometric method
Temperature, K	Pressure, kPa	Mass density, kg/m3	uncertainty
288.15	101	953.61	.02
293.15	101	949.1	.02
303.15	101	940.1	.02
308.15	101	935.6	.02
313.15	101	931.1	.02
318.15	101	926.6	.02

System: acetamide, N,N-dimethyl-; phases: Liquid
Fixed: Pressure, kPa = 101.325
Property: Mass density, kg/m3 (Liquid); method: Pycnometric method
Temperature, K	Mass density, kg/m3	uncertainty
298.15	936.5	

System: acetamide, N,N-dimethyl-; phases: Liquid
Property: Mass density, kg/m3 (Liquid); method: Pycnometric method
Temperature, K	Pressure, kPa	Mass density, kg/m3	uncertainty
288.15	101	945.5	.02
293.15	101	941	.02
303.15	101	932	.02
308.15	101	927.5	.02
313.15	101	923	.02
318.15	101	918.5	.02

System: acrylic acid, methyl ester; phases: Liquid
Fixed: Pressure, kPa = 101.325
Property: Mass density, kg/m3 (Liquid); method: Pycnometric method
Temperature, K	Mass density, kg/m3	uncertainty
298.15	947.56	

System: acrylic acid, methyl ester; phases: Liquid
Property: Mass density, kg/m3 (Liquid); method: Pycnometric method
Temperature, K	Pressure, kPa	Mass density, kg/m3	uncertainty
288.15	101	959.46	.02
293.15	101	953.51	.02
303.15	101	941.61	.02
308.15	101	935.66	.02
313.15	101	929.71	.02
318.15	101	923.76	.02

System: propenoic acid, ethyl ester; phases: Liquid
Fixed: Pressure, kPa = 101.325
Property: Mass density, kg/m3 (Liquid); method: Pycnometric method
Temperature, K	Mass density, kg/m3	uncertainty
298.15	915.95	

System: propenoic acid, ethyl ester; phases: Liquid
Property: Mass density, kg/m3 (Liquid); method: Pycnometric method
Temperature, K	Pressure, kPa	Mass density, kg/m3	uncertainty
288.15	101	927.57	.02
293.15	101	921.76	.02
303.15	101	910.14	.02
308.15	101	904.33	.02
313.15	101	898.52	.02
318.15	101	892.71	.02

System: n-butyl acrylate; phases: Liquid
Fixed: Pressure, kPa = 101.325
Property: Mass density, kg/m3 (Liquid); method: Pycnometric method
Temperature, K	Mass density, kg/m3	uncertainty
298.15	894.1	

System: n-butyl acrylate; phases: Liquid
Property: Mass density, kg/m3 (Liquid); method: Pycnometric method
Temperature, K	Pressure, kPa	Mass density, kg/m3	uncertainty
288.15	101	903.6	.02
293.15	101	898.85	.02
303.15	101	889.35	.02
308.15	101	884.6	.02
313.15	101	879.85	.02
318.15	101	875.1	.02

System: formamide, N,N-dimethyl- + acrylic acid, methyl ester; phases: Liquid
Fixed: Pressure, kPa = 101
Property: Mass density, kg/m3 (Liquid); method: Pycnometric method
Temperature, K	Mole fraction of formamide, N,N-dimethyl-	Mass density, kg/m3	uncertainty
288.15	0	959.46	.02
288.15	.0623	959.41	.02
288.15	.1241	959.33	.02
288.15	.1958	959.21	.02
288.15	.2635	959.05	.02
288.15	.3326	958.83	.02
288.15	.4053	958.54	.02
288.15	.4712	958.23	.02
288.15	.5542	957.77	.02
288.15	.6222	957.32	.02
288.15	.6977	956.75	.02
288.15	.7654	956.17	.02
288.15	.8437	955.42	.02
288.15	.9254	954.52	.02
288.15	1	953.61	.02
293.15	0	953.51	.02
293.15	.0623	953.57	.02
293.15	.1241	953.59	.02
293.15	.1958	953.58	.02
293.15	.2635	953.52	.02
293.15	.3326	953.41	.02
293.15	.4053	953.23	.02
293.15	.4712	953.01	.02
293.15	.5542	952.68	.02
293.15	.6222	952.33	.02
293.15	.6977	951.87	.02
293.15	.7654	951.39	.02
293.15	.8437	950.74	.02
293.15	.9254	949.93	.02
293.15	1	949.1	.02
298.15	0	947.56	.02
298.15	.0623	947.73	.02
298.15	.1241	947.85	.02
298.15	.1958	947.95	.02
298.15	.2635	947.99	.02
298.15	.3326	947.99	.02
298.15	.4053	947.91	.02
298.15	.4712	947.79	.02
298.15	.5542	947.58	.02
298.15	.6222	947.34	.02
298.15	.6977	946.99	.02
298.15	.7654	946.61	.02
298.15	.8437	946.06	.02
298.15	.9254	945.34	.02
298.15	1	944.6	.02
303.15	0	941.61	.02
303.15	.0623	941.89	.02
303.15	.1241	942.11	.02
303.15	.1958	942.32	.02
303.15	.2635	942.46	.02
303.15	.3326	942.56	.02
303.15	.4053	942.59	.02
303.15	.4712	942.57	.02
303.15	.5542	942.48	.02
303.15	.6222	942.35	.02
303.15	.6977	942.11	.02
303.15	.7654	941.82	.02
303.15	.8437	941.38	.02
303.15	.9254	940.75	.02
303.15	1	940.1	.02
308.15	0	935.66	.02
308.15	.0623	936.05	.02
308.15	.1241	936.37	.02
308.15	.1958	936.69	.02
308.15	.2635	936.93	.02
308.15	.3326	937.13	.02
308.15	.4053	937.27	.02
308.15	.4712	937.35	.02
308.15	.5542	937.38	.02
308.15	.6222	937.35	.02
308.15	.6977	937.22	.02
308.15	.7654	937.03	.02
308.15	.8437	936.7	.02
308.15	.9254	936.16	.02
308.15	1	935.6	.02
313.15	0	929.71	.02
313.15	.0623	930.2	.02
313.15	.1241	930.63	.02
313.15	.1958	931.06	.02
313.15	.2635	931.4	.02
313.15	.3326	931.7	.02
313.15	.4053	931.95	.02
313.15	.4712	932.12	.02
313.15	.5542	932.28	.02
313.15	.6222	932.35	.02
313.15	.6977	932.33	.02
313.15	.7654	932.24	.02
313.15	.8437	932.01	.02
313.15	.9254	931.57	.02
313.15	1	931.1	.02
318.15	0	923.76	.02
318.15	.0623	924.35	.02
318.15	.1241	924.88	.02
318.15	.1958	925.42	.02
318.15	.2635	925.86	.02
318.15	.3326	926.27	.02
318.15	.4053	926.63	.02
318.15	.4712	926.89	.02
318.15	.5542	927.18	.02
318.15	.6222	927.35	.02
318.15	.6977	927.44	.02
318.15	.7654	927.45	.02
318.15	.8437	927.32	.02
318.15	.9254	926.98	.02
318.15	1	926.6	.02

System: formamide, N,N-dimethyl- + propenoic acid, ethyl ester; phases: Liquid
Fixed: Pressure, kPa = 101
Property: Mass density, kg/m3 (Liquid); method: Pycnometric method
Temperature, K	Mole fraction of formamide, N,N-dimethyl-	Mass density, kg/m3	uncertainty
288.15	0	927.57	.02
288.15	.0712	929.11	.02
288.15	.1425	930.68	.02
288.15	.2095	932.2	.02
288.15	.2777	933.78	.02
288.15	.3523	935.55	.02
288.15	.4293	937.43	.02
288.15	.4978	939.15	.02
288.15	.5792	941.27	.02
288.15	.6432	942.98	.02
288.15	.7165	945.01	.02
288.15	.7765	946.73	.02
288.15	.8593	949.18	.02
288.15	.9256	951.23	.02
288.15	1	953.61	.02
293.15	0	921.76	.02
293.15	.0712	923.39	.02
293.15	.1425	925.05	.02
293.15	.2095	926.65	.02
293.15	.2777	928.31	.02
293.15	.3523	930.17	.02
293.15	.4293	932.15	.02
293.15	.4978	933.96	.02
293.15	.5792	936.18	.02
293.15	.6432	937.98	.02
293.15	.7165	940.12	.02
293.15	.7765	941.92	.02
293.15	.8593	944.49	.02
293.15	.9256	946.63	.02
293.15	1	949.1	.02
298.15	0	915.95	.02
298.15	.0712	917.67	.02
298.15	.1425	919.42	.02
298.15	.2095	921.1	.02
298.15	.2777	922.84	.02
298.15	.3523	924.79	.02
298.15	.4293	926.87	.02
298.15	.4978	928.77	.02
298.15	.5792	931.09	.02
298.15	.6432	932.98	.02
298.15	.7165	935.23	.02
298.15	.7765	937.11	.02
298.15	.8593	939.8	.02
298.15	.9256	942.03	.02
298.15	1	944.6	.02
303.15	0	910.14	.02
303.15	.0712	911.95	.02
303.15	.1425	913.79	.02
303.15	.2095	915.55	.02
303.15	.2777	917.37	.02
303.15	.3523	919.41	.02
303.15	.4293	921.59	.02
303.15	.4978	923.57	.02
303.15	.5792	926	.02
303.15	.6432	927.98	.02
303.15	.7165	930.34	.02
303.15	.7765	932.3	.02
303.15	.8593	935.11	.02
303.15	.9256	937.43	.02
303.15	1	940.1	.02
308.15	0	904.33	.02
308.15	.0712	906.23	.02
308.15	.1425	908.16	.02
308.15	.2095	910	.02
308.15	.2777	911.9	.02
308.15	.3523	914.03	.02
308.15	.4293	916.31	.02
308.15	.4978	918.37	.02
308.15	.5792	920.91	.02
308.15	.6432	922.98	.02
308.15	.7165	925.44	.02
308.15	.7765	927.49	.02
308.15	.8593	930.41	.02
308.15	.9256	932.83	.02
308.15	1	935.6	.02
313.15	0	898.52	.02
313.15	.0712	900.51	.02
313.15	.1425	902.53	.02
313.15	.2095	904.45	.02
313.15	.2777	906.43	.02
313.15	.3523	908.65	.02
313.15	.4293	911.02	.02
313.15	.4978	913.17	.02
313.15	.5792	915.82	.02
313.15	.6432	917.98	.02
313.15	.7165	920.54	.02
313.15	.7765	922.68	.02
313.15	.8593	925.71	.02
313.15	.9256	928.22	.02
313.15	1	931.1	.02
318.15	0	892.71	.02
318.15	.0712	894.79	.02
318.15	.1425	896.9	.02
318.15	.2095	898.9	.02
318.15	.2777	900.96	.02
318.15	.3523	903.27	.02
318.15	.4293	905.73	.02
318.15	.4978	907.97	.02
318.15	.5792	910.73	.02
318.15	.6432	912.98	.02
318.15	.7165	915.64	.02
318.15	.7765	917.87	.02
318.15	.8593	921.01	.02
318.15	.9256	923.61	.02
318.15	1	926.6	.02

System: formamide, N,N-dimethyl- + n-butyl acrylate; phases: Liquid
Fixed: Pressure, kPa = 101
Property: Mass density, kg/m3 (Liquid); method: Pycnometric method
Temperature, K	Mole fraction of formamide, N,N-dimethyl-	Mass density, kg/m3	uncertainty
288.15	0	903.6	.02
288.15	.0698	905.63	.02
288.15	.1405	907.81	.02
288.15	.2075	910.02	.02
288.15	.2786	912.52	.02
288.15	.3512	915.26	.02
288.15	.42	918.06	.02
288.15	.4906	921.15	.02
288.15	.5562	924.25	.02
288.15	.6372	928.42	.02
288.15	.7199	933.11	.02
288.15	.7859	937.24	.02
288.15	.8553	941.99	.02
288.15	.9312	947.76	.02
288.15	1	953.61	.02
293.15	0	898.85	.02
293.15	.0698	900.91	.02
293.15	.1405	903.12	.02
293.15	.2075	905.35	.02
293.15	.2786	907.86	.02
293.15	.3512	910.62	.02
293.15	.42	913.44	.02
293.15	.4906	916.54	.02
293.15	.5562	919.66	.02
293.15	.6372	923.85	.02
293.15	.7199	928.56	.02
293.15	.7859	932.71	.02
293.15	.8553	937.47	.02
293.15	.9312	943.25	.02
293.15	1	949.1	.02
298.15	0	894.1	.02
298.15	.0698	896.19	.02
298.15	.1405	898.43	.02
298.15	.2075	900.67	.02
298.15	.2786	903.2	.02
298.15	.3512	905.98	.02
298.15	.42	908.81	.02
298.15	.4906	911.93	.02
298.15	.5562	915.07	.02
298.15	.6372	919.28	.02
298.15	.7199	924.01	.02
298.15	.7859	928.18	.02
298.15	.8553	932.95	.02
298.15	.9312	938.74	.02
298.15	1	944.6	.02
303.15	0	889.35	.02
303.15	.0698	891.47	.02
303.15	.1405	893.73	.02
303.15	.2075	895.99	.02
303.15	.2786	898.54	.02
303.15	.3512	901.34	.02
303.15	.42	904.18	.02
303.15	.4906	907.32	.02
303.15	.5562	910.47	.02
303.15	.6372	914.7	.02
303.15	.7199	919.46	.02
303.15	.7859	923.65	.02
303.15	.8553	928.43	.02
303.15	.9312	934.23	.02
303.15	1	940.1	.02
308.15	0	884.6	.02
308.15	.0698	886.75	.02
308.15	.1405	889.03	.02
308.15	.2075	891.31	.02
308.15	.2786	893.88	.02
308.15	.3512	896.7	.02
308.15	.42	899.55	.02
308.15	.4906	902.71	.02
308.15	.5562	905.87	.02
308.15	.6372	910.12	.02
308.15	.7199	914.91	.02
308.15	.7859	919.11	.02
308.15	.8553	923.91	.02
308.15	.9312	929.72	.02
308.15	1	935.6	.02
313.15	0	879.85	.02
313.15	.0698	882.03	.02
313.15	.1405	884.33	.02
313.15	.2075	886.63	.02
313.15	.2786	889.22	.02
313.15	.3512	892.05	.02
313.15	.42	894.92	.02
313.15	.4906	898.1	.02
313.15	.5562	901.27	.02
313.15	.6372	905.54	.02
313.15	.7199	910.35	.02
313.15	.7859	914.57	.02
313.15	.8553	919.39	.02
313.15	.9312	925.21	.02
313.15	1	931.1	.02
318.15	0	875.1	.02
318.15	.0698	877.31	.02
318.15	.1405	879.63	.02
318.15	.2075	881.95	.02
318.15	.2786	884.56	.02
318.15	.3512	887.4	.02
318.15	.42	890.29	.02
318.15	.4906	893.48	.02
318.15	.5562	896.67	.02
318.15	.6372	900.96	.02
318.15	.7199	905.79	.02
318.15	.7859	910.03	.02
318.15	.8553	914.87	.02
318.15	.9312	920.7	.02
318.15	1	926.6	.02

System: acrylic acid, methyl ester + acetamide, N,N-dimethyl-; phases: Liquid
Fixed: Pressure, kPa = 101
Property: Mass density, kg/m3 (Liquid); method: Pycnometric method
Temperature, K	Mole fraction of acetamide, N,N-dimethyl-	Mass density, kg/m3	uncertainty
288.15	0	959.46	.02
288.15	.0653	959.6	.02
288.15	.1308	959.55	.02
288.15	.1965	959.25	.02
288.15	.2618	958.74	.02
288.15	.3321	958.04	.02
288.15	.4032	957.15	.02
288.15	.4762	956.13	.02
288.15	.5491	955.04	.02
288.15	.6206	953.84	.02
288.15	.692	952.53	.02
288.15	.7686	951	.02
288.15	.8446	949.31	.02
288.15	.9225	947.41	.02
288.15	1	945.5	.02
293.15	0	953.51	.02
293.15	.0653	953.88	.02
293.15	.1308	953.94	.02
293.15	.1965	953.74	.02
293.15	.2618	953.33	.02
293.15	.3321	952.74	.02
293.15	.4032	951.96	.02
293.15	.4762	951.05	.02
293.15	.5491	950.06	.02
293.15	.6206	948.96	.02
293.15	.692	947.73	.02
293.15	.7686	946.3	.02
293.15	.8446	944.72	.02
293.15	.9225	942.93	.02
293.15	1	941	.02
298.15	0	947.56	.02
298.15	.0653	948.16	.02
298.15	.1308	948.33	.02
298.15	.1965	948.23	.02
298.15	.2618	947.92	.02
298.15	.3321	947.44	.02
298.15	.4032	946.77	.02
298.15	.4762	945.97	.02
298.15	.5491	945.08	.02
298.15	.6206	944.08	.02
298.15	.692	942.93	.02
298.15	.7686	941.6	.02
298.15	.8446	940.13	.02
298.15	.9225	938.44	.02
298.15	1	936.5	.02
303.15	0	941.61	.02
303.15	.0653	942.43	.02
303.15	.1308	942.71	.02
303.15	.1965	942.71	.02
303.15	.2618	942.51	.02
303.15	.3321	942.14	.02
303.15	.4032	941.58	.02
303.15	.4762	940.89	.02
303.15	.5491	940.1	.02
303.15	.6206	939.19	.02
303.15	.692	938.13	.02
303.15	.7686	936.9	.02
303.15	.8446	935.54	.02
303.15	.9225	933.95	.02
303.15	1	932	.02
308.15	0	935.66	.02
308.15	.0653	936.7	.02
308.15	.1308	937.09	.02
308.15	.1965	937.19	.02
308.15	.2618	937.1	.02
308.15	.3321	936.84	.02
308.15	.4032	936.39	.02
308.15	.4762	935.8	.02
308.15	.5491	935.11	.02
308.15	.6206	934.3	.02
308.15	.692	933.33	.02
308.15	.7686	932.2	.02
308.15	.8446	930.95	.02
308.15	.9225	929.45	.02
308.15	1	927.5	.02
313.15	0	929.71	.02
313.15	.0653	930.97	.02
313.15	.1308	931.47	.02
313.15	.1965	931.67	.02
313.15	.2618	931.69	.02
313.15	.3321	931.53	.02
313.15	.4032	931.19	.02
313.15	.4762	930.71	.02
313.15	.5491	930.12	.02
313.15	.6206	929.41	.02
313.15	.692	928.53	.02
313.15	.7686	927.5	.02
313.15	.8446	926.36	.02
313.15	.9225	924.95	.02
313.15	1	923	.02
318.15	0	923.76	.02
318.15	.0653	925.24	.02
318.15	.1308	925.85	.02
318.15	.1965	926.15	.02
318.15	.2618	926.27	.02
318.15	.3321	926.22	.02
318.15	.4032	925.99	.02
318.15	.4762	925.62	.02
318.15	.5491	925.13	.02
318.15	.6206	924.52	.02
318.15	.692	923.73	.02
318.15	.7686	922.8	.02
318.15	.8446	921.77	.02
318.15	.9225	920.45	.02
318.15	1	918.5	.02

System: acetamide, N,N-dimethyl- + propenoic acid, ethyl ester; phases: Liquid
Fixed: Pressure, kPa = 101
Property: Mass density, kg/m3 (Liquid); method: Pycnometric method
Temperature, K	Mole fraction of acetamide, N,N-dimethyl-	Mass density, kg/m3	uncertainty
288.15	0	927.57	.02
288.15	.0716	929.45	.02
288.15	.143	931.25	.02
288.15	.2125	932.87	.02
288.15	.281	934.35	.02
288.15	.354	935.81	.02
288.15	.4272	937.2	.02
288.15	.5033	938.58	.02
288.15	.5793	939.89	.02
288.15	.6515	941.07	.02
288.15	.7236	942.19	.02
288.15	.7917	943.14	.02
288.15	.8597	944	.02
288.15	.9298	944.78	.02
288.15	1	945.5	.02
293.15	0	921.76	.02
293.15	.0716	923.79	.02
293.15	.143	925.7	.02
293.15	.2125	927.4	.02
293.15	.281	928.97	.02
293.15	.354	930.52	.02
293.15	.4272	932.01	.02
293.15	.5033	933.49	.02
293.15	.5793	934.9	.02
293.15	.6515	936.19	.02
293.15	.7236	937.41	.02
293.15	.7917	938.46	.02
293.15	.8597	939.4	.02
293.15	.9298	940.25	.02
293.15	1	941	.02
298.15	0	915.95	.02
298.15	.0716	918.13	.02
298.15	.143	920.15	.02
298.15	.2125	921.93	.02
298.15	.281	923.59	.02
298.15	.354	925.23	.02
298.15	.4272	926.82	.02
298.15	.5033	928.4	.02
298.15	.5793	929.91	.02
298.15	.6515	931.31	.02
298.15	.7236	932.63	.02
298.15	.7917	933.78	.02
298.15	.8597	934.8	.02
298.15	.9298	935.72	.02
298.15	1	936.5	.02
303.15	0	910.14	.02
303.15	.0716	912.47	.02
303.15	.143	914.6	.02
303.15	.2125	916.46	.02
303.15	.281	918.21	.02
303.15	.354	919.94	.02
303.15	.4272	921.63	.02
303.15	.5033	923.31	.02
303.15	.5793	924.92	.02
303.15	.6515	926.42	.02
303.15	.7236	927.84	.02
303.15	.7917	929.09	.02
303.15	.8597	930.2	.02
303.15	.9298	931.19	.02
303.15	1	932	.02
308.15	0	904.33	.02
308.15	.0716	906.8	.02
308.15	.143	909.04	.02
308.15	.2125	910.99	.02
308.15	.281	912.83	.02
308.15	.354	914.65	.02
308.15	.4272	916.43	.02
308.15	.5033	918.21	.02
308.15	.5793	919.93	.02
308.15	.6515	921.53	.02
308.15	.7236	923.05	.02
308.15	.7917	924.4	.02
308.15	.8597	925.6	.02
308.15	.9298	926.65	.02
308.15	1	927.5	.02
313.15	0	898.52	.02
313.15	.0716	901.13	.02
313.15	.143	903.48	.02
313.15	.2125	905.52	.02
313.15	.281	907.44	.02
313.15	.354	909.36	.02
313.15	.4272	911.23	.02
313.15	.5033	913.11	.02
313.15	.5793	914.94	.02
313.15	.6515	916.64	.02
313.15	.7236	918.26	.02
313.15	.7917	919.71	.02
313.15	.8597	921	.02
313.15	.9298	922.11	.02
313.15	1	923	.02
318.15	0	892.71	.02
318.15	.0716	895.46	.02
318.15	.143	897.92	.02
318.15	.2125	900.05	.02
318.15	.281	902.05	.02
318.15	.354	904.06	.02
318.15	.4272	906.02	.02
318.15	.5033	908.01	.02
318.15	.5793	909.95	.02
318.15	.6515	911.75	.02
318.15	.7236	913.47	.02
318.15	.7917	915.02	.02
318.15	.8597	916.4	.02
318.15	.9298	917.57	.02
318.15	1	918.5	.02

System: acetamide, N,N-dimethyl- + n-butyl acrylate; phases: Liquid
Fixed: Pressure, kPa = 101
Property: Mass density, kg/m3 (Liquid); method: Pycnometric method
Temperature, K	Mole fraction of acetamide, N,N-dimethyl-	Mass density, kg/m3	uncertainty
288.15	0	903.6	.02
288.15	.0716	906.03	.02
288.15	.1431	908.54	.02
288.15	.208	910.84	.02
288.15	.273	913.19	.02
288.15	.3531	916.14	.02
288.15	.4333	919.2	.02
288.15	.5065	922.12	.02
288.15	.5793	925.16	.02
288.15	.6482	928.16	.02
288.15	.7165	931.28	.02
288.15	.7887	934.7	.02
288.15	.8601	938.22	.02
288.15	.9301	941.8	.02
288.15	1	945.5	.02
293.15	0	898.85	.02
293.15	.0716	901.35	.02
293.15	.1431	903.89	.02
293.15	.208	906.21	.02
293.15	.273	908.58	.02
293.15	.3531	911.55	.02
293.15	.4333	914.63	.02
293.15	.5065	917.57	.02
293.15	.5793	920.63	.02
293.15	.6482	923.65	.02
293.15	.7165	926.79	.02
293.15	.7887	930.24	.02
293.15	.8601	933.77	.02
293.15	.9301	937.34	.02
293.15	1	941	.02
298.15	0	894.1	.02
298.15	.0716	896.67	.02
298.15	.1431	899.24	.02
298.15	.208	901.58	.02
298.15	.273	903.97	.02
298.15	.3531	906.96	.02
298.15	.4333	910.06	.02
298.15	.5065	913.02	.02
298.15	.5793	916.1	.02
298.15	.6482	919.14	.02
298.15	.7165	922.3	.02
298.15	.7887	925.78	.02
298.15	.8601	929.32	.02
298.15	.9301	932.88	.02
298.15	1	936.5	.02
303.15	0	889.35	.02
303.15	.0716	891.99	.02
303.15	.1431	894.59	.02
303.15	.208	896.95	.02
303.15	.273	899.36	.02
303.15	.3531	902.37	.02
303.15	.4333	905.49	.02
303.15	.5065	908.47	.02
303.15	.5793	911.57	.02
303.15	.6482	914.63	.02
303.15	.7165	917.81	.02
303.15	.7887	921.31	.02
303.15	.8601	924.87	.02
303.15	.9301	928.42	.02
303.15	1	932	.02
308.15	0	884.6	.02
308.15	.0716	887.31	.02
308.15	.1431	889.94	.02
308.15	.208	892.32	.02
308.15	.273	894.74	.02
308.15	.3531	897.77	.02
308.15	.4333	900.92	.02
308.15	.5065	903.92	.02
308.15	.5793	907.04	.02
308.15	.6482	910.12	.02
308.15	.7165	913.32	.02
308.15	.7887	916.84	.02
308.15	.8601	920.41	.02
308.15	.9301	923.96	.02
308.15	1	927.5	.02
313.15	0	879.85	.02
313.15	.0716	882.63	.02
313.15	.1431	885.29	.02
313.15	.208	887.69	.02
313.15	.273	890.12	.02
313.15	.3531	893.17	.02
313.15	.4333	896.35	.02
313.15	.5065	899.37	.02
313.15	.5793	902.51	.02
313.15	.6482	905.61	.02
313.15	.7165	908.82	.02
313.15	.7887	912.36	.02
313.15	.8601	915.95	.02
313.15	.9301	919.5	.02
313.15	1	923	.02
318.15	0	875.1	.02
318.15	.0716	877.95	.02
318.15	.1431	880.64	.02
318.15	.208	883.06	.02
318.15	.273	885.5	.02
318.15	.3531	888.57	.02
318.15	.4333	891.78	.02
318.15	.5065	894.82	.02
318.15	.5793	897.98	.02
318.15	.6482	901.1	.02
318.15	.7165	904.32	.02
318.15	.7887	907.88	.02
318.15	.8601	911.49	.02
318.15	.9301	915.04	.02
318.15	1	918.5	.02
