Measured thermophysical data. Activity coefficients of CaCl2 in (serine or proline + water) mixtures at T = 298.15 K
Source: J. Chem. Thermodyn., 2010, 10.1016/j.jct.2010.01.002
Compound 1: L-serine, C3H7NO3
Compound 2: 2-pyrrolidinecarboxylic acid, C5H9NO2
Compound 3: calcium chloride, CaCl2
Compound 4: water, H2O, purity 99.8%

System: L-serine + water + calcium chloride; phases: Liquid
Fixed: Pressure, kPa = 101
Fixed: Temperature, K = 298.15
Property: (Relative) activity of calcium chloride (Liquid); method: Ion selective electrodes
Molality, mol/kg of calcium chloride	Solvent: Molality, mol/kg of L-serine	(Relative) activity of calcium chloride	uncertainty
.00985	0	.73	
.02216	0	.659	
.0406	0	.605	
.06117	0	.567	
.08145	0	.54	
.1203	0	.506	
.1407	0	.493	
.1689	0	.481	
.2001	0	.472	
.00971	.2	.75	
.02176	.2	.678	
.03944	.2	.624	
.05958	.2	.589	
.08001	.2	.565	
.1183	.2	.538	
.1373	.2	.524	
.167	.2	.513	
.1957	.2	.502	
.01036	.35	.756	
.02301	.35	.694	
.04021	.35	.644	
.05984	.35	.617	
.0796	.35	.594	
.1164	.35	.571	
.1354	.35	.562	
.1644	.35	.551	
.1927	.35	.548	
.01004	.1	.737	
.022	.1	.668	
.03981	.1	.608	
.06025	.1	.579	
.0812	.1	.549	
.1196	.1	.519	
.1392	.1	.509	
.169	.1	.496	
.198	.1	.487	
.00973	.25	.753	
.0222	.25	.681	
.03996	.25	.631	
.06043	.25	.595	
.07981	.25	.57	
.1181	.25	.542	
.137	.25	.531	
.1663	.25	.518	
.1949	.25	.51	
.00943	.4	.762	
.02083	.4	.702	
.03811	.4	.648	
.05689	.4	.618	
.07632	.4	.595	
.1165	.4	.574	
.1353	.4	.566	
.1638	.4	.562	
.1928	.4	.55	
.00971	.15	.745	
.02201	.15	.674	
.03988	.15	.621	
.0603	.15	.585	
.08088	.15	.561	
.1187	.15	.531	
.1386	.15	.521	
.1685	.15	.509	
.197	.15	.499	
.00988	.3	.758	
.02164	.3	.692	
.03948	.3	.643	
.05903	.3	.615	
.0782	.3	.59	
.1171	.3	.566	
.1362	.3	.556	
.1655	.3	.545	
.194	.3	.536	

System: 2-pyrrolidinecarboxylic acid + water + calcium chloride; phases: Liquid
Fixed: Pressure, kPa = 101
Fixed: Temperature, K = 298.15
Property: (Relative) activity of calcium chloride (Liquid); method: Chromatography
Molality, mol/kg of calcium chloride	Solvent: Molality, mol/kg of 2-pyrrolidinecarboxylic acid	(Relative) activity of calcium chloride	uncertainty
.00995	.1	.736	
.02227	.1	.665	
.04026	.1	.609	
.06059	.1	.574	
.08065	.1	.547	
.1199	.1	.515	
.1395	.1	.503	
.1691	.1	.491	
.1979	.1	.483	
.00939	.25	.757	
.02159	.25	.679	
.03933	.25	.627	
.05937	.25	.592	
.0777	.25	.572	
.1176	.25	.541	
.1364	.25	.531	
.1655	.25	.52	
.1944	.25	.512	
.00932	.4	.764	
.02154	.4	.702	
.03811	.4	.655	
.05745	.4	.616	
.07621	.4	.598	
.1151	.4	.573	
.1337	.4	.566	
.1625	.4	.556	
.1911	.4	.55	
.01009	.15	.74	
.02365	.15	.672	
.04142	.15	.619	
.06066	.15	.582	
.07986	.15	.561	
.1187	.15	.533	
.1384	.15	.523	
.1671	.15	.51	
.1967	.15	.499	
.00971	.3	.76	
.02135	.3	.694	
.03848	.3	.641	
.05837	.3	.61	
.07739	.3	.588	
.1169	.3	.557	
.1357	.3	.547	
.164	.3	.535	
.1934	.3	.524	
.00951	.2	.755	
.02173	.2	.676	
.03896	.2	.628	
.05953	.2	.59	
.07891	.2	.57	
.1185	.2	.538	
.1375	.2	.527	
.1667	.2	.513	
.1956	.2	.504	
.00998	.35	.761	
.02188	.35	.696	
.03918	.35	.642	
.05856	.35	.612	
.07678	.35	.596	
.1164	.35	.56	
.1354	.35	.548	
.1638	.35	.537	
.1925	.35	.527	
