Measured thermophysical data. Thermodynamic and topological investigations of ternary mixtures with o-toluidine, tetrahydropyran, and picolines: Excess molar volume and excess isentropic compressibility
Source: J. Chem. Thermodyn., 2012, 10.1016/j.jct.2011.10.002
Compound 1: 2-methylbenzenamine, C7H9N, purity 99%
Compound 2: oxane, C5H10O, purity 98%
Compound 3: 2-picoline, C6H7N, purity 98%
Compound 4: pyridine, 3-methyl-, C6H7N, purity 99%
Compound 5: 4-methylpyridine, C6H7N, purity 99%

System: 2-methylbenzenamine; phases: Liquid
Fixed: Pressure, kPa = 101.325
Property: Mass density, kg/m3 (Liquid); method: Vibrating tube method
Temperature, K	Mass density, kg/m3	uncertainty
298.15	994.351	.002

System: 2-methylbenzenamine; phases: Liquid
Fixed: Pressure, kPa = 101.325
Property: Speed of sound, m/s (Liquid); method: Sing-around technique in a fixed-path interferometer
Temperature, K	Speed of sound, m/s	uncertainty
298.15	1602.57	.1

System: oxane; phases: Liquid
Fixed: Pressure, kPa = 101.325
Property: Mass density, kg/m3 (Liquid); method: Vibrating tube method
Temperature, K	Mass density, kg/m3	uncertainty
298.15	879.136	.002

System: oxane; phases: Liquid
Fixed: Pressure, kPa = 101.325
Property: Speed of sound, m/s (Liquid); method: Sing-around technique in a fixed-path interferometer
Temperature, K	Speed of sound, m/s	uncertainty
298.15	1269.88	.1

System: 2-picoline; phases: Liquid
Fixed: Pressure, kPa = 101.325
Property: Mass density, kg/m3 (Liquid); method: Vibrating tube method
Temperature, K	Mass density, kg/m3	uncertainty
298.15	939.802	.002

System: 2-picoline; phases: Liquid
Fixed: Pressure, kPa = 101.325
Property: Speed of sound, m/s (Liquid); method: Sing-around technique in a fixed-path interferometer
Temperature, K	Speed of sound, m/s	uncertainty
298.15	1380.12	.1

System: pyridine, 3-methyl-; phases: Liquid
Fixed: Pressure, kPa = 101.325
Property: Mass density, kg/m3 (Liquid); method: Vibrating tube method
Temperature, K	Mass density, kg/m3	uncertainty
298.15	952.002	.002

System: pyridine, 3-methyl-; phases: Liquid
Fixed: Pressure, kPa = 101.325
Property: Speed of sound, m/s (Liquid); method: Sing-around technique in a fixed-path interferometer
Temperature, K	Speed of sound, m/s	uncertainty
298.15	1424.01	.1

System: 4-methylpyridine; phases: Liquid
Fixed: Pressure, kPa = 101.325
Property: Mass density, kg/m3 (Liquid); method: Vibrating tube method
Temperature, K	Mass density, kg/m3	uncertainty
298.15	950.179	.002

System: 4-methylpyridine; phases: Liquid
Fixed: Pressure, kPa = 101.325
Property: Speed of sound, m/s (Liquid); method: Sing-around technique in a fixed-path interferometer
Temperature, K	Speed of sound, m/s	uncertainty
298.15	1431.5	.1

System: 2-methylbenzenamine + 2-picoline + oxane; phases: Liquid
Fixed: Pressure, kPa = 101
Property: Mass density, kg/m3 (Liquid); method: Vibrating tube method
Temperature, K	Mole fraction of 2-methylbenzenamine	Mole fraction of oxane	Mass density, kg/m3	uncertainty
298.15	.0629	.7441	901.225	.002
298.15	.1062	.7003	907.521	.002
298.15	.1161	.6882	909.325	.002
298.15	.1356	.6114	915.686	.002
298.15	.1483	.5826	918.476	.002
298.15	.1564	.5611	920.449	.002
298.15	.2242	.4923	929.748	.002
298.15	.2643	.4539	934.876	.002
298.15	.2952	.4142	939.328	.002
298.15	.3238	.3921	942.481	.002
298.15	.3434	.3386	946.969	.002
298.15	.3682	.3524	947.579	.002
298.15	.3884	.3152	951.009	.002
298.15	.4271	.2856	954.951	.002
298.15	.4462	.2962	955.273	.002
298.15	.4635	.2691	957.838	.002
298.15	.4903	.2382	961.053	.002
298.15	.5268	.2514	961.956	.002
298.15	.5727	.3005	961.111	.002
298.15	.6212	.2221	967.861	.002
298.15	.6544	.2104	969.924	.002
298.15	.6624	.2005	970.821	.002
298.15	.6873	.2017	971.761	.002
298.15	.7014	.1973	972.567	.002
298.15	.7283	.1552	976.04	.002
298.15	.7427	.1329	977.871	.002
298.15	.7601	.1156	979.513	.002
298.15	.8113	.1073	981.849	.002
298.15	.8326	.1021	982.905	.002
298.15	.8514	.0871	984.411	.002
303.15	.0629	.7441	896.298	.002
303.15	.1062	.7003	902.869	.002
303.15	.1161	.6882	904.466	.002
303.15	.1356	.6114	910.859	.002
303.15	.1483	.5826	913.679	.002
303.15	.1564	.5611	915.654	.002
303.15	.2242	.4923	925.003	.002
303.15	.2643	.4539	930.165	.002
303.15	.2952	.4142	934.668	.002
303.15	.3238	.3921	937.833	.002
303.15	.3434	.3386	942.343	.002
303.15	.3682	.3524	942.958	.002
303.15	.3884	.3152	946.429	.002
303.15	.4271	.2856	950.381	.002
303.15	.4462	.2962	950.758	.002
303.15	.4635	.2691	953.308	.002
303.15	.4903	.2382	956.557	.002
303.15	.5268	.2514	957.523	.002
303.15	.5727	.3005	956.725	.002
303.15	.6212	.2221	963.551	.002
303.15	.6544	.2104	965.644	.002
303.15	.6624	.2005	966.571	.002
303.15	.6873	.2017	967.531	.002
303.15	.7014	.1973	968.363	.002
303.15	.7283	.1552	971.852	.002
303.15	.7427	.1329	973.689	.002
303.15	.7601	.1156	975.335	.002
303.15	.8113	.1073	977.739	.002
303.15	.8326	.1021	978.821	.002
303.15	.8514	.0871	980.33	.002
308.15	.0629	.7441	891.361	.002
308.15	.1062	.7003	897.982	.002
308.15	.1161	.6882	899.598	.002
308.15	.1356	.6114	906.012	.002
308.15	.1483	.5826	908.847	.002
308.15	.1564	.5611	910.821	.002
308.15	.2242	.4923	920.244	.002
308.15	.2643	.4539	925.439	.002
308.15	.2952	.4142	929.958	.002
308.15	.3238	.3921	933.148	.002
308.15	.3434	.3386	937.687	.002
308.15	.3682	.3524	938.316	.002
308.15	.3884	.3152	941.814	.002
308.15	.4271	.2856	945.821	.002
308.15	.4462	.2962	946.183	.002
308.15	.4635	.2691	948.785	.002
308.15	.4903	.2382	952.052	.002
308.15	.5268	.2514	953.05	.002
308.15	.5727	.3005	952.292	.002
308.15	.6212	.2221	959.182	.002
308.15	.6544	.2104	961.328	.002
308.15	.6624	.2005	962.253	.002
308.15	.6873	.2017	963.245	.002
308.15	.7014	.1973	964.095	.002
308.15	.7283	.1552	967.616	.002
308.15	.7427	.1329	969.46	.002
308.15	.7601	.1156	971.109	.002
308.15	.8113	.1073	973.565	.002
308.15	.8326	.1021	974.663	.002
308.15	.8514	.0871	976.181	.002

System: 2-methylbenzenamine + 2-picoline + oxane; phases: Liquid
Fixed: Pressure, kPa = 101
Property: Speed of sound, m/s (Liquid); method: Sing-around technique in a fixed-path interferometer
Temperature, K	Mole fraction of 2-methylbenzenamine	Mole fraction of oxane	Speed of sound, m/s	uncertainty
298.15	.0629	.7441	1315.35	.1
298.15	.1062	.7003	1331.16	.1
298.15	.1161	.6882	1335.13	.1
298.15	.1356	.6114	1348.92	.1
298.15	.1483	.5826	1355.41	.1
298.15	.1564	.5611	1360.01	.1
298.15	.2242	.4923	1384.44	.1
298.15	.2643	.4539	1398.42	.1
298.15	.2952	.4142	1410.23	.1
298.15	.3238	.3921	1419.37	.1
298.15	.3434	.3386	1430.25	.1
298.15	.3682	.3524	1433.88	.1
298.15	.3884	.3152	1442.99	.1
298.15	.4271	.2856	1454.98	.1
298.15	.4462	.2962	1457.39	.1
298.15	.4635	.2691	1464.45	.1
298.15	.4903	.2382	1474.03	.1
298.15	.5268	.2514	1479.46	.1
298.15	.5727	.3005	1482.99	.1
298.15	.6212	.2221	1501.09	.1
298.15	.6544	.2104	1508.94	.1
298.15	.6624	.2005	1511.5	.1
298.15	.6873	.2017	1519.61	.1
298.15	.7014	.1973	1519.07	.1
298.15	.7283	.1552	1529.49	.1
298.15	.7427	.1329	1535.17	.1
298.15	.7601	.1156	1540.76	.1
298.15	.8113	.1073	1550.78	.1
298.15	.8326	.1021	1555.35	.1
298.15	.8514	.0871	1560.87	.1
303.15	.0629	.7441	1293.94	.1
303.15	.1062	.7003	1310.25	.1
303.15	.1161	.6882	1314.2	.1
303.15	.1356	.6114	1328.32	.1
303.15	.1483	.5826	1335.09	.1
303.15	.1564	.5611	1339.6	.1
303.15	.2242	.4923	1364.54	.1
303.15	.2643	.4539	1378.91	.1
303.15	.2952	.4142	1390.97	.1
303.15	.3238	.3921	1400.14	.1
303.15	.3434	.3386	1411.22	.1
303.15	.3682	.3524	1413.81	.1
303.15	.3884	.3152	1423.93	.1
303.15	.4271	.2856	1436.08	.1
303.15	.4462	.2962	1438.83	.1
303.15	.4635	.2691	1445.61	.1
303.15	.4903	.2382	1455.04	.1
303.15	.5268	.2514	1460.63	.1
303.15	.5727	.3005	1463.62	.1
303.15	.6212	.2221	1482.57	.1
303.15	.6544	.2104	1489.99	.1
303.15	.6624	.2005	1492.84	.1
303.15	.6873	.2017	1497.19	.1
303.15	.7014	.1973	1500.11	.1
303.15	.7283	.1552	1510.14	.1
303.15	.7427	.1329	1515.43	.1
303.15	.7601	.1156	1520.76	.1
303.15	.8113	.1073	1530.67	.1
303.15	.8326	.1021	1535.11	.1
303.15	.8514	.0871	1540.14	.1
308.15	.0629	.7441	1272.37	.1
308.15	.1062	.7003	1288.9	.1
308.15	.1161	.6882	1293.01	.1
308.15	.1356	.6114	1307.31	.1
308.15	.1483	.5826	1314.19	.1
308.15	.1564	.5611	1318.89	.1
308.15	.2242	.4923	1344.05	.1
308.15	.2643	.4539	1358.63	.1
308.15	.2952	.4142	1370.87	.1
308.15	.3238	.3921	1380.04	.1
308.15	.3434	.3386	1391.17	.1
308.15	.3682	.3524	1395.01	.1
308.15	.3884	.3152	1404.3	.1
308.15	.4271	.2856	1416.32	.1
308.15	.4462	.2962	1418.81	.1
308.15	.4635	.2691	1425.99	.1
308.15	.4903	.2382	1435.07	.1
308.15	.5268	.2514	1441.2	.1
308.15	.5727	.3005	1443.19	.1
308.15	.6212	.2221	1462.26	.1
308.15	.6544	.2104	1469.93	.1
308.15	.6624	.2005	1472.62	.1
308.15	.6873	.2017	1476.72	.1
308.15	.7014	.1973	1479.45	.1
308.15	.7283	.1552	1489.83	.1
308.15	.7427	.1329	1495.27	.1
308.15	.7601	.1156	1500.48	.1
308.15	.8113	.1073	1510.35	.1
308.15	.8326	.1021	1514.64	.1
308.15	.8514	.0871	1519.8	.1

System: 2-methylbenzenamine + 2-picoline + oxane; phases: Liquid
Fixed: Pressure, kPa = 101
Property: Excess molar volume, m3/mol (Liquid); method: Calculated with densities of this investigation
Temperature, K	Mole fraction of 2-methylbenzenamine	Mole fraction of oxane	Excess molar volume, m3/mol	uncertainty
298.15	.0629	.7441	-.0000002672	.0000000006
298.15	.1062	.7003	-.0000003682	.0000000006
298.15	.1161	.6882	-.0000004178	.0000000006
298.15	.1356	.6114	-.0000004744	.0000000006
298.15	.1483	.5826	-.0000005045	.0000000006
298.15	.1564	.5611	-.0000005246	.0000000006
298.15	.2242	.4923	-.0000006418	.0000000006
298.15	.2643	.4539	-.0000006911	.0000000006
298.15	.2952	.4142	-.0000007212	.0000000006
298.15	.3238	.3921	-.0000007402	.0000000006
298.15	.3434	.3386	-.0000007619	.0000000006
298.15	.3682	.3524	-.0000007612	.0000000006
298.15	.3884	.3152	-.0000007711	.0000000006
298.15	.4271	.2856	-.0000007729	.0000000006
298.15	.4462	.2962	-.0000007581	.0000000006
298.15	.4635	.2691	-.0000007599	.0000000006
298.15	.4903	.2382	-.0000007522	.0000000006
298.15	.5268	.2514	-.0000007138	.0000000006
298.15	.5727	.3005	-.0000006541	.0000000006
298.15	.6212	.2221	-.0000006117	.0000000006
298.15	.6544	.2104	-.0000005686	.0000000006
298.15	.6624	.2005	-.0000005582	.0000000006
298.15	.6873	.2017	-.0000005226	.0000000006
298.15	.7014	.1973	-.0000005013	.0000000006
298.15	.7283	.1552	-.0000004651	.0000000006
298.15	.7427	.1329	-.0000004449	.0000000006
298.15	.7601	.1156	-.0000004185	.0000000006
298.15	.8113	.1073	-.0000003314	.0000000006
298.15	.8326	.1021	-.0000002945	.0000000006
298.15	.8514	.0871	-.0000002619	.0000000006
303.15	.0629	.7441	-.0000002786	.0000000007
303.15	.1062	.7003	-.0000004063	.0000000007
303.15	.1161	.6882	-.0000004325	.0000000007
303.15	.1356	.6114	-.0000004882	.0000000007
303.15	.1483	.5826	-.0000005197	.0000000007
303.15	.1564	.5611	-.0000005386	.0000000007
303.15	.2242	.4923	-.000000655	.0000000007
303.15	.2643	.4539	-.000000704	.0000000007
303.15	.2952	.4142	-.0000007359	.0000000007
303.15	.3238	.3921	-.0000007536	.0000000007
303.15	.3434	.3386	-.0000007738	.0000000007
303.15	.3682	.3524	-.0000007729	.0000000007
303.15	.3884	.3152	-.0000007841	.0000000007
303.15	.4271	.2856	-.0000007829	.0000000007
303.15	.4462	.2962	-.0000007733	.0000000007
303.15	.4635	.2691	-.0000007711	.0000000007
303.15	.4903	.2382	-.0000007636	.0000000007
303.15	.5268	.2514	-.0000007301	.0000000007
303.15	.5727	.3005	-.0000006751	.0000000007
303.15	.6212	.2221	-.0000006329	.0000000007
303.15	.6544	.2104	-.0000005901	.0000000007
303.15	.6624	.2005	-.0000005817	.0000000007
303.15	.6873	.2017	-.0000005467	.0000000007
303.15	.7014	.1973	-.0000005269	.0000000007
303.15	.7283	.1552	-.0000004881	.0000000007
303.15	.7427	.1329	-.0000004662	.0000000007
303.15	.7601	.1156	-.0000004379	.0000000007
303.15	.8113	.1073	-.0000003538	.0000000007
303.15	.8326	.1021	-.0000003177	.0000000007
303.15	.8514	.0871	-.0000002833	.0000000007
308.15	.0629	.7441	-.0000002912	.0000000007
308.15	.1062	.7003	-.0000004213	.0000000007
308.15	.1161	.6882	-.0000004487	.0000000007
308.15	.1356	.6114	-.0000005023	.0000000007
308.15	.1483	.5826	-.0000005335	.0000000007
308.15	.1564	.5611	-.0000005509	.0000000007
308.15	.2242	.4923	-.0000006691	.0000000007
308.15	.2643	.4539	-.0000007179	.0000000007
308.15	.2952	.4142	-.0000007479	.0000000007
308.15	.3238	.3921	-.0000007656	.0000000007
308.15	.3434	.3386	-.000000785	.0000000007
308.15	.3682	.3524	-.0000007849	.0000000007
308.15	.3884	.3152	-.0000007959	.0000000007
308.15	.4271	.2856	-.0000007968	.0000000007
308.15	.4462	.2962	-.0000007849	.0000000007
308.15	.4635	.2691	-.0000007858	.0000000007
308.15	.4903	.2382	-.0000007768	.0000000007
308.15	.5268	.2514	-.0000007451	.0000000007
308.15	.5727	.3005	-.0000006938	.0000000007
308.15	.6212	.2221	-.0000006511	.0000000007
308.15	.6544	.2104	-.0000006109	.0000000007
308.15	.6624	.2005	-.0000006012	.0000000007
308.15	.6873	.2017	-.0000005679	.0000000007
308.15	.7014	.1973	-.0000005488	.0000000007
308.15	.7283	.1552	-.0000005089	.0000000007
308.15	.7427	.1329	-.0000004856	.0000000007
308.15	.7601	.1156	-.0000004552	.0000000007
308.15	.8113	.1073	-.0000003725	.0000000007
308.15	.8326	.1021	-.0000003364	.0000000007
308.15	.8514	.0871	-.0000003005	.0000000007

System: 2-methylbenzenamine + pyridine, 3-methyl- + oxane; phases: Liquid
Fixed: Pressure, kPa = 101
Property: Mass density, kg/m3 (Liquid); method: Vibrating tube method
Temperature, K	Mole fraction of 2-methylbenzenamine	Mole fraction of oxane	Mass density, kg/m3	uncertainty
298.15	.1246	.6881	912.294	.002
298.15	.1443	.6456	916.767	.002
298.15	.1652	.6235	919.789	.002
298.15	.1844	.6013	922.643	.002
298.15	.2016	.5967	924.114	.002
298.15	.2265	.5734	927.342	.002
298.15	.2452	.5503	930.216	.002
298.15	.2638	.5336	932.376	.002
298.15	.3018	.5043	936.576	.002
298.15	.3225	.4842	939.092	.002
298.15	.3458	.4628	941.759	.002
298.15	.3661	.4338	944.711	.002
298.15	.3779	.4184	946.289	.002
298.15	.3925	.4007	948.149	.002
298.15	.4226	.3933	950.144	.002
298.15	.4872	.3424	956.312	.002
298.15	.5082	.3302	957.989	.002
298.15	.5226	.3234	959.017	.002
298.15	.5352	.3062	960.585	.002
298.15	.5452	.2829	962.401	.002
298.15	.5764	.2648	964.778	.002
298.15	.6054	.2435	967.189	.002
298.15	.6582	.1086	977.662	.002
298.15	.6835	.2004	972.669	.002
298.15	.7251	.1502	977.33	.002
298.15	.7823	.1121	981.315	.002
298.15	.8145	.1023	982.895	.002
298.15	.8392	.0921	984.263	.002
298.15	.8442	.0826	984.989	.002
298.15	.8513	.0801	985.35	.002
303.15	.1246	.6881	907.455	.002
303.15	.1443	.6456	911.943	.002
303.15	.1652	.6235	914.987	.002
303.15	.1844	.6013	917.879	.002
303.15	.2016	.5967	919.35	.002
303.15	.2265	.5734	922.615	.002
303.15	.2452	.5503	925.391	.002
303.15	.2638	.5336	927.672	.002
303.15	.3018	.5043	931.938	.002
303.15	.3225	.4842	934.46	.002
303.15	.3458	.4628	937.148	.002
303.15	.3661	.4338	940.108	.002
303.15	.3779	.4184	941.691	.002
303.15	.3925	.4007	943.56	.002
303.15	.4226	.3933	945.597	.002
303.15	.4872	.3424	951.814	.002
303.15	.5082	.3302	953.53	.002
303.15	.5226	.3234	954.591	.002
303.15	.5352	.3062	956.164	.002
303.15	.5452	.2829	957.962	.002
303.15	.5764	.2648	960.368	.002
303.15	.6054	.2435	962.834	.002
303.15	.6582	.1086	973.379	.002
303.15	.6835	.2004	968.397	.002
303.15	.7251	.1502	972.913	.002
303.15	.7823	.1121	977.139	.002
303.15	.8145	.1023	978.766	.002
303.15	.8392	.0921	980.15	.002
303.15	.8513	.0801	980.782	.002
303.15	.8442	.0826	981.334	.002
308.15	.1246	.6881	902.52	.002
308.15	.1443	.6456	907.094	.002
308.15	.1652	.6235	910.207	.002
308.15	.1844	.6013	913.16	.002
308.15	.2016	.5967	914.717	.002
308.15	.2265	.5734	918.085	.002
308.15	.2452	.5503	920.913	.002
308.15	.2638	.5336	923.254	.002
308.15	.3018	.5043	927.635	.002
308.15	.3225	.4842	930.211	.002
308.15	.3458	.4628	932.949	.002
308.15	.3661	.4338	935.835	.002
308.15	.3779	.4184	937.407	.002
308.15	.3925	.4007	939.262	.002
308.15	.4226	.3933	941.406	.002
308.15	.4872	.3424	947.641	.002
308.15	.5082	.3302	949.385	.002
308.15	.5226	.3234	950.474	.002
308.15	.5352	.3062	951.969	.002
308.15	.5452	.2829	953.679	.002
308.15	.5764	.2648	956.114	.002
308.15	.6054	.2435	958.566	.002
308.15	.6582	.1086	969.314	.002
308.15	.6835	.2004	964.007	.002
308.15	.7251	.1502	968.662	.002
308.15	.7823	.1121	972.952	.002
308.15	.8145	.1023	974.599	.002
308.15	.8392	.0921	976.006	.002
308.15	.8442	.0826	976.643	.002
308.15	.8513	.0801	977.189	.002

System: 2-methylbenzenamine + pyridine, 3-methyl- + oxane; phases: Liquid
Fixed: Pressure, kPa = 101
Property: Speed of sound, m/s (Liquid); method: Sing-around technique in a fixed-path interferometer
Temperature, K	Mole fraction of 2-methylbenzenamine	Mole fraction of oxane	Speed of sound, m/s	uncertainty
298.15	.1246	.6881	1345.75	.1
298.15	.1443	.6456	1356.87	.1
298.15	.1652	.6235	1364.76	.1
298.15	.1844	.6013	1372.49	.1
298.15	.2016	.5967	1376.94	.1
298.15	.2265	.5734	1385.88	.1
298.15	.2452	.5503	1393.09	.1
298.15	.2638	.5336	1399.6	.1
298.15	.3018	.5043	1411.87	.1
298.15	.3225	.4842	1419.1	.1
298.15	.3458	.4628	1426.8	.1
298.15	.3661	.4338	1434.35	.1
298.15	.3779	.4184	1438.6	.1
298.15	.3925	.4007	1443.84	.1
298.15	.4226	.3933	1450.62	.1
298.15	.4872	.3424	1468.82	.1
298.15	.5082	.3302	1474.3	.1
298.15	.5226	.3234	1477.57	.1
298.15	.5352	.3062	1481.64	.1
298.15	.5452	.2829	1485.97	.1
298.15	.5764	.2648	1493.54	.1
298.15	.6054	.2435	1500.93	.1
298.15	.6582	.1086	1527.26	.1
298.15	.6835	.2004	1519.2	.1
298.15	.7251	.1502	1531.83	.1
298.15	.7823	.1121	1546.68	.1
298.15	.8145	.1023	1553.35	.1
298.15	.8392	.0921	1558.96	.1
298.15	.8442	.0826	1560.58	.1
298.15	.8513	.0801	1563.49	.1
303.15	.1246	.6881	1323.07	.1
303.15	.1443	.6456	1334.05	.1
303.15	.1652	.6235	1342.35	.1
303.15	.1844	.6013	1350.21	.1
303.15	.2016	.5967	1354.98	.1
303.15	.2265	.5734	1364.14	.1
303.15	.2452	.5503	1371.89	.1
303.15	.2638	.5336	1378.45	.1
303.15	.3018	.5043	1391.64	.1
303.15	.3225	.4842	1398.95	.1
303.15	.3458	.4628	1406.68	.1
303.15	.3661	.4338	1414.27	.1
303.15	.3779	.4184	1418.35	.1
303.15	.3925	.4007	1423.19	.1
303.15	.4226	.3933	1431.39	.1
303.15	.4872	.3424	1450.05	.1
303.15	.5082	.3302	1455.71	.1
303.15	.5226	.3234	1459.5	.1
303.15	.5352	.3062	1462.91	.1
303.15	.5452	.2829	1466.3	.1
303.15	.5764	.2648	1474.35	.1
303.15	.6054	.2435	1482.17	.1
303.15	.6582	.1086	1513.53	.1
303.15	.6835	.2004	1501.08	.1
303.15	.7251	.1502	1514.2	.1
303.15	.7823	.1121	1529.03	.1
303.15	.8145	.1023	1535.36	.1
303.15	.8392	.0921	1540.48	.1
303.15	.8513	.0801	1542.01	.1
303.15	.8442	.0826	1545.09	.1
308.15	.1246	.6881	1302.81	.1
308.15	.1443	.6456	1313.71	.1
308.15	.1652	.6235	1321.58	.1
308.15	.1844	.6013	1328.85	.1
308.15	.2016	.5967	1332.93	.1
308.15	.2265	.5734	1341.26	.1
308.15	.2452	.5503	1348.75	.1
308.15	.2638	.5336	1354.72	.1
308.15	.3018	.5043	1366.5	.1
308.15	.3225	.4842	1373.32	.1
308.15	.3458	.4628	1380.98	.1
308.15	.3661	.4338	1389.72	.1
308.15	.3779	.4184	1394.54	.1
308.15	.3925	.4007	1400.13	.1
308.15	.4226	.3933	1405.86	.1
308.15	.4872	.3424	1425.09	.1
308.15	.5082	.3302	1430.63	.1
308.15	.5226	.3234	1433.97	.1
308.15	.5352	.3062	1439.06	.1
308.15	.5452	.2829	1444.63	.1
308.15	.5764	.2648	1452.58	.1
308.15	.6054	.2435	1460.33	.1
308.15	.6582	.1086	1487.89	.1
308.15	.6835	.2004	1479.02	.1
308.15	.7251	.1502	1493.02	.1
308.15	.7823	.1121	1507.19	.1
308.15	.8145	.1023	1513.58	.1
308.15	.8392	.0921	1518.68	.1
308.15	.8442	.0826	1520.17	.1
308.15	.8513	.0801	1523.11	.1

System: 2-methylbenzenamine + pyridine, 3-methyl- + oxane; phases: Liquid
Fixed: Pressure, kPa = 101
Property: Excess molar volume, m3/mol (Liquid); method: Calculated with densities of this investigation
Temperature, K	Mole fraction of 2-methylbenzenamine	Mole fraction of oxane	Excess molar volume, m3/mol	uncertainty
298.15	.1246	.6881	-.0000004441	.0000000006
298.15	.1443	.6456	-.0000004894	.0000000006
298.15	.1652	.6235	-.0000005318	.0000000006
298.15	.1844	.6013	-.0000005653	.0000000006
298.15	.2016	.5967	-.0000005976	.0000000006
298.15	.2265	.5734	-.0000006348	.0000000006
298.15	.2452	.5503	-.000000669	.0000000006
298.15	.2638	.5336	-.0000006771	.0000000006
298.15	.3018	.5043	-.0000007102	.0000000006
298.15	.3225	.4842	-.0000007224	.0000000006
298.15	.3458	.4628	-.0000007291	.0000000006
298.15	.3661	.4338	-.0000007247	.0000000006
298.15	.3779	.4184	-.000000719	.0000000006
298.15	.3925	.4007	-.0000007129	.0000000006
298.15	.4226	.3933	-.0000007243	.0000000006
298.15	.4872	.3424	-.0000006927	.0000000006
298.15	.5082	.3302	-.0000006817	.0000000006
298.15	.5226	.3234	-.0000006732	.0000000006
298.15	.5352	.3062	-.0000006538	.0000000006
298.15	.5452	.2829	-.000000628	.0000000006
298.15	.5764	.2648	-.0000006036	.0000000006
298.15	.6054	.2435	-.0000005708	.0000000006
298.15	.6582	.1086	-.0000004595	.0000000006
298.15	.6835	.2004	-.0000004866	.0000000006
298.15	.7251	.1502	-.000000433	.0000000006
298.15	.7823	.1121	-.0000003317	.0000000006
298.15	.8145	.1023	-.0000002903	.0000000006
298.15	.8392	.0921	-.0000002567	.0000000006
298.15	.8442	.0826	-.0000002444	.0000000006
298.15	.8513	.0801	-.0000002346	.0000000006
303.15	.1246	.6881	-.0000004585	.0000000006
303.15	.1443	.6456	-.0000005023	.0000000006
303.15	.1652	.6235	-.0000005451	.0000000006
303.15	.1844	.6013	-.0000005808	.0000000006
303.15	.2016	.5967	-.0000006123	.0000000006
303.15	.2265	.5734	-.0000006513	.0000000006
303.15	.2452	.5503	-.0000006728	.0000000006
303.15	.2638	.5336	-.0000006922	.0000000006
303.15	.3018	.5043	-.0000007291	.0000000006
303.15	.3225	.4842	-.0000007397	.0000000006
303.15	.3458	.4628	-.0000007462	.0000000006
303.15	.3661	.4338	-.0000007398	.0000000006
303.15	.3779	.4184	-.000000733	.0000000006
303.15	.3925	.4007	-.0000007259	.0000000006
303.15	.4226	.3933	-.0000007401	.0000000006
303.15	.4872	.3424	-.0000007069	.0000000006
303.15	.5082	.3302	-.0000006982	.0000000006
303.15	.5226	.3234	-.000000692	.0000000006
303.15	.5352	.3062	-.0000006712	.0000000006
303.15	.5452	.2829	-.0000006412	.0000000006
303.15	.5764	.2648	-.0000006169	.0000000006
303.15	.6054	.2435	-.0000005869	.0000000006
303.15	.6582	.1086	-.0000004701	.0000000006
303.15	.6835	.2004	-.0000005042	.0000000006
303.15	.7251	.1502	-.000000429	.0000000006
303.15	.7823	.1121	-.0000003473	.0000000006
303.15	.8145	.1023	-.0000003085	.0000000006
303.15	.8392	.0921	-.0000002745	.0000000006
303.15	.8513	.0801	-.000000251	.0000000006
303.15	.8442	.0826	-.0000002613	.0000000006
308.15	.1246	.6881	-.0000004656	.0000000007
308.15	.1443	.6456	-.0000005158	.0000000007
308.15	.1652	.6235	-.0000005644	.0000000007
308.15	.1844	.6013	-.0000006049	.0000000007
308.15	.2016	.5967	-.000000645	.0000000007
308.15	.2265	.5734	-.0000006929	.0000000007
308.15	.2452	.5503	-.000000718	.0000000007
308.15	.2638	.5336	-.0000007421	.0000000007
308.15	.3018	.5043	-.0000007881	.0000000007
308.15	.3225	.4842	-.0000008024	.0000000007
308.15	.3458	.4628	-.0000008119	.0000000007
308.15	.3661	.4338	-.0000007944	.0000000007
308.15	.3779	.4184	-.0000007847	.0000000007
308.15	.3925	.4007	-.0000007741	.0000000007
308.15	.4226	.3933	-.0000007981	.0000000007
308.15	.4872	.3424	-.0000007601	.0000000007
308.15	.5082	.3302	-.0000007524	.0000000007
308.15	.5226	.3234	-.0000007481	.0000000007
308.15	.5352	.3062	-.0000007168	.0000000007
308.15	.5452	.2829	-.0000006749	.0000000007
308.15	.5764	.2648	-.0000006508	.0000000007
308.15	.6054	.2435	-.0000006161	.0000000007
308.15	.6582	.1086	-.0000005082	.0000000007
308.15	.6835	.2004	-.0000005126	.0000000007
308.15	.7251	.1502	-.0000004463	.0000000007
308.15	.7823	.1121	-.0000003655	.0000000007
308.15	.8145	.1023	-.0000003263	.0000000007
308.15	.8392	.0921	-.0000002925	.0000000007
308.15	.8442	.0826	-.0000002684	.0000000007
308.15	.8513	.0801	-.0000002776	.0000000007

System: 2-methylbenzenamine + 4-methylpyridine + oxane; phases: Liquid
Fixed: Pressure, kPa = 101
Property: Mass density, kg/m3 (Liquid); method: Vibrating tube method
Temperature, K	Mole fraction of 2-methylbenzenamine	Mole fraction of oxane	Mass density, kg/m3	uncertainty
298.15	.0741	.752	903.473	.002
298.15	.0821	.7863	901.617	.002
298.15	.1021	.7562	905.312	.002
298.15	.1123	.6843	911.19	.002
298.15	.1604	.6008	920.451	.002
298.15	.2352	.5543	928.517	.002
298.15	.3024	.5016	936.03	.002
298.15	.3192	.4821	938.277	.002
298.15	.3378	.4403	942.032	.002
298.15	.3566	.4556	942.039	.002
298.15	.3721	.4289	944.591	.002
298.15	.4463	.2987	956.509	.002
298.15	.4903	.3413	955.842	.002
298.15	.5388	.2609	962.925	.002
298.15	.5522	.3136	960.213	.002
298.15	.5813	.2542	965.066	.002
298.15	.6008	.2234	967.71	.002
298.15	.6313	.1709	972.032	.002
298.15	.6529	.2113	970.443	.002
298.15	.6755	.2014	971.873	.002
298.15	.6901	.2151	971.571	.002
298.15	.7222	.1689	975.482	.002
298.15	.7389	.2066	973.813	.002
298.15	.7496	.2009	974.525	.002
298.15	.7662	.1852	976.032	.002
298.15	.7818	.1229	980.254	.002
298.15	.8004	.1289	980.526	.002
298.15	.8156	.0881	983.405	.002
298.15	.8352	.1006	983.331	.002
298.15	.8511	.0752	985.318	.002
303.15	.0741	.752	898.524	.002
303.15	.0821	.7863	896.68	.002
303.15	.1021	.7562	900.421	.002
303.15	.1123	.6843	906.317	.002
303.15	.1604	.6008	915.649	.002
303.15	.2352	.5543	923.986	.002
303.15	.3024	.5016	931.765	.002
303.15	.3192	.4821	933.985	.002
303.15	.3378	.4403	937.558	.002
303.15	.3566	.4556	937.876	.002
303.15	.3721	.4289	940.29	.002
303.15	.4463	.2987	951.815	.002
303.15	.4903	.3413	951.642	.002
303.15	.5388	.2609	958.395	.002
303.15	.5522	.3136	956.214	.002
303.15	.5813	.2542	960.679	.002
303.15	.6008	.2234	963.278	.002
303.15	.6313	.1709	968.054	.002
303.15	.6529	.2113	966.141	.002
303.15	.6755	.2014	967.619	.002
303.15	.6901	.2151	967.495	.002
303.15	.7222	.1689	971.257	.002
303.15	.7389	.2066	970.294	.002
303.15	.7496	.2009	971.046	.002
303.15	.7662	.1852	972.498	.002
303.15	.7818	.1229	975.936	.002
303.15	.8004	.1289	976.487	.002
303.15	.8156	.0881	978.882	.002
303.15	.8352	.1006	979.202	.002
303.15	.8511	.0752	980.946	.002
308.15	.0741	.752	893.54	.002
308.15	.0821	.7863	891.722	.002
308.15	.1021	.7562	895.514	.002
308.15	.1123	.6843	901.41	.002
308.15	.1604	.6008	910.827	.002
308.15	.2352	.5543	919.444	.002
308.15	.3024	.5016	927.451	.002
308.15	.3192	.4821	929.669	.002
308.15	.3378	.4403	933.058	.002
308.15	.3566	.4556	933.678	.002
308.15	.3721	.4289	935.987	.002
308.15	.4463	.2987	947.13	.002
308.15	.4903	.3413	947.423	.002
308.15	.5388	.2609	953.863	.002
308.15	.5522	.3136	952.207	.002
308.15	.5813	.2542	956.298	.002
308.15	.6008	.2234	958.855	.002
308.15	.6313	.1709	963.527	.002
308.15	.6529	.2113	961.845	.002
308.15	.6755	.2014	963.377	.002
308.15	.6901	.2151	963.402	.002
308.15	.7222	.1689	967.063	.002
308.15	.7389	.2066	965.91	.002
308.15	.7496	.2009	966.605	.002
308.15	.7662	.1852	968.062	.002
308.15	.7818	.1229	971.955	.002
308.15	.8004	.1289	972.316	.002
308.15	.8156	.0881	975.208	.002
308.15	.8352	.1006	975.152	.002
308.15	.8511	.0752	977.152	.002

System: 2-methylbenzenamine + 4-methylpyridine + oxane; phases: Liquid
Fixed: Pressure, kPa = 101
Property: Speed of sound, m/s (Liquid); method: Sing-around technique in a fixed-path interferometer
Temperature, K	Mole fraction of 2-methylbenzenamine	Mole fraction of oxane	Speed of sound, m/s	uncertainty
298.15	.0741	.752	1324.37	.1
298.15	.0821	.7863	1320.45	.1
298.15	.1021	.7562	1329.5	.1
298.15	.1123	.6843	1343.14	.1
298.15	.1604	.6008	1366.16	.1
298.15	.2352	.5543	1388.69	.1
298.15	.3024	.5016	1410.39	.1
298.15	.3192	.4821	1416.29	.1
298.15	.3378	.4403	1425.72	.1
298.15	.3566	.4556	1427.45	.1
298.15	.3721	.4289	1434.11	.1
298.15	.4463	.2987	1464.81	.1
298.15	.4903	.3413	1467.58	.1
298.15	.5388	.2609	1485.95	.1
298.15	.5522	.3136	1482.35	.1
298.15	.5813	.2542	1494.13	.1
298.15	.6008	.2234	1501.26	.1
298.15	.6313	.1709	1513.95	.1
298.15	.6529	.2113	1511.71	.1
298.15	.6755	.2014	1516.6	.1
298.15	.6901	.2151	1517.61	.1
298.15	.7222	.1689	1528.59	.1
298.15	.7389	.2066	1526.6	.1
298.15	.7496	.2009	1529.18	.1
298.15	.7662	.1852	1533.73	.1
298.15	.7818	.1229	1544.92	.1
298.15	.8004	.1289	1547.07	.1
298.15	.8156	.0881	1555.74	.1
298.15	.8352	.1006	1556.86	.1
298.15	.8511	.0752	1563.55	.1
303.15	.0741	.752	1302.77	.1
303.15	.0821	.7863	1298.87	.1
303.15	.1021	.7562	1308.15	.1
303.15	.1123	.6843	1321.94	.1
303.15	.1604	.6008	1345.66	.1
303.15	.2352	.5543	1368.84	.1
303.15	.3024	.5016	1390.7	.1
303.15	.3192	.4821	1397.14	.1
303.15	.3378	.4403	1406.28	.1
303.15	.3566	.4556	1408.55	.1
303.15	.3721	.4289	1414.9	.1
303.15	.4463	.2987	1445.62	.1
303.15	.4903	.3413	1449.11	.1
303.15	.5388	.2609	1467.23	.1
303.15	.5522	.3136	1464.02	.1
303.15	.5813	.2542	1475.6	.1
303.15	.6008	.2234	1482.71	.1
303.15	.6313	.1709	1494.48	.1
303.15	.6529	.2113	1492.85	.1
303.15	.6755	.2014	1498.09	.1
303.15	.6901	.2151	1499.06	.1
303.15	.7222	.1689	1509.54	.1
303.15	.7389	.2066	1507.59	.1
303.15	.7496	.2009	1510.11	.1
303.15	.7662	.1852	1514.68	.1
303.15	.7818	.1229	1525.14	.1
303.15	.8004	.1289	1527.19	.1
303.15	.8156	.0881	1535.44	.1
303.15	.8352	.1006	1536.66	.1
303.15	.8511	.0752	1542.72	.1
308.15	.0741	.752	1281.7	.1
308.15	.0821	.7863	1277.7	.1
308.15	.1021	.7562	1286.8	.1
308.15	.1123	.6843	1301	.1
308.15	.1604	.6008	1324.47	.1
308.15	.2352	.5543	1346.63	.1
308.15	.3024	.5016	1367.66	.1
308.15	.3192	.4821	1373.96	.1
308.15	.3378	.4403	1384.29	.1
308.15	.3566	.4556	1384.89	.1
308.15	.3721	.4289	1392.04	.1
308.15	.4463	.2987	1426.63	.1
308.15	.4903	.3413	1426.27	.1
308.15	.5388	.2609	1447.44	.1
308.15	.5522	.3136	1440.65	.1
308.15	.5813	.2542	1455.19	.1
308.15	.6008	.2234	1463.1	.1
308.15	.6313	.1709	1475.37	.1
308.15	.6529	.2113	1472.79	.1
308.15	.6755	.2014	1477.5	.1
308.15	.6901	.2151	1477.38	.1
308.15	.7222	.1689	1489.42	.1
308.15	.7389	.2066	1485.97	.1
308.15	.7496	.2009	1488.68	.1
308.15	.7662	.1852	1493.56	.1
308.15	.7818	.1229	1505.17	.1
308.15	.8004	.1289	1507.21	.1
308.15	.8156	.0881	1515.53	.1
308.15	.8352	.1006	1516.51	.1
308.15	.8511	.0752	1522.74	.1

System: 2-methylbenzenamine + 4-methylpyridine + oxane; phases: Liquid
Fixed: Pressure, kPa = 101
Property: Excess molar volume, m3/mol (Liquid); method: Calculated with densities of this investigation
Temperature, K	Mole fraction of 2-methylbenzenamine	Mole fraction of oxane	Excess molar volume, m3/mol	uncertainty
298.15	.0741	.752	-.0000002996	.0000000005
298.15	.0821	.7863	-.0000003155	.0000000005
298.15	.1021	.7562	-.0000003709	.0000000005
298.15	.1123	.6843	-.0000004001	.0000000005
298.15	.1604	.6008	-.0000004974	.0000000005
298.15	.2352	.5543	-.0000006086	.0000000005
298.15	.3024	.5016	-.000000665	.0000000005
298.15	.3192	.4821	-.0000006731	.0000000005
298.15	.3378	.4403	-.0000006691	.0000000005
298.15	.3566	.4556	-.0000006863	.0000000005
298.15	.3721	.4289	-.0000006828	.0000000005
298.15	.4463	.2987	-.0000006288	.0000000005
298.15	.4903	.3413	-.0000006514	.0000000005
298.15	.5388	.2609	-.0000005881	.0000000005
298.15	.5522	.3136	-.000000615	.0000000005
298.15	.5813	.2542	-.0000005644	.0000000005
298.15	.6008	.2234	-.0000005321	.0000000005
298.15	.6313	.1709	-.0000004732	.0000000005
298.15	.6529	.2113	-.0000004915	.0000000005
298.15	.6755	.2014	-.0000004677	.0000000005
298.15	.6901	.2151	-.0000004651	.0000000005
298.15	.7222	.1689	-.0000004051	.0000000005
298.15	.7389	.2066	-.0000004174	.0000000005
298.15	.7496	.2009	-.0000004037	.0000000005
298.15	.7662	.1852	-.0000003771	.0000000005
298.15	.7818	.1229	-.0000003165	.0000000005
298.15	.8004	.1289	-.0000003036	.0000000005
298.15	.8156	.0881	-.0000002554	.0000000005
298.15	.8352	.1006	-.0000002474	.0000000005
298.15	.8511	.0752	-.0000002104	.0000000005
303.15	.0741	.752	-.0000003104	.0000000005
303.15	.0821	.7863	-.0000003286	.0000000005
303.15	.1021	.7562	-.0000003872	.0000000005
303.15	.1123	.6843	-.000000415	.0000000005
303.15	.1604	.6008	-.0000005143	.0000000005
303.15	.2352	.5543	-.0000006491	.0000000005
303.15	.3024	.5016	-.0000007278	.0000000005
303.15	.3192	.4821	-.0000007311	.0000000005
303.15	.3378	.4403	-.0000007041	.0000000005
303.15	.3566	.4556	-.0000007545	.0000000005
303.15	.3721	.4289	-.0000007338	.0000000005
303.15	.4463	.2987	-.0000006258	.0000000005
303.15	.4903	.3413	-.0000007008	.0000000005
303.15	.5388	.2609	-.0000005942	.0000000005
303.15	.5522	.3136	-.0000006802	.0000000005
303.15	.5813	.2542	-.0000005824	.0000000005
303.15	.6008	.2234	-.0000005422	.0000000005
303.15	.6313	.1709	-.0000005268	.0000000005
303.15	.6529	.2113	-.0000005111	.0000000005
303.15	.6755	.2014	-.0000004902	.0000000005
303.15	.6901	.2151	-.0000005066	.0000000005
303.15	.7222	.1689	-.0000004254	.0000000005
303.15	.7389	.2066	-.0000005152	.0000000005
303.15	.7496	.2009	-.0000005046	.0000000005
303.15	.7662	.1852	-.0000004699	.0000000005
303.15	.7818	.1229	-.0000003196	.0000000005
303.15	.8004	.1289	-.0000003359	.0000000005
303.15	.8156	.0881	-.0000002317	.0000000005
303.15	.8352	.1006	-.0000002657	.0000000005
303.15	.8511	.0752	-.0000001996	.0000000005
308.15	.0741	.752	-.0000003161	.0000000006
308.15	.0821	.7863	-.0000003391	.0000000006
308.15	.1021	.7562	-.0000004013	.0000000006
308.15	.1123	.6843	-.0000004245	.0000000006
308.15	.1604	.6008	-.0000005268	.0000000006
308.15	.2352	.5543	-.0000006871	.0000000006
308.15	.3024	.5016	-.0000007849	.0000000006
308.15	.3192	.4821	-.0000007859	.0000000006
308.15	.3378	.4403	-.000000735	.0000000006
308.15	.3566	.4556	-.0000008188	.0000000006
308.15	.3721	.4289	-.000000784	.0000000006
308.15	.4463	.2987	-.0000006211	.0000000006
308.15	.4903	.3413	-.0000007482	.0000000006
308.15	.5388	.2609	-.0000005988	.0000000006
308.15	.5522	.3136	-.0000007458	.0000000006
308.15	.5813	.2542	-.0000006008	.0000000006
308.15	.6008	.2234	-.0000005526	.0000000006
308.15	.6313	.1709	-.0000005206	.0000000006
308.15	.6529	.2113	-.0000005317	.0000000006
308.15	.6755	.2014	-.0000005148	.0000000006
308.15	.6901	.2151	-.0000005478	.0000000006
308.15	.7222	.1689	-.0000004501	.0000000006
308.15	.7389	.2066	-.0000005219	.0000000006
308.15	.7496	.2009	-.0000005041	.0000000006
308.15	.7662	.1852	-.0000004678	.0000000006
308.15	.7818	.1229	-.0000003606	.0000000006
308.15	.8004	.1289	-.0000003558	.0000000006
308.15	.8156	.0881	-.0000003012	.0000000006
308.15	.8352	.1006	-.0000002945	.0000000006
308.15	.8511	.0752	-.0000002532	.0000000006
