Measured thermophysical data. Determination and chemical modeling of the solubility of FeSO4*7H2O in the Ti(SO4)2-H2SO4-H2O system
Source: J. Chem. Thermodyn., 2016, 10.1016/j.jct.2016.07.006
Compound 1: iron(II) sulfate, FeO4S, purity 99%
Compound 2: sulfuric acid, H2O4S, purity 95%
Compound 3: water, H2O, purity 99.8%

System: sulfuric acid + iron(II) sulfate + water; phases: Liquid, Crystal of intercomponent compound 1
Fixed: Pressure, kPa = 100
Fixed: Temperature, K = 298.15
Property: Molality, mol/kg of iron(II) sulfate (Liquid); method: Titration
Molality, mol/kg of sulfuric acid	Molality, mol/kg of iron(II) sulfate	uncertainty
.383	1.861	
.781	1.739	
1.175	1.642	
1.596	1.603	
1.973	1.52	
2.445	1.453	
