Measured thermophysical data. Solution thermodynamics of valnemulin hydrogen fumarate in different pure solvents
Source: J. Chem. Thermodyn., 2015, 10.1016/j.jct.2015.07.023
Compound 1: valnemulin hydrogen fumarate, C35H56N2O9S, purity 98%
Compound 2: ethanol, C2H6O, purity 99.5%
Compound 3: isopropanol, C3H8O, purity 99.5%
Compound 4: acetone, C3H6O, purity 99.5%
Compound 5: butyl acetate, C6H12O2, purity 99.5%
Compound 6: water, H2O

System: valnemulin hydrogen fumarate; phases: Crystal, Liquid, Air at 1 atmosphere
Property: Normal melting temperature, K (Crystal); method: DSC/DTA
Normal melting temperature, K	uncertainty
408.5	.5

System: valnemulin hydrogen fumarate; phases: Crystal, Liquid, Air at 1 atmosphere
Property: Molar enthalpy of transition or fusion, kJ/mol (Crystal); method: DSC
Molar enthalpy of transition or fusion, kJ/mol	uncertainty
25.06	.5012

System: ethanol + valnemulin hydrogen fumarate; phases: Liquid, Crystal
Fixed: Pressure, kPa = 100
Property: Mole fraction of valnemulin hydrogen fumarate (Liquid); method: Gravimetric method
Temperature, K	Mole fraction of valnemulin hydrogen fumarate	uncertainty
278.15	.01596	.0003192
283.15	.0173	.000346
288.15	.01994	.0003988
293.15	.02241	.0004482
298.15	.02797	.0005594
303.15	.0333	.000666
308.15	.04511	.0009022
313.15	.05302	.0010604
318.15	.06503	.0013006
323.15	.0731	.001462

System: isopropanol + valnemulin hydrogen fumarate; phases: Liquid, Crystal
Fixed: Pressure, kPa = 100
Property: Mole fraction of valnemulin hydrogen fumarate (Liquid); method: Gravimetric method
Temperature, K	Mole fraction of valnemulin hydrogen fumarate	uncertainty
278.15	.00345	.000069
283.15	.00414	.0000828
288.15	.00529	.0001058
293.15	.00614	.0001228
298.15	.00794	.0001588
303.15	.00995	.000199
308.15	.01506	.0003012
313.15	.02147	.0004294
318.15	.03126	.0006252
323.15	.0484	.000968

System: acetone + valnemulin hydrogen fumarate; phases: Liquid, Crystal
Fixed: Pressure, kPa = 100
Property: Mole fraction of valnemulin hydrogen fumarate (Liquid); method: Gravimetric method
Temperature, K	Mole fraction of valnemulin hydrogen fumarate	uncertainty
278.15	.01393	.0002786
283.15	.02074	.0004148
288.15	.02905	.000581
293.15	.04371	.0008742
298.15	.0656	.001312
303.15	.09248	.0018496
308.15	.1162	.002324
313.15	.1514	.003028
318.15	.1888	.003776
323.15	.2359	.004718

System: water + valnemulin hydrogen fumarate; phases: Liquid, Crystal
Fixed: Pressure, kPa = 100
Property: Mole fraction of valnemulin hydrogen fumarate (Liquid); method: Gravimetric method
Temperature, K	Mole fraction of valnemulin hydrogen fumarate	uncertainty
278.15	.0003734	.000007468
283.15	.0003984	.000007968
288.15	.0004158	.000008316
293.15	.0004762	.000009524
298.15	.0005093	.000010186
303.15	.0005654	.000011308
308.15	.0005938	.000011876
313.15	.0006466	.000012932
318.15	.0006738	.000013476
323.15	.000715	.0000143

System: butyl acetate + valnemulin hydrogen fumarate; phases: Liquid, Crystal
Fixed: Pressure, kPa = 100
Property: Mole fraction of valnemulin hydrogen fumarate (Liquid); method: Gravimetric method
Temperature, K	Mole fraction of valnemulin hydrogen fumarate	uncertainty
278.15	.0002273	.000004546
283.15	.0002594	.000005188
288.15	.0002899	.000005798
293.15	.0003207	.000006414
298.15	.0003485	.00000697
303.15	.0004014	.000008028
308.15	.0004601	.000009202
313.15	.0005174	.000010348
318.15	.0006151	.000012302
323.15	.000702	.00001404
