Measured thermophysical data. Determination and correlation of solubility and thermodynamic properties of L-methionine in binary solvents of water + (methanol, ethanol, acetone)
Source: J. Chem. Thermodyn., 2016, 10.1016/j.jct.2015.12.022
Compound 1: L-(-)-methionine, C5H11NO2S, purity 99.0%
Compound 2: methanol, CH4O, purity 99.5%
Compound 3: ethanol, C2H6O, purity 99.5%
Compound 4: acetone, C3H6O, purity 99.5%
Compound 5: water, H2O

System: L-(-)-methionine + methanol + water; phases: Liquid, Crystal
Fixed: Pressure, kPa = 100
Property: Mole fraction of L-(-)-methionine (Liquid); method: Gravimetric method
Solvent: Mole fraction of methanol	Temperature, K	Mole fraction of L-(-)-methionine	uncertainty
0	283.15	.00531	
0	288.15	.00555	
0	293.15	.00625	
0	298.15	.00681	
0	303.15	.00724	
0	308.15	.00787	
0	313.15	.00837	
.0347	283.15	.00439	
.0347	288.15	.00475	
.0347	293.15	.00526	
.0347	298.15	.00564	
.0347	303.15	.00634	
.0347	308.15	.00684	
.0347	313.15	.0074	
.1	283.15	.00297	
.1	288.15	.00345	
.1	293.15	.00386	
.1	298.15	.00433	
.1	303.15	.00485	
.1	308.15	.00532	
.1	313.15	.00605	
.2	283.15	.00187	
.2	288.15	.00247	
.2	293.15	.00269	
.2	298.15	.00308	
.2	303.15	.00364	
.2	308.15	.00391	
.2	313.15	.0047	
.3	283.15	.00145	
.3	288.15	.00183	
.3	293.15	.00202	
.3	298.15	.00224	
.3	303.15	.00281	
.3	308.15	.00313	
.3	313.15	.00366	
.4	283.15	.00123	
.4	288.15	.00152	
.4	293.15	.00164	
.4	298.15	.00188	
.4	303.15	.00225	
.4	308.15	.00248	
.4	313.15	.00282	
.5	283.15	.00095	
.5	288.15	.00117	
.5	293.15	.00133	
.5	298.15	.00152	
.5	303.15	.00178	
.5	308.15	.00196	
.5	313.15	.00224	
.6	283.15	.00072	
.6	288.15	.00094	
.6	293.15	.00107	
.6	298.15	.00117	
.6	303.15	.00139	
.6	308.15	.00149	
.6	313.15	.00168	
.7	283.15	.00063	
.7	288.15	.00077	
.7	293.15	.00081	
.7	298.15	.00087	
.7	303.15	.00102	
.7	308.15	.00112	
.7	313.15	.00125	
.8	283.15	.00049	
.8	288.15	.0006	
.8	293.15	.00063	
.8	298.15	.00066	
.8	303.15	.00078	
.8	308.15	.00084	
.8	313.15	.00093	

System: L-(-)-methionine + ethanol + water; phases: Liquid, Crystal
Fixed: Pressure, kPa = 100
Property: Mole fraction of L-(-)-methionine (Liquid); method: Gravimetric method
Solvent: Mole fraction of ethanol	Temperature, K	Mole fraction of L-(-)-methionine	uncertainty
0	283.15	.00531	
0	288.15	.00555	
0	293.15	.00625	
0	298.15	.00681	
0	303.15	.00724	
0	308.15	.00787	
0	313.15	.00837	
.033	283.15	.00391	
.033	288.15	.00442	
.033	293.15	.00483	
.033	298.15	.00529	
.033	303.15	.00592	
.033	308.15	.0065	
.033	313.15	.0069	
.1	283.15	.0022	
.1	288.15	.0025	
.1	293.15	.00291	
.1	298.15	.00344	
.1	303.15	.00389	
.1	308.15	.00464	
.1	313.15	.00532	
.2	283.15	.00138	
.2	288.15	.00174	
.2	293.15	.002	
.2	298.15	.00243	
.2	303.15	.00287	
.2	308.15	.00337	
.2	313.15	.00398	
.3	283.15	.00111	
.3	288.15	.00138	
.3	293.15	.0016	
.3	298.15	.0019	
.3	303.15	.00221	
.3	308.15	.00267	
.3	313.15	.00305	
.4	283.15	.00088	
.4	288.15	.00101	
.4	293.15	.00123	
.4	298.15	.00142	
.4	303.15	.00171	
.4	308.15	.00194	
.4	313.15	.00217	
.5	283.15	.00065	
.5	288.15	.00069	
.5	293.15	.00079	
.5	298.15	.00099	
.5	303.15	.00117	
.5	308.15	.00129	
.5	313.15	.00145	
.6	283.15	.00044	
.6	288.15	.00045	
.6	293.15	.00055	
.6	298.15	.00064	
.6	303.15	.00073	
.6	308.15	.00081	
.6	313.15	.00089	
.7	283.15	.00025	
.7	288.15	.00027	
.7	293.15	.00034	
.7	298.15	.00039	
.7	303.15	.00045	
.7	308.15	.00051	
.7	313.15	.00054	

System: L-(-)-methionine + acetone + water; phases: Liquid, Crystal
Fixed: Pressure, kPa = 100
Property: Mole fraction of L-(-)-methionine (Liquid); method: Gravimetric method
Solvent: Mole fraction of acetone	Temperature, K	Mole fraction of L-(-)-methionine	uncertainty
0	283.15	.00531	
0	288.15	.00555	
0	293.15	.00625	
0	298.15	.00681	
0	303.15	.00724	
0	308.15	.00787	
0	313.15	.00837	
.035	283.15	.00383	
.035	288.15	.0042	
.035	293.15	.00494	
.035	298.15	.00513	
.035	303.15	.00562	
.035	308.15	.00652	
.035	313.15	.00707	
.1	283.15	.00226	
.1	288.15	.00276	
.1	293.15	.00313	
.1	298.15	.00346	
.1	303.15	.00393	
.1	308.15	.00492	
.1	313.15	.00563	
.2	283.15	.0013	
.2	288.15	.00154	
.2	293.15	.00198	
.2	298.15	.00237	
.2	303.15	.00267	
.2	308.15	.00303	
.2	313.15	.00361	
.3	283.15	.00077	
.3	288.15	.00091	
.3	293.15	.00104	
.3	298.15	.00127	
.3	303.15	.00142	
.3	308.15	.00172	
.3	313.15	.00182	
.4	283.15	.00045	
.4	288.15	.00046	
.4	293.15	.00057	
.4	298.15	.00072	
.4	303.15	.00075	
.4	308.15	.00082	
.4	313.15	.00096	
.5	283.15	.00026	
.5	288.15	.00026	
.5	293.15	.0003	
.5	298.15	.00037	
.5	303.15	.00038	
.5	308.15	.00039	
.5	313.15	.00043	

System: L-(-)-methionine + water; phases: Liquid, Crystal
Property: Mole fraction of L-(-)-methionine (Liquid); method: Gravimetric method
Temperature, K	Pressure, kPa	Mole fraction of L-(-)-methionine	uncertainty
283.15	100	.00531	
288.15	100	.00555	
293.15	100	.00625	
298.15	100	.00681	
303.15	100	.00724	
308.15	100	.00787	
313.15	100	.00837	
