Measured thermophysical data. Effect of temperature on the physical properties of 1-butyl-3-methylimidazolium based ionic liquids with thiocyanate and tetrafluoroborate anions, and 1-hexyl-3-methylimidazolium with tetrafluoroborate and hexafluorophosphate anions
Source: J. Chem. Thermodyn., 2012, 10.1016/j.jct.2012.03.024
Compound 1: 1-butyl-3-methylimidazolium thiocyanate, C9H15N3S, purity 98%
Compound 2: [BMIM][BF4], C8H15BF4N2, purity 99%
Compound 3: 1-hexyl-3-methylimidazolium tetrafluoroborate, C10H19BF4N2, purity 99%
Compound 4: 1-hexyl-3-methylimidazolium hexafluorophosphate, C10H19F6N2P, purity 99%

System: 1-butyl-3-methylimidazolium thiocyanate; phases: Liquid
Fixed: Pressure, kPa = 101.325
Property: Mass density, kg/m3 (Liquid); method: Vibrating tube method
Temperature, K	Mass density, kg/m3	uncertainty
278.15	1081.62	.05
283.15	1078.6	.05
288.15	1075.56	.05
293.15	1072.54	.05
298.15	1069.54	.05
303.15	1066.55	.05
308.15	1063.58	.05
313.15	1060.63	.05
318.15	1057.68	.05
323.15	1054.76	.05
328.15	1051.84	.05
333.15	1048.94	.05
338.15	1046.05	.05
343.15	1043.17	.05
348.15	1040.3	.05
353.15	1037.44	.05
358.15	1034.57	.05
363.15	1031.73	.05

System: 1-butyl-3-methylimidazolium thiocyanate; phases: Liquid
Fixed: Pressure, kPa = 101.325
Property: Refractive index (Na D-line) (Liquid); method: Standard Abbe refractometry
Temperature, K	Refractive index (Na D-line)	uncertainty
293.15	1.54071	.00005
298.15	1.53921	.00005
303.15	1.53768	.00005
308.15	1.53623	.00005
313.15	1.53472	.00005
318.15	1.53319	.00005
323.15	1.53176	.00005
328.15	1.53033	.00005
333.15	1.5288	.00005
338.15	1.52743	.00005
343.15	1.52595	.00005

System: 1-butyl-3-methylimidazolium thiocyanate; phases: Liquid, Air at 1 atmosphere
Property: Surface tension liquid-gas, N/m (Liquid); method: Ring tensiometer
Temperature, K	Surface tension liquid-gas, N/m	uncertainty
283.15	.04896	.00001
293.15	.04726	.00001
303.15	.04541	.00001
313.15	.04334	.00001
323.15	.04135	.00001
333.15	.03923	.00001

System: 1-butyl-3-methylimidazolium thiocyanate; phases: Liquid
Fixed: Pressure, kPa = 101.325
Property: Viscosity, Pa*s (Liquid); method: Concentric cylinders viscometry
Temperature, K	Viscosity, Pa*s	uncertainty
283.15	.11241	.0033723
288.15	.0852	.002556
293.15	.06553	.0019659
298.15	.05106	.0015318
303.15	.04094	.0012282
308.15	.03323	.0009969
313.15	.02717	.0008151
318.15	.02277	.0006831
323.15	.01922	.0005766
328.15	.01619	.0004857
333.15	.01412	.0004236
338.15	.0122	.000366
343.15	.01071	.0003213
348.15	.00948	.0002844
353.15	.00828	.0002484
358.15	.0076	.000228
363.15	.00682	.0002046
368.15	.00613	.0001839

System: 1-butyl-3-methylimidazolium thiocyanate; phases: Liquid
Fixed: Pressure, kPa = 101.325
Property: Kinematic viscosity, m2/s (Liquid); method: Capillary tube (Ostwald; Ubbelohde) method
Temperature, K	Kinematic viscosity, m2/s	uncertainty
298.15	.00004993	.0000009986
303.15	.00004127	.0000008254
308.15	.00003346	.0000006692
313.15	.00002749	.0000005498
318.15	.00002291	.0000004582
323.15	.00001982	.0000003964
328.15	.00001685	.000000337
333.15	.00001462	.0000002924
338.15	.00001287	.0000002574
343.15	.00001142	.0000002284
348.15	.00001014	.0000002028
353.15	.00000902	.0000001804
358.15	.00000808	.0000001616
363.15	.00000734	.0000001468

System: [BMIM][BF4]; phases: Liquid
Fixed: Pressure, kPa = 101.325
Property: Mass density, kg/m3 (Liquid); method: Vibrating tube method
Temperature, K	Mass density, kg/m3	uncertainty
278.15	1215.33	.05
283.15	1211.72	.05
288.15	1208.08	.05
293.15	1204.47	.05
298.15	1200.85	.05
303.15	1197.26	.05
308.15	1193.69	.05
313.15	1190.14	.05
318.15	1186.61	.05
323.15	1183.1	.05
328.15	1179.61	.05
333.15	1176.13	.05
338.15	1172.67	.05
343.15	1169.22	.05
348.15	1165.78	.05
353.15	1162.36	.05
358.15	1158.95	.05
363.15	1155.55	.05

System: [BMIM][BF4]; phases: Liquid
Fixed: Pressure, kPa = 101.325
Property: Refractive index (Na D-line) (Liquid); method: Standard Abbe refractometry
Temperature, K	Refractive index (Na D-line)	uncertainty
293.15	1.4232	.00005
298.15	1.42191	.00005
303.15	1.42066	.00005
308.15	1.4194	.00005
313.15	1.41814	.00005
318.15	1.41689	.00005
323.15	1.41553	.00005
328.15	1.4144	.00005
333.15	1.41315	.00005
338.15	1.41197	.00005
343.15	1.4107	.00005

System: [BMIM][BF4]; phases: Liquid, Air at 1 atmosphere
Property: Surface tension liquid-gas, N/m (Liquid); method: Ring tensiometer
Temperature, K	Surface tension liquid-gas, N/m	uncertainty
283.15	.04542	.00001
293.15	.04461	.00001
303.15	.04379	.00001
313.15	.04308	.00001
323.15	.04258	.00001
333.15	.04196	.00001

System: [BMIM][BF4]; phases: Liquid
Fixed: Pressure, kPa = 101.325
Property: Viscosity, Pa*s (Liquid); method: Concentric cylinders viscometry
Temperature, K	Viscosity, Pa*s	uncertainty
283.15	.23348	.0070044
288.15	.16948	.0050844
293.15	.12554	.0037662
298.15	.09493	.0028479
303.15	.07342	.0022026
308.15	.05789	.0017367
313.15	.04601	.0013803
318.15	.03778	.0011334
323.15	.03089	.0009267
328.15	.02562	.0007686
333.15	.02165	.0006495
338.15	.01843	.0005529
343.15	.01562	.0004686
348.15	.01369	.0004107
353.15	.01193	.0003579
358.15	.01052	.0003156
363.15	.00936	.0002808
368.15	.00835	.0002505

System: [BMIM][BF4]; phases: Liquid
Fixed: Pressure, kPa = 101.325
Property: Kinematic viscosity, m2/s (Liquid); method: Capillary tube (Ostwald; Ubbelohde) method
Temperature, K	Kinematic viscosity, m2/s	uncertainty
298.15	.00008308	.0000016616
303.15	.0000684	.000001368
308.15	.0000537	.000001074
313.15	.0000421	.000000842
318.15	.00003412	.0000006824
323.15	.00002933	.0000005866
328.15	.00002415	.000000483
333.15	.00002036	.0000004072
338.15	.00001757	.0000003514
343.15	.00001529	.0000003058
348.15	.0000133	.000000266
353.15	.00001165	.000000233
358.15	.00001036	.0000002072
363.15	.00000925	.000000185

System: 1-hexyl-3-methylimidazolium tetrafluoroborate; phases: Liquid
Fixed: Pressure, kPa = 101.325
Property: Mass density, kg/m3 (Liquid); method: Vibrating tube method
Temperature, K	Mass density, kg/m3	uncertainty
278.15	1159.1	.05
283.15	1155.57	.05
288.15	1152.07	.05
293.15	1148.59	.05
298.15	1145.11	.05
303.15	1141.63	.05
308.15	1138.16	.05
313.15	1134.71	.05
318.15	1131.27	.05
323.15	1127.85	.05
328.15	1124.45	.05
333.15	1121.07	.05
338.15	1117.69	.05
343.15	1114.33	.05
348.15	1110.97	.05
353.15	1107.65	.05
358.15	1104.32	.05
363.15	1101.02	.05

System: 1-hexyl-3-methylimidazolium tetrafluoroborate; phases: Liquid
Fixed: Pressure, kPa = 101.325
Property: Refractive index (Na D-line) (Liquid); method: Standard Abbe refractometry
Temperature, K	Refractive index (Na D-line)	uncertainty
293.15	1.42922	.00005
298.15	1.42791	.00005
303.15	1.42659	.00005
308.15	1.42527	.00005
313.15	1.42397	.00005
318.15	1.42268	.00005
323.15	1.42135	.00005
328.15	1.42009	.00005
333.15	1.41877	.00005
338.15	1.41725	.00005
343.15	1.41621	.00005

System: 1-hexyl-3-methylimidazolium tetrafluoroborate; phases: Liquid, Air at 1 atmosphere
Property: Surface tension liquid-gas, N/m (Liquid); method: Ring tensiometer
Temperature, K	Surface tension liquid-gas, N/m	uncertainty
283.15	.03931	.00001
293.15	.03864	.00001
303.15	.03791	.00001
313.15	.03735	.00001
323.15	.03665	.00001
333.15	.03602	.00001

System: 1-hexyl-3-methylimidazolium tetrafluoroborate; phases: Liquid
Fixed: Pressure, kPa = 101.325
Property: Viscosity, Pa*s (Liquid); method: Concentric cylinders viscometry
Temperature, K	Viscosity, Pa*s	uncertainty
283.15	.38301	.0114903
288.15	.27292	.0081876
293.15	.19722	.0059166
298.15	.14556	.0043668
303.15	.1104	.003312
308.15	.085	.00255
313.15	.0662	.001986
318.15	.05303	.0015909
323.15	.04315	.0012945
328.15	.03527	.0010581
333.15	.02896	.0008688
338.15	.02465	.0007395
343.15	.02094	.0006282
348.15	.01778	.0005334
353.15	.01526	.0004578
358.15	.01351	.0004053
363.15	.01199	.0003597
368.15	.0106	.000318

System: 1-hexyl-3-methylimidazolium tetrafluoroborate; phases: Liquid
Fixed: Pressure, kPa = 101.325
Property: Kinematic viscosity, m2/s (Liquid); method: Capillary tube (Ostwald; Ubbelohde) method
Temperature, K	Kinematic viscosity, m2/s	uncertainty
298.15	.00010571	.0000021142
303.15	.0000828	.000001656
308.15	.00006474	.0000012948
313.15	.00005276	.0000010552
318.15	.0000426	.000000852
323.15	.00003521	.0000007042
328.15	.00002923	.0000005846
333.15	.00002485	.000000497
338.15	.0000213	.000000426
343.15	.0000188	.000000376
348.15	.0000163	.000000326
353.15	.00001418	.0000002836
358.15	.00001254	.0000002508
363.15	.00001118	.0000002236

System: 1-hexyl-3-methylimidazolium hexafluorophosphate; phases: Liquid
Fixed: Pressure, kPa = 101.325
Property: Mass density, kg/m3 (Liquid); method: Vibrating tube method
Temperature, K	Mass density, kg/m3	uncertainty
278.15	1307.52	.05
283.15	1303.52	.05
288.15	1299.49	.05
293.15	1295.44	.05
298.15	1291.45	.05
303.15	1287.49	.05
308.15	1283.53	.05
313.15	1279.58	.05
318.15	1275.62	.05
323.15	1271.67	.05
328.15	1267.75	.05
333.15	1263.84	.05
338.15	1259.95	.05
343.15	1256.07	.05
348.15	1252.21	.05
353.15	1248.36	.05
358.15	1244.52	.05
363.15	1240.72	.05

System: 1-hexyl-3-methylimidazolium hexafluorophosphate; phases: Liquid
Fixed: Pressure, kPa = 101.325
Property: Refractive index (Na D-line) (Liquid); method: Standard Abbe refractometry
Temperature, K	Refractive index (Na D-line)	uncertainty
293.15	1.41884	.00005
298.15	1.41756	.00005
303.15	1.41626	.00005
308.15	1.41495	.00005
313.15	1.41364	.00005
318.15	1.41235	.00005
323.15	1.41103	.00005
328.15	1.40976	.00005
333.15	1.4084	.00005
338.15	1.4072	.00005
343.15	1.40583	.00005

System: 1-hexyl-3-methylimidazolium hexafluorophosphate; phases: Liquid, Air at 1 atmosphere
Property: Surface tension liquid-gas, N/m (Liquid); method: Ring tensiometer
Temperature, K	Surface tension liquid-gas, N/m	uncertainty
283.15	.0393	.00001
293.15	.03866	.00001
303.15	.03803	.00001
313.15	.03735	.00001
323.15	.03679	.00001
333.15	.03626	.00001

System: 1-hexyl-3-methylimidazolium hexafluorophosphate; phases: Liquid
Fixed: Pressure, kPa = 101.325
Property: Viscosity, Pa*s (Liquid); method: Concentric cylinders viscometry
Temperature, K	Viscosity, Pa*s	uncertainty
283.15	1.2504	.037512
288.15	.85597	.0256791
293.15	.58672	.0176016
298.15	.41168	.0123504
303.15	.29647	.0088941
308.15	.21769	.0065307
313.15	.16265	.0048795
318.15	.12455	.0037365
323.15	.0969	.002907
328.15	.07632	.0022896
333.15	.06107	.0018321
338.15	.0499	.001497
343.15	.041	.00123
348.15	.03387	.0010161
353.15	.02881	.0008643
358.15	.02468	.0007404
363.15	.02104	.0006312
368.15	.01791	.0005373

System: 1-hexyl-3-methylimidazolium hexafluorophosphate; phases: Liquid
Fixed: Pressure, kPa = 101.325
Property: Kinematic viscosity, m2/s (Liquid); method: Capillary tube (Ostwald; Ubbelohde) method
Temperature, K	Kinematic viscosity, m2/s	uncertainty
298.15	.00032883	.0000065766
303.15	.00024812	.0000049624
308.15	.00018366	.0000036732
313.15	.00013793	.0000027586
318.15	.00010379	.0000020758
323.15	.00008395	.000001679
328.15	.00006509	.0000013018
333.15	.00005242	.0000010484
338.15	.00004296	.0000008592
343.15	.00003738	.0000007476
348.15	.00003126	.0000006252
353.15	.00002616	.0000005232
358.15	.00002224	.0000004448
363.15	.00001903	.0000003806
