Measured thermophysical data. Determination and correlation of terephthaldialdehyde solubility in (ethanol, isopropanol, ethyl acetate, isopentanol) + N,Ndimethylformamide mixed solvents at temperatures from 273.15 K to 318.15 K
Source: J. Chem. Thermodyn., 2017, 10.1016/j.jct.2016.10.044
Compound 1: terephthaldehyde, C8H6O2, purity 98%
Compound 2: ethanol, C2H6O
Compound 3: isopropanol, C3H8O
Compound 4: isopentanol, C5H12O
Compound 5: ethyl acetate, C4H8O2
Compound 6: dimethylformamide, C3H7NO

System: ethanol + dimethylformamide + terephthaldehyde; phases: Liquid, Crystal
Fixed: Pressure, kPa = 101.1
Property: Mole fraction of terephthaldehyde (Liquid); method: Chromatography
Solvent: Mass fraction of ethanol	Temperature, K	Mole fraction of terephthaldehyde	uncertainty
.1	273.15	.05663	
.1	278.15	.06644	
.1	283.15	.0785	
.1	288.15	.09067	
.1	293.15	.1055	
.1	298.15	.1213	
.1	303.15	.1395	
.1	308.15	.1583	
.1	313.15	.1809	
.1	318.15	.2072	
.2	273.15	.05143	
.2	278.15	.06094	
.2	283.15	.07143	
.2	288.15	.08169	
.2	293.15	.09783	
.2	298.15	.1121	
.2	303.15	.1297	
.2	308.15	.1469	
.2	313.15	.1694	
.2	318.15	.193	
.3	273.15	.04615	
.3	278.15	.05425	
.3	283.15	.06365	
.3	288.15	.0748	
.3	293.15	.08831	
.3	298.15	.1022	
.3	303.15	.1186	
.3	308.15	.1371	
.3	313.15	.1556	
.3	318.15	.1797	
.4	273.15	.03915	
.4	278.15	.04633	
.4	283.15	.05516	
.4	288.15	.06499	
.4	293.15	.07474	
.4	298.15	.09061	
.4	303.15	.103	
.4	308.15	.1217	
.4	313.15	.1354	
.4	318.15	.1606	
.5	273.15	.03103	
.5	278.15	.03801	
.5	283.15	.04514	
.5	288.15	.05411	
.5	293.15	.06489	
.5	298.15	.07415	
.5	303.15	.08753	
.5	308.15	.1007	
.5	313.15	.1166	
.5	318.15	.1352	
.6	273.15	.02416	
.6	278.15	.02914	
.6	283.15	.03442	
.6	288.15	.04193	
.6	293.15	.05043	
.6	298.15	.05805	
.6	303.15	.06925	
.6	308.15	.08174	
.6	313.15	.09552	
.6	318.15	.1106	
.7	273.15	.01704	
.7	278.15	.02107	
.7	283.15	.02536	
.7	288.15	.03131	
.7	293.15	.0388	
.7	298.15	.04468	
.7	303.15	.05371	
.7	308.15	.06262	
.7	313.15	.0741	
.7	318.15	.08708	
.8	273.15	.01234	
.8	278.15	.01532	
.8	283.15	.01873	
.8	288.15	.02293	
.8	293.15	.0285	
.8	298.15	.03315	
.8	303.15	.04097	
.8	308.15	.0475	
.8	313.15	.05774	
.8	318.15	.06827	
.9	273.15	.009127	
.9	278.15	.01125	
.9	283.15	.01361	
.9	288.15	.01701	
.9	293.15	.02129	
.9	298.15	.02568	
.9	303.15	.03071	
.9	308.15	.03718	
.9	313.15	.04412	
.9	318.15	.05128	

System: isopropanol + dimethylformamide + terephthaldehyde; phases: Liquid, Crystal
Fixed: Pressure, kPa = 101.1
Property: Mole fraction of terephthaldehyde (Liquid); method: Chromatography
Solvent: Mass fraction of isopropanol	Temperature, K	Mole fraction of terephthaldehyde	uncertainty
.1	273.15	.05316	
.1	278.15	.06319	
.1	283.15	.07385	
.1	288.15	.08648	
.1	293.15	.102	
.1	298.15	.1168	
.1	303.15	.1352	
.1	308.15	.1549	
.1	313.15	.177	
.1	318.15	.2024	
.2	273.15	.04512	
.2	278.15	.05376	
.2	283.15	.06481	
.2	288.15	.07573	
.2	293.15	.08922	
.2	298.15	.1044	
.2	303.15	.122	
.2	308.15	.1419	
.2	313.15	.1633	
.2	318.15	.1884	
.3	273.15	.03815	
.3	278.15	.04569	
.3	283.15	.05542	
.3	288.15	.06596	
.3	293.15	.07853	
.3	298.15	.09288	
.3	303.15	.1092	
.3	308.15	.1279	
.3	313.15	.1496	
.3	318.15	.1749	
.4	273.15	.03062	
.4	278.15	.03781	
.4	283.15	.04575	
.4	288.15	.0551	
.4	293.15	.06706	
.4	298.15	.08067	
.4	303.15	.09557	
.4	308.15	.1117	
.4	313.15	.1321	
.4	318.15	.1563	
.5	273.15	.0235	
.5	278.15	.02917	
.5	283.15	.03587	
.5	288.15	.04426	
.5	293.15	.05397	
.5	298.15	.06582	
.5	303.15	.07825	
.5	308.15	.09357	
.5	313.15	.1115	
.5	318.15	.1338	
.6	273.15	.0173	
.6	278.15	.02128	
.6	283.15	.02636	
.6	288.15	.03236	
.6	293.15	.03943	
.6	298.15	.05067	
.6	303.15	.06097	
.6	308.15	.07361	
.6	313.15	.08932	
.6	318.15	.1078	
.7	273.15	.01145	
.7	278.15	.01477	
.7	283.15	.01818	
.7	288.15	.02285	
.7	293.15	.02818	
.7	298.15	.03616	
.7	303.15	.04415	
.7	308.15	.05431	
.7	313.15	.06578	
.7	318.15	.08173	
.8	273.15	.007146	
.8	278.15	.009504	
.8	283.15	.01192	
.8	288.15	.01454	
.8	293.15	.01931	
.8	298.15	.02469	
.8	303.15	.03169	
.8	308.15	.03832	
.8	313.15	.04784	
.8	318.15	.05925	
.9	273.15	.004559	
.9	278.15	.005823	
.9	283.15	.007765	
.9	288.15	.009882	
.9	293.15	.01279	
.9	298.15	.01626	
.9	303.15	.02076	
.9	308.15	.02611	
.9	313.15	.03275	
.9	318.15	.04162	

System: dimethylformamide + ethyl acetate + terephthaldehyde; phases: Liquid, Crystal
Fixed: Pressure, kPa = 101.1
Property: Mole fraction of terephthaldehyde (Liquid); method: Chromatography
Solvent: Mass fraction of ethyl acetate	Temperature, K	Mole fraction of terephthaldehyde	uncertainty
.1	273.15	.05856	
.1	278.15	.06877	
.1	283.15	.08092	
.1	288.15	.09265	
.1	293.15	.1084	
.1	298.15	.124	
.1	303.15	.1425	
.1	308.15	.1624	
.1	313.15	.1849	
.1	318.15	.2099	
.2	273.15	.05463	
.2	278.15	.06382	
.2	283.15	.0753	
.2	288.15	.08673	
.2	293.15	.1019	
.2	298.15	.1171	
.2	303.15	.1349	
.2	308.15	.1541	
.2	313.15	.1761	
.2	318.15	.2005	
.3	273.15	.0503	
.3	278.15	.05987	
.3	283.15	.07091	
.3	288.15	.08175	
.3	293.15	.09616	
.3	298.15	.1109	
.3	303.15	.1287	
.3	308.15	.1474	
.3	313.15	.1687	
.3	318.15	.1926	
.4	273.15	.04733	
.4	278.15	.05651	
.4	283.15	.06689	
.4	288.15	.07722	
.4	293.15	.09115	
.4	298.15	.1057	
.4	303.15	.1227	
.4	308.15	.1412	
.4	313.15	.162	
.4	318.15	.1857	
.5	273.15	.0442	
.5	278.15	.05251	
.5	283.15	.06281	
.5	288.15	.0731	
.5	293.15	.08626	
.5	298.15	.1005	
.5	303.15	.1172	
.5	308.15	.1351	
.5	313.15	.1556	
.5	318.15	.1783	
.6	273.15	.04052	
.6	278.15	.04911	
.6	283.15	.05882	
.6	288.15	.06839	
.6	293.15	.08136	
.6	298.15	.09483	
.6	303.15	.1112	
.6	308.15	.1287	
.6	313.15	.1488	
.6	318.15	.1709	
.7	273.15	.03752	
.7	278.15	.04562	
.7	283.15	.05461	
.7	288.15	.06428	
.7	293.15	.0761	
.7	298.15	.08932	
.7	303.15	.1049	
.7	308.15	.1219	
.7	313.15	.1411	
.7	318.15	.1628	
.8	273.15	.03467	
.8	278.15	.04177	
.8	283.15	.05049	
.8	288.15	.05959	
.8	293.15	.07055	
.8	298.15	.08327	
.8	303.15	.09839	
.8	308.15	.1146	
.8	313.15	.1333	
.8	318.15	.1541	
.9	273.15	.0314	
.9	278.15	.03818	
.9	283.15	.0462	
.9	288.15	.05484	
.9	293.15	.06569	
.9	298.15	.07708	
.9	303.15	.09155	
.9	308.15	.1069	
.9	313.15	.1245	
.9	318.15	.1447	
1	273.15	.02837	
1	278.15	.03457	
1	283.15	.04215	
1	288.15	.05012	
1	293.15	.05981	
1	298.15	.07093	
1	303.15	.08462	
1	308.15	.09928	
1	313.15	.1159	
1	318.15	.1352	

System: dimethylformamide + isopentanol + terephthaldehyde; phases: Liquid, Crystal
Fixed: Pressure, kPa = 101.1
Property: Mole fraction of terephthaldehyde (Liquid); method: Chromatography
Solvent: Mass fraction of isopentanol	Temperature, K	Mole fraction of terephthaldehyde	uncertainty
.1	273.15	.06259	
.1	278.15	.07236	
.1	283.15	.08469	
.1	288.15	.09615	
.1	293.15	.1122	
.1	298.15	.1279	
.1	303.15	.1491	
.1	308.15	.1682	
.1	313.15	.1903	
.1	318.15	.2152	
.2	273.15	.05696	
.2	278.15	.06631	
.2	283.15	.07832	
.2	288.15	.09006	
.2	293.15	.1041	
.2	298.15	.1187	
.2	303.15	.1353	
.2	308.15	.1541	
.2	313.15	.1763	
.2	318.15	.1996	
.3	273.15	.05073	
.3	278.15	.05919	
.3	283.15	.06773	
.3	288.15	.07916	
.3	293.15	.09307	
.3	298.15	.106	
.3	303.15	.1218	
.3	308.15	.1391	
.3	313.15	.1581	
.3	318.15	.1791	
.4	273.15	.04451	
.4	278.15	.0512	
.4	283.15	.06188	
.4	288.15	.07012	
.4	293.15	.08295	
.4	298.15	.09462	
.4	303.15	.1086	
.4	308.15	.1256	
.4	313.15	.1422	
.4	318.15	.161	
.5	273.15	.0394	
.5	278.15	.04602	
.5	283.15	.05445	
.5	288.15	.06254	
.5	293.15	.07387	
.5	298.15	.08486	
.5	303.15	.09686	
.5	308.15	.1092	
.5	313.15	.1254	
.5	318.15	.1437	
.6	273.15	.0349	
.6	278.15	.04044	
.6	283.15	.04746	
.6	288.15	.05536	
.6	293.15	.06498	
.6	298.15	.0747	
.6	303.15	.08517	
.6	308.15	.09705	
.6	313.15	.1131	
.6	318.15	.1296	
.7	273.15	.02924	
.7	278.15	.03481	
.7	283.15	.04087	
.7	288.15	.047	
.7	293.15	.05513	
.7	298.15	.0648	
.7	303.15	.07395	
.7	308.15	.0851	
.7	313.15	.09719	
.7	318.15	.1117	
.8	273.15	.02346	
.8	278.15	.02822	
.8	283.15	.03343	
.8	288.15	.03807	
.8	293.15	.04528	
.8	298.15	.05279	
.8	303.15	.0606	
.8	308.15	.06901	
.8	313.15	.08026	
.8	318.15	.09174	
.9	273.15	.01735	
.9	278.15	.02027	
.9	283.15	.02516	
.9	288.15	.02905	
.9	293.15	.03391	
.9	298.15	.03881	
.9	303.15	.04697	
.9	308.15	.05159	
.9	313.15	.06176	
.9	318.15	.07153	

System: ethyl acetate + terephthaldehyde; phases: Liquid, Crystal
Property: Mole fraction of terephthaldehyde (Liquid); method: Chromatography
Temperature, K	Pressure, kPa	Mole fraction of terephthaldehyde	uncertainty
273.15	101.1	.02837	
278.15	101.1	.03457	
283.15	101.1	.04215	
288.15	101.1	.05012	
293.15	101.1	.05981	
298.15	101.1	.07093	
303.15	101.1	.08462	
308.15	101.1	.09928	
313.15	101.1	.1159	
318.15	101.1	.1352	
