Measured thermophysical data. Ternary (liquid + liquid) equilibria for (water + 2-propanol + a-pinene, or a-pinene) mixtures at four temperatures
Source: J. Chem. Thermodyn., 2012, 10.1016/j.jct.2012.02.024
Compound 1: (1R)-(+)-.alpha.-pinene, C10H16, purity 98%
Compound 2: .beta.-pinene, (1S)-(-)-, C10H16, purity 98%
Compound 3: 2-propanol, C3H8O, purity 99%
Compound 4: water, H2O, purity 99.9%

System: 2-propanol + water + (1R)-(+)-.alpha.-pinene; phases: Liquid mixture 1, Liquid mixture 2
Fixed: Pressure, kPa = 101
Property: Mass fraction of water (Liquid mixture 1); method: Chromatography
Property: Mass fraction of water (Liquid mixture 2); method: Chromatography
Property: Mass fraction of 2-propanol (Liquid mixture 2); method: Chromatography
Temperature, K	Mass fraction of 2-propanol	Mass fraction of water	uncertainty	Mass fraction of water	uncertainty	Mass fraction of 2-propanol	uncertainty
293.15	.0085	0	.005	.9774	.005	.0226	.005
293.15	.0328	0	.005	.9613	.005	.0387	.005
293.15	.0627	0	.005	.9291	.005	.0709	.005
293.15	.0952	.0052	.005	.9083	.005	.0917	.005
293.15	.1176	.0126	.005	.8737	.005	.1263	.005
293.15	.1459	.0204	.005	.7827	.005	.209	.005
293.15	.1661	.0316	.005	.7246	.005	.2682	.005
293.15	.1782	.0406	.005	.6958	.005	.2835	.005
298.15	.0244	0	.005	.9637	.005	.0363	.005
298.15	.08	.0086	.005	.9311	.005	.0689	.005
298.15	.1093	.0174	.005	.9019	.005	.0981	.005
298.15	.1285	.0206	.005	.8727	.005	.1273	.005
298.15	.1419	.0249	.005	.8166	.005	.179	.005
298.15	.1552	.0271	.005	.7545	.005	.2348	.005
298.15	.1731	.0335	.005	.6816	.005	.2997	.005
303.15	.022	0	.005	.9659	.005	.0341	.005
303.15	.0669	0	.005	.9358	.005	.0642	.005
303.15	.1271	.0249	.005	.8795	.005	.1205	.005
303.15	.1427	.0258	.005	.8231	.005	.1703	.005
303.15	.1568	.0317	.005	.7627	.005	.2271	.005
303.15	.1641	.033	.005	.7414	.005	.2446	.005
303.15	.1761	.0453	.005	.7077	.005	.2723	.005
303.15	.177	.0469	.005	.685	.005	.2911	.005
308.15	.0205	0	.005	.9653	.005	.0347	.005
308.15	.1258	.0229	.005	.875	.005	.125	.005
308.15	.125	.0218	.005	.846	.005	.154	.005
308.15	.1383	.0222	.005	.8125	.005	.1825	.005
308.15	.1473	.0295	.005	.7641	.005	.2272	.005
308.15	.1594	.0299	.005	.7331	.005	.2524	.005
308.15	.1675	.0355	.005	.7061	.005	.2738	.005

System: 2-propanol + water + .beta.-pinene, (1S)-(-)-; phases: Liquid mixture 1, Liquid mixture 2
Fixed: Pressure, kPa = 101
Property: Mass fraction of water (Liquid mixture 1); method: Chromatography
Property: Mass fraction of water (Liquid mixture 2); method: Chromatography
Property: Mass fraction of 2-propanol (Liquid mixture 2); method: Chromatography
Temperature, K	Mass fraction of 2-propanol	Mass fraction of water	uncertainty	Mass fraction of water	uncertainty	Mass fraction of 2-propanol	uncertainty
293.15	.0207	0	.005	.965	.005	.035	.005
293.15	.0548	0	.005	.9459	.005	.0541	.005
293.15	.0874	.0138	.005	.9342	.005	.0658	.005
293.15	.1161	.0154	.005	.903	.005	.097	.005
293.15	.1172	.0164	.005	.8776	.005	.1224	.005
293.15	.165	.0281	.005	.8227	.005	.1773	.005
293.15	.1854	.0411	.005	.7702	.005	.2218	.005
293.15	.2108	.045	.005	.7252	.005	.2621	.005
298.15	.0197	0	.005	.9655	.005	.0345	.005
298.15	.0525	0	.005	.9482	.005	.0518	.005
298.15	.0813	.0112	.005	.9384	.005	.0616	.005
298.15	.1195	.0207	.005	.9101	.005	.0899	.005
298.15	.1472	.025	.005	.88	.005	.12	.005
298.15	.1822	.0403	.005	.826	.005	.174	.005
298.15	.2196	.0783	.005	.7258	.005	.2631	.005
303.15	.0224	.0058	.005	.9663	.005	.0337	.005
303.15	.0428	.0137	.005	.9489	.005	.0511	.005
303.15	.0684	.0179	.005	.9355	.005	.0645	.005
303.15	.1359	.0312	.005	.9078	.005	.0922	.005
303.15	.1461	.027	.005	.8832	.005	.1168	.005
303.15	.1733	.0382	.005	.8299	.005	.1701	.005
303.15	.1912	.0398	.005	.7767	.005	.2179	.005
303.15	.2315	.0651	.005	.7242	.005	.2619	.005
308.15	.029	.0067	.005	.9674	.005	.0326	.005
308.15	.0725	.0111	.005	.9482	.005	.0518	.005
308.15	.1276	.0174	.005	.9108	.005	.0892	.005
308.15	.1638	.0307	.005	.8824	.005	.1176	.005
308.15	.1868	.0356	.005	.8211	.005	.1756	.005
308.15	.2015	.0458	.005	.769	.005	.2229	.005
308.15	.2338	.0624	.005	.7227	.005	.2632	.005
