Measured thermophysical data. Diffusion coefficients of nickel chloride in aqueous solutions of lactose at 298.15 K and 310.15 K
Source: J. Chem. Thermodyn., 2011, 10.1016/j.jct.2010.09.006
Compound 1: nickel chloride (NiCl2), Cl2Ni
Compound 2: lactose, C12H22O11
Compound 3: water, H2O, purity 99.8%

System: nickel chloride (NiCl2) + water; phases: Liquid
Fixed: Pressure, kPa = 101
Property: Binary diffusion coefficient, m2/s (Liquid); method: Taylor dispersion method
Temperature, K	Amount concentration (molarity), mol/dm3 of nickel chloride (NiCl2)	Binary diffusion coefficient, m2/s	uncertainty
298.15	0	0.000000001262	.000000000005
298.15	.001	0.000000001234	.000000000005
298.15	.005	0.000000001118	.000000000005
298.15	.01	0.00000000104	.000000000005
298.15	.1	0.000000000986	.000000000005
310.15	0	0.000000001401	.000000000005
310.15	.001	0.00000000139	.000000000005
310.15	.005	0.00000000137	.000000000005
310.15	.01	0.000000001339	.000000000005
310.15	.1	0.000000001292	.000000000005
