Measured thermophysical data. Solubility determination and thermodynamic modelling of terephthaldialdehyde in ten organic solvents from T = (273.15 to 318.15) K and mixing properties of solutions
Source: J. Chem. Thermodyn., 2016, 10.1016/j.jct.2016.07.013
Compound 1: terephthaldehyde, C8H6O2, purity 98%
Compound 2: 1-butanol, C4H10O, purity 99.4%
Compound 3: n-propanol, C3H8O, purity 99.5%
Compound 4: isopropanol, C3H8O, purity 99.4%
Compound 5: ethanol, C2H6O, purity 99.6%
Compound 6: benzyl alcohol, C7H8O, purity 99.5%
Compound 7: 2-butanone, C4H8O, purity 99.4%
Compound 8: isopentanol, C5H12O, purity 99.6%
Compound 9: acetonitrile, C2H3N, purity 99.7%
Compound 10: acetone, C3H6O, purity 99.4%
Compound 11: N,N-dimethylformamide, C3H7NO, purity 99.5%

System: terephthaldehyde; phases: Crystal, Liquid, Air at 1 atmosphere
Property: Normal melting temperature, K (Crystal); method: DSC/DTA
Normal melting temperature, K	uncertainty
387.25	.5

System: terephthaldehyde; phases: Crystal, Liquid, Air at 1 atmosphere
Property: Molar enthalpy of transition or fusion, kJ/mol (Crystal); method: DSC
Molar enthalpy of transition or fusion, kJ/mol	uncertainty
24.13	.41

System: ethanol + terephthaldehyde; phases: Liquid, Crystal
Fixed: Pressure, kPa = 101.1
Property: Mole fraction of terephthaldehyde (Liquid); method: Chromatography
Temperature, K	Mole fraction of terephthaldehyde	uncertainty
273.15	.006909	
278.15	.008639	
283.15	.01068	
288.15	.01352	
293.15	.01673	
298.15	.02011	
303.15	.02467	
308.15	.02954	
313.15	.03566	
318.15	.04265	

System: n-propanol + terephthaldehyde; phases: Liquid, Crystal
Fixed: Pressure, kPa = 101.1
Property: Mole fraction of terephthaldehyde (Liquid); method: Chromatography
Temperature, K	Mole fraction of terephthaldehyde	uncertainty
273.15	.008023	
278.15	.009985	
283.15	.01228	
288.15	.01493	
293.15	.01776	
298.15	.02149	
303.15	.02563	
308.15	.0306	
313.15	.03619	
318.15	.0429	

System: isopropanol + terephthaldehyde; phases: Liquid, Crystal
Fixed: Pressure, kPa = 101.1
Property: Mole fraction of terephthaldehyde (Liquid); method: Chromatography
Temperature, K	Mole fraction of terephthaldehyde	uncertainty
273.15	.002613	
278.15	.003502	
283.15	.004638	
288.15	.006246	
293.15	.008162	
298.15	.01069	
303.15	.01373	
308.15	.01744	
313.15	.02238	
318.15	.02862	

System: 1-butanol + terephthaldehyde; phases: Liquid, Crystal
Fixed: Pressure, kPa = 101.1
Property: Mole fraction of terephthaldehyde (Liquid); method: Chromatography
Temperature, K	Mole fraction of terephthaldehyde	uncertainty
273.15	.008891	
278.15	.01068	
283.15	.01296	
288.15	.01549	
293.15	.0184	
298.15	.0219	
303.15	.02609	
308.15	.03127	
313.15	.03651	
318.15	.04343	

System: acetone + terephthaldehyde; phases: Liquid, Crystal
Fixed: Pressure, kPa = 101.1
Property: Mole fraction of terephthaldehyde (Liquid); method: Chromatography
Temperature, K	Mole fraction of terephthaldehyde	uncertainty
273.15	.03424	
278.15	.04089	
283.15	.04874	
288.15	.05772	
293.15	.06797	
298.15	.0796	
303.15	.09329	
308.15	.1085	
313.15	.1257	
318.15	.145	

System: 2-butanone + terephthaldehyde; phases: Liquid, Crystal
Fixed: Pressure, kPa = 101.1
Property: Mole fraction of terephthaldehyde (Liquid); method: Chromatography
Temperature, K	Mole fraction of terephthaldehyde	uncertainty
273.15	.03623	
278.15	.04428	
283.15	.05225	
288.15	.06259	
293.15	.07332	
298.15	.08508	
303.15	.09977	
308.15	.1174	
313.15	.134	
318.15	.1558	

System: benzyl alcohol + terephthaldehyde; phases: Liquid, Crystal
Fixed: Pressure, kPa = 101.1
Property: Mole fraction of terephthaldehyde (Liquid); method: Chromatography
Temperature, K	Mole fraction of terephthaldehyde	uncertainty
273.15	.04339	
278.15	.05319	
283.15	.06267	
288.15	.07372	
293.15	.08747	
298.15	.1015	
303.15	.1178	
308.15	.1372	
313.15	.1594	
318.15	.1819	

System: acetonitrile + terephthaldehyde; phases: Liquid, Crystal
Fixed: Pressure, kPa = 101.1
Property: Mole fraction of terephthaldehyde (Liquid); method: Chromatography
Temperature, K	Mole fraction of terephthaldehyde	uncertainty
273.15	.0219	
278.15	.02719	
283.15	.03302	
288.15	.04006	
293.15	.04846	
298.15	.05805	
303.15	.06921	
308.15	.08235	
313.15	.09737	
318.15	.1144	

System: isopentanol + terephthaldehyde; phases: Liquid, Crystal
Fixed: Pressure, kPa = 101.1
Property: Mole fraction of terephthaldehyde (Liquid); method: Chromatography
Temperature, K	Mole fraction of terephthaldehyde	uncertainty
273.15	.01113	
278.15	.01342	
283.15	.0161	
288.15	.01896	
293.15	.02252	
298.15	.02623	
303.15	.03056	
308.15	.03531	
313.15	.04143	
318.15	.04817	

System: N,N-dimethylformamide + terephthaldehyde; phases: Liquid, Crystal
Fixed: Pressure, kPa = 101.1
Property: Mole fraction of terephthaldehyde (Liquid); method: Chromatography
Temperature, K	Mole fraction of terephthaldehyde	uncertainty
273.15	.06431	
278.15	.0751	
283.15	.08781	
288.15	.1002	
293.15	.1169	
298.15	.1336	
303.15	.1525	
308.15	.1732	
313.15	.1965	
318.15	.2224	
