Measured thermophysical data. Solubility of gases in fluoroorganic alcohols. Part II. Solubilities of noble gases in (water + 1,1,1,3,3,3-hexafluoropropan-2-ol) at 298.15 K and 101.33 kPa
Source: J. Chem. Thermodyn., 2012, 10.1016/j.jct.2011.11.019
Compound 1: helium, He, purity 99.995%
Compound 2: argon, Ar, purity 99.999%
Compound 3: krypton, Kr, purity 99.95%
Compound 4: xenon, Xe, purity 99.995%
Compound 5: neon, Ne, purity 99.9%
Compound 6: 1,1,1,3,3,3-hexafluoroisopropanol, C3H2F6O, purity 99%
Compound 7: water, H2O, purity 99.9%

System: 1,1,1,3,3,3-hexafluoroisopropanol + water; phases: Liquid
Fixed: Temperature, K = 298.15
Fixed: Pressure, kPa = 101
Property: Mass density, kg/m3 (Liquid); method: Vibrating tube method
Mole fraction of 1,1,1,3,3,3-hexafluoroisopropanol	Mass density, kg/m3	uncertainty
.1024	1261.96	.01
.205	1387.36	.01
.3016	1455.74	.01
.4067	1501.77	.01
.4929	1527.75	.01
.5943	1550.19	.01
.6411	1558.59	.01
.8065	1585.8	.01
.9005	1593.04	.01

System: 1,1,1,3,3,3-hexafluoroisopropanol + water; phases: Liquid
Fixed: Temperature, K = 298.15
Fixed: Pressure, kPa = 101
Property: Excess molar volume, m3/mol (Liquid); method: Calculated with densities of this investigation
Mole fraction of 1,1,1,3,3,3-hexafluoroisopropanol	Excess molar volume, m3/mol	uncertainty
.1024	-.000000499	-.000000002495
.205	-.000000719	-.000000003595
.3016	-.000000759	-.000000003795
.4067	-.000000703	-.000000003515
.4929	-.000000606	-.00000000303
.5943	-.000000455	-.000000002275
.6411	-.00000038	-.0000000019
.8065	-.000000162	-.00000000081
.9005	-.000000061	-.000000000305

System: 1,1,1,3,3,3-hexafluoroisopropanol + helium + water; phases: Liquid, Gas
Fixed: Pressure, kPa = 101
Fixed: Temperature, K = 298.15
Property: Mole fraction of helium (Liquid); method: saturation method
Solvent: Mole fraction of 1,1,1,3,3,3-hexafluoroisopropanol	Mole fraction of helium	uncertainty
.0191	.00000669	.0000000669
.0424	.00001031	.0000001031
.0694	.00001572	.0000001572
.1024	.00002063	.0000002063
.1465	.00002959	.0000002959
.2046	.00004257	.0000004257
.2869	.00005917	.0000005917
.3793	.00008593	.0000008593
.6117	.0001538	.000001538
.808	.0002089	.000002089

System: 1,1,1,3,3,3-hexafluoroisopropanol + argon + water; phases: Liquid, Gas
Fixed: Pressure, kPa = 101
Fixed: Temperature, K = 298.15
Property: Mole fraction of argon (Liquid); method: saturation method
Solvent: Mole fraction of 1,1,1,3,3,3-hexafluoroisopropanol	Mole fraction of argon	uncertainty
.0191	.00002759	.0000002759
.0423	.00004124	.0000004124
.0695	.00006121	.0000006121
.1021	.00008792	.0000008792
.1365	.0001191	.000001191
.2033	.0001886	.000001886
.2849	.0002864	.000002864
.3737	.0003925	.000003925
.6133	.0008039	.000008039
.8085	.001152	.00001152

System: 1,1,1,3,3,3-hexafluoroisopropanol + krypton + water; phases: Liquid, Gas
Fixed: Pressure, kPa = 101
Fixed: Temperature, K = 298.15
Property: Mole fraction of krypton (Liquid); method: saturation method
Solvent: Mole fraction of 1,1,1,3,3,3-hexafluoroisopropanol	Mole fraction of krypton	uncertainty
.0197	.00004998	.0000004998
.042	.00007092	.0000007092
.0693	.0001084	.000001084
.1027	.0001592	.000001592
.1455	.0002305	.000002305
.2058	.0003509	.000003509
.2888	.0005362	.000005362
.4156	.0008847	.000008847
.6248	.001569	.00001569
.8136	.002188	.00002188

System: 1,1,1,3,3,3-hexafluoroisopropanol + xenon + water; phases: Liquid, Gas
Fixed: Pressure, kPa = 101
Fixed: Temperature, K = 298.15
Property: Mole fraction of xenon (Liquid); method: saturation method
Solvent: Mole fraction of 1,1,1,3,3,3-hexafluoroisopropanol	Mole fraction of xenon	uncertainty
.0193	.00008472	.0000008472
.042	.000126	.00000126
.0689	.0001981	.000001981
.1017	.0002958	.000002958
.1461	.0004547	.000004547
.205	.0006667	.000006667
.2877	.001085	.00001085
.413	.001809	.00001809
.6047	.003037	.00003037
.8103	.004321	.00004321

System: 1,1,1,3,3,3-hexafluoroisopropanol + neon + water; phases: Liquid, Gas
Fixed: Pressure, kPa = 101
Fixed: Temperature, K = 298.15
Property: Mole fraction of neon (Liquid); method: saturation method
Solvent: Mole fraction of 1,1,1,3,3,3-hexafluoroisopropanol	Mole fraction of neon	uncertainty
.0191	.00000817	.0000000817
.0416	.00001285	.0000001285
.0687	.00001867	.0000001867
.1022	.00002626	.0000002626
.1457	.00003676	.0000003676
.2062	.00005539	.0000005539
.2883	.00008175	.0000008175
.4094	.0001272	.000001272
.6185	.0002187	.000002187
.8107	.0003098	.000003098
