Measured thermophysical data. (Liquid + liquid) phase equilibria for (water + 2,3-butanediol + oleyl alcohol)  at T = (300.2, 307.2, and 314.2) K
Source: J. Chem. Thermodyn., 2009, 10.1016/j.jct.2008.10.004
Compound 1: 2,3-butanediol, C4H10O2, purity 99%
Compound 2: 9-octadecen-1-ol, (Z)-, C18H36O, purity 85%
Compound 3: water, H2O

System: 9-octadecen-1-ol, (Z)- + 2,3-butanediol + water; phases: Liquid mixture 1, Liquid mixture 2
Fixed: Pressure, kPa = 101
Property: Mole fraction of 2,3-butanediol (Liquid mixture 1); method: Chromatography
Property: Mole fraction of water (Liquid mixture 2); method: Chromatography
Property: Mole fraction of 2,3-butanediol (Liquid mixture 2); method: Chromatography
Temperature, K	Mole fraction of water	Mole fraction of 2,3-butanediol	uncertainty	Mole fraction of water	uncertainty	Mole fraction of 2,3-butanediol	uncertainty
300.2	.971	.0288		.015		.1877	
300.2	.9443	.0554		.0286		.319	
300.2	.921	.0787		.1024		.4071	
300.2	.891	.1085		.1674		.4432	
300.2	.87	.1294		.27		.4491	
300.2	.83	.1688		.305		.449	
307.2	.9664	.0331		.0257		.2023	
307.2	.9372	.0621		.0541		.3012	
307.2	.915	.0843		.1106		.3667	
307.2	.895	.104		.1738		.4082	
307.2	.873	.1259		.2798		.4157	
307.2	.836	.1625		.356		.41	
314.2	.9715	.028		.0305		.1626	
314.2	.9466	.0526		.068		.2909	
314.2	.9146	.0846		.1684		.3715	
314.2	.8814	.1174		.231		.3891	
314.2	.847	.1517		.3223		.3968	
314.2	.813	.185		.3655		.394	

System: 9-octadecen-1-ol, (Z)- + 2,3-butanediol + water; phases: Liquid mixture 1, Liquid mixture 2
Fixed: Pressure, kPa = 101
Property: Mole fraction of 2,3-butanediol (Liquid mixture 1); method: Chromatography
Temperature, K	Mole fraction of water	Mole fraction of 2,3-butanediol	uncertainty
300.2	.0079	.0278	
300.2	.0117	.1338	
300.2	.0192	.244	
300.2	.049	.3561	
300.2	.1471	.4343	
300.2	.2855	.4495	
300.2	.436	.4318	
300.2	.5861	.3535	
300.2	.7036	.2753	
300.2	.795	.197	
300.2	.8964	.0985	
300.2	.9815	.0152	
307.2	.0129	.0177	
307.2	.0226	.1591	
307.2	.042	.2854	
307.2	.148	.397	
307.2	.226	.415	
307.2	.478	.393	
307.2	.597	.334	
307.2	.656	.293	
307.2	.7038	.2576	
307.2	.801	.1894	
307.2	.8917	.1035	
307.2	.9816	.0152	
314.2	.0098	.0269	
314.2	.0246	.134	
314.2	.038	.256	
314.2	.1464	.36	
314.2	.265	.394	
314.2	.409	.3851	
314.2	.5585	.3343	
314.2	.6851	.2776	
314.2	.7994	.194	
314.2	.8462	.1522	
314.2	.9279	.0716	
314.2	.9848	.0149	
