Measured thermophysical data. Measurements of activity coefficients at infinite dilution of organic solutes and water on polar imidazolium-based ionic liquids
Source: J. Chem. Thermodyn., 2015, 10.1016/j.jct.2015.07.042
Compound 1: octane, C8H18, purity 99%
Compound 2: nonane, C9H20, purity 99%
Compound 3: decane, C10H22, purity 99%
Compound 4: cyclopentane, C5H10, purity 99%
Compound 5: cyclohexane, C6H12, purity 99%
Compound 6: methylcyclohexane, C7H14, purity 99%
Compound 7: cycloheptane, C7H14, purity 98%
Compound 8: cyclooctane, C8H16, purity 99%
Compound 9: 1-hexene, C6H12, purity 99%
Compound 10: 1-heptene, C7H14, purity 99%
Compound 11: 1-octene, C8H16, purity 98%
Compound 12: 1-decene, C10H20, purity 97%
Compound 13: cyclohexene, C6H10, purity 99%
Compound 14: 1-pentyne, C5H8, purity 97%
Compound 15: 1-hexyne, C6H10, purity 97%
Compound 16: 1-heptyne, C7H12, purity 98%
Compound 17: 1-octyne, C8H14, purity 97%
Compound 18: 2-propanone, C3H6O, purity 99.9%
Compound 19: 2-pentanone, C5H10O, purity 99%
Compound 20: 3-pentanone, C5H10O, purity 99%
Compound 21: tert-butyl methyl ether, C5H12O, purity 99.8%
Compound 22: tert-amyl methyl ether, C6H14O, purity 99%
Compound 23: ethyl tert-butyl ether, C6H14O, purity 99%
Compound 24: diethyl ether, C4H10O, purity 99.9%
Compound 25: dipropyl ether, C6H14O, purity 99%
Compound 26: diisopropyl ether, C6H14O, purity 99%
Compound 27: dibutyl ether, C8H18O, purity 99.3%
Compound 28: oxolane, C4H8O, purity 99.9%
Compound 29: 1,4-dioxane, C4H8O2, purity 99.8%
Compound 30: benzene, C6H6, purity 99.8%
Compound 31: toluene, C7H8, purity 99.8%
Compound 32: ethylbenzene, C8H10, purity 99.8%
Compound 33: o-xylene, C8H10, purity 99%
Compound 34: m-xylene, C8H10, purity 99%
Compound 35: p-xylene, C8H10, purity 99%
Compound 36: styrene, C8H8, purity 99.9%
Compound 37: .alpha.-methylstyrene, C9H10, purity 99%
Compound 38: methyl acetate, C3H6O2, purity 99.8%
Compound 39: ethyl acetate, C4H8O2, purity 99.8%
Compound 40: methyl propanoate, C4H8O2, purity 99%
Compound 41: methyl butanoate, C5H10O2, purity 99%
Compound 42: vinyl acetate, C4H6O2, purity 99%
Compound 43: methanol, CH4O, purity 99.9%
Compound 44: ethanol, C2H6O, purity 99.8%
Compound 45: 1-propanol, C3H8O, purity 99.9%
Compound 46: 2-propanol, C3H8O, purity 99.9%
Compound 47: 2-methyl-1-propanol, C4H10O, purity 99.5%
Compound 48: 1-butanol, C4H10O, purity 99.8%
Compound 49: 2-butanol, C4H10O, purity 99.5%
Compound 50: tert-butanol, C4H10O, purity 99.7%
Compound 51: butyraldehyde, C4H8O, purity 99%
Compound 52: acetonitrile, C2H3N, purity 99.9%
Compound 53: pyridine, C5H5N, purity 99.8%
Compound 54: 1-nitropropane, C3H7NO2, purity 98.5%
Compound 55: thiophene, C4H4S, purity 99%
Compound 56: 1-butyl-3-methylimidazolium chloride, C8H15ClN2, purity 99%
Compound 57: 1-butyl-3-methylimidazolium methanesulfonate, C9H18N2O3S, purity 99%
Compound 58: 1-butyl-3-methylimidazolium dimethylphosphate, C10H21N2O4P, purity 98%
Compound 59: water, H2O

System: 1-butyl-3-methylimidazolium chloride; phases: Liquid
Property: Mass density, kg/m3 (Liquid); method: Vibrating tube method
Pressure, kPa	Temperature, K	Mass density, kg/m3	uncertainty
100	308.15	1079.4	.5
100	313.15	1076.6	.5
100	318.15	1073.7	.5
100	323.15	1070.9	.5
100	328.15	1068.1	.5
100	333.15	1065.2	.5
100	338.15	1062.4	.5
100	343.15	1059.6	.5
100	348.15	1056.9	.5
100	353.15	1054.3	.5
100	358.15	1051.7	.5
100	363.15	1049	.5
100	368.15	1046.4	.5
100	373.15	1043.9	.5

System: 1-butyl-3-methylimidazolium methanesulfonate; phases: Liquid
Property: Mass density, kg/m3 (Liquid); method: Vibrating tube method
Pressure, kPa	Temperature, K	Mass density, kg/m3	uncertainty
100	333.15	1150.6	.5
100	338.15	1147.4	.5
100	343.15	1144.3	.5
100	348.15	1141.2	.5
100	353.15	1137.9	.5
100	358.15	1134.9	.5
100	363.15	1131.9	.5
100	368.15	1128.8	.5
100	373.15	1125.8	.5

System: 1-butyl-3-methylimidazolium dimethylphosphate; phases: Liquid
Property: Mass density, kg/m3 (Liquid); method: Vibrating tube method
Pressure, kPa	Temperature, K	Mass density, kg/m3	uncertainty
100	293.15	1166.5	.5
100	298.15	1163.2	.5
100	303.15	1159.4	.5
100	308.15	1156.2	.5
100	313.15	1152.7	.5
100	318.15	1149.5	.5
100	323.15	1146.1	.5
100	328.15	1143	.5
100	333.15	1139.7	.5
100	338.15	1136.5	.5
100	343.15	1133.3	.5
100	348.15	1130.1	.5
100	353.15	1126.9	.5
100	358.15	1123.7	.5
100	363.15	1120.6	.5
100	368.15	1117.4	.5

System: octane + 1-butyl-3-methylimidazolium chloride; phases: Liquid
Fixed: Pressure, kPa = 101
Fixed: Mole fraction of octane = 0
Property: Activity coefficient of octane (Liquid); method: Chromatography
Temperature, K	Activity coefficient of octane	uncertainty
358.15	330.66	9.9198
368.15	302.07	9.0621
378.15	268.5	8.055
388.15	258.36	7.7508

System: nonane + 1-butyl-3-methylimidazolium chloride; phases: Liquid
Fixed: Pressure, kPa = 101
Fixed: Mole fraction of nonane = 0
Property: Activity coefficient of nonane (Liquid); method: Chromatography
Temperature, K	Activity coefficient of nonane	uncertainty
358.15	475.82	14.2746
368.15	432.95	12.9885
378.15	393.64	11.8092
388.15	375.5	11.265

System: decane + 1-butyl-3-methylimidazolium chloride; phases: Liquid
Fixed: Pressure, kPa = 101
Fixed: Mole fraction of decane = 0
Property: Activity coefficient of decane (Liquid); method: Chromatography
Temperature, K	Activity coefficient of decane	uncertainty
358.15	704.04	21.1212
368.15	637.87	19.1361
378.15	579.72	17.3916
388.15	560.12	16.8036

System: cyclopentane + 1-butyl-3-methylimidazolium chloride; phases: Liquid
Fixed: Pressure, kPa = 101
Fixed: Mole fraction of cyclopentane = 0
Property: Activity coefficient of cyclopentane (Liquid); method: Chromatography
Temperature, K	Activity coefficient of cyclopentane	uncertainty
358.15	38.69	1.1607
368.15	36.24	1.0872
378.15	33.5	1.005
388.15	31.83	.9549

System: cyclohexane + 1-butyl-3-methylimidazolium chloride; phases: Liquid
Fixed: Pressure, kPa = 101
Fixed: Mole fraction of cyclohexane = 0
Property: Activity coefficient of cyclohexane (Liquid); method: Chromatography
Temperature, K	Activity coefficient of cyclohexane	uncertainty
358.15	84.25	2.5275
368.15	79	2.37
378.15	73.02	2.1906
388.15	69.85	2.0955

System: methylcyclohexane + 1-butyl-3-methylimidazolium chloride; phases: Liquid
Fixed: Pressure, kPa = 101
Fixed: Mole fraction of methylcyclohexane = 0
Property: Activity coefficient of methylcyclohexane (Liquid); method: Chromatography
Temperature, K	Activity coefficient of methylcyclohexane	uncertainty
358.15	84.25	2.5275
368.15	79	2.37
378.15	73.02	2.1906
388.15	69.85	2.0955

System: cycloheptane + 1-butyl-3-methylimidazolium chloride; phases: Liquid
Fixed: Pressure, kPa = 101
Fixed: Mole fraction of cycloheptane = 0
Property: Activity coefficient of cycloheptane (Liquid); method: Chromatography
Temperature, K	Activity coefficient of cycloheptane	uncertainty
358.15	62.67	1.8801
368.15	58.82	1.7646
378.15	55.41	1.6623
388.15	53.57	1.6071

System: cyclooctane + 1-butyl-3-methylimidazolium chloride; phases: Liquid
Fixed: Pressure, kPa = 101
Fixed: Mole fraction of cyclooctane = 0
Property: Activity coefficient of cyclooctane (Liquid); method: Chromatography
Temperature, K	Activity coefficient of cyclooctane	uncertainty
358.15	79.55	2.3865
368.15	75.4	2.262
378.15	71.1	2.133
388.15	68.62	2.0586

System: 1-hexene + 1-butyl-3-methylimidazolium chloride; phases: Liquid
Fixed: Pressure, kPa = 101
Fixed: Mole fraction of 1-hexene = 0
Property: Activity coefficient of 1-hexene (Liquid); method: Chromatography
Temperature, K	Activity coefficient of 1-hexene	uncertainty
358.15	61.71	1.8513
368.15	57.87	1.7361
378.15	53.94	1.6182
388.15	51.97	1.5591

System: 1-heptene + 1-butyl-3-methylimidazolium chloride; phases: Liquid
Fixed: Pressure, kPa = 101
Fixed: Mole fraction of 1-heptene = 0
Property: Activity coefficient of 1-heptene (Liquid); method: Chromatography
Temperature, K	Activity coefficient of 1-heptene	uncertainty
358.15	88.9	2.667
368.15	83.76	2.5128
378.15	79.33	2.3799
388.15	77.17	2.3151

System: 1-octene + 1-butyl-3-methylimidazolium chloride; phases: Liquid
Fixed: Pressure, kPa = 101
Fixed: Mole fraction of 1-octene = 0
Property: Activity coefficient of 1-octene (Liquid); method: Chromatography
Temperature, K	Activity coefficient of 1-octene	uncertainty
358.15	141.84	4.2552
368.15	134.44	4.0332
378.15	125.75	3.7725
388.15	122.5	3.675

System: 1-decene + 1-butyl-3-methylimidazolium chloride; phases: Liquid
Fixed: Pressure, kPa = 101
Fixed: Mole fraction of 1-decene = 0
Property: Activity coefficient of 1-decene (Liquid); method: Chromatography
Temperature, K	Activity coefficient of 1-decene	uncertainty
358.15	322.82	9.6846
368.15	305.86	9.1758
378.15	284.63	8.5389
388.15	277.46	8.3238

System: cyclohexene + 1-butyl-3-methylimidazolium chloride; phases: Liquid
Fixed: Pressure, kPa = 101
Fixed: Mole fraction of cyclohexene = 0
Property: Activity coefficient of cyclohexene (Liquid); method: Chromatography
Temperature, K	Activity coefficient of cyclohexene	uncertainty
358.15	22.84	.6852
368.15	22.3	.669
378.15	21.48	.6444
388.15	21.31	.6393

System: 1-pentyne + 1-butyl-3-methylimidazolium chloride; phases: Liquid
Fixed: Pressure, kPa = 101
Fixed: Mole fraction of 1-pentyne = 0
Property: Activity coefficient of 1-pentyne (Liquid); method: Chromatography
Temperature, K	Activity coefficient of 1-pentyne	uncertainty
358.15	4.89	.1467
368.15	5.25	.1575
378.15	5.51	.1653
388.15	5.78	.1734

System: 1-hexyne + 1-butyl-3-methylimidazolium chloride; phases: Liquid
Fixed: Pressure, kPa = 101
Fixed: Mole fraction of 1-hexyne = 0
Property: Activity coefficient of 1-hexyne (Liquid); method: Chromatography
Temperature, K	Activity coefficient of 1-hexyne	uncertainty
358.15	7.33	.2199
368.15	7.85	.2355
378.15	8.19	.2457
388.15	8.61	.2583

System: 1-heptyne + 1-butyl-3-methylimidazolium chloride; phases: Liquid
Fixed: Pressure, kPa = 101
Fixed: Mole fraction of 1-heptyne = 0
Property: Activity coefficient of 1-heptyne (Liquid); method: Chromatography
Temperature, K	Activity coefficient of 1-heptyne	uncertainty
358.15	11.63	.3489
368.15	12.3	.369
378.15	12.74	.3822
388.15	13.33	.3999

System: 1-octyne + 1-butyl-3-methylimidazolium chloride; phases: Liquid
Fixed: Pressure, kPa = 101
Fixed: Mole fraction of 1-octyne = 0
Property: Activity coefficient of 1-octyne (Liquid); method: Chromatography
Temperature, K	Activity coefficient of 1-octyne	uncertainty
358.15	18.32	.5496
368.15	19.2	.576
378.15	19.73	.5919
388.15	20.45	.6135

System: 2-propanone + 1-butyl-3-methylimidazolium chloride; phases: Liquid
Fixed: Pressure, kPa = 101
Fixed: Mole fraction of 2-propanone = 0
Property: Activity coefficient of 2-propanone (Liquid); method: Chromatography
Temperature, K	Activity coefficient of 2-propanone	uncertainty
358.15	3.05	.0915
368.15	3.12	.0936
378.15	3.17	.0951
388.15	3.27	.0981

System: 2-pentanone + 1-butyl-3-methylimidazolium chloride; phases: Liquid
Fixed: Pressure, kPa = 101
Fixed: Mole fraction of 2-pentanone = 0
Property: Activity coefficient of 2-pentanone (Liquid); method: Chromatography
Temperature, K	Activity coefficient of 2-pentanone	uncertainty
358.15	7.59	.2277
368.15	7.71	.2313
378.15	7.78	.2334
388.15	8.01	.2403

System: 3-pentanone + 1-butyl-3-methylimidazolium chloride; phases: Liquid
Fixed: Pressure, kPa = 101
Fixed: Mole fraction of 3-pentanone = 0
Property: Activity coefficient of 3-pentanone (Liquid); method: Chromatography
Temperature, K	Activity coefficient of 3-pentanone	uncertainty
358.15	7.6	.228
368.15	7.72	.2316
378.15	7.78	.2334
388.15	7.97	.2391

System: tert-butyl methyl ether + 1-butyl-3-methylimidazolium chloride; phases: Liquid
Fixed: Pressure, kPa = 101
Fixed: Mole fraction of tert-butyl methyl ether = 0
Property: Activity coefficient of tert-butyl methyl ether (Liquid); method: Chromatography
Temperature, K	Activity coefficient of tert-butyl methyl ether	uncertainty
358.15	24.61	.7383
368.15	23.8	.714
378.15	23.02	.6906
388.15	22.85	.6855

System: tert-amyl methyl ether + 1-butyl-3-methylimidazolium chloride; phases: Liquid
Fixed: Pressure, kPa = 101
Fixed: Mole fraction of tert-amyl methyl ether = 0
Property: Activity coefficient of tert-amyl methyl ether (Liquid); method: Chromatography
Temperature, K	Activity coefficient of tert-amyl methyl ether	uncertainty
358.15	33.96	1.0188
368.15	33.14	.9942
378.15	32.18	.9654
388.15	32.06	.9618

System: ethyl tert-butyl ether + 1-butyl-3-methylimidazolium chloride; phases: Liquid
Fixed: Pressure, kPa = 101
Fixed: Mole fraction of ethyl tert-butyl ether = 0
Property: Activity coefficient of ethyl tert-butyl ether (Liquid); method: Chromatography
Temperature, K	Activity coefficient of ethyl tert-butyl ether	uncertainty
358.15	64.78	1.9434
368.15	59.34	1.7802
378.15	55.67	1.6701
388.15	53.32	1.5996

System: diethyl ether + 1-butyl-3-methylimidazolium chloride; phases: Liquid
Fixed: Pressure, kPa = 101
Fixed: Mole fraction of diethyl ether = 0
Property: Activity coefficient of diethyl ether (Liquid); method: Chromatography
Temperature, K	Activity coefficient of diethyl ether	uncertainty
358.15	19.27	.5781
368.15	18.93	.5679
378.15	18.36	.5508
388.15	18.39	.5517

System: dipropyl ether + 1-butyl-3-methylimidazolium chloride; phases: Liquid
Fixed: Pressure, kPa = 101
Fixed: Mole fraction of dipropyl ether = 0
Property: Activity coefficient of dipropyl ether (Liquid); method: Chromatography
Temperature, K	Activity coefficient of dipropyl ether	uncertainty
358.15	57.4	1.722
368.15	55.26	1.6578
378.15	52.78	1.5834
388.15	51.93	1.5579

System: diisopropyl ether + 1-butyl-3-methylimidazolium chloride; phases: Liquid
Fixed: Pressure, kPa = 101
Fixed: Mole fraction of diisopropyl ether = 0
Property: Activity coefficient of diisopropyl ether (Liquid); method: Chromatography
Temperature, K	Activity coefficient of diisopropyl ether	uncertainty
358.15	78.53	2.3559
368.15	71.67	2.1501
378.15	63.98	1.9194
388.15	59.12	1.7736

System: dibutyl ether + 1-butyl-3-methylimidazolium chloride; phases: Liquid
Fixed: Pressure, kPa = 101
Fixed: Mole fraction of dibutyl ether = 0
Property: Activity coefficient of dibutyl ether (Liquid); method: Chromatography
Temperature, K	Activity coefficient of dibutyl ether	uncertainty
358.15	130.04	3.9012
368.15	124.82	3.7446
378.15	118.31	3.5493
388.15	116.17	3.4851

System: oxolane + 1-butyl-3-methylimidazolium chloride; phases: Liquid
Fixed: Pressure, kPa = 101
Fixed: Mole fraction of oxolane = 0
Property: Activity coefficient of oxolane (Liquid); method: Chromatography
Temperature, K	Activity coefficient of oxolane	uncertainty
358.15	5.66	.1698
368.15	5.67	.1701
378.15	5.67	.1701
388.15	5.7	.171

System: 1,4-dioxane + 1-butyl-3-methylimidazolium chloride; phases: Liquid
Fixed: Pressure, kPa = 101
Fixed: Mole fraction of 1,4-dioxane = 0
Property: Activity coefficient of 1,4-dioxane (Liquid); method: Chromatography
Temperature, K	Activity coefficient of 1,4-dioxane	uncertainty
358.15	3.47	.1041
368.15	3.55	.1065
378.15	3.65	.1095
388.15	3.74	.1122

System: benzene + 1-butyl-3-methylimidazolium chloride; phases: Liquid
Fixed: Pressure, kPa = 101
Fixed: Mole fraction of benzene = 0
Property: Activity coefficient of benzene (Liquid); method: Chromatography
Temperature, K	Activity coefficient of benzene	uncertainty
358.15	4.51	.1353
368.15	4.59	.1377
378.15	4.72	.1416
388.15	4.82	.1446

System: toluene + 1-butyl-3-methylimidazolium chloride; phases: Liquid
Fixed: Pressure, kPa = 101
Fixed: Mole fraction of toluene = 0
Property: Activity coefficient of toluene (Liquid); method: Chromatography
Temperature, K	Activity coefficient of toluene	uncertainty
358.15	7.78	.2334
368.15	7.91	.2373
378.15	8.09	.2427
388.15	8.36	.2508

System: ethylbenzene + 1-butyl-3-methylimidazolium chloride; phases: Liquid
Fixed: Pressure, kPa = 101
Fixed: Mole fraction of ethylbenzene = 0
Property: Activity coefficient of ethylbenzene (Liquid); method: Chromatography
Temperature, K	Activity coefficient of ethylbenzene	uncertainty
358.15	13.15	.3945
368.15	13.25	.3975
378.15	13.51	.4053
388.15	13.73	.4119

System: o-xylene + 1-butyl-3-methylimidazolium chloride; phases: Liquid
Fixed: Pressure, kPa = 101
Fixed: Mole fraction of o-xylene = 0
Property: Activity coefficient of o-xylene (Liquid); method: Chromatography
Temperature, K	Activity coefficient of o-xylene	uncertainty
358.15	11.55	.3465
368.15	11.72	.3516
378.15	11.93	.3579
388.15	12.28	.3684

System: m-xylene + 1-butyl-3-methylimidazolium chloride; phases: Liquid
Fixed: Pressure, kPa = 101
Fixed: Mole fraction of m-xylene = 0
Property: Activity coefficient of m-xylene (Liquid); method: Chromatography
Temperature, K	Activity coefficient of m-xylene	uncertainty
358.15	14.31	.4293
368.15	14.5	.435
378.15	14.69	.4407
388.15	15.02	.4506

System: p-xylene + 1-butyl-3-methylimidazolium chloride; phases: Liquid
Fixed: Pressure, kPa = 101
Fixed: Mole fraction of p-xylene = 0
Property: Activity coefficient of p-xylene (Liquid); method: Chromatography
Temperature, K	Activity coefficient of p-xylene	uncertainty
358.15	13.63	.4089
368.15	13.72	.4116
378.15	14	.42
388.15	14.29	.4287

System: styrene + 1-butyl-3-methylimidazolium chloride; phases: Liquid
Fixed: Pressure, kPa = 101
Fixed: Mole fraction of styrene = 0
Property: Activity coefficient of styrene (Liquid); method: Chromatography
Temperature, K	Activity coefficient of styrene	uncertainty
358.15	4.96	.1488
368.15	5.18	.1554
378.15	5.42	.1626
388.15	5.73	.1719

System: .alpha.-methylstyrene + 1-butyl-3-methylimidazolium chloride; phases: Liquid
Fixed: Pressure, kPa = 101
Fixed: Mole fraction of .alpha.-methylstyrene = 0
Property: Activity coefficient of .alpha.-methylstyrene (Liquid); method: Chromatography
Temperature, K	Activity coefficient of .alpha.-methylstyrene	uncertainty
358.15	9.01	.2703
368.15	9.33	.2799
378.15	9.83	.2949
388.15	10.34	.3102

System: methyl acetate + 1-butyl-3-methylimidazolium chloride; phases: Liquid
Fixed: Pressure, kPa = 101
Fixed: Mole fraction of methyl acetate = 0
Property: Activity coefficient of methyl acetate (Liquid); method: Chromatography
Temperature, K	Activity coefficient of methyl acetate	uncertainty
358.15	4.82	.1446
368.15	4.89	.1467
378.15	5.01	.1503
388.15	5.09	.1527

System: ethyl acetate + 1-butyl-3-methylimidazolium chloride; phases: Liquid
Fixed: Pressure, kPa = 101
Fixed: Mole fraction of ethyl acetate = 0
Property: Activity coefficient of ethyl acetate (Liquid); method: Chromatography
Temperature, K	Activity coefficient of ethyl acetate	uncertainty
358.15	9.02	.2706
368.15	9.06	.2718
378.15	9.1	.273
388.15	9.16	.2748

System: methyl propanoate + 1-butyl-3-methylimidazolium chloride; phases: Liquid
Fixed: Pressure, kPa = 101
Fixed: Mole fraction of methyl propanoate = 0
Property: Activity coefficient of methyl propanoate (Liquid); method: Chromatography
Temperature, K	Activity coefficient of methyl propanoate	uncertainty
358.15	8	.24
368.15	8.09	.2427
378.15	8.2	.246
388.15	8.31	.2493

System: methyl butanoate + 1-butyl-3-methylimidazolium chloride; phases: Liquid
Fixed: Pressure, kPa = 101
Fixed: Mole fraction of methyl butanoate = 0
Property: Activity coefficient of methyl butanoate (Liquid); method: Chromatography
Temperature, K	Activity coefficient of methyl butanoate	uncertainty
358.15	12.3	.369
368.15	12.43	.3729
378.15	12.57	.3771
388.15	12.69	.3807

System: vinyl acetate + 1-butyl-3-methylimidazolium chloride; phases: Liquid
Fixed: Pressure, kPa = 101
Fixed: Mole fraction of vinyl acetate = 0
Property: Activity coefficient of vinyl acetate (Liquid); method: Chromatography
Temperature, K	Activity coefficient of vinyl acetate	uncertainty
358.15	5.66	.1698
368.15	5.74	.1722
378.15	5.86	.1758
388.15	6.05	.1815

System: methanol + 1-butyl-3-methylimidazolium chloride; phases: Liquid
Fixed: Pressure, kPa = 101
Fixed: Mole fraction of methanol = 0
Property: Activity coefficient of methanol (Liquid); method: Chromatography
Temperature, K	Activity coefficient of methanol	uncertainty
398.15	.156	.00468
408.15	.166	.00498
418.15	.176	.00528
428.15	.191	.00573

System: ethanol + 1-butyl-3-methylimidazolium chloride; phases: Liquid
Fixed: Pressure, kPa = 101
Fixed: Mole fraction of ethanol = 0
Property: Activity coefficient of ethanol (Liquid); method: Chromatography
Temperature, K	Activity coefficient of ethanol	uncertainty
398.15	.297	.00891
408.15	.313	.00939
418.15	.332	.00996
428.15	.353	.01059

System: 1-propanol + 1-butyl-3-methylimidazolium chloride; phases: Liquid
Fixed: Pressure, kPa = 101
Fixed: Mole fraction of 1-propanol = 0
Property: Activity coefficient of 1-propanol (Liquid); method: Chromatography
Temperature, K	Activity coefficient of 1-propanol	uncertainty
398.15	.408	.01224
408.15	.434	.01302
418.15	.464	.01392
428.15	.501	.01503

System: 2-propanol + 1-butyl-3-methylimidazolium chloride; phases: Liquid
Fixed: Pressure, kPa = 101
Fixed: Mole fraction of 2-propanol = 0
Property: Activity coefficient of 2-propanol (Liquid); method: Chromatography
Temperature, K	Activity coefficient of 2-propanol	uncertainty
398.15	.542	.01626
408.15	.577	.01731
418.15	.619	.01857
428.15	.668	.02004

System: 2-methyl-1-propanol + 1-butyl-3-methylimidazolium chloride; phases: Liquid
Fixed: Pressure, kPa = 101
Fixed: Mole fraction of 2-methyl-1-propanol = 0
Property: Activity coefficient of 2-methyl-1-propanol (Liquid); method: Chromatography
Temperature, K	Activity coefficient of 2-methyl-1-propanol	uncertainty
398.15	.54	.0162
408.15	.576	.01728
418.15	.615	.01845
428.15	.665	.01995

System: 1-butanol + 1-butyl-3-methylimidazolium chloride; phases: Liquid
Fixed: Pressure, kPa = 101
Fixed: Mole fraction of 1-butanol = 0
Property: Activity coefficient of 1-butanol (Liquid); method: Chromatography
Temperature, K	Activity coefficient of 1-butanol	uncertainty
398.15	.558	.01674
408.15	.594	.01782
418.15	.635	.01905
428.15	.68	.0204

System: 2-butanol + 1-butyl-3-methylimidazolium chloride; phases: Liquid
Fixed: Pressure, kPa = 101
Fixed: Mole fraction of 2-butanol = 0
Property: Activity coefficient of 2-butanol (Liquid); method: Chromatography
Temperature, K	Activity coefficient of 2-butanol	uncertainty
398.15	.749	.02247
408.15	.804	.02412
418.15	.865	.02595
428.15	.931	.02793

System: tert-butanol + 1-butyl-3-methylimidazolium chloride; phases: Liquid
Fixed: Pressure, kPa = 101
Fixed: Mole fraction of tert-butanol = 0
Property: Activity coefficient of tert-butanol (Liquid); method: Chromatography
Temperature, K	Activity coefficient of tert-butanol	uncertainty
398.15	.987	.02961
408.15	1.067	.03201
418.15	1.159	.03477
428.15	1.269	.03807

System: butyraldehyde + 1-butyl-3-methylimidazolium chloride; phases: Liquid
Fixed: Pressure, kPa = 101
Fixed: Mole fraction of butyraldehyde = 0
Property: Activity coefficient of butyraldehyde (Liquid); method: Chromatography
Temperature, K	Activity coefficient of butyraldehyde	uncertainty
358.15	5.24	.1572
368.15	5.31	.1593
378.15	5.43	.1629
388.15	5.54	.1662

System: acetonitrile + 1-butyl-3-methylimidazolium chloride; phases: Liquid
Fixed: Pressure, kPa = 101
Fixed: Mole fraction of acetonitrile = 0
Property: Activity coefficient of acetonitrile (Liquid); method: Chromatography
Temperature, K	Activity coefficient of acetonitrile	uncertainty
358.15	1.12	.0336
368.15	1.16	.0348
378.15	1.21	.0363
388.15	1.28	.0384

System: pyridine + 1-butyl-3-methylimidazolium chloride; phases: Liquid
Fixed: Pressure, kPa = 101
Fixed: Mole fraction of pyridine = 0
Property: Activity coefficient of pyridine (Liquid); method: Chromatography
Temperature, K	Activity coefficient of pyridine	uncertainty
358.15	1.47	.0441
368.15	1.55	.0465
378.15	1.64	.0492
388.15	1.78	.0534

System: 1-nitropropane + 1-butyl-3-methylimidazolium chloride; phases: Liquid
Fixed: Pressure, kPa = 101
Fixed: Mole fraction of 1-nitropropane = 0
Property: Activity coefficient of 1-nitropropane (Liquid); method: Chromatography
Temperature, K	Activity coefficient of 1-nitropropane	uncertainty
358.15	2.51	.0753
368.15	2.61	.0783
378.15	2.69	.0807
388.15	2.8	.084

System: thiophene + 1-butyl-3-methylimidazolium chloride; phases: Liquid
Fixed: Pressure, kPa = 101
Fixed: Mole fraction of thiophene = 0
Property: Activity coefficient of thiophene (Liquid); method: Chromatography
Temperature, K	Activity coefficient of thiophene	uncertainty
358.15	2.04	.0612
368.15	2.16	.0648
378.15	2.27	.0681
388.15	2.41	.0723

System: water + 1-butyl-3-methylimidazolium chloride; phases: Liquid
Fixed: Pressure, kPa = 101
Fixed: Mole fraction of water = 0
Property: Activity coefficient of water (Liquid); method: Chromatography
Temperature, K	Activity coefficient of water	uncertainty
398.15	.07	.0021
408.15	.077	.00231
418.15	.085	.00255
428.15	.094	.00282

System: octane + 1-butyl-3-methylimidazolium methanesulfonate; phases: Liquid
Fixed: Pressure, kPa = 101
Fixed: Mole fraction of octane = 0
Property: Activity coefficient of octane (Liquid); method: Chromatography
Temperature, K	Activity coefficient of octane	uncertainty
358.15	170.84	5.1252
368.15	164.58	4.9374
378.15	159.96	4.7988
388.15	155.32	4.6596

System: nonane + 1-butyl-3-methylimidazolium methanesulfonate; phases: Liquid
Fixed: Pressure, kPa = 101
Fixed: Mole fraction of nonane = 0
Property: Activity coefficient of nonane (Liquid); method: Chromatography
Temperature, K	Activity coefficient of nonane	uncertainty
358.15	250.53	7.5159
368.15	239.46	7.1838
378.15	229.2	6.876
388.15	223.29	6.6987

System: decane + 1-butyl-3-methylimidazolium methanesulfonate; phases: Liquid
Fixed: Pressure, kPa = 101
Fixed: Mole fraction of decane = 0
Property: Activity coefficient of decane (Liquid); method: Chromatography
Temperature, K	Activity coefficient of decane	uncertainty
358.15	371.49	11.1447
368.15	351.76	10.5528
378.15	340.15	10.2045
388.15	324.31	9.7293

System: cyclopentane + 1-butyl-3-methylimidazolium methanesulfonate; phases: Liquid
Fixed: Pressure, kPa = 101
Fixed: Mole fraction of cyclopentane = 0
Property: Activity coefficient of cyclopentane (Liquid); method: Chromatography
Temperature, K	Activity coefficient of cyclopentane	uncertainty
358.15	23.85	.7155
368.15	23.7	.711
378.15	23.5	.705
388.15	23.26	.6978

System: cyclohexane + 1-butyl-3-methylimidazolium methanesulfonate; phases: Liquid
Fixed: Pressure, kPa = 101
Fixed: Mole fraction of cyclohexane = 0
Property: Activity coefficient of cyclohexane (Liquid); method: Chromatography
Temperature, K	Activity coefficient of cyclohexane	uncertainty
358.15	35.18	1.0554
368.15	34.49	1.0347
378.15	33.9	1.017
388.15	33.81	1.0143

System: methylcyclohexane + 1-butyl-3-methylimidazolium methanesulfonate; phases: Liquid
Fixed: Pressure, kPa = 101
Fixed: Mole fraction of methylcyclohexane = 0
Property: Activity coefficient of methylcyclohexane (Liquid); method: Chromatography
Temperature, K	Activity coefficient of methylcyclohexane	uncertainty
358.15	52.79	1.5837
368.15	51.7	1.551
378.15	50.88	1.5264
388.15	50.4	1.512

System: cycloheptane + 1-butyl-3-methylimidazolium methanesulfonate; phases: Liquid
Fixed: Pressure, kPa = 101
Fixed: Mole fraction of cycloheptane = 0
Property: Activity coefficient of cycloheptane (Liquid); method: Chromatography
Temperature, K	Activity coefficient of cycloheptane	uncertainty
358.15	44.21	1.3263
368.15	43.33	1.2999
378.15	42.59	1.2777
388.15	42.25	1.2675

System: cyclooctane + 1-butyl-3-methylimidazolium methanesulfonate; phases: Liquid
Fixed: Pressure, kPa = 101
Fixed: Mole fraction of cyclooctane = 0
Property: Activity coefficient of cyclooctane (Liquid); method: Chromatography
Temperature, K	Activity coefficient of cyclooctane	uncertainty
358.15	57.11	1.7133
368.15	55.66	1.6698
378.15	54.42	1.6326
388.15	53.6	1.608

System: 1-hexene + 1-butyl-3-methylimidazolium methanesulfonate; phases: Liquid
Fixed: Pressure, kPa = 101
Fixed: Mole fraction of 1-hexene = 0
Property: Activity coefficient of 1-hexene (Liquid); method: Chromatography
Temperature, K	Activity coefficient of 1-hexene	uncertainty
358.15	39.66	1.1898
368.15	39.99	1.1997
378.15	40.01	1.2003
388.15	40.26	1.2078

System: 1-heptene + 1-butyl-3-methylimidazolium methanesulfonate; phases: Liquid
Fixed: Pressure, kPa = 101
Fixed: Mole fraction of 1-heptene = 0
Property: Activity coefficient of 1-heptene (Liquid); method: Chromatography
Temperature, K	Activity coefficient of 1-heptene	uncertainty
358.15	59.23	1.7769
368.15	58.91	1.7673
378.15	58.68	1.7604
388.15	58.03	1.7409

System: 1-octene + 1-butyl-3-methylimidazolium methanesulfonate; phases: Liquid
Fixed: Pressure, kPa = 101
Fixed: Mole fraction of 1-octene = 0
Property: Activity coefficient of 1-octene (Liquid); method: Chromatography
Temperature, K	Activity coefficient of 1-octene	uncertainty
358.15	88.06	2.6418
368.15	86.76	2.6028
378.15	86.48	2.5944
388.15	85.64	2.5692

System: 1-decene + 1-butyl-3-methylimidazolium methanesulfonate; phases: Liquid
Fixed: Pressure, kPa = 101
Fixed: Mole fraction of 1-decene = 0
Property: Activity coefficient of 1-decene (Liquid); method: Chromatography
Temperature, K	Activity coefficient of 1-decene	uncertainty
358.15	192.88	5.7864
368.15	187.08	5.6124
378.15	181.89	5.4567
388.15	179.06	5.3718

System: cyclohexene + 1-butyl-3-methylimidazolium methanesulfonate; phases: Liquid
Fixed: Pressure, kPa = 101
Fixed: Mole fraction of cyclohexene = 0
Property: Activity coefficient of cyclohexene (Liquid); method: Chromatography
Temperature, K	Activity coefficient of cyclohexene	uncertainty
358.15	18.44	.5532
368.15	18.59	.5577
378.15	18.73	.5619
388.15	19	.57

System: 1-pentyne + 1-butyl-3-methylimidazolium methanesulfonate; phases: Liquid
Fixed: Pressure, kPa = 101
Fixed: Mole fraction of 1-pentyne = 0
Property: Activity coefficient of 1-pentyne (Liquid); method: Chromatography
Temperature, K	Activity coefficient of 1-pentyne	uncertainty
358.15	5.46	.1638
368.15	5.84	.1752
378.15	6.26	.1878
388.15	6.67	.2001

System: 1-hexyne + 1-butyl-3-methylimidazolium methanesulfonate; phases: Liquid
Fixed: Pressure, kPa = 101
Fixed: Mole fraction of 1-hexyne = 0
Property: Activity coefficient of 1-hexyne (Liquid); method: Chromatography
Temperature, K	Activity coefficient of 1-hexyne	uncertainty
358.15	8.02	.2406
368.15	8.52	.2556
378.15	9.06	.2718
388.15	9.64	.2892

System: 1-heptyne + 1-butyl-3-methylimidazolium methanesulfonate; phases: Liquid
Fixed: Pressure, kPa = 101
Fixed: Mole fraction of 1-heptyne = 0
Property: Activity coefficient of 1-heptyne (Liquid); method: Chromatography
Temperature, K	Activity coefficient of 1-heptyne	uncertainty
358.15	11.97	.3591
368.15	12.64	.3792
378.15	13.34	.4002
388.15	14.11	.4233

System: 1-octyne + 1-butyl-3-methylimidazolium methanesulfonate; phases: Liquid
Fixed: Pressure, kPa = 101
Fixed: Mole fraction of 1-octyne = 0
Property: Activity coefficient of 1-octyne (Liquid); method: Chromatography
Temperature, K	Activity coefficient of 1-octyne	uncertainty
358.15	17.77	.5331
368.15	18.58	.5574
378.15	19.47	.5841
388.15	20.39	.6117

System: 2-propanone + 1-butyl-3-methylimidazolium methanesulfonate; phases: Liquid
Fixed: Pressure, kPa = 101
Fixed: Mole fraction of 2-propanone = 0
Property: Activity coefficient of 2-propanone (Liquid); method: Chromatography
Temperature, K	Activity coefficient of 2-propanone	uncertainty
358.15	2.06	.0618
368.15	2.12	.0636
378.15	2.22	.0666
388.15	2.3	.069

System: 2-pentanone + 1-butyl-3-methylimidazolium methanesulfonate; phases: Liquid
Fixed: Pressure, kPa = 101
Fixed: Mole fraction of 2-pentanone = 0
Property: Activity coefficient of 2-pentanone (Liquid); method: Chromatography
Temperature, K	Activity coefficient of 2-pentanone	uncertainty
358.15	4.5	.135
368.15	4.59	.1377
378.15	4.76	.1428
388.15	4.91	.1473

System: 3-pentanone + 1-butyl-3-methylimidazolium methanesulfonate; phases: Liquid
Fixed: Pressure, kPa = 101
Fixed: Mole fraction of 3-pentanone = 0
Property: Activity coefficient of 3-pentanone (Liquid); method: Chromatography
Temperature, K	Activity coefficient of 3-pentanone	uncertainty
358.15	4.68	.1404
368.15	4.79	.1437
378.15	4.88	.1464
388.15	5.09	.1527

System: tert-butyl methyl ether + 1-butyl-3-methylimidazolium methanesulfonate; phases: Liquid
Fixed: Pressure, kPa = 101
Fixed: Mole fraction of tert-butyl methyl ether = 0
Property: Activity coefficient of tert-butyl methyl ether (Liquid); method: Chromatography
Temperature, K	Activity coefficient of tert-butyl methyl ether	uncertainty
358.15	16.97	.5091
368.15	17.39	.5217
378.15	17.9	.537
388.15	18.55	.5565

System: tert-amyl methyl ether + 1-butyl-3-methylimidazolium methanesulfonate; phases: Liquid
Fixed: Pressure, kPa = 101
Fixed: Mole fraction of tert-amyl methyl ether = 0
Property: Activity coefficient of tert-amyl methyl ether (Liquid); method: Chromatography
Temperature, K	Activity coefficient of tert-amyl methyl ether	uncertainty
358.15	23.82	.7146
368.15	24.18	.7254
378.15	24.67	.7401
388.15	25.26	.7578

System: ethyl tert-butyl ether + 1-butyl-3-methylimidazolium methanesulfonate; phases: Liquid
Fixed: Pressure, kPa = 101
Fixed: Mole fraction of ethyl tert-butyl ether = 0
Property: Activity coefficient of ethyl tert-butyl ether (Liquid); method: Chromatography
Temperature, K	Activity coefficient of ethyl tert-butyl ether	uncertainty
358.15	35.29	1.0587
368.15	35.59	1.0677
378.15	36.1	1.083
388.15	36.62	1.0986

System: diethyl ether + 1-butyl-3-methylimidazolium methanesulfonate; phases: Liquid
Fixed: Pressure, kPa = 101
Fixed: Mole fraction of diethyl ether = 0
Property: Activity coefficient of diethyl ether (Liquid); method: Chromatography
Temperature, K	Activity coefficient of diethyl ether	uncertainty
358.15	14.69	.4407
368.15	14.91	.4473
378.15	14.98	.4494
388.15	15.32	.4596

System: dipropyl ether + 1-butyl-3-methylimidazolium methanesulfonate; phases: Liquid
Fixed: Pressure, kPa = 101
Fixed: Mole fraction of dipropyl ether = 0
Property: Activity coefficient of dipropyl ether (Liquid); method: Chromatography
Temperature, K	Activity coefficient of dipropyl ether	uncertainty
358.15	38.11	1.1433
368.15	38.73	1.1619
378.15	38.94	1.1682
388.15	39.41	1.1823

System: diisopropyl ether + 1-butyl-3-methylimidazolium methanesulfonate; phases: Liquid
Fixed: Pressure, kPa = 101
Fixed: Mole fraction of diisopropyl ether = 0
Property: Activity coefficient of diisopropyl ether (Liquid); method: Chromatography
Temperature, K	Activity coefficient of diisopropyl ether	uncertainty
358.15	40.59	1.2177
378.15	40.79	1.2237
388.15	41.19	1.2357

System: dibutyl ether + 1-butyl-3-methylimidazolium methanesulfonate; phases: Liquid
Fixed: Pressure, kPa = 101
Fixed: Mole fraction of dibutyl ether = 0
Property: Activity coefficient of dibutyl ether (Liquid); method: Chromatography
Temperature, K	Activity coefficient of dibutyl ether	uncertainty
358.15	83.87	2.5161
368.15	82.13	2.4639
378.15	81.55	2.4465
388.15	80.53	2.4159

System: oxolane + 1-butyl-3-methylimidazolium methanesulfonate; phases: Liquid
Fixed: Pressure, kPa = 101
Fixed: Mole fraction of oxolane = 0
Property: Activity coefficient of oxolane (Liquid); method: Chromatography
Temperature, K	Activity coefficient of oxolane	uncertainty
358.15	3.41	.1023
368.15	3.48	.1044
378.15	3.59	.1077
388.15	3.72	.1116

System: 1,4-dioxane + 1-butyl-3-methylimidazolium methanesulfonate; phases: Liquid
Fixed: Pressure, kPa = 101
Fixed: Mole fraction of 1,4-dioxane = 0
Property: Activity coefficient of 1,4-dioxane (Liquid); method: Chromatography
Temperature, K	Activity coefficient of 1,4-dioxane	uncertainty
358.15	2.33	.0699
368.15	2.41	.0723
378.15	2.49	.0747
388.15	2.62	.0786

System: benzene + 1-butyl-3-methylimidazolium methanesulfonate; phases: Liquid
Fixed: Pressure, kPa = 101
Fixed: Mole fraction of benzene = 0
Property: Activity coefficient of benzene (Liquid); method: Chromatography
Temperature, K	Activity coefficient of benzene	uncertainty
358.15	3.08	.0924
368.15	3.19	.0957
378.15	3.29	.0987
388.15	3.46	.1038

System: toluene + 1-butyl-3-methylimidazolium methanesulfonate; phases: Liquid
Fixed: Pressure, kPa = 101
Fixed: Mole fraction of toluene = 0
Property: Activity coefficient of toluene (Liquid); method: Chromatography
Temperature, K	Activity coefficient of toluene	uncertainty
358.15	5.32	.1596
368.15	5.45	.1635
378.15	5.68	.1704
388.15	5.84	.1752

System: ethylbenzene + 1-butyl-3-methylimidazolium methanesulfonate; phases: Liquid
Fixed: Pressure, kPa = 101
Fixed: Mole fraction of ethylbenzene = 0
Property: Activity coefficient of ethylbenzene (Liquid); method: Chromatography
Temperature, K	Activity coefficient of ethylbenzene	uncertainty
358.15	8.45	.2535
368.15	8.61	.2583
378.15	8.76	.2628
388.15	9.05	.2715

System: o-xylene + 1-butyl-3-methylimidazolium methanesulfonate; phases: Liquid
Fixed: Pressure, kPa = 101
Fixed: Mole fraction of o-xylene = 0
Property: Activity coefficient of o-xylene (Liquid); method: Chromatography
Temperature, K	Activity coefficient of o-xylene	uncertainty
358.15	7.64	.2292
368.15	7.79	.2337
378.15	7.99	.2397
388.15	8.21	.2463

System: m-xylene + 1-butyl-3-methylimidazolium methanesulfonate; phases: Liquid
Fixed: Pressure, kPa = 101
Fixed: Mole fraction of m-xylene = 0
Property: Activity coefficient of m-xylene (Liquid); method: Chromatography
Temperature, K	Activity coefficient of m-xylene	uncertainty
358.15	9.27	.2781
368.15	9.43	.2829
378.15	9.57	.2871
388.15	9.92	.2976

System: p-xylene + 1-butyl-3-methylimidazolium methanesulfonate; phases: Liquid
Fixed: Pressure, kPa = 101
Fixed: Mole fraction of p-xylene = 0
Property: Activity coefficient of p-xylene (Liquid); method: Chromatography
Temperature, K	Activity coefficient of p-xylene	uncertainty
358.15	9.03	.2709
368.15	9.2	.276
378.15	9.37	.2811
388.15	9.71	.2913

System: styrene + 1-butyl-3-methylimidazolium methanesulfonate; phases: Liquid
Fixed: Pressure, kPa = 101
Fixed: Mole fraction of styrene = 0
Property: Activity coefficient of styrene (Liquid); method: Chromatography
Temperature, K	Activity coefficient of styrene	uncertainty
358.15	3.79	.1137
368.15	3.96	.1188
378.15	4.2	.126
388.15	4.4	.132

System: .alpha.-methylstyrene + 1-butyl-3-methylimidazolium methanesulfonate; phases: Liquid
Fixed: Pressure, kPa = 101
Fixed: Mole fraction of .alpha.-methylstyrene = 0
Property: Activity coefficient of .alpha.-methylstyrene (Liquid); method: Chromatography
Temperature, K	Activity coefficient of .alpha.-methylstyrene	uncertainty
358.15	6.43	.1929
368.15	6.71	.2013
378.15	6.96	.2088
388.15	7.41	.2223

System: methyl acetate + 1-butyl-3-methylimidazolium methanesulfonate; phases: Liquid
Fixed: Pressure, kPa = 101
Fixed: Mole fraction of methyl acetate = 0
Property: Activity coefficient of methyl acetate (Liquid); method: Chromatography
Temperature, K	Activity coefficient of methyl acetate	uncertainty
358.15	2.94	.0882
368.15	3.03	.0909
378.15	3.14	.0942
388.15	3.33	.0999

System: ethyl acetate + 1-butyl-3-methylimidazolium methanesulfonate; phases: Liquid
Fixed: Pressure, kPa = 101
Fixed: Mole fraction of ethyl acetate = 0
Property: Activity coefficient of ethyl acetate (Liquid); method: Chromatography
Temperature, K	Activity coefficient of ethyl acetate	uncertainty
358.15	4.76	.1428
368.15	4.88	.1464
378.15	5	.15
388.15	5.28	.1584

System: methyl propanoate + 1-butyl-3-methylimidazolium methanesulfonate; phases: Liquid
Fixed: Pressure, kPa = 101
Fixed: Mole fraction of methyl propanoate = 0
Property: Activity coefficient of methyl propanoate (Liquid); method: Chromatography
Temperature, K	Activity coefficient of methyl propanoate	uncertainty
358.15	4.43	.1329
368.15	4.56	.1368
378.15	4.68	.1404
388.15	4.9	.147

System: methyl butanoate + 1-butyl-3-methylimidazolium methanesulfonate; phases: Liquid
Fixed: Pressure, kPa = 101
Fixed: Mole fraction of methyl butanoate = 0
Property: Activity coefficient of methyl butanoate (Liquid); method: Chromatography
Temperature, K	Activity coefficient of methyl butanoate	uncertainty
358.15	6.79	.2037
368.15	7.21	.2163
378.15	7.39	.2217
388.15	7.84	.2352

System: vinyl acetate + 1-butyl-3-methylimidazolium methanesulfonate; phases: Liquid
Fixed: Pressure, kPa = 101
Fixed: Mole fraction of vinyl acetate = 0
Property: Activity coefficient of vinyl acetate (Liquid); method: Chromatography
Temperature, K	Activity coefficient of vinyl acetate	uncertainty
358.15	3.47	.1041
368.15	3.58	.1074
378.15	3.76	.1128
388.15	3.92	.1176

System: butyraldehyde + 1-butyl-3-methylimidazolium methanesulfonate; phases: Liquid
Fixed: Pressure, kPa = 101
Fixed: Mole fraction of butyraldehyde = 0
Property: Activity coefficient of butyraldehyde (Liquid); method: Chromatography
Temperature, K	Activity coefficient of butyraldehyde	uncertainty
358.15	3.33	.0999
368.15	3.44	.1032
378.15	3.58	.1074
388.15	3.74	.1122

System: acetonitrile + 1-butyl-3-methylimidazolium methanesulfonate; phases: Liquid
Fixed: Pressure, kPa = 101
Fixed: Mole fraction of acetonitrile = 0
Property: Activity coefficient of acetonitrile (Liquid); method: Chromatography
Temperature, K	Activity coefficient of acetonitrile	uncertainty
358.15	.99	.0297
368.15	1.03	.0309
378.15	1.08	.0324
388.15	1.12	.0336

System: pyridine + 1-butyl-3-methylimidazolium methanesulfonate; phases: Liquid
Fixed: Pressure, kPa = 101
Fixed: Mole fraction of pyridine = 0
Property: Activity coefficient of pyridine (Liquid); method: Chromatography
Temperature, K	Activity coefficient of pyridine	uncertainty
358.15	10.93	.3279
368.15	10.8	.324
378.15	10.61	.3183
388.15	10.47	.3141

System: 1-nitropropane + 1-butyl-3-methylimidazolium methanesulfonate; phases: Liquid
Fixed: Pressure, kPa = 101
Fixed: Mole fraction of 1-nitropropane = 0
Property: Activity coefficient of 1-nitropropane (Liquid); method: Chromatography
Temperature, K	Activity coefficient of 1-nitropropane	uncertainty
358.15	1.89	.0567
368.15	1.96	.0588
378.15	2.02	.0606
388.15	2.13	.0639

System: thiophene + 1-butyl-3-methylimidazolium methanesulfonate; phases: Liquid
Fixed: Pressure, kPa = 101
Fixed: Mole fraction of thiophene = 0
Property: Activity coefficient of thiophene (Liquid); method: Chromatography
Temperature, K	Activity coefficient of thiophene	uncertainty
358.15	1.72	.0516
368.15	1.81	.0543
378.15	1.94	.0582
388.15	2.05	.0615

System: methanol + 1-butyl-3-methylimidazolium methanesulfonate; phases: Liquid
Fixed: Pressure, kPa = 101
Fixed: Mole fraction of methanol = 0
Property: Activity coefficient of methanol (Liquid); method: Chromatography
Temperature, K	Activity coefficient of methanol	uncertainty
398.15	.325	.00975
408.15	.34	.0102
418.15	.357	.01071
428.15	.373	.01119

System: ethanol + 1-butyl-3-methylimidazolium methanesulfonate; phases: Liquid
Fixed: Pressure, kPa = 101
Fixed: Mole fraction of ethanol = 0
Property: Activity coefficient of ethanol (Liquid); method: Chromatography
Temperature, K	Activity coefficient of ethanol	uncertainty
398.15	.533	.01599
408.15	.553	.01659
418.15	.576	.01728
428.15	.599	.01797

System: 1-propanol + 1-butyl-3-methylimidazolium methanesulfonate; phases: Liquid
Fixed: Pressure, kPa = 101
Fixed: Mole fraction of 1-propanol = 0
Property: Activity coefficient of 1-propanol (Liquid); method: Chromatography
Temperature, K	Activity coefficient of 1-propanol	uncertainty
398.15	.711	.02133
408.15	.744	.02232
418.15	.783	.02349
428.15	.823	.02469

System: 2-propanol + 1-butyl-3-methylimidazolium methanesulfonate; phases: Liquid
Fixed: Pressure, kPa = 101
Fixed: Mole fraction of 2-propanol = 0
Property: Activity coefficient of 2-propanol (Liquid); method: Chromatography
Temperature, K	Activity coefficient of 2-propanol	uncertainty
398.15	.835	.02505
408.15	.878	.02634
418.15	.928	.02784
428.15	.976	.02928

System: 2-methyl-1-propanol + 1-butyl-3-methylimidazolium methanesulfonate; phases: Liquid
Fixed: Pressure, kPa = 101
Fixed: Mole fraction of 2-methyl-1-propanol = 0
Property: Activity coefficient of 2-methyl-1-propanol (Liquid); method: Chromatography
Temperature, K	Activity coefficient of 2-methyl-1-propanol	uncertainty
398.15	.893	.02679
408.15	.938	.02814
418.15	.991	.02973
428.15	1.042	.03126

System: 1-butanol + 1-butyl-3-methylimidazolium methanesulfonate; phases: Liquid
Fixed: Pressure, kPa = 101
Fixed: Mole fraction of 1-butanol = 0
Property: Activity coefficient of 1-butanol (Liquid); method: Chromatography
Temperature, K	Activity coefficient of 1-butanol	uncertainty
398.15	.937	.02811
408.15	.984	.02952
418.15	1.024	.03072
428.15	1.071	.03213

System: 2-butanol + 1-butyl-3-methylimidazolium methanesulfonate; phases: Liquid
Fixed: Pressure, kPa = 101
Fixed: Mole fraction of 2-butanol = 0
Property: Activity coefficient of 2-butanol (Liquid); method: Chromatography
Temperature, K	Activity coefficient of 2-butanol	uncertainty
398.15	1.114	.03342
408.15	1.181	.03543
418.15	1.255	.03765
428.15	1.333	.03999

System: tert-butanol + 1-butyl-3-methylimidazolium methanesulfonate; phases: Liquid
Fixed: Pressure, kPa = 101
Fixed: Mole fraction of tert-butanol = 0
Property: Activity coefficient of tert-butanol (Liquid); method: Chromatography
Temperature, K	Activity coefficient of tert-butanol	uncertainty
398.15	1.285	.03855
408.15	1.385	.04155
418.15	1.483	.04449
428.15	1.594	.04782

System: water + 1-butyl-3-methylimidazolium methanesulfonate; phases: Liquid
Fixed: Pressure, kPa = 101
Fixed: Mole fraction of water = 0
Property: Activity coefficient of water (Liquid); method: Chromatography
Temperature, K	Activity coefficient of water	uncertainty
398.15	.2	.006
408.15	.214	.00642
418.15	.228	.00684
428.15	.239	.00717

System: octane + 1-butyl-3-methylimidazolium dimethylphosphate; phases: Liquid
Fixed: Pressure, kPa = 101
Fixed: Mole fraction of octane = 0
Property: Activity coefficient of octane (Liquid); method: Chromatography
Temperature, K	Activity coefficient of octane	uncertainty
358.15	47.9	1.437
368.15	46.22	1.3866
378.15	44.57	1.3371
388.15	43.35	1.3005

System: nonane + 1-butyl-3-methylimidazolium dimethylphosphate; phases: Liquid
Fixed: Pressure, kPa = 101
Fixed: Mole fraction of nonane = 0
Property: Activity coefficient of nonane (Liquid); method: Chromatography
Temperature, K	Activity coefficient of nonane	uncertainty
358.15	67.86	2.0358
368.15	63.95	1.9185
378.15	61.45	1.8435
388.15	59.15	1.7745

System: decane + 1-butyl-3-methylimidazolium dimethylphosphate; phases: Liquid
Fixed: Pressure, kPa = 101
Fixed: Mole fraction of decane = 0
Property: Activity coefficient of decane (Liquid); method: Chromatography
Temperature, K	Activity coefficient of decane	uncertainty
358.15	93.39	2.8017
368.15	88.52	2.6556
378.15	84.67	2.5401
388.15	81.58	2.4474

System: cyclopentane + 1-butyl-3-methylimidazolium dimethylphosphate; phases: Liquid
Fixed: Pressure, kPa = 101
Fixed: Mole fraction of cyclopentane = 0
Property: Activity coefficient of cyclopentane (Liquid); method: Chromatography
Temperature, K	Activity coefficient of cyclopentane	uncertainty
358.15	8.76	.2628
368.15	8.59	.2577
378.15	8.41	.2523
388.15	8.33	.2499

System: cyclohexane + 1-butyl-3-methylimidazolium dimethylphosphate; phases: Liquid
Fixed: Pressure, kPa = 101
Fixed: Mole fraction of cyclohexane = 0
Property: Activity coefficient of cyclohexane (Liquid); method: Chromatography
Temperature, K	Activity coefficient of cyclohexane	uncertainty
358.15	12.29	.3687
368.15	11.88	.3564
378.15	11.64	.3492
388.15	11.45	.3435

System: methylcyclohexane + 1-butyl-3-methylimidazolium dimethylphosphate; phases: Liquid
Fixed: Pressure, kPa = 101
Fixed: Mole fraction of methylcyclohexane = 0
Property: Activity coefficient of methylcyclohexane (Liquid); method: Chromatography
Temperature, K	Activity coefficient of methylcyclohexane	uncertainty
358.15	17.38	.5214
368.15	16.78	.5034
378.15	16.4	.492
388.15	16.07	.4821

System: cycloheptane + 1-butyl-3-methylimidazolium dimethylphosphate; phases: Liquid
Fixed: Pressure, kPa = 101
Fixed: Mole fraction of cycloheptane = 0
Property: Activity coefficient of cycloheptane (Liquid); method: Chromatography
Temperature, K	Activity coefficient of cycloheptane	uncertainty
358.15	15.14	.4542
368.15	14.64	.4392
378.15	14.26	.4278
388.15	14	.42

System: cyclooctane + 1-butyl-3-methylimidazolium dimethylphosphate; phases: Liquid
Fixed: Pressure, kPa = 101
Fixed: Mole fraction of cyclooctane = 0
Property: Activity coefficient of cyclooctane (Liquid); method: Chromatography
Temperature, K	Activity coefficient of cyclooctane	uncertainty
358.15	18.77	.5631
368.15	18.24	.5472
378.15	17.72	.5316
388.15	17.33	.5199

System: 1-hexene + 1-butyl-3-methylimidazolium dimethylphosphate; phases: Liquid
Fixed: Pressure, kPa = 101
Fixed: Mole fraction of 1-hexene = 0
Property: Activity coefficient of 1-hexene (Liquid); method: Chromatography
Temperature, K	Activity coefficient of 1-hexene	uncertainty
358.15	13.89	.4167
368.15	13.71	.4113
378.15	13.4	.402
388.15	13.2	.396

System: 1-heptene + 1-butyl-3-methylimidazolium dimethylphosphate; phases: Liquid
Fixed: Pressure, kPa = 101
Fixed: Mole fraction of 1-heptene = 0
Property: Activity coefficient of 1-heptene (Liquid); method: Chromatography
Temperature, K	Activity coefficient of 1-heptene	uncertainty
358.15	19.61	.5883
368.15	19.38	.5814
378.15	19.15	.5745
388.15	18.91	.5673

System: 1-octene + 1-butyl-3-methylimidazolium dimethylphosphate; phases: Liquid
Fixed: Pressure, kPa = 101
Fixed: Mole fraction of 1-octene = 0
Property: Activity coefficient of 1-octene (Liquid); method: Chromatography
Temperature, K	Activity coefficient of 1-octene	uncertainty
358.15	27.49	.8247
368.15	26.95	.8085
378.15	26.46	.7938
388.15	26.22	.7866

System: 1-decene + 1-butyl-3-methylimidazolium dimethylphosphate; phases: Liquid
Fixed: Pressure, kPa = 101
Fixed: Mole fraction of 1-decene = 0
Property: Activity coefficient of 1-decene (Liquid); method: Chromatography
Temperature, K	Activity coefficient of 1-decene	uncertainty
358.15	53.5	1.605
368.15	52.23	1.5669
378.15	50.44	1.5132
388.15	49.24	1.4772

System: cyclohexene + 1-butyl-3-methylimidazolium dimethylphosphate; phases: Liquid
Fixed: Pressure, kPa = 101
Fixed: Mole fraction of cyclohexene = 0
Property: Activity coefficient of cyclohexene (Liquid); method: Chromatography
Temperature, K	Activity coefficient of cyclohexene	uncertainty
358.15	7.15	.2145
368.15	7.13	.2139
378.15	7.11	.2133
388.15	7.11	.2133

System: 1-pentyne + 1-butyl-3-methylimidazolium dimethylphosphate; phases: Liquid
Fixed: Pressure, kPa = 101
Fixed: Mole fraction of 1-pentyne = 0
Property: Activity coefficient of 1-pentyne (Liquid); method: Chromatography
Temperature, K	Activity coefficient of 1-pentyne	uncertainty
358.15	2.18	.0654
368.15	2.32	.0696
378.15	2.46	.0738
388.15	2.6	.078

System: 1-hexyne + 1-butyl-3-methylimidazolium dimethylphosphate; phases: Liquid
Fixed: Pressure, kPa = 101
Fixed: Mole fraction of 1-hexyne = 0
Property: Activity coefficient of 1-hexyne (Liquid); method: Chromatography
Temperature, K	Activity coefficient of 1-hexyne	uncertainty
358.15	3.01	.0903
368.15	3.22	.0966
378.15	3.39	.1017
388.15	3.57	.1071

System: 1-heptyne + 1-butyl-3-methylimidazolium dimethylphosphate; phases: Liquid
Fixed: Pressure, kPa = 101
Fixed: Mole fraction of 1-heptyne = 0
Property: Activity coefficient of 1-heptyne (Liquid); method: Chromatography
Temperature, K	Activity coefficient of 1-heptyne	uncertainty
358.15	4.21	.1263
368.15	4.48	.1344
378.15	4.7	.141
388.15	4.93	.1479

System: 1-octyne + 1-butyl-3-methylimidazolium dimethylphosphate; phases: Liquid
Fixed: Pressure, kPa = 101
Fixed: Mole fraction of 1-octyne = 0
Property: Activity coefficient of 1-octyne (Liquid); method: Chromatography
Temperature, K	Activity coefficient of 1-octyne	uncertainty
358.15	6.04	.1812
368.15	6.22	.1866
378.15	6.48	.1944
388.15	6.74	.2022

System: 2-propanone + 1-butyl-3-methylimidazolium dimethylphosphate; phases: Liquid
Fixed: Pressure, kPa = 101
Fixed: Mole fraction of 2-propanone = 0
Property: Activity coefficient of 2-propanone (Liquid); method: Chromatography
Temperature, K	Activity coefficient of 2-propanone	uncertainty
358.15	1.92	.0576
368.15	1.96	.0588
378.15	2.02	.0606
388.15	2.1	.063

System: 2-pentanone + 1-butyl-3-methylimidazolium dimethylphosphate; phases: Liquid
Fixed: Pressure, kPa = 101
Fixed: Mole fraction of 2-pentanone = 0
Property: Activity coefficient of 2-pentanone (Liquid); method: Chromatography
Temperature, K	Activity coefficient of 2-pentanone	uncertainty
358.15	3.63	.1089
368.15	3.7	.111
378.15	3.78	.1134
388.15	3.94	.1182

System: 3-pentanone + 1-butyl-3-methylimidazolium dimethylphosphate; phases: Liquid
Fixed: Pressure, kPa = 101
Fixed: Mole fraction of 3-pentanone = 0
Property: Activity coefficient of 3-pentanone (Liquid); method: Chromatography
Temperature, K	Activity coefficient of 3-pentanone	uncertainty
358.15	3.73	.1119
368.15	3.81	.1143
378.15	3.89	.1167
388.15	4.04	.1212

System: tert-butyl methyl ether + 1-butyl-3-methylimidazolium dimethylphosphate; phases: Liquid
Fixed: Pressure, kPa = 101
Fixed: Mole fraction of tert-butyl methyl ether = 0
Property: Activity coefficient of tert-butyl methyl ether (Liquid); method: Chromatography
Temperature, K	Activity coefficient of tert-butyl methyl ether	uncertainty
358.15	7.17	.2151
368.15	7.35	.2205
378.15	7.48	.2244
388.15	7.66	.2298

System: tert-amyl methyl ether + 1-butyl-3-methylimidazolium dimethylphosphate; phases: Liquid
Fixed: Pressure, kPa = 101
Fixed: Mole fraction of tert-amyl methyl ether = 0
Property: Activity coefficient of tert-amyl methyl ether (Liquid); method: Chromatography
Temperature, K	Activity coefficient of tert-amyl methyl ether	uncertainty
358.15	9.5	.285
368.15	9.61	.2883
378.15	9.66	.2898
388.15	9.75	.2925

System: ethyl tert-butyl ether + 1-butyl-3-methylimidazolium dimethylphosphate; phases: Liquid
Fixed: Pressure, kPa = 101
Fixed: Mole fraction of ethyl tert-butyl ether = 0
Property: Activity coefficient of ethyl tert-butyl ether (Liquid); method: Chromatography
Temperature, K	Activity coefficient of ethyl tert-butyl ether	uncertainty
358.15	12.75	.3825
368.15	12.78	.3834
378.15	12.89	.3867
388.15	12.95	.3885

System: diethyl ether + 1-butyl-3-methylimidazolium dimethylphosphate; phases: Liquid
Fixed: Pressure, kPa = 101
Fixed: Mole fraction of diethyl ether = 0
Property: Activity coefficient of diethyl ether (Liquid); method: Chromatography
Temperature, K	Activity coefficient of diethyl ether	uncertainty
358.15	6.21	.1863
368.15	6.3	.189
378.15	6.39	.1917
388.15	6.48	.1944

System: dipropyl ether + 1-butyl-3-methylimidazolium dimethylphosphate; phases: Liquid
Fixed: Pressure, kPa = 101
Fixed: Mole fraction of dipropyl ether = 0
Property: Activity coefficient of dipropyl ether (Liquid); method: Chromatography
Temperature, K	Activity coefficient of dipropyl ether	uncertainty
358.15	13.95	.4185
368.15	13.73	.4119
378.15	13.55	.4065
388.15	13.42	.4026

System: diisopropyl ether + 1-butyl-3-methylimidazolium dimethylphosphate; phases: Liquid
Fixed: Pressure, kPa = 101
Fixed: Mole fraction of diisopropyl ether = 0
Property: Activity coefficient of diisopropyl ether (Liquid); method: Chromatography
Temperature, K	Activity coefficient of diisopropyl ether	uncertainty
358.15	14.39	.4317
368.15	14.27	.4281
378.15	14.22	.4266
388.15	14.12	.4236

System: dibutyl ether + 1-butyl-3-methylimidazolium dimethylphosphate; phases: Liquid
Fixed: Pressure, kPa = 101
Fixed: Mole fraction of dibutyl ether = 0
Property: Activity coefficient of dibutyl ether (Liquid); method: Chromatography
Temperature, K	Activity coefficient of dibutyl ether	uncertainty
358.15	26.78	.8034
368.15	26.23	.7869
378.15	25.9	.777
388.15	25.52	.7656

System: oxolane + 1-butyl-3-methylimidazolium dimethylphosphate; phases: Liquid
Fixed: Pressure, kPa = 101
Fixed: Mole fraction of oxolane = 0
Property: Activity coefficient of oxolane (Liquid); method: Chromatography
Temperature, K	Activity coefficient of oxolane	uncertainty
358.15	2.79	.0837
368.15	2.84	.0852
378.15	2.89	.0867
388.15	3.02	.0906

System: 1,4-dioxane + 1-butyl-3-methylimidazolium dimethylphosphate; phases: Liquid
Fixed: Pressure, kPa = 101
Fixed: Mole fraction of 1,4-dioxane = 0
Property: Activity coefficient of 1,4-dioxane (Liquid); method: Chromatography
Temperature, K	Activity coefficient of 1,4-dioxane	uncertainty
358.15	2.13	.0639
368.15	2.19	.0657
378.15	2.25	.0675
388.15	2.37	.0711

System: benzene + 1-butyl-3-methylimidazolium dimethylphosphate; phases: Liquid
Fixed: Pressure, kPa = 101
Fixed: Mole fraction of benzene = 0
Property: Activity coefficient of benzene (Liquid); method: Chromatography
Temperature, K	Activity coefficient of benzene	uncertainty
358.15	2.33	.0699
368.15	2.41	.0723
378.15	2.49	.0747
388.15	2.63	.0789

System: toluene + 1-butyl-3-methylimidazolium dimethylphosphate; phases: Liquid
Fixed: Pressure, kPa = 101
Fixed: Mole fraction of toluene = 0
Property: Activity coefficient of toluene (Liquid); method: Chromatography
Temperature, K	Activity coefficient of toluene	uncertainty
358.15	3.86	.1158
368.15	3.99	.1197
378.15	4.09	.1227
388.15	4.29	.1287

System: ethylbenzene + 1-butyl-3-methylimidazolium dimethylphosphate; phases: Liquid
Fixed: Pressure, kPa = 101
Fixed: Mole fraction of ethylbenzene = 0
Property: Activity coefficient of ethylbenzene (Liquid); method: Chromatography
Temperature, K	Activity coefficient of ethylbenzene	uncertainty
358.15	5.73	.1719
368.15	5.87	.1761
378.15	5.97	.1791
388.15	6.26	.1878

System: o-xylene + 1-butyl-3-methylimidazolium dimethylphosphate; phases: Liquid
Fixed: Pressure, kPa = 101
Fixed: Mole fraction of o-xylene = 0
Property: Activity coefficient of o-xylene (Liquid); method: Chromatography
Temperature, K	Activity coefficient of o-xylene	uncertainty
358.15	5.54	.1662
368.15	5.7	.171
378.15	5.79	.1737
388.15	6.03	.1809

System: m-xylene + 1-butyl-3-methylimidazolium dimethylphosphate; phases: Liquid
Fixed: Pressure, kPa = 101
Fixed: Mole fraction of m-xylene = 0
Property: Activity coefficient of m-xylene (Liquid); method: Chromatography
Temperature, K	Activity coefficient of m-xylene	uncertainty
358.15	6.49	.1947
368.15	6.6	.198
378.15	6.73	.2019
388.15	7	.21

System: p-xylene + 1-butyl-3-methylimidazolium dimethylphosphate; phases: Liquid
Fixed: Pressure, kPa = 101
Fixed: Mole fraction of p-xylene = 0
Property: Activity coefficient of p-xylene (Liquid); method: Chromatography
Temperature, K	Activity coefficient of p-xylene	uncertainty
358.15	6.31	.1893
368.15	6.44	.1932
378.15	6.59	.1977
388.15	6.86	.2058

System: styrene + 1-butyl-3-methylimidazolium dimethylphosphate; phases: Liquid
Fixed: Pressure, kPa = 101
Fixed: Mole fraction of styrene = 0
Property: Activity coefficient of styrene (Liquid); method: Chromatography
Temperature, K	Activity coefficient of styrene	uncertainty
358.15	2.79	.0837
368.15	2.93	.0879
378.15	3.06	.0918
388.15	3.26	.0978

System: .alpha.-methylstyrene + 1-butyl-3-methylimidazolium dimethylphosphate; phases: Liquid
Fixed: Pressure, kPa = 101
Fixed: Mole fraction of .alpha.-methylstyrene = 0
Property: Activity coefficient of .alpha.-methylstyrene (Liquid); method: Chromatography
Temperature, K	Activity coefficient of .alpha.-methylstyrene	uncertainty
358.15	4.57	.1371
368.15	4.77	.1431
378.15	4.98	.1494
388.15	5.29	.1587

System: methyl acetate + 1-butyl-3-methylimidazolium dimethylphosphate; phases: Liquid
Fixed: Pressure, kPa = 101
Fixed: Mole fraction of methyl acetate = 0
Property: Activity coefficient of methyl acetate (Liquid); method: Chromatography
Temperature, K	Activity coefficient of methyl acetate	uncertainty
358.15	2.58	.0774
368.15	2.65	.0795
378.15	2.73	.0819
388.15	2.85	.0855

System: ethyl acetate + 1-butyl-3-methylimidazolium dimethylphosphate; phases: Liquid
Fixed: Pressure, kPa = 101
Fixed: Mole fraction of ethyl acetate = 0
Property: Activity coefficient of ethyl acetate (Liquid); method: Chromatography
Temperature, K	Activity coefficient of ethyl acetate	uncertainty
358.15	3.81	.1143
368.15	3.91	.1173
378.15	4.01	.1203
388.15	4.18	.1254

System: methyl propanoate + 1-butyl-3-methylimidazolium dimethylphosphate; phases: Liquid
Fixed: Pressure, kPa = 101
Fixed: Mole fraction of methyl propanoate = 0
Property: Activity coefficient of methyl propanoate (Liquid); method: Chromatography
Temperature, K	Activity coefficient of methyl propanoate	uncertainty
358.15	3.56	.1068
368.15	3.65	.1095
378.15	3.76	.1128
388.15	3.93	.1179

System: methyl butanoate + 1-butyl-3-methylimidazolium dimethylphosphate; phases: Liquid
Fixed: Pressure, kPa = 101
Fixed: Mole fraction of methyl butanoate = 0
Property: Activity coefficient of methyl butanoate (Liquid); method: Chromatography
Temperature, K	Activity coefficient of methyl butanoate	uncertainty
358.15	4.93	.1479
368.15	5.04	.1512
378.15	5.17	.1551
388.15	5.39	.1617

System: vinyl acetate + 1-butyl-3-methylimidazolium dimethylphosphate; phases: Liquid
Fixed: Pressure, kPa = 101
Fixed: Mole fraction of vinyl acetate = 0
Property: Activity coefficient of vinyl acetate (Liquid); method: Chromatography
Temperature, K	Activity coefficient of vinyl acetate	uncertainty
358.15	2.79	.0837
368.15	2.88	.0864
378.15	2.99	.0897
388.15	3.13	.0939

System: butyraldehyde + 1-butyl-3-methylimidazolium dimethylphosphate; phases: Liquid
Fixed: Pressure, kPa = 101
Fixed: Mole fraction of butyraldehyde = 0
Property: Activity coefficient of butyraldehyde (Liquid); method: Chromatography
Temperature, K	Activity coefficient of butyraldehyde	uncertainty
358.15	2.66	.0798
368.15	2.74	.0822
378.15	2.82	.0846
388.15	2.97	.0891

System: acetonitrile + 1-butyl-3-methylimidazolium dimethylphosphate; phases: Liquid
Fixed: Pressure, kPa = 101
Fixed: Mole fraction of acetonitrile = 0
Property: Activity coefficient of acetonitrile (Liquid); method: Chromatography
Temperature, K	Activity coefficient of acetonitrile	uncertainty
358.15	.88	.0264
368.15	.92	.0276
378.15	.95	.0285
388.15	1	.03

System: pyridine + 1-butyl-3-methylimidazolium dimethylphosphate; phases: Liquid
Fixed: Pressure, kPa = 101
Fixed: Mole fraction of pyridine = 0
Property: Activity coefficient of pyridine (Liquid); method: Chromatography
Temperature, K	Activity coefficient of pyridine	uncertainty
358.15	1.18	.0354
368.15	1.23	.0369
378.15	1.28	.0384
388.15	1.35	.0405

System: 1-nitropropane + 1-butyl-3-methylimidazolium dimethylphosphate; phases: Liquid
Fixed: Pressure, kPa = 101
Fixed: Mole fraction of 1-nitropropane = 0
Property: Activity coefficient of 1-nitropropane (Liquid); method: Chromatography
Temperature, K	Activity coefficient of 1-nitropropane	uncertainty
358.15	1.5	.045
368.15	1.56	.0468
378.15	1.62	.0486
388.15	1.72	.0516

System: thiophene + 1-butyl-3-methylimidazolium dimethylphosphate; phases: Liquid
Fixed: Pressure, kPa = 101
Fixed: Mole fraction of thiophene = 0
Property: Activity coefficient of thiophene (Liquid); method: Chromatography
Temperature, K	Activity coefficient of thiophene	uncertainty
358.15	1.24	.0372
368.15	1.35	.0405
378.15	1.43	.0429
388.15	1.53	.0459

System: methanol + 1-butyl-3-methylimidazolium dimethylphosphate; phases: Liquid
Fixed: Pressure, kPa = 101
Fixed: Mole fraction of methanol = 0
Property: Activity coefficient of methanol (Liquid); method: Chromatography
Temperature, K	Activity coefficient of methanol	uncertainty
398.15	.097	.00291
408.15	.105	.00315
418.15	.115	.00345
428.15	.125	.00375

System: ethanol + 1-butyl-3-methylimidazolium dimethylphosphate; phases: Liquid
Fixed: Pressure, kPa = 101
Fixed: Mole fraction of ethanol = 0
Property: Activity coefficient of ethanol (Liquid); method: Chromatography
Temperature, K	Activity coefficient of ethanol	uncertainty
398.15	.16	.0048
408.15	.173	.00519
418.15	.189	.00567
428.15	.205	.00615

System: 1-propanol + 1-butyl-3-methylimidazolium dimethylphosphate; phases: Liquid
Fixed: Pressure, kPa = 101
Fixed: Mole fraction of 1-propanol = 0
Property: Activity coefficient of 1-propanol (Liquid); method: Chromatography
Temperature, K	Activity coefficient of 1-propanol	uncertainty
398.15	.197	.00591
408.15	.218	.00654
418.15	.239	.00717
428.15	.264	.00792

System: 2-propanol + 1-butyl-3-methylimidazolium dimethylphosphate; phases: Liquid
Fixed: Pressure, kPa = 101
Fixed: Mole fraction of 2-propanol = 0
Property: Activity coefficient of 2-propanol (Liquid); method: Chromatography
Temperature, K	Activity coefficient of 2-propanol	uncertainty
398.15	.256	.00768
408.15	.282	.00846
418.15	.311	.00933
428.15	.344	.01032

System: 2-methyl-1-propanol + 1-butyl-3-methylimidazolium dimethylphosphate; phases: Liquid
Fixed: Pressure, kPa = 101
Fixed: Mole fraction of 2-methyl-1-propanol = 0
Property: Activity coefficient of 2-methyl-1-propanol (Liquid); method: Chromatography
Temperature, K	Activity coefficient of 2-methyl-1-propanol	uncertainty
398.15	.23	.0069
408.15	.254	.00762
418.15	.281	.00843
428.15	.313	.00939

System: 1-butanol + 1-butyl-3-methylimidazolium dimethylphosphate; phases: Liquid
Fixed: Pressure, kPa = 101
Fixed: Mole fraction of 1-butanol = 0
Property: Activity coefficient of 1-butanol (Liquid); method: Chromatography
Temperature, K	Activity coefficient of 1-butanol	uncertainty
398.15	.247	.00741
408.15	.271	.00813
418.15	.299	.00897
428.15	.324	.00972

System: 2-butanol + 1-butyl-3-methylimidazolium dimethylphosphate; phases: Liquid
Fixed: Pressure, kPa = 101
Fixed: Mole fraction of 2-butanol = 0
Property: Activity coefficient of 2-butanol (Liquid); method: Chromatography
Temperature, K	Activity coefficient of 2-butanol	uncertainty
398.15	.327	.00981
408.15	.365	.01095
418.15	.406	.01218
428.15	.451	.01353

System: tert-butanol + 1-butyl-3-methylimidazolium dimethylphosphate; phases: Liquid
Fixed: Pressure, kPa = 101
Fixed: Mole fraction of tert-butanol = 0
Property: Activity coefficient of tert-butanol (Liquid); method: Chromatography
Temperature, K	Activity coefficient of tert-butanol	uncertainty
398.15	.419	.01257
408.15	.471	.01413
418.15	.527	.01581
428.15	.592	.01776

System: water + 1-butyl-3-methylimidazolium dimethylphosphate; phases: Liquid
Fixed: Pressure, kPa = 101
Fixed: Mole fraction of water = 0
Property: Activity coefficient of water (Liquid); method: Chromatography
Temperature, K	Activity coefficient of water	uncertainty
398.15	.073	.00219
408.15	.081	.00243
418.15	.092	.00276
428.15	.101	.00303
