Measured thermophysical data. Solubility of methane and carbon dioxide in ethylene glycol at pressures up to 14 MPa and temperatures ranging from (303 to 423) K
Source: J. Chem. Thermodyn., 2009, 10.1016/j.jct.2009.12.009
Compound 1: ethylene glycol, C2H6O2, purity 99.8%
Compound 2: carbon dioxide, CO2
Compound 3: methane, CH4, purity 99.5%

System: methane + ethylene glycol; phases: Liquid, Gas
Property: Mole fraction of methane (Liquid); method: autoclave
Temperature, K	Pressure, kPa	Mole fraction of methane	uncertainty
303.15	1367.4	.0015	.000015
303.15	2861.4	.0035	.000035
303.15	4244	.006	.00006
303.15	5777.2	.0084	.000084
303.15	7702.4	.0119	.000119
323.15	1489.4	.0018	.000018
323.15	3151.4	.0042	.000042
323.15	4722	.0068	.000068
323.15	6469.2	.0094	.000094
323.15	8706.4	.013	.00013
373.15	1794.4	.0031	.000031
373.15	3876.4	.0066	.000066
373.15	5917	.0103	.000103
373.15	8199.2	.0141	.000141
373.15	11216.4	.0192	.000192
398.15	1946.9	.0038	.000038
398.15	4238.9	.0082	.000082
398.15	6514.5	.0127	.000127
398.15	9064.2	.0175	.000175
398.15	12471.4	.0237	.000237
423.15	2099.4	.0047	.000047
423.15	4601.4	.0101	.000101
423.15	7112	.0156	.000156
423.15	9929.2	.0215	.000215
423.15	13726.4	.0291	.000291

System: ethylene glycol + carbon dioxide; phases: Liquid, Gas
Property: Mole fraction of carbon dioxide (Liquid); method: Synthetic method
Temperature, K	Pressure, kPa	Mole fraction of carbon dioxide	uncertainty
303.15	347.5	.0045	.000045
303.15	634.8	.0119	.000119
303.15	1125.9	.0223	.000223
303.15	2143.5	.0465	.000465
323.15	425.5	.0045	.000045
323.15	812.8	.0118	.000118
323.15	1457.9	.0222	.000222
323.15	2833.5	.0464	.000464
373.15	620.5	.0047	.000047
373.15	1257.8	.0122	.000122
373.15	2287.9	.0231	.000231
373.15	4558.5	.0485	.000485
398.15	718	.005	.00005
398.15	1480.3	.0128	.000128
398.15	2702.9	.0241	.000241
398.15	5421	.0508	.000508
423.15	815.5	.0053	.000053
423.15	1702.8	.0135	.000135
423.15	3117.9	.0254	.000254
423.15	6283.5	.0538	.000538
