Measured thermophysical data. Ionization of boric acid in water from 298 K to 623 K by AC conductivity and Raman spectroscopy
Source: J. Chem. Thermodyn., 2017, 10.1016/j.jct.2016.11.007
Compound 1: boric acid, BH3O3
Compound 2: water, H2O

System: water + boric acid; phases: Liquid
Property: Electrical conductivity, S/m (Liquid); method: Alternating current cell with electrodes
Temperature, K	Pressure, kPa	Molality, mol/kg of boric acid	Electrical conductivity, S/m	uncertainty
298.149	19767	.000461	.000029	
298.149	19767	.0010344	.0000434	
298.149	19767	.0022144	.0000729	
298.149	19767	.0035583	.0000846	
298.149	19767	.0068014	.0001044	
298.149	19767	.0144789	.0001407	
298.149	19767	.0322705	.0002032	
298.149	19767	.0562648	.0002612	
298.149	19767	.1313178	.0005133	
373.334	19683	.0022155	.0001549	
373.334	19683	.0144911	.0001746	
373.334	19683	.0238066	.000262	
373.334	19683	.0433428	.0004095	
373.334	19683	.0742084	.000597	
448.228	19666	.0004623	.0003015	
448.228	19666	.0029397	.000347	
448.228	19666	.0087299	.0004212	
448.228	19666	.0128711	.0004728	
448.228	19666	.0243034	.0005896	
448.228	19666	.0379116	.0007065	
448.228	19666	.0701257	.0009394	
448.228	19666	.1014745	.0011408	
523.321	19674	.0005523	.0003819	
523.321	19674	.0017569	.000393	
523.321	19674	.0045344	.000408	
523.321	19674	.0095168	.0004455	
523.321	19674	.0216789	.0005147	
523.321	19674	.0423672	.0006322	
523.321	19674	.0721563	.0007796	
523.321	19674	.1017491	.0009215	
548.354	19600	.0008359	.0003744	
548.354	19600	.0023682	.0003849	
548.354	19600	.0055368	.000406	
548.354	19600	.0120772	.0004467	
548.354	19600	.02063	.0004952	
548.354	19600	.0288029	.000538	
548.354	19600	.0462516	.000617	
548.354	19600	.1014745	.0009213	
547.198	20900	.0009361	.000382	
547.198	20900	.0023709	.0003946	
547.198	20900	.0037443	.0004047	
547.198	20900	.0058604	.0004193	
547.198	20900	.0088455	.000439	
547.198	20900	.011626	.0004588	
547.198	20900	.0151475	.000481	
547.198	20900	.0242897	.0005351	
571.07	19463	.000429	.0003234	
571.07	19463	.0011392	.000331	
571.07	19463	.0042027	.0003499	
572.819	20769	.0002704	.0003391	
572.819	20769	.0005746	.000349	
572.819	20769	.0014827	.0003585	
572.819	20769	.0028699	.0003686	
572.819	20769	.0063367	.0003887	
572.819	20769	.0103194	.0004145	
572.819	20769	.0171924	.0004455	
572.819	20769	.0360977	.000516	
572.819	20769	.0527566	.000569	
597.9	20618	.0004999	.0002167	
597.9	20618	.0008991	.0002226	
597.9	20618	.0017557	.0002274	
597.9	20618	.0031559	.0002328	
597.9	20618	.0059303	.0002422	
597.9	20618	.0103166	.0002573	
597.9	20618	.0256109	.0003028	
621.126	20620	.0003582	.0001169	
621.126	20620	.0009385	.0001171	
621.126	20620	.0028507	.0001202	
621.126	20620	.0049805	.0001252	
621.126	20620	.0110664	.0001384	
621.126	20620	.0190799	.0001608	
