Measured thermophysical data. Thermodynamics of mixtures with strong negative deviations from Raoult s law. XIII. Relative permittivities for (1-alkanol + cyclohexylamine) systems, and dielectric study of (1-alkanol + polar) compound (amine, amide or ether) mixtures
Source: J. Chem. Thermodyn., 2015, 10.1016/j.jct.2015.07.032
Compound 1: 1-propanol, C3H8O, purity 99%
Compound 2: 1-butanol, C4H10O, purity 99%
Compound 3: 1-heptanol, C7H16O, purity 99%
Compound 4: 1-decanol, C10H22O, purity 99%
Compound 5: cyclohexylamine, C6H13N, purity 99%

System: 1-propanol; phases: Liquid
Fixed: Frequency, MHz = 1
Property: Relative permittivity at various frequencies (Liquid); method: Parallel plate capacitor
Temperature, K	Pressure, kPa	Relative permittivity at various frequencies	uncertainty
293.15	100	21.23	.2123
298.15	100	20.54	.2054
303.15	100	19.84	.1984

System: 1-butanol; phases: Liquid
Fixed: Frequency, MHz = 1
Property: Relative permittivity at various frequencies (Liquid); method: Parallel plate capacitor
Temperature, K	Pressure, kPa	Relative permittivity at various frequencies	uncertainty
293.15	100	18.21	.1821
298.15	100	17.58	.1758
303.15	100	16.95	.1695

System: 1-heptanol; phases: Liquid
Fixed: Frequency, MHz = 1
Property: Relative permittivity at various frequencies (Liquid); method: Parallel plate capacitor
Temperature, K	Pressure, kPa	Relative permittivity at various frequencies	uncertainty
293.15	100	11.97	.1197
298.15	100	11.47	.1147
303.15	100	10.98	.1098

System: 1-decanol; phases: Liquid
Fixed: Frequency, MHz = 1
Property: Relative permittivity at various frequencies (Liquid); method: Parallel plate capacitor
Temperature, K	Pressure, kPa	Relative permittivity at various frequencies	uncertainty
293.15	100	8.41	.0841
298.15	100	8.01	.0801
303.15	100	7.64	.0764

System: cyclohexylamine; phases: Liquid
Fixed: Frequency, MHz = 1
Property: Relative permittivity at various frequencies (Liquid); method: Parallel plate capacitor
Temperature, K	Pressure, kPa	Relative permittivity at various frequencies	uncertainty
293.15	100	4.62	.0462
298.15	100	4.53	.0453
303.15	100	4.45	.0445

System: 1-propanol + cyclohexylamine; phases: Liquid
Fixed: Pressure, kPa = 100
Fixed: Frequency, MHz = 1
Property: Relative permittivity at various frequencies (Liquid); method: Parallel plate capacitor
Temperature, K	Mole fraction of 1-propanol	Relative permittivity at various frequencies	uncertainty
293.15	.034	4.88	.0488
293.15	.1154	5.64	.0564
293.15	.213	6.58	.0658
293.15	.3031	7.66	.0766
293.15	.3996	9.02	.0902
293.15	.4469	9.77	.0977
293.15	.4962	10.61	.1061
293.15	.5499	11.61	.1161
293.15	.6056	12.69	.1269
293.15	.6998	14.69	.1469
293.15	.7953	16.94	.1694
293.15	.8464	18.08	.1808
293.15	.8913	19.21	.1921
293.15	.9509	20.44	.2044
293.15	.9798	21.09	.2109
298.15	.034	4.78	.0478
298.15	.1154	5.08	5
298.15	.213	6.42	.0642
298.15	.3031	7.46	.0746
298.15	.3996	8.76	.0876
298.15	.4469	9.48	.0948
298.15	.4962	10.29	.1029
298.15	.5499	11.25	.1125
298.15	.6056	12.29	.1229
298.15	.6998	14.24	.1424
298.15	.7953	16.43	.1643
298.15	.8464	17.54	.1754
298.15	.8913	18.71	.1871
298.15	.9509	19.85	.1985
298.15	.9798	20.41	.2041
303.15	.034	4.68	.0468
303.15	.1154	5.37	.0537
303.15	.213	6.26	.0626
303.15	.3031	7.26	.0726
303.15	.3996	8.5	.085
303.15	.4469	9.19	.0919
303.15	.4962	9.97	.0997
303.15	.5499	10.89	.1089
303.15	.6056	11.9	.119
303.15	.6998	13.79	.1379
303.15	.7953	15.92	.1592
303.15	.8464	17.01	.1701
303.15	.8913	18.14	.1814
303.15	.9509	19.21	.1921
303.15	.9798	19.77	.1977
293.15	0	4.62	.0462
298.15	0	4.53	.0453
303.15	0	4.45	.0445
293.15	1	21.23	.2123
298.15	1	20.54	.2054
303.15	1	19.84	.1984

System: 1-butanol + cyclohexylamine; phases: Liquid
Fixed: Pressure, kPa = 100
Fixed: Frequency, MHz = 1
Property: Relative permittivity at various frequencies (Liquid); method: Parallel plate capacitor
Temperature, K	Mole fraction of 1-butanol	Relative permittivity at various frequencies	uncertainty
293.15	.0493	4.99	.0499
293.15	.1081	5.46	.0546
293.15	.2107	6.37	.0637
293.15	.3104	7.39	.0739
293.15	.403	8.47	.0847
293.15	.4521	9.08	.0908
293.15	.4995	9.73	.0973
293.15	.5556	10.55	.1055
293.15	.5974	11.18	.1118
293.15	.6987	12.81	.1281
293.15	.7968	14.53	.1453
293.15	.8955	16.31	.1631
293.15	.9472	17.26	.1726
293.15	.9773	17.82	.1782
298.15	.0493	4.9	.049
298.15	.1081	5.35	.0535
298.15	.2107	6.22	.0622
298.15	.3104	7.2	.072
298.15	.403	8.22	.0822
298.15	.4521	8.82	.0882
298.15	.4995	9.44	.0944
298.15	.5556	10.21	.1021
298.15	.5974	10.82	.1082
298.15	.6987	12.4	.124
298.15	.7968	14.04	.1404
298.15	.8955	15.76	.1576
298.15	.9472	16.67	.1667
298.15	.9773	17.2	.172
303.15	.0493	4.8	.048
303.15	.1081	5.23	.0523
303.15	.2107	6.07	.0607
303.15	.3104	7.01	.0701
303.15	.403	7.99	.0799
303.15	.4521	8.56	.0856
303.15	.4995	9.15	.0915
303.15	.5556	9.9	.099
303.15	.5974	10.49	.1049
303.15	.6987	11.98	.1198
303.15	.7968	13.57	.1357
303.15	.8955	15.24	.1524
303.15	.9472	16.11	.1611
303.15	.9773	16.63	.1663
293.15	0	4.62	.0462
298.15	0	4.53	.0453
303.15	0	4.45	.0445
293.15	1	18.21	.1821
298.15	1	17.58	.1758
303.15	1	16.95	.1695

System: cyclohexylamine + 1-heptanol; phases: Liquid
Fixed: Pressure, kPa = 100
Fixed: Frequency, MHz = 1
Property: Relative permittivity at various frequencies (Liquid); method: Parallel plate capacitor
Temperature, K	Mole fraction of 1-heptanol	Relative permittivity at various frequencies	uncertainty
293.15	.0522	4.93	.0493
293.15	.1037	5.22	.0522
293.15	.2039	5.8	.058
293.15	.2903	6.29	.0629
293.15	.3955	6.93	.0693
293.15	.4467	7.27	.0727
293.15	.5072	7.67	.0767
293.15	.5554	8.01	.0801
293.15	.5918	8.26	.0826
293.15	.6575	8.72	.0872
293.15	.6959	9.01	.0901
293.15	.7433	9.39	.0939
293.15	.7933	9.81	.0981
293.15	.8177	10.03	.1003
293.15	.8881	10.7	.107
293.15	.9463	11.35	.1135
298.15	.0522	4.83	.0483
298.15	.1037	5.11	.0511
298.15	.2039	5.7	.057
298.15	.2903	6.15	.0615
298.15	.3955	6.76	.0676
298.15	.4467	7.08	.0708
298.15	.5072	7.45	.0745
298.15	.5554	7.78	.0778
298.15	.5918	8.01	.0801
298.15	.6575	8.45	.0845
298.15	.6959	8.71	.0871
298.15	.7433	9.07	.0907
298.15	.7933	9.46	.0946
298.15	.8177	9.67	.0967
298.15	.8881	10.29	.1029
298.15	.9463	10.89	.1089
303.15	.0522	4.74	.0474
303.15	.1037	5.01	.0501
303.15	.2039	5.61	.0561
303.15	.2903	6.01	.0601
303.15	.3955	6.6	.066
303.15	.4467	6.91	.0691
303.15	.5072	7.26	.0726
303.15	.5554	7.56	.0756
303.15	.5918	7.78	.0778
303.15	.6575	8.19	.0819
303.15	.6959	8.44	.0844
303.15	.7433	8.77	.0877
303.15	.7933	9.13	.0913
303.15	.8177	9.34	.0934
303.15	.8881	9.9	.099
303.15	.9463	10.45	.1045
293.15	0	4.62	.0462
298.15	0	4.53	.0453
303.15	0	4.45	.0445
293.15	1	11.97	.1197
298.15	1	11.47	.1147
303.15	1	10.98	.1098

System: cyclohexylamine + 1-decanol; phases: Liquid
Fixed: Pressure, kPa = 100
Fixed: Frequency, MHz = 1
Property: Relative permittivity at various frequencies (Liquid); method: Parallel plate capacitor
Temperature, K	Mole fraction of 1-decanol	Relative permittivity at various frequencies	uncertainty
293.15	.0561	4.87	.0487
293.15	.1027	5.05	.0505
293.15	.2012	5.4	.054
293.15	.2947	5.73	.0573
293.15	.4077	6.09	.0609
293.15	.5107	6.42	.0642
293.15	.5522	6.56	.0656
293.15	.604	6.72	.0672
293.15	.6528	6.88	.0688
293.15	.697	7.02	.0702
293.15	.7474	7.2	.072
293.15	.7859	7.34	.0734
293.15	.8348	7.54	.0754
293.15	.8915	7.81	.0781
293.15	.942	8.08	.0808
298.15	.0561	4.78	.0478
298.15	.1027	4.95	.0495
298.15	.2012	5.29	.0529
298.15	.2947	5.6	.056
298.15	.4077	5.95	.0595
298.15	.5107	6.26	.0626
298.15	.5522	6.38	.0638
298.15	.604	6.53	.0653
298.15	.6528	6.68	.0668
298.15	.697	6.81	.0681
298.15	.7474	6.97	.0697
298.15	.7859	7.09	.0709
298.15	.8348	7.27	.0727
298.15	.8915	7.51	.0751
298.15	.942	7.73	.0773
303.15	.0561	4.69	.0469
303.15	.1027	4.85	.0485
303.15	.2012	5.19	.0519
303.15	.2947	5.49	.0549
303.15	.4077	5.82	.0582
303.15	.5107	6.11	.0611
303.15	.5522	6.22	.0622
303.15	.604	6.36	.0636
303.15	.6528	6.5	.065
303.15	.697	6.61	.0661
303.15	.7474	6.76	.0676
303.15	.7859	6.87	.0687
303.15	.8348	7.02	.0702
303.15	.8915	7.22	.0722
303.15	.942	7.41	.0741
293.15	0	4.62	.0462
298.15	0	4.53	.0453
303.15	0	4.45	.0445
293.15	1	8.41	.0841
298.15	1	8.01	.0801
303.15	1	7.64	.0764
