Measured thermophysical data. Vapour pressures and phase transition properties of four substituted acetophenones
Source: J. Chem. Thermodyn., 2017, 10.1016/j.jct.2016.12.012
Compound 1: 2'-acetoxyacetophenone, C10H10O3
Compound 2: m-acetoxyacetophenone, C10H10O3
Compound 3: p-acetoxyacetophenone, C10H10O3
Compound 4: 4'-methoxyacetophenone, C9H10O2

System: 2'-acetoxyacetophenone; phases: Crystal, Liquid, Air at 1 atmosphere
Property: Normal melting temperature, K (Crystal); method: DSC/DTA
Normal melting temperature, K	uncertainty
361.8	.5

System: 2'-acetoxyacetophenone; phases: Crystal, Liquid, Air at 1 atmosphere
Property: Molar enthalpy of transition or fusion, kJ/mol (Crystal); method: DSC
Molar enthalpy of transition or fusion, kJ/mol	uncertainty
32.3	.4

System: 2'-acetoxyacetophenone; phases: Crystal, Gas
Property: Vapor or sublimation pressure, kPa (Crystal); method: Closed cell (Static) method
Temperature, K	Vapor or sublimation pressure, kPa	uncertainty
313	.00046	
315.01	.0006	
316.99	.00076	
318.98	.00097	
320.96	.00123	
322.97	.00156	
324.96	.00199	
326.91	.0025	
328.91	.00314	
330.92	.00397	
332.88	.00495	
334.86	.00619	
336.81	.00762	
338.84	.00958	
340.8	.01175	
342.74	.01458	
344.72	.01786	
346.7	.02195	
348.68	.02665	
350.69	.0325	
352.61	.0395	
354.61	.04802	
356.54	.05812	

System: 2'-acetoxyacetophenone; phases: Liquid, Gas
Property: Vapor or sublimation pressure, kPa (Liquid); method: Closed cell (Static) method
Temperature, K	Vapor or sublimation pressure, kPa	uncertainty
344.73	.03005	
346.73	.03465	
348.65	.03975	
350.65	.04556	
352.64	.05208	
354.59	.05928	
356.54	.06775	
358.51	.07683	
360.53	.08729	
362.46	.0988	
364.45	.1124	
366.49	.127	
368.43	.1443	
370.48	.162	
372.37	.1819	
374.39	.205	
376.34	.2324	
378.28	.2588	
380.23	.2847	
382.24	.3195	
384.15	.3609	
386.19	.3984	
388.15	.4446	
390.12	.4936	
392.04	.5463	
394.07	.6059	
395.98	.6687	
398	.7392	

System: 2'-acetoxyacetophenone; phases: Crystal, Gas
Property: Vapor or sublimation pressure, kPa (Crystal); method: Knudsen effusion method
Temperature, K	Vapor or sublimation pressure, kPa	uncertainty
298.01	.000061	
299.4	.000074	
301.22	.000097	
303.17	.000124	
305.39	.000166	
307.2	.000215	
309.14	.000277	
311.34	.000365	
313.21	.000469	
315.13	.000593	
317.31	.000786	
319.28	.00102	
321.27	.001305	
298.01	.000061	
299.4	.000074	
301.22	.000097	
303.17	.000121	
305.39	.000164	
307.2	.000214	
309.14	.000275	
311.34	.000362	
313.21	.000467	
315.13	.00059	
317.31	.000786	
319.28	.001014	
321.27	.001292	
298.01	.00006	
299.4	.000074	
301.22	.000096	
303.17	.000122	
305.39	.000166	
307.2	.000217	
309.14	.000275	
311.34	.000361	
313.21	.000465	
315.13	.000588	
317.31	.000778	
319.28	.001001	
321.27	.001286	

System: m-acetoxyacetophenone; phases: Crystal 1, Liquid, Air at 1 atmosphere
Property: Normal melting temperature, K (Crystal 1); method: DSC/DTA
Normal melting temperature, K	uncertainty
316.2	.3

System: m-acetoxyacetophenone; phases: Crystal 2, Crystal 1, Air at 1 atmosphere
Property: Triple point temperature, K (Crystal 2); method: DSC
Triple point temperature, K	uncertainty
308.1	.2

System: m-acetoxyacetophenone; phases: Crystal 1, Liquid, Air at 1 atmosphere
Property: Molar enthalpy of transition or fusion, kJ/mol (Crystal 1); method: DSC
Molar enthalpy of transition or fusion, kJ/mol	uncertainty
23.2	.5

System: m-acetoxyacetophenone; phases: Crystal 2, Crystal 1, Air at 1 atmosphere
Property: Molar enthalpy of transition or fusion, kJ/mol (Crystal 2); method: DSC
Molar enthalpy of transition or fusion, kJ/mol	uncertainty
1	.4

System: m-acetoxyacetophenone; phases: Liquid, Gas
Property: Vapor or sublimation pressure, kPa (Liquid); method: Closed cell (Static) method
Temperature, K	Vapor or sublimation pressure, kPa	uncertainty
305.09	.00046	
307.07	.00055	
309.03	.00067	
311.04	.00082	
312.98	.001	
315.01	.00122	
317.02	.00147	
319.06	.00173	
320.99	.00206	
323.04	.00247	
324.96	.00291	
326.99	.00346	
328.93	.0041	
330.94	.00489	
332.92	.00565	
334.91	.00677	
336.87	.00798	
338.84	.00935	
340.83	.01079	
342.8	.01271	
344.79	.01475	
346.92	.01728	
348.74	.01981	
350.69	.02301	
352.67	.02636	
354.64	.03047	
356.61	.0348	
358.61	.03975	
360.51	.04544	
362.54	.05195	
364.52	.05948	
366.49	.06748	
368.46	.07663	

System: m-acetoxyacetophenone; phases: Crystal 2, Gas
Property: Vapor or sublimation pressure, kPa (Crystal 2); method: Knudsen effusion method
Temperature, K	Vapor or sublimation pressure, kPa	uncertainty
297.65	.000123	
299.16	.000152	
300.09	.000168	
301.23	.000196	
302.21	.00023	
303.25	.000259	
304.24	.00029	
305.23	.000334	
306.24	.000389	
307.26	.000434	
297.65	.000124	
299.16	.000153	
300.09	.000169	
301.23	.000194	
302.21	.00023	
303.25	.000262	
304.24	.000293	
305.23	.000337	
306.24	.000387	
307.26	.000436	
297.65	.000124	
299.16	.000152	
300.09	.000167	
301.23	.000196	
302.21	.00023	
303.25	.000262	
304.24	.00029	
305.23	.00034	
306.24	.000383	
307.26	.000441	

System: p-acetoxyacetophenone; phases: Crystal 1, Liquid, Air at 1 atmosphere
Property: Normal melting temperature, K (Crystal 1); method: DSC/DTA
Normal melting temperature, K	uncertainty
324.1	.5

System: p-acetoxyacetophenone; phases: Crystal 2, Crystal 1, Air at 1 atmosphere
Property: Triple point temperature, K (Crystal 2); method: DSC
Triple point temperature, K	uncertainty
310.1	.2

System: p-acetoxyacetophenone; phases: Crystal 1, Liquid, Air at 1 atmosphere
Property: Molar enthalpy of transition or fusion, kJ/mol (Crystal 1); method: DSC
Molar enthalpy of transition or fusion, kJ/mol	uncertainty
20.8	.5

System: p-acetoxyacetophenone; phases: Crystal 2, Crystal 1, Air at 1 atmosphere
Property: Molar enthalpy of transition or fusion, kJ/mol (Crystal 2); method: DSC
Molar enthalpy of transition or fusion, kJ/mol	uncertainty
.6	.4

System: p-acetoxyacetophenone; phases: Liquid, Gas
Property: Vapor or sublimation pressure, kPa (Liquid); method: Closed cell (Static) method
Temperature, K	Vapor or sublimation pressure, kPa	uncertainty
328.88	.00341	
330.91	.00406	
332.89	.00478	
334.84	.00555	
336.85	.00658	
338.81	.00777	
340.85	.00908	
342.77	.01045	
344.77	.01225	
346.74	.01408	
348.68	.01633	
350.65	.01885	
352.66	.02182	
354.62	.02505	
356.57	.02907	
358.59	.03305	
360.49	.03795	
362.51	.04335	
364.46	.04961	
366.46	.05645	
368.38	.06404	
370.41	.07307	
372.31	.08205	
374.34	.09319	
376.33	.1048	
378.32	.1186	

System: p-acetoxyacetophenone; phases: Crystal 1, Gas
Property: Vapor or sublimation pressure, kPa (Crystal 1); method: Closed cell (Static) method
Temperature, K	Vapor or sublimation pressure, kPa	uncertainty
315	.00078	
316	.00087	
317	.00098	
317.96	.00109	
318.99	.00123	
319.96	.00139	
321.01	.00155	
321.89	.00173	
322.88	.00195	
323.91	.00218	

System: p-acetoxyacetophenone; phases: Crystal 2, Gas
Property: Vapor or sublimation pressure, kPa (Crystal 2); method: Knudsen effusion method
Temperature, K	Vapor or sublimation pressure, kPa	uncertainty
298.12	.000093	
299.15	.000106	
300.3	.000123	
301.34	.000141	
302.25	.000159	
303.23	.000185	
304.1	.000205	
305.13	.000229	
306.26	.000266	
307.14	.0003	
308.25	.000347	
309.29	.000397	
298.12	.000093	
299.15	.000105	
300.3	.000123	
301.34	.000143	
302.25	.000159	
303.23	.000185	
305.13	.00023	
306.26	.000268	
307.14	.0003	
308.25	.000347	
309.29	.000395	
298.12	.000093	
299.15	.000106	
300.3	.000123	
301.34	.000142	
302.25	.000159	
303.23	.000184	
304.1	.000202	
305.13	.000232	
306.26	.000266	
307.14	.000301	
308.25	.000346	
309.29	.000394	

System: 4'-methoxyacetophenone; phases: Crystal, Liquid, Air at 1 atmosphere
Property: Normal melting temperature, K (Crystal); method: DSC/DTA
Normal melting temperature, K	uncertainty
310.3	.2

System: 4'-methoxyacetophenone; phases: Crystal, Liquid, Air at 1 atmosphere
Property: Molar enthalpy of transition or fusion, kJ/mol (Crystal); method: DSC
Molar enthalpy of transition or fusion, kJ/mol	uncertainty
16.8	.6

System: 4'-methoxyacetophenone; phases: Liquid, Gas
Property: Vapor or sublimation pressure, kPa (Liquid); method: Closed cell (Static) method
Temperature, K	Vapor or sublimation pressure, kPa	uncertainty
302.13	.00143	
304.14	.00174	
306.09	.00209	
308.12	.00251	
310.08	.00301	
312.06	.0036	
314.2	.00436	
316.08	.00516	
318.02	.0061	
320.04	.00716	
321.98	.00847	
324.01	.01002	
326	.01174	
327.92	.01375	
329.93	.01614	
331.9	.0189	
333.88	.02202	
335.86	.02563	
337.93	.02998	
339.82	.03463	
341.89	.04012	
343.72	.04593	
345.84	.05323	
347.69	.06033	
349.8	.06953	
351.63	.07823	
353.72	.09003	
355.73	.1035	

System: 4'-methoxyacetophenone; phases: Crystal, Gas
Property: Vapor or sublimation pressure, kPa (Crystal); method: Closed cell (Static) method
Temperature, K	Vapor or sublimation pressure, kPa	uncertainty
296.23	.00059	
298.19	.00075	
300.19	.00096	
302.18	.00121	
304.15	.00153	
306.12	.00192	
308.1	.00239	
