Measured thermophysical data. Standard state thermodynamic properties of aqueous cesium chloride using  high dilution calorimetry up to 598.15 K
Source: J. Chem. Thermodyn., 2009, 10.1016/j.jct.2009.03.016
Compound 1: water, H2O, purity 99.9%
Compound 2: cesium chloride, ClCs

System: cesium chloride + water; phases: Liquid, Crystal
Property: Molar enthalpy of solution, kJ/mol (Liquid); method: solution calorimetry
Temperature, K	Molality, mol/kg of cesium chloride	Molar enthalpy of solution, kJ/mol	uncertainty
483.11	.0018152	-25.086	-.12543
483.11	.0022999	-22.95	-.11475
483.11	.0040882	-23.39	-.11695
483.11	.0043017	-20.601	-.103005
483.11	.0045483	-22.183	-.110915
483.11	.005384	-21.537	-.107685
544.63	.0021695	-53.549	-.267745
544.63	.0035134	-51.328	-.25664
544.63	.0052983	-47.706	-.23853
544.63	.0063052	-51.771	-.258855
544.63	.008105	-51.698	-.25849
573.3	.0030273	-80.483	-.402415
573.3	.0031592	-88.054	-.44027
573.3	.0032089	-82.523	-.412615
573.3	.0039877	-81.488	-.40744
573.3	.0058466	-80.356	-.40178
573.3	.0060503	-80.133	-.400665
573.3	.0088311	-78.184	-.39092

System: cesium chloride + water; phases: Liquid, Crystal
Fixed: Mole fraction of cesium chloride = 0
Property: Molar enthalpy of solution, kJ/mol (Liquid); method: solution calorimitry
Temperature, K	Molar enthalpy of solution, kJ/mol	uncertainty
483.11	-24.283	-.121415
544.63	-57.902	-.28951
573.3	-95.778	-.47889
