Measured thermophysical data. Heat capacities at 298.15 K of the extended [CnC1im][Ntf2] ionic liquid series
Source: J. Chem. Thermodyn., 2012, 10.1016/j.jct.2012.04.025
Compound 1: 1-ethyl-3-methylimidazolium 1,1,1-trifluoro-N-[(trifluoromethyl)sulfonyl]methanesulfonamide, C8H11F6N3O4S2, purity 99%
Compound 2: 1-methyl-3-propylimidazolium 1,1,1-trifluoro-N-[(trifluoromethyl)sulfonyl]methanesulfonamide, C9H13F6N3O4S2, purity 99%
Compound 3: 1-butyl-3-methylimidazolium 1,1,1-trifluoro-N-[(trifluoromethyl)sulfonyl]methanesulfonamide, C10H15F6N3O4S2, purity 99%
Compound 4: 1-pentyl-3-methylimidazolium bis(trifluoromethylsulfonyl)amide, C11H17F6N3O4S2, purity 99%
Compound 5: 1-hexyl-3-methylimidazolium bis[(trifluoromethyl)sulfonyl]imide, C12H19F6N3O4S2, purity 99%
Compound 6: 1-heptyl-3-methylimidazolium bis(trifluoromethylsulfonyl)amide, C13H21F6N3O4S2, purity 99%
Compound 7: 1-octyl-3-methylimidazolium 1,1,1-trifluoro-N-[(trifluoromethyl)sulfonyl]methanesulfonamide, C14H23F6N3O4S2, purity 99%
Compound 8: 1-decyl-3-methylimidazolium bis(trifluoromethylsulfonyl)amide, C16H27F6N3O4S2, purity 99%
Compound 9: 1-dodecyl-3-methylimidazolium bis(trifluromethylsulfonyl)imide, C18H31F6N3O4S2, purity 99%

System: 1-ethyl-3-methylimidazolium 1,1,1-trifluoro-N-[(trifluoromethyl)sulfonyl]methanesulfonamide; phases: Liquid
Fixed: Pressure, kPa = 101.325
Property: Molar heat capacity at constant pressure, J/K/mol (Liquid); method: Drop calorimetry
Temperature, K	Molar heat capacity at constant pressure, J/K/mol	uncertainty
298.15	504.8	1.2

System: 1-methyl-3-propylimidazolium 1,1,1-trifluoro-N-[(trifluoromethyl)sulfonyl]methanesulfonamide; phases: Liquid
Fixed: Pressure, kPa = 101.325
Property: Molar heat capacity at constant pressure, J/K/mol (Liquid); method: Drop calorimetry
Temperature, K	Molar heat capacity at constant pressure, J/K/mol	uncertainty
298.15	534.9	.5

System: 1-butyl-3-methylimidazolium 1,1,1-trifluoro-N-[(trifluoromethyl)sulfonyl]methanesulfonamide; phases: Liquid
Fixed: Pressure, kPa = 101.325
Property: Molar heat capacity at constant pressure, J/K/mol (Liquid); method: Drop calorimetry
Temperature, K	Molar heat capacity at constant pressure, J/K/mol	uncertainty
298.15	565.9	.6

System: 1-pentyl-3-methylimidazolium bis(trifluoromethylsulfonyl)amide; phases: Liquid
Fixed: Pressure, kPa = 101.325
Property: Molar heat capacity at constant pressure, J/K/mol (Liquid); method: Drop calorimetry
Temperature, K	Molar heat capacity at constant pressure, J/K/mol	uncertainty
298.15	595.6	.5

System: 1-hexyl-3-methylimidazolium bis[(trifluoromethyl)sulfonyl]imide; phases: Liquid
Fixed: Pressure, kPa = 101.325
Property: Molar heat capacity at constant pressure, J/K/mol (Liquid); method: Drop calorimetry
Temperature, K	Molar heat capacity at constant pressure, J/K/mol	uncertainty
298.15	629.4	1.2

System: 1-heptyl-3-methylimidazolium bis(trifluoromethylsulfonyl)amide; phases: Liquid
Fixed: Pressure, kPa = 101.325
Property: Molar heat capacity at constant pressure, J/K/mol (Liquid); method: Drop calorimetry
Temperature, K	Molar heat capacity at constant pressure, J/K/mol	uncertainty
298.15	659.2	.7

System: 1-octyl-3-methylimidazolium 1,1,1-trifluoro-N-[(trifluoromethyl)sulfonyl]methanesulfonamide; phases: Liquid
Fixed: Pressure, kPa = 101.325
Property: Molar heat capacity at constant pressure, J/K/mol (Liquid); method: Drop calorimetry
Temperature, K	Molar heat capacity at constant pressure, J/K/mol	uncertainty
298.15	690.2	.7

System: 1-decyl-3-methylimidazolium bis(trifluoromethylsulfonyl)amide; phases: Liquid
Fixed: Pressure, kPa = 101.325
Property: Molar heat capacity at constant pressure, J/K/mol (Liquid); method: Drop calorimetry
Temperature, K	Molar heat capacity at constant pressure, J/K/mol	uncertainty
298.15	754.5	.9

System: 1-dodecyl-3-methylimidazolium bis(trifluromethylsulfonyl)imide; phases: Liquid
Fixed: Pressure, kPa = 101.325
Property: Molar heat capacity at constant pressure, J/K/mol (Liquid); method: Drop calorimetry
Temperature, K	Molar heat capacity at constant pressure, J/K/mol	uncertainty
298.15	820.2	.9
