Measured thermophysical data. Effect of triolein addition of the solubility of capsanthin in supercritical carbon dioxide
Source: J. Chem. Thermodyn., 2012, 10.1016/j.jct.2012.02.030
Compound 1: carbon dioxide, CO2, purity 99%
Compound 2: glycerol trioleate, C57H104O6, purity 99%
Compound 3: capsanthin, C40H56O3, purity 86%

System: carbon dioxide + capsanthin; phases: Fluid (supercritical or subcritical phases), Crystal
Property: Mole fraction of capsanthin (Fluid (supercritical or subcritical phases)); method: Chromatography
Temperature, K	Pressure, kPa	Mole fraction of capsanthin	uncertainty
313.3	18610	.000000639	.0000002
313.3	18630	.000000671	.0000002
313.3	22150	.000000731	.0000002
313.4	22250	.000000637	.0000002
313.4	27530	.000000899	.0000002
313.3	27770	.000000797	.0000002
313.3	32830	.00000106	.0000002
313.4	32960	.000001079	.0000002
333.2	18670	.00000076	.0000002
333.2	18700	.00000074	.0000002
333.3	23640	.000001349	.00000005
333.2	23680	.000001312	.00000005
333.3	23620	.000001383	.00000005
333.2	27910	.000001649	.00000005
333.2	27930	.000001618	.00000005
333.2	27950	.000001668	.00000005
333.2	32000	.000001964	.00000005
333.2	32050	.000001966	.00000005
333.2	32040	.000001974	.00000005
313	19000	.00000065	.0000002
333	32000	.000001968	.00000005

System: glycerol trioleate + carbon dioxide + capsanthin; phases: Fluid (supercritical or subcritical phases), Crystal
Property: Mole fraction of capsanthin (Fluid (supercritical or subcritical phases)); method: Chromatography
Temperature, K	Pressure, kPa	Mole fraction of glycerol trioleate	Mole fraction of capsanthin	uncertainty
313.2	18850	.0001631	.000001868	.00000005
313.2	18850	.0001614	.000001959	.00000005
313.3	18820	.0001602	.000001896	.00000005
313.2	23680	.0003153	.000002058	.00000005
313.2	23570	.0003016	.000002235	.00000005
313.3	23630	.0002875	.000002218	.00000005
313.2	28240	.0003446	.000002782	.00000005
313.2	28260	.0003499	.000002754	.00000005
313.1	33890	.0003742	.000003312	.00000005
313.4	33910	.0003991	.000003503	.00000005
313.3	33730	.000402	.000003521	.00000005
313.4	33580	.0004003	.000003425	.00000005
333.3	18580	.0001556	.000001912	.00000005
333.2	18570	.0001563	.000001865	.00000005
333.2	18550	.0001637	.000001822	.00000005
333.2	23550	.0002265	.000003326	.00000005
333.2	23310	.0002237	.000003364	.00000005
333.2	28250	.0003203	.000004182	.00000005
333.2	28210	.0003351	.000004311	.00000005
333.2	28200	.0003268	.000004366	.00000005
333.2	32840	.0004117	.000005257	.00000005
333.2	32810	.0004086	.000005274	.00000005
