Measured thermophysical data. Isobaric (vapor + liquid) equilibria for the binary systems (1-methoxy-2- propanol + 2-methoxyethanol), (2-butanone + 2-methoxyethanol) and (water + 2-methoxyethanol) at pressures of (74.5, 101.3, and 134.0) kPa
Source: J. Chem. Thermodyn., 2015, 10.1016/j.jct.2015.03.013
Compound 1: 1-methoxy-2-propanol, C4H10O2, purity 99.5%
Compound 2: 2-methoxyethanol, C3H8O2, purity 99.9%
Compound 3: 2-butanone, C4H8O, purity 99.7%
Compound 4: water, H2O, purity 99.8%

System: 1-methoxy-2-propanol + 2-methoxyethanol; phases: Liquid, Gas
Property: Boiling temperature at pressure P, K (Liquid); method: Ebulliometric method (Recirculating still)
Mole fraction of 1-methoxy-2-propanol	Pressure, kPa	Boiling temperature at pressure P, K	uncertainty
.0701	74.5	387	.1
.1493	74.5	386.4	.1
.198	74.5	386	.1
.3016	74.5	385.4	.1
.3955	74.5	385	.1
.5084	74.5	384.4	.1
.6841	74.5	384	.1
.7458	74.5	383.8	.1
.0214	101.3	397.3	.1
.0592	101.3	396.8	.1
.154	101.3	395.9	.1
.2051	101.3	395.5	.1
.3544	101.3	394.6	.1
.4164	101.3	394.2	.1
.5673	101.3	393.6	.1
.6936	101.3	393.4	.1
.1175	134	405.8	.1
.2031	134	405.1	.1
.2366	134	404.8	.1
.3009	134	404.3	.1
.3705	134	403.9	.1
.485	134	403.2	.1
.5603	134	402.9	.1
.742	134	402.4	.1

System: 1-methoxy-2-propanol + 2-methoxyethanol; phases: Gas, Liquid
Property: Mole fraction of 1-methoxy-2-propanol (Gas); method: Chromatography
Mole fraction of 1-methoxy-2-propanol	Pressure, kPa	Mole fraction of 1-methoxy-2-propanol	uncertainty
.0701	74.5	.1658	.046
.1493	74.5	.3851	.064
.198	74.5	.4238	.049
.3016	74.5	.5315	.028
.3955	74.5	.6412	.044
.5084	74.5	.7782	.032
.6841	74.5	.8826	.039
.7458	74.5	.9353	.053
.0214	101.3	.0888	.045
.0592	101.3	.1917	.037
.154	101.3	.3474	.045
.2051	101.3	.4104	.048
.3544	101.3	.5665	.063
.4164	101.3	.6446	.038
.5673	101.3	.7722	.052
.6936	101.3	.8482	.038
.1175	134	.2263	.048
.2031	134	.3467	.045
.2366	134	.4232	.048
.3009	134	.5249	.043
.3705	134	.5933	.049
.485	134	.7547	.052
.5603	134	.8451	.05
.742	134	.9603	.052

System: 2-butanone + 2-methoxyethanol; phases: Liquid, Gas
Property: Boiling temperature at pressure P, K (Liquid); method: Ebulliometric method (Recirculating still)
Mole fraction of 2-butanone	Pressure, kPa	Boiling temperature at pressure P, K	uncertainty
.0535	74.5	381.9	.1
.0761	74.5	379.2	.1
.1264	74.5	376.3	.1
.1772	74.5	372.1	.1
.3367	74.5	363.1	.1
.4017	74.5	360.5	.1
.555	74.5	353.7	.1
.6367	74.5	351.9	.1
.6822	74.5	350.6	.1
.8886	74.5	345.6	.1
.0804	101.3	387.6	.1
.1475	101.3	380.7	.1
.0489	101.3	391.5	.1
.3237	101.3	369.7	.1
.3934	101.3	365.8	.1
.4536	101.3	363.6	.1
.5832	101.3	360.1	.1
.6859	101.3	358.3	.1
.7718	101.3	356.1	.1
.8563	101.3	354.8	.1
.0477	134	401	.1
.1661	134	391.7	.1
.0332	134	402.7	.1
.2138	134	388.3	.1
.2794	134	385.5	.1
.4719	134	375	.1
.554	134	372.2	.1
.6255	134	369.5	.1
.6874	134	367.8	.1
.7901	134	365.1	.1

System: 2-butanone + 2-methoxyethanol; phases: Gas, Liquid
Property: Mole fraction of 2-butanone (Gas); method: Chromatography
Mole fraction of 2-butanone	Pressure, kPa	Mole fraction of 2-butanone	uncertainty
.0535	74.5	.2825	.033
.0761	74.5	.3753	.032
.1264	74.5	.4665	.031
.1772	74.5	.5458	.027
.3367	74.5	.7349	.029
.4017	74.5	.783	.033
.555	74.5	.9005	.032
.6367	74.5	.9236	.033
.6822	74.5	.9437	.036
.8886	74.5	.9822	.044
.0804	101.3	.304	.031
.1475	101.3	.4504	.027
.0489	101.3	.2088	.031
.3237	101.3	.6901	.028
.3934	101.3	.7825	.03
.4536	101.3	.805	.03
.5832	101.3	.8747	.032
.6859	101.3	.903	.031
.7718	101.3	.9339	.033
.8563	101.3	.9572	.034
.0477	134	.2351	.03
.1661	134	.5256	.034
.0332	134	.1687	.025
.2138	134	.5672	.036
.2794	134	.6384	.017
.4719	134	.7956	.021
.554	134	.8392	.043
.6255	134	.8759	.032
.6874	134	.9074	.032
.7901	134	.9512	.035

System: 2-methoxyethanol + water; phases: Liquid, Gas
Property: Boiling temperature at pressure P, K (Liquid); method: Ebulliometric method (Recirculating still)
Mole fraction of water	Pressure, kPa	Boiling temperature at pressure P, K	uncertainty
.1621	74.5	379.4	.1
.2954	74.5	375.3	.1
.3643	74.5	372.7	.1
.4529	74.5	370.3	.1
.5199	74.5	369.1	.1
.5833	74.5	367.7	.1
.6488	74.5	366.4	.1
.9468	74.5	365	.1
.1848	101.3	388	.1
.3209	101.3	383.4	.1
.3745	101.3	381.5	.1
.4456	101.3	379.5	.1
.5435	101.3	376.5	.1
.702	101.3	374.4	.1
.8545	101.3	373.7	.1
.9174	101.3	373.7	.1
.1879	134	395.6	.1
.3103	134	391.4	.1
.4195	134	387.7	.1
.5131	134	384.8	.1
.6375	134	382.8	.1
.7086	134	382	.1
.8653	134	381.5	.1
.9195	134	381.5	.1

System: 2-methoxyethanol + water; phases: Gas, Liquid
Property: Mole fraction of water (Gas); method: Chromatography
Mole fraction of water	Pressure, kPa	Mole fraction of water	uncertainty
.1621	74.5	.4263	.047
.2954	74.5	.5396	.043
.3643	74.5	.6137	.044
.4529	74.5	.6805	.051
.5199	74.5	.7116	.054
.5833	74.5	.7456	.025
.6488	74.5	.7949	.021
.9468	74.5	.9569	.022
.1848	101.3	.4311	.046
.3209	101.3	.5721	.043
.3745	101.3	.6132	.044
.4456	101.3	.6525	.048
.5435	101.3	.7436	.061
.702	101.3	.8074	.021
.8545	101.3	.8711	.019
.9174	101.3	.9212	.019
.1879	134	.4561	.047
.3103	134	.5451	.04
.4195	134	.644	.047
.5131	134	.709	.054
.6375	134	.78	.022
.7086	134	.807	.022
.8653	134	.8779	.019
.9195	134	.9281	.018
