Measured thermophysical data. Equilibrium solubility of carbon dioxide in a 30 wt.% aqueous solution of 2-((2-aminoethyl)amino)ethanol at pressures between atmospheric and 4400 kPa: An experimental and modelling study
Source: J. Chem. Thermodyn., 2012, 10.1016/j.jct.2011.08.011
Compound 1: diethanolamine, N-methyl-, C5H13NO2
Compound 2: carbon dioxide, CO2, purity 99.9%
Compound 3: water, H2O, purity 99.9%

System: diethanolamine, N-methyl- + carbon dioxide + water; phases: Liquid, Gas
Property: Mole fraction of carbon dioxide (Liquid); method: Density calibration data
Temperature, K	Partial pressure, kPa of carbon dioxide	Solvent: Amount concentration (molarity), mol/dm3 of diethanolamine, N-methyl-	Mole fraction of carbon dioxide	uncertainty
343.2	447	4.28	.0546	.0019
343.2	993	4.28	.0673	.0019
343.2	588	2	.0322	.0011
343.2	758	2	.0327	.001
343.2	1095	2	.0342	.0009
343.2	1407	2	.0356	.0008
343.2	2042	2	.0377	.0007
343.2	3770	2	.0402	.0007
313.2	188	4.28	.0565	.0024
313.2	255	4.28	.0586	.0022
313.2	437	4.28	.0648	.0022
313.2	607	4.28	.0682	.0021
313.2	1620	4.28	.0743	.0017
313.2	2406	4.28	.0776	.0015
313.2	2502	4.28	.0783	.0014
313.2	2671	4.28	.0785	.0014
313.2	98	2.14	.03	.0006
313.2	131	2.14	.0312	.0006
313.2	173	2.14	.032	.0006
313.2	234	2.14	.0331	.0005
313.2	295	2.14	.0335	.0005
313.2	430	2.14	.0337	.0005
313.2	571	2.14	.0348	.0005
313.2	1048	2.14	.036	.0005
