Measured thermophysical data. Phase transition equilibrium of terthiophene isomers
Source: J. Chem. Thermodyn., 2011, 10.1016/j.jct.2010.08.007
Compound 1: 3,3'-bithienyl, C8H6S2, purity 99.1%
Compound 2: 2,5-di-2-thienylthiophene, C12H8S3, purity 99.9%
Compound 3: 3,2' 5',3''-terthiophene, C12H8S3, purity 92%

System: 3,3'-bithienyl; phases: Crystal, Liquid
Property: Molar enthalpy of transition or fusion, kJ/mol (Crystal); method: DSC/DTA
Temperature, K	Molar enthalpy of transition or fusion, kJ/mol	uncertainty
406.2	21.3	.2

System: 2,5-di-2-thienylthiophene; phases: Crystal, Liquid
Property: Molar enthalpy of transition or fusion, kJ/mol (Crystal); method: DSC/DTA
Temperature, K	Molar enthalpy of transition or fusion, kJ/mol	uncertainty
365.3	20.7	.3

System: 2,5-di-2-thienylthiophene; phases: Crystal, Gas
Property: Vapor or sublimation pressure, kPa (Crystal); method: Knudsen effusion method
Temperature, K	Vapor or sublimation pressure, kPa	uncertainty
347.31	.0000967	
349.32	.0001193	
351.32	.0001475	
353.32	.0001834	
355.33	.0002206	
357.34	.0002835	
343.29	.0000598	
348.29	.0001056	
353.3	.0001866	
358.3	.0003161	
363.32	.0004982	
341.21	.0000479	
346.23	.0000841	
351.22	.0001461	
356.22	.0002518	
361.25	.0004294	

System: 3,2' 5',3''-terthiophene; phases: Crystal, Liquid
Property: Molar enthalpy of transition or fusion, kJ/mol (Crystal); method: DSC/DTA
Temperature, K	Molar enthalpy of transition or fusion, kJ/mol	uncertainty
461	29.9	.3

System: 3,2' 5',3''-terthiophene; phases: Crystal, Gas
Property: Vapor or sublimation pressure, kPa (Crystal); method: Knudsen effusion method
Temperature, K	Vapor or sublimation pressure, kPa	uncertainty
376.33	.0001298	
379.33	.0001722	
382.34	.0002246	
385.35	.0003094	
388.35	.0004297	
391.36	.0005659	
374.87	.0001179	
377.87	.0001519	
380.88	.0002022	
383.89	.0002684	
386.9	.0003587	
389.91	.0004857	
373.36	.0000955	
378.37	.0001578	
383.38	.0002586	
388.39	.0004176	
393.4	.0006141	
