Measured thermophysical data. Solvation behavior of some nucleic acid bases and nucleosides in water and in aqueous guanidine hydrochloride solutions: Viscometric, calorimetric and spectroscopic approach
Source: J. Chem. Thermodyn., 2016, 10.1016/j.jct.2015.11.029
Compound 1: uracil, C4H4N2O2, purity 99%
Compound 2: cytosine, C4H5N3O, purity 99%
Compound 3: thymine, C5H6N2O2, purity 98%
Compound 4: uridine, C9H12N2O6, purity 99%
Compound 5: cytidine, C9H13N3O5, purity 99%
Compound 6: thymidine, C10H14N2O5, purity 99%
Compound 7: guanidine hydrochloride, CH6ClN3, purity 99%
Compound 8: water, H2O

System: water; phases: Liquid
Property: Viscosity, Pa*s (Liquid); method: Capillary tube (Ostwald; Ubbelohde) method
Temperature, K	Pressure, kPa	Viscosity, Pa*s	uncertainty
288.15	101.3	.001138	.000012
298.15	101.3	.00089	.000012
308.15	101.3	.000719	.000012
318.15	101.3	.000596	.000012

System: guanidine hydrochloride + uracil + water; phases: Liquid
Fixed: Pressure, kPa = 101.3
Property: Viscosity, Pa*s (Liquid); method: Capillary tube (Ostwald; Ubbelohde) method
Temperature, K	Solvent: Molality, mol/kg of guanidine hydrochloride	Molality, mol/kg of uracil	Viscosity, Pa*s	uncertainty
288.15	0	0	.001138	.000012
288.15	0	.00913	.00114	.000012
288.15	0	.01445	.001142	.000012
288.15	0	.01827	.001143	.000012
288.15	0	.02396	.001144	.000012
288.15	0	.02452	.001144	.000012
288.15	0	.02632	.001145	.000012
298.15	0	0	.00089	.000012
298.15	0	.00913	.000892	.000012
298.15	0	.01445	.000894	.000012
298.15	0	.01827	.000895	.000012
298.15	0	.02396	.000896	.000012
298.15	0	.02452	.000896	.000012
298.15	0	.02632	.000897	.000012
308.15	0	0	.000719	.000012
308.15	0	.00913	.000721	.000012
308.15	0	.01445	.000723	.000012
308.15	0	.01827	.000723	.000012
308.15	0	.02396	.000724	.000012
308.15	0	.02452	.000725	.000012
308.15	0	.02632	.000725	.000012
318.15	0	0	.000596	.000012
318.15	0	.00913	.000598	.000012
318.15	0	.01445	.000599	.000012
318.15	0	.01827	.0006	.000012
318.15	0	.02396	.000601	.000012
318.15	0	.02452	.000601	.000012
318.15	0	.02632	.000601	.000012
288.15	.1	0	.001144	.000012
288.15	.1	.00756	.001146	.000012
288.15	.1	.01295	.001147	.000012
288.15	.1	.02202	.00115	.000012
288.15	.1	.0231	.00115	.000012
288.15	.1	.02486	.00115	.000012
288.15	.1	.02994	.001152	.000012
298.15	.1	0	.000896	.000012
298.15	.1	.00756	.000898	.000012
298.15	.1	.01295	.000899	.000012
298.15	.1	.02202	.000902	.000012
298.15	.1	.0231	.000902	.000012
298.15	.1	.02486	.000902	.000012
298.15	.1	.02994	.000903	.000012
308.15	.1	0	.000722	.000012
308.15	.1	.00756	.000724	.000012
308.15	.1	.01295	.000725	.000012
308.15	.1	.02202	.000727	.000012
308.15	.1	.0231	.000727	.000012
308.15	.1	.02486	.000727	.000012
308.15	.1	.02994	.000729	.000012
318.15	.1	0	.0006	.000012
318.15	.1	.00756	.000602	.000012
318.15	.1	.01295	.000603	.000012
318.15	.1	.02202	.000605	.000012
318.15	.1	.0231	.000605	.000012
318.15	.1	.02486	.000606	.000012
318.15	.1	.02994	.000607	.000012
288.15	.25	0	.001152	.000012
288.15	.25	.00739	.001154	.000012
288.15	.25	.0146	.001156	.000012
288.15	.25	.02007	.001157	.000012
288.15	.25	.02139	.001158	.000012
288.15	.25	.02388	.001158	.000012
288.15	.25	.0257	.001159	.000012
298.15	.25	0	.000901	.000012
298.15	.25	.00739	.000903	.000012
298.15	.25	.0146	.000904	.000012
298.15	.25	.02007	.000906	.000012
298.15	.25	.02139	.000906	.000012
298.15	.25	.02388	.000907	.000012
298.15	.25	.0257	.000907	.000012
308.15	.25	0	.000727	.000012
308.15	.25	.00739	.000729	.000012
308.15	.25	.0146	.00073	.000012
308.15	.25	.02007	.000731	.000012
308.15	.25	.02139	.000732	.000012
308.15	.25	.02388	.000732	.000012
308.15	.25	.0257	.000733	.000012
318.15	.25	0	.000604	.000012
318.15	.25	.00739	.000606	.000012
318.15	.25	.0146	.000607	.000012
318.15	.25	.02007	.000608	.000012
318.15	.25	.02139	.000609	.000012
318.15	.25	.02388	.000609	.000012
318.15	.25	.0257	.00061	.000012
288.15	.5	0	.001162	.000012
288.15	.5	.01072	.001165	.000012
288.15	.5	.01432	.001166	.000012
288.15	.5	.02002	.001168	.000012
288.15	.5	.02028	.001168	.000012
288.15	.5	.02157	.001168	.000012
288.15	.5	.0255	.001169	.000012
298.15	.5	0	.000908	.000012
298.15	.5	.01072	.000911	.000012
298.15	.5	.01432	.000912	.000012
298.15	.5	.02002	.000914	.000012
298.15	.5	.02028	.000914	.000012
298.15	.5	.02157	.000914	.000012
298.15	.5	.0255	.000915	.000012
308.15	.5	0	.000735	.000012
308.15	.5	.01072	.000738	.000012
308.15	.5	.01432	.000738	.000012
308.15	.5	.02002	.00074	.000012
308.15	.5	.02028	.00074	.000012
308.15	.5	.02157	.00074	.000012
308.15	.5	.0255	.000741	.000012
318.15	.5	0	.000613	.000012
318.15	.5	.01072	.000616	.000012
318.15	.5	.01432	.000616	.000012
318.15	.5	.02002	.000618	.000012
318.15	.5	.02028	.000618	.000012
318.15	.5	.02157	.000618	.000012
318.15	.5	.0255	.000619	.000012
288.15	.75	0	.001171	.000012
288.15	.75	.01376	.001175	.000012
288.15	.75	.01776	.001176	.000012
288.15	.75	.02554	.001178	.000012
288.15	.75	.03423	.001181	.000012
288.15	.75	.03663	.001181	.000012
288.15	.75	.03775	.001182	.000012
298.15	.75	0	.000915	.000012
298.15	.75	.01376	.000919	.000012
298.15	.75	.01776	.00092	.000012
298.15	.75	.02554	.000922	.000012
298.15	.75	.03423	.000924	.000012
298.15	.75	.03663	.000925	.000012
298.15	.75	.03775	.000925	.000012
308.15	.75	0	.000742	.000012
308.15	.75	.01376	.000745	.000012
308.15	.75	.01776	.000746	.000012
308.15	.75	.02554	.000748	.000012
308.15	.75	.03423	.00075	.000012
308.15	.75	.03663	.000751	.000012
308.15	.75	.03775	.000751	.000012
318.15	.75	0	.000621	.000012
318.15	.75	.01376	.000624	.000012
318.15	.75	.01776	.000625	.000012
318.15	.75	.02554	.000627	.000012
318.15	.75	.03423	.000629	.000012
318.15	.75	.03663	.000629	.000012
318.15	.75	.03775	.000629	.000012
288.15	1	0	.001182	.000012
288.15	1	.00829	.001184	.000012
288.15	1	.01029	.001184	.000012
288.15	1	.01295	.001185	.000012
288.15	1	.01908	.001187	.000012
288.15	1	.02319	.001189	.000012
288.15	1	.02791	.00119	.000012
298.15	1	0	.000923	.000012
298.15	1	.00829	.000925	.000012
298.15	1	.01029	.000926	.000012
298.15	1	.01295	.000926	.000012
298.15	1	.01908	.000928	.000012
298.15	1	.02319	.000929	.000012
298.15	1	.02791	.000931	.000012
308.15	1	0	.000748	.000012
308.15	1	.00829	.00075	.000012
308.15	1	.01029	.000751	.000012
308.15	1	.01295	.000752	.000012
308.15	1	.01908	.000753	.000012
308.15	1	.02319	.000754	.000012
308.15	1	.02791	.000756	.000012
318.15	1	0	.000626	.000012
318.15	1	.00829	.000628	.000012
318.15	1	.01029	.000629	.000012
318.15	1	.01295	.000629	.000012
318.15	1	.01908	.000631	.000012
318.15	1	.02319	.000632	.000012
318.15	1	.02791	.000633	.000012

System: guanidine hydrochloride + cytosine + water; phases: Liquid
Fixed: Pressure, kPa = 101.3
Property: Viscosity, Pa*s (Liquid); method: Capillary tube (Ostwald; Ubbelohde) method
Temperature, K	Solvent: Molality, mol/kg of guanidine hydrochloride	Molality, mol/kg of cytosine	Viscosity, Pa*s	uncertainty
288.15	0	.00727	.00114	.000012
288.15	0	.01052	.001141	.000012
288.15	0	.01567	.001142	.000012
288.15	0	.02538	.001144	.000012
288.15	0	.02715	.001145	.000012
288.15	0	.03105	.001145	.000012
298.15	0	.00727	.000892	.000012
298.15	0	.01052	.000893	.000012
298.15	0	.01567	.000894	.000012
298.15	0	.02538	.000895	.000012
298.15	0	.02715	.000896	.000012
298.15	0	.03105	.000897	.000012
308.15	0	.00727	.000721	.000012
308.15	0	.01052	.000722	.000012
308.15	0	.01567	.000722	.000012
308.15	0	.02538	.000724	.000012
308.15	0	.02715	.000724	.000012
308.15	0	.03105	.000725	.000012
318.15	0	.00727	.000598	.000012
318.15	0	.01052	.000598	.000012
318.15	0	.01567	.000599	.000012
318.15	0	.02538	.000601	.000012
318.15	0	.02715	.000601	.000012
318.15	0	.03105	.000602	.000012
288.15	.1	.01236	.001147	.000012
288.15	.1	.0198	.001149	.000012
288.15	.1	.02462	.00115	.000012
288.15	.1	.027	.001151	.000012
288.15	.1	.03459	.001152	.000012
288.15	.1	.03553	.001153	.000012
298.15	.1	.01236	.000899	.000012
298.15	.1	.0198	.0009	.000012
298.15	.1	.02462	.000901	.000012
298.15	.1	.027	.000902	.000012
298.15	.1	.03459	.000903	.000012
298.15	.1	.03553	.000904	.000012
308.15	.1	.01236	.000724	.000012
308.15	.1	.0198	.000726	.000012
308.15	.1	.02462	.000727	.000012
308.15	.1	.027	.000727	.000012
308.15	.1	.03459	.000728	.000012
308.15	.1	.03553	.000729	.000012
318.15	.1	.01236	.000603	.000012
318.15	.1	.0198	.000604	.000012
318.15	.1	.02462	.000605	.000012
318.15	.1	.027	.000606	.000012
318.15	.1	.03459	.000607	.000012
318.15	.1	.03553	.000608	.000012
288.15	.25	.0136	.001156	.000012
288.15	.25	.01849	.001157	.000012
288.15	.25	.0233	.001158	.000012
288.15	.25	.02886	.001159	.000012
288.15	.25	.03471	.001161	.000012
288.15	.25	.03602	.001161	.000012
298.15	.25	.0136	.000904	.000012
298.15	.25	.01849	.000905	.000012
298.15	.25	.0233	.000906	.000012
298.15	.25	.02886	.000907	.000012
298.15	.25	.03471	.000908	.000012
298.15	.25	.03602	.000908	.000012
308.15	.25	.0136	.00073	.000012
308.15	.25	.01849	.000731	.000012
308.15	.25	.0233	.000731	.000012
308.15	.25	.02886	.000733	.000012
308.15	.25	.03471	.000734	.000012
308.15	.25	.03602	.000734	.000012
318.15	.25	.0136	.000607	.000012
318.15	.25	.01849	.000608	.000012
318.15	.25	.0233	.000609	.000012
318.15	.25	.02886	.00061	.000012
318.15	.25	.03471	.000611	.000012
318.15	.25	.03602	.000612	.000012
288.15	.5	.00833	.001165	.000012
288.15	.5	.01706	.001167	.000012
288.15	.5	.01963	.001167	.000012
288.15	.5	.02573	.001169	.000012
288.15	.5	.03255	.00117	.000012
288.15	.5	.03582	.001171	.000012
298.15	.5	.00833	.00091	.000012
298.15	.5	.01706	.000912	.000012
298.15	.5	.01963	.000913	.000012
298.15	.5	.02573	.000914	.000012
298.15	.5	.03255	.000916	.000012
298.15	.5	.03582	.000917	.000012
308.15	.5	.00833	.000737	.000012
308.15	.5	.01706	.000739	.000012
308.15	.5	.01963	.000739	.000012
308.15	.5	.02573	.000741	.000012
308.15	.5	.03255	.000742	.000012
308.15	.5	.03582	.000743	.000012
318.15	.5	.00833	.000615	.000012
318.15	.5	.01706	.000617	.000012
318.15	.5	.01963	.000618	.000012
318.15	.5	.02573	.000619	.000012
318.15	.5	.03255	.00062	.000012
318.15	.5	.03582	.000621	.000012
288.15	.75	.01086	.001174	.000012
288.15	.75	.01405	.001175	.000012
288.15	.75	.01963	.001177	.000012
288.15	.75	.02632	.001178	.000012
288.15	.75	.02799	.001179	.000012
288.15	.75	.03414	.00118	.000012
298.15	.75	.01086	.000917	.000012
298.15	.75	.01405	.000918	.000012
298.15	.75	.01963	.00092	.000012
298.15	.75	.02632	.000921	.000012
298.15	.75	.02799	.000922	.000012
298.15	.75	.03414	.000923	.000012
308.15	.75	.01086	.000744	.000012
308.15	.75	.01405	.000745	.000012
308.15	.75	.01963	.000746	.000012
308.15	.75	.02632	.000747	.000012
308.15	.75	.02799	.000748	.000012
308.15	.75	.03414	.000749	.000012
318.15	.75	.01086	.000623	.000012
318.15	.75	.01405	.000624	.000012
318.15	.75	.01963	.000625	.000012
318.15	.75	.02632	.000627	.000012
318.15	.75	.02799	.000627	.000012
318.15	.75	.03414	.000628	.000012
288.15	1	.00921	.001184	.000012
288.15	1	.01327	.001185	.000012
288.15	1	.01917	.001187	.000012
288.15	1	.02465	.001189	.000012
288.15	1	.02758	.00119	.000012
288.15	1	.03475	.001192	.000012
298.15	1	.00921	.000925	.000012
298.15	1	.01327	.000926	.000012
298.15	1	.01917	.000927	.000012
298.15	1	.02465	.000929	.000012
298.15	1	.02758	.000929	.000012
298.15	1	.03475	.000931	.000012
308.15	1	.00921	.000751	.000012
308.15	1	.01327	.000751	.000012
308.15	1	.01917	.000753	.000012
308.15	1	.02465	.000754	.000012
308.15	1	.02758	.000755	.000012
308.15	1	.03475	.000756	.000012
318.15	1	.00921	.000628	.000012
318.15	1	.01327	.000629	.000012
318.15	1	.01917	.000631	.000012
318.15	1	.02465	.000632	.000012
318.15	1	.02758	.000633	.000012
318.15	1	.03475	.000634	.000012
288.15	0	0	.001138	.000012
298.15	0	0	.00089	.000012
308.15	0	0	.000719	.000012
318.15	0	0	.000596	.000012
288.15	.1	0	.001144	.000012
298.15	.1	0	.000896	.000012
308.15	.1	0	.000722	.000012
318.15	.1	0	.0006	.000012
288.15	.25	0	.001152	.000012
298.15	.25	0	.000901	.000012
308.15	.25	0	.000727	.000012
318.15	.25	0	.000604	.000012
288.15	.5	0	.001162	.000012
298.15	.5	0	.000908	.000012
308.15	.5	0	.000735	.000012
318.15	.5	0	.000613	.000012
288.15	.75	0	.001171	.000012
298.15	.75	0	.000915	.000012
308.15	.75	0	.000742	.000012
318.15	.75	0	.000621	.000012
288.15	1	0	.001182	.000012
298.15	1	0	.000923	.000012
308.15	1	0	.000748	.000012
318.15	1	0	.000626	.000012

System: guanidine hydrochloride + thymine + water; phases: Liquid
Fixed: Pressure, kPa = 101.3
Property: Viscosity, Pa*s (Liquid); method: Capillary tube (Ostwald; Ubbelohde) method
Temperature, K	Solvent: Molality, mol/kg of guanidine hydrochloride	Molality, mol/kg of thymine	Viscosity, Pa*s	uncertainty
288.15	0	.0091	.001141	.000012
288.15	0	.01477	.001143	.000012
288.15	0	.01854	.001145	.000012
288.15	0	.02062	.001146	.000012
288.15	0	.02329	.001147	.000012
288.15	0	.02672	.001148	.000012
298.15	0	.0091	.000893	.000012
298.15	0	.01477	.000895	.000012
298.15	0	.01854	.000896	.000012
298.15	0	.02062	.000896	.000012
298.15	0	.02329	.000897	.000012
298.15	0	.02672	.000898	.000012
308.15	0	.0091	.000722	.000012
308.15	0	.01477	.000723	.000012
308.15	0	.01854	.000724	.000012
308.15	0	.02062	.000724	.000012
308.15	0	.02329	.000725	.000012
308.15	0	.02672	.000726	.000012
318.15	0	.0091	.000598	.000012
318.15	0	.01477	.0006	.000012
318.15	0	.01854	.0006	.000012
318.15	0	.02062	.000601	.000012
318.15	0	.02329	.000601	.000012
318.15	0	.02672	.000602	.000012
288.15	.1	.00757	.001147	.000012
288.15	.1	.01508	.001149	.000012
288.15	.1	.0202	.001151	.000012
288.15	.1	.02245	.001151	.000012
288.15	.1	.02793	.001153	.000012
288.15	.1	.02905	.001154	.000012
298.15	.1	.00757	.000899	.000012
298.15	.1	.01508	.0009	.000012
298.15	.1	.0202	.000902	.000012
298.15	.1	.02245	.000902	.000012
298.15	.1	.02793	.000904	.000012
298.15	.1	.02905	.000904	.000012
308.15	.1	.00757	.000724	.000012
308.15	.1	.01508	.000726	.000012
308.15	.1	.0202	.000727	.000012
308.15	.1	.02245	.000727	.000012
308.15	.1	.02793	.000729	.000012
308.15	.1	.02905	.000729	.000012
318.15	.1	.00757	.000602	.000012
318.15	.1	.01508	.000604	.000012
318.15	.1	.0202	.000605	.000012
318.15	.1	.02245	.000605	.000012
318.15	.1	.02793	.000607	.000012
318.15	.1	.02905	.000607	.000012
288.15	.25	.011	.001156	.000012
288.15	.25	.0156	.001157	.000012
288.15	.25	.02125	.001159	.000012
288.15	.25	.02535	.001161	.000012
288.15	.25	.02676	.001161	.000012
288.15	.25	.02871	.001162	.000012
298.15	.25	.011	.000904	.000012
298.15	.25	.0156	.000905	.000012
298.15	.25	.02125	.000907	.000012
298.15	.25	.02535	.000908	.000012
298.15	.25	.02676	.000909	.000012
298.15	.25	.02871	.000909	.000012
308.15	.25	.011	.00073	.000012
308.15	.25	.0156	.000731	.000012
308.15	.25	.02125	.000732	.000012
308.15	.25	.02535	.000733	.000012
308.15	.25	.02676	.000734	.000012
308.15	.25	.02871	.000734	.000012
318.15	.25	.011	.000607	.000012
318.15	.25	.0156	.000608	.000012
318.15	.25	.02125	.000609	.000012
318.15	.25	.02535	.00061	.000012
318.15	.25	.02676	.000611	.000012
318.15	.25	.02871	.000611	.000012
288.15	.5	.00842	.001166	.000012
288.15	.5	.0123	.001166	.000012
288.15	.5	.01753	.001168	.000012
288.15	.5	.02125	.00117	.000012
288.15	.5	.02344	.001171	.000012
288.15	.5	.02836	.001173	.000012
298.15	.5	.00842	.000911	.000012
298.15	.5	.0123	.000912	.000012
298.15	.5	.01753	.000914	.000012
298.15	.5	.02125	.000915	.000012
298.15	.5	.02344	.000916	.000012
298.15	.5	.02836	.000917	.000012
308.15	.5	.00842	.000738	.000012
308.15	.5	.0123	.000739	.000012
308.15	.5	.01753	.00074	.000012
308.15	.5	.02125	.000741	.000012
308.15	.5	.02344	.000742	.000012
308.15	.5	.02836	.000743	.000012
318.15	.5	.00842	.000615	.000012
318.15	.5	.0123	.000616	.000012
318.15	.5	.01753	.000617	.000012
318.15	.5	.02125	.000618	.000012
318.15	.5	.02344	.000619	.000012
318.15	.5	.02836	.00062	.000012
288.15	.75	.00792	.001174	.000012
288.15	.75	.01185	.001176	.000012
288.15	.75	.01879	.001178	.000012
288.15	.75	.02189	.00118	.000012
288.15	.75	.02597	.001182	.000012
288.15	.75	.02977	.001183	.000012
298.15	.75	.00792	.000918	.000012
298.15	.75	.01185	.000919	.000012
298.15	.75	.01879	.000921	.000012
298.15	.75	.02189	.000922	.000012
298.15	.75	.02597	.000923	.000012
298.15	.75	.02977	.000924	.000012
308.15	.75	.00792	.000744	.000012
308.15	.75	.01185	.000745	.000012
308.15	.75	.01879	.000747	.000012
308.15	.75	.02189	.000748	.000012
308.15	.75	.02597	.000749	.000012
308.15	.75	.02977	.00075	.000012
318.15	.75	.00792	.000623	.000012
318.15	.75	.01185	.000624	.000012
318.15	.75	.01879	.000626	.000012
318.15	.75	.02189	.000626	.000012
318.15	.75	.02597	.000628	.000012
318.15	.75	.02977	.000628	.000012
288.15	1	.00563	.001184	.000012
288.15	1	.00914	.001185	.000012
288.15	1	.01391	.001187	.000012
288.15	1	.01853	.001189	.000012
288.15	1	.02377	.001192	.000012
288.15	1	.02607	.001192	.000012
298.15	1	.00563	.000925	.000012
298.15	1	.00914	.000926	.000012
298.15	1	.01391	.000928	.000012
298.15	1	.01853	.000929	.000012
298.15	1	.02377	.00093	.000012
298.15	1	.02607	.000932	.000012
308.15	1	.00563	.00075	.000012
308.15	1	.00914	.000751	.000012
308.15	1	.01391	.000753	.000012
308.15	1	.01853	.000754	.000012
308.15	1	.02377	.000755	.000012
308.15	1	.02607	.000756	.000012
318.15	1	.00563	.000628	.000012
318.15	1	.00914	.000629	.000012
318.15	1	.01391	.00063	.000012
318.15	1	.01853	.000631	.000012
318.15	1	.02377	.000633	.000012
318.15	1	.02607	.000633	.000012
288.15	0	0	.001138	.000012
298.15	0	0	.00089	.000012
308.15	0	0	.000719	.000012
318.15	0	0	.000596	.000012
288.15	.1	0	.001144	.000012
298.15	.1	0	.000896	.000012
308.15	.1	0	.000722	.000012
318.15	.1	0	.0006	.000012
288.15	.25	0	.001152	.000012
298.15	.25	0	.000901	.000012
308.15	.25	0	.000727	.000012
318.15	.25	0	.000604	.000012
288.15	.5	0	.001162	.000012
298.15	.5	0	.000908	.000012
308.15	.5	0	.000735	.000012
318.15	.5	0	.000613	.000012
288.15	.75	0	.001171	.000012
298.15	.75	0	.000915	.000012
308.15	.75	0	.000742	.000012
318.15	.75	0	.000621	.000012
288.15	1	0	.001182	.000012
298.15	1	0	.000923	.000012
308.15	1	0	.000748	.000012
318.15	1	0	.000626	.000012

System: guanidine hydrochloride + uridine + water; phases: Liquid
Fixed: Pressure, kPa = 101.3
Property: Viscosity, Pa*s (Liquid); method: Capillary tube (Ostwald; Ubbelohde) method
Temperature, K	Solvent: Molality, mol/kg of guanidine hydrochloride	Molality, mol/kg of uridine	Viscosity, Pa*s	uncertainty
288.15	0	.01025	.001143	.000012
288.15	0	.0142	.001146	.000012
288.15	0	.01766	.001148	.000012
288.15	0	.02196	.00115	.000012
288.15	0	.02819	.001153	.000012
288.15	0	.03105	.001155	.000012
298.15	0	.01025	.000895	.000012
298.15	0	.0142	.000897	.000012
298.15	0	.01766	.000898	.000012
298.15	0	.02196	.0009	.000012
298.15	0	.02819	.000902	.000012
298.15	0	.03105	.000904	.000012
308.15	0	.01025	.000723	.000012
308.15	0	.0142	.000724	.000012
308.15	0	.01766	.000726	.000012
308.15	0	.02196	.000727	.000012
308.15	0	.02819	.000729	.000012
308.15	0	.03105	.000731	.000012
318.15	0	.01025	.000599	.000012
318.15	0	.0142	.000601	.000012
318.15	0	.01766	.000602	.000012
318.15	0	.02196	.000603	.000012
318.15	0	.02819	.000605	.000012
318.15	0	.03105	.000606	.000012
288.15	.1	.00707	.001147	.000012
288.15	.1	.01262	.001151	.000012
288.15	.1	.01671	.001154	.000012
288.15	.1	.022	.001156	.000012
288.15	.1	.02987	.00116	.000012
288.15	.1	.03313	.001162	.000012
298.15	.1	.00707	.000899	.000012
298.15	.1	.01262	.000902	.000012
298.15	.1	.01671	.000904	.000012
298.15	.1	.022	.000906	.000012
298.15	.1	.02987	.000909	.000012
298.15	.1	.03313	.000911	.000012
308.15	.1	.00707	.000725	.000012
308.15	.1	.01262	.000726	.000012
308.15	.1	.01671	.000728	.000012
308.15	.1	.022	.00073	.000012
308.15	.1	.02987	.000733	.000012
308.15	.1	.03313	.000734	.000012
318.15	.1	.00707	.000603	.000012
318.15	.1	.01262	.000605	.000012
318.15	.1	.01671	.000606	.000012
318.15	.1	.022	.000607	.000012
318.15	.1	.02987	.00061	.000012
318.15	.1	.03313	.000611	.000012
288.15	.25	.00791	.001156	.000012
288.15	.25	.01448	.00116	.000012
288.15	.25	.01799	.001162	.000012
288.15	.25	.02363	.001166	.000012
288.15	.25	.02974	.001169	.000012
288.15	.25	.03134	.00117	.000012
298.15	.25	.00791	.000904	.000012
298.15	.25	.01448	.000907	.000012
298.15	.25	.01799	.000909	.000012
298.15	.25	.02363	.000911	.000012
298.15	.25	.02974	.000914	.000012
298.15	.25	.03134	.000915	.000012
308.15	.25	.00791	.000729	.000012
308.15	.25	.01448	.000732	.000012
308.15	.25	.01799	.000734	.000012
308.15	.25	.02363	.000736	.000012
308.15	.25	.02974	.000738	.000012
308.15	.25	.03134	.000738	.000012
318.15	.25	.00791	.000607	.000012
318.15	.25	.01448	.000609	.000012
318.15	.25	.01799	.00061	.000012
318.15	.25	.02363	.000612	.000012
318.15	.25	.02974	.000614	.000012
318.15	.25	.03134	.000614	.000012
288.15	.5	.01144	.001169	.000012
288.15	.5	.01448	.00117	.000012
288.15	.5	.0215	.001174	.000012
288.15	.5	.02167	.001175	.000012
288.15	.5	.02274	.001176	.000012
288.15	.5	.0287	.001179	.000012
298.15	.5	.01144	.000914	.000012
298.15	.5	.01448	.000915	.000012
298.15	.5	.0215	.000918	.000012
298.15	.5	.02167	.000919	.000012
298.15	.5	.02274	.000919	.000012
298.15	.5	.0287	.000922	.000012
308.15	.5	.01144	.000739	.000012
308.15	.5	.01448	.000741	.000012
308.15	.5	.0215	.000743	.000012
308.15	.5	.02167	.000744	.000012
308.15	.5	.02274	.000744	.000012
308.15	.5	.0287	.000746	.000012
318.15	.5	.01144	.000617	.000012
318.15	.5	.01448	.000618	.000012
318.15	.5	.0215	.00062	.000012
318.15	.5	.02167	.00062	.000012
318.15	.5	.02274	.000621	.000012
318.15	.5	.0287	.000623	.000012
288.15	.75	.01287	.001179	.000012
288.15	.75	.01876	.001182	.000012
288.15	.75	.02071	.001183	.000012
288.15	.75	.02297	.001185	.000012
288.15	.75	.02963	.001189	.000012
288.15	.75	.03192	.00119	.000012
298.15	.75	.01287	.000921	.000012
298.15	.75	.01876	.000924	.000012
298.15	.75	.02071	.000925	.000012
298.15	.75	.02297	.000926	.000012
298.15	.75	.02963	.000929	.000012
298.15	.75	.03192	.000931	.000012
308.15	.75	.01287	.000747	.000012
308.15	.75	.01876	.000749	.000012
308.15	.75	.02071	.00075	.000012
308.15	.75	.02297	.000751	.000012
308.15	.75	.02963	.000753	.000012
308.15	.75	.03192	.000754	.000012
318.15	.75	.01287	.000625	.000012
318.15	.75	.01876	.000627	.000012
318.15	.75	.02071	.000628	.000012
318.15	.75	.02297	.000629	.000012
318.15	.75	.02963	.000631	.000012
318.15	.75	.03192	.000632	.000012
288.15	1	.01496	.001191	.000012
288.15	1	.02177	.001195	.000012
288.15	1	.02431	.001196	.000012
288.15	1	.02756	.001199	.000012
288.15	1	.03013	.0012	.000012
288.15	1	.03573	.001204	.000012
298.15	1	.01496	.00093	.000012
298.15	1	.02177	.000933	.000012
298.15	1	.02431	.000934	.000012
298.15	1	.02756	.000936	.000012
298.15	1	.03013	.000938	.000012
298.15	1	.03573	.00094	.000012
308.15	1	.01496	.000755	.000012
308.15	1	.02177	.000758	.000012
308.15	1	.02431	.000758	.000012
308.15	1	.02756	.000759	.000012
308.15	1	.03013	.00076	.000012
308.15	1	.03573	.000763	.000012
318.15	1	.01496	.000632	.000012
318.15	1	.02177	.000634	.000012
318.15	1	.02431	.000635	.000012
318.15	1	.02756	.000636	.000012
318.15	1	.03013	.000637	.000012
318.15	1	.03573	.000639	.000012
288.15	0	0	.001138	.000012
298.15	0	0	.00089	.000012
308.15	0	0	.000719	.000012
318.15	0	0	.000596	.000012
288.15	.1	0	.001144	.000012
298.15	.1	0	.000896	.000012
308.15	.1	0	.000722	.000012
318.15	.1	0	.0006	.000012
288.15	.25	0	.001152	.000012
298.15	.25	0	.000901	.000012
308.15	.25	0	.000727	.000012
318.15	.25	0	.000604	.000012
288.15	.5	0	.001162	.000012
298.15	.5	0	.000908	.000012
308.15	.5	0	.000735	.000012
318.15	.5	0	.000613	.000012
288.15	.75	0	.001171	.000012
298.15	.75	0	.000915	.000012
308.15	.75	0	.000742	.000012
318.15	.75	0	.000621	.000012
288.15	1	0	.001182	.000012
298.15	1	0	.000923	.000012
308.15	1	0	.000748	.000012
318.15	1	0	.000626	.000012

System: guanidine hydrochloride + cytidine + water; phases: Liquid
Fixed: Pressure, kPa = 101.3
Property: Viscosity, Pa*s (Liquid); method: Capillary tube (Ostwald; Ubbelohde) method
Temperature, K	Solvent: Molality, mol/kg of guanidine hydrochloride	Molality, mol/kg of cytidine	Viscosity, Pa*s	uncertainty
288.15	0	.01033	.001143	.000012
288.15	0	.02126	.001148	.000012
288.15	0	.03122	.001153	.000012
288.15	0	.03827	.001157	.000012
288.15	0	.0418	.00116	.000012
288.15	0	.04358	.001161	.000012
298.15	0	.01033	.000895	.000012
298.15	0	.02126	.000899	.000012
298.15	0	.03122	.000903	.000012
298.15	0	.03827	.000906	.000012
298.15	0	.0418	.000907	.000012
298.15	0	.04358	.000909	.000012
308.15	0	.01033	.000723	.000012
308.15	0	.02126	.000727	.000012
308.15	0	.03122	.00073	.000012
308.15	0	.03827	.000733	.000012
308.15	0	.0418	.000734	.000012
308.15	0	.04358	.000735	.000012
318.15	0	.01033	.0006	.000012
318.15	0	.02126	.000603	.000012
318.15	0	.03122	.000606	.000012
318.15	0	.03827	.000608	.000012
318.15	0	.0418	.000609	.000012
318.15	0	.04358	.000609	.000012
288.15	.1	.01039	.001149	.000012
288.15	.1	.01818	.001154	.000012
288.15	.1	.02708	.001159	.000012
288.15	.1	.03039	.00116	.000012
288.15	.1	.03248	.001162	.000012
288.15	.1	.03838	.001164	.000012
298.15	.1	.01039	.0009	.000012
298.15	.1	.01818	.000904	.000012
298.15	.1	.02708	.000908	.000012
298.15	.1	.03039	.000909	.000012
298.15	.1	.03248	.00091	.000012
298.15	.1	.03838	.000912	.000012
308.15	.1	.01039	.000725	.000012
308.15	.1	.01818	.000729	.000012
308.15	.1	.02708	.000731	.000012
308.15	.1	.03039	.000733	.000012
308.15	.1	.03248	.000734	.000012
308.15	.1	.03838	.000736	.000012
318.15	.1	.01039	.000603	.000012
318.15	.1	.01818	.000606	.000012
318.15	.1	.02708	.000609	.000012
318.15	.1	.03039	.00061	.000012
318.15	.1	.03248	.000611	.000012
318.15	.1	.03838	.000612	.000012
288.15	.25	.01321	.001159	.000012
288.15	.25	.01977	.001163	.000012
288.15	.25	.02691	.001166	.000012
288.15	.25	.02825	.001167	.000012
288.15	.25	.02973	.001168	.000012
288.15	.25	.03298	.00117	.000012
298.15	.25	.01321	.000906	.000012
298.15	.25	.01977	.00091	.000012
298.15	.25	.02691	.000912	.000012
298.15	.25	.02825	.000913	.000012
298.15	.25	.02973	.000914	.000012
298.15	.25	.03298	.000915	.000012
308.15	.25	.01321	.000731	.000012
308.15	.25	.01977	.000734	.000012
308.15	.25	.02691	.000737	.000012
308.15	.25	.02825	.000737	.000012
308.15	.25	.02973	.000737	.000012
308.15	.25	.03298	.000739	.000012
318.15	.25	.01321	.000608	.000012
318.15	.25	.01977	.000611	.000012
318.15	.25	.02691	.000613	.000012
318.15	.25	.02825	.000613	.000012
318.15	.25	.02973	.000613	.000012
318.15	.25	.03298	.000615	.000012
288.15	.5	.01041	.001168	.000012
288.15	.5	.0183	.001172	.000012
288.15	.5	.01845	.001172	.000012
288.15	.5	.02313	.001175	.000012
288.15	.5	.02644	.001177	.000012
288.15	.5	.03095	.001179	.000012
298.15	.5	.01041	.000913	.000012
298.15	.5	.0183	.000916	.000012
298.15	.5	.01845	.000917	.000012
298.15	.5	.02313	.000919	.000012
298.15	.5	.02644	.00092	.000012
298.15	.5	.03095	.000922	.000012
308.15	.5	.01041	.000739	.000012
308.15	.5	.0183	.000742	.000012
308.15	.5	.01845	.000742	.000012
308.15	.5	.02313	.000744	.000012
308.15	.5	.02644	.000745	.000012
308.15	.5	.03095	.000747	.000012
318.15	.5	.01041	.000617	.000012
318.15	.5	.0183	.000619	.000012
318.15	.5	.01845	.000619	.000012
318.15	.5	.02313	.00062	.000012
318.15	.5	.02644	.000622	.000012
318.15	.5	.03095	.000623	.000012
288.15	.75	.00937	.001176	.000012
288.15	.75	.0146	.001179	.000012
288.15	.75	.01964	.001182	.000012
288.15	.75	.02336	.001185	.000012
288.15	.75	.02475	.001185	.000012
288.15	.75	.03084	.001189	.000012
298.15	.75	.00937	.000919	.000012
298.15	.75	.0146	.000921	.000012
298.15	.75	.01964	.000924	.000012
298.15	.75	.02336	.000926	.000012
298.15	.75	.02475	.000926	.000012
298.15	.75	.03084	.000929	.000012
308.15	.75	.00937	.000745	.000012
308.15	.75	.0146	.000747	.000012
308.15	.75	.01964	.000749	.000012
308.15	.75	.02336	.000751	.000012
308.15	.75	.02475	.000751	.000012
308.15	.75	.03084	.000753	.000012
318.15	.75	.00937	.000624	.000012
318.15	.75	.0146	.000626	.000012
318.15	.75	.01964	.000628	.000012
318.15	.75	.02336	.000629	.000012
318.15	.75	.02475	.000629	.000012
318.15	.75	.03084	.000631	.000012
288.15	1	.01041	.001187	.000012
288.15	1	.0157	.001191	.000012
288.15	1	.01829	.001193	.000012
288.15	1	.02203	.001195	.000012
288.15	1	.02519	.001197	.000012
288.15	1	.03022	.0012	.000012
298.15	1	.01041	.000927	.000012
298.15	1	.0157	.00093	.000012
298.15	1	.01829	.000931	.000012
298.15	1	.02203	.000933	.000012
298.15	1	.02519	.000935	.000012
298.15	1	.03022	.000937	.000012
308.15	1	.01041	.000753	.000012
308.15	1	.0157	.000755	.000012
308.15	1	.01829	.000756	.000012
308.15	1	.02203	.000757	.000012
308.15	1	.02519	.000758	.000012
308.15	1	.03022	.00076	.000012
318.15	1	.01041	.00063	.000012
318.15	1	.0157	.000632	.000012
318.15	1	.01829	.000632	.000012
318.15	1	.02203	.000634	.000012
318.15	1	.02519	.000635	.000012
318.15	1	.03022	.000637	.000012
288.15	0	0	.001138	.000012
298.15	0	0	.00089	.000012
308.15	0	0	.000719	.000012
318.15	0	0	.000596	.000012
288.15	.1	0	.001144	.000012
298.15	.1	0	.000896	.000012
308.15	.1	0	.000722	.000012
318.15	.1	0	.0006	.000012
288.15	.25	0	.001152	.000012
298.15	.25	0	.000901	.000012
308.15	.25	0	.000727	.000012
318.15	.25	0	.000604	.000012
288.15	.5	0	.001162	.000012
298.15	.5	0	.000908	.000012
308.15	.5	0	.000735	.000012
318.15	.5	0	.000613	.000012
288.15	.75	0	.001171	.000012
298.15	.75	0	.000915	.000012
308.15	.75	0	.000742	.000012
318.15	.75	0	.000621	.000012
288.15	1	0	.001182	.000012
298.15	1	0	.000923	.000012
308.15	1	0	.000748	.000012
318.15	1	0	.000626	.000012

System: guanidine hydrochloride + thymidine + water; phases: Liquid
Fixed: Pressure, kPa = 101.3
Property: Viscosity, Pa*s (Liquid); method: Capillary tube (Ostwald; Ubbelohde) method
Temperature, K	Solvent: Molality, mol/kg of guanidine hydrochloride	Molality, mol/kg of thymidine	Viscosity, Pa*s	uncertainty
288.15	0	.00501	.00114	.000012
288.15	0	.00882	.001143	.000012
288.15	0	.01258	.001144	.000012
288.15	0	.01711	.001147	.000012
288.15	0	.02522	.001151	.000012
288.15	0	.02652	.001151	.000012
298.15	0	.00501	.000893	.000012
298.15	0	.00882	.000894	.000012
298.15	0	.01258	.000895	.000012
298.15	0	.01711	.000897	.000012
298.15	0	.02522	.000899	.000012
298.15	0	.02652	.0009	.000012
308.15	0	.00501	.000721	.000012
308.15	0	.00882	.000722	.000012
308.15	0	.01258	.000723	.000012
308.15	0	.01711	.000724	.000012
308.15	0	.02522	.000726	.000012
308.15	0	.02652	.000727	.000012
318.15	0	.00501	.000598	.000012
318.15	0	.00882	.000598	.000012
318.15	0	.01258	.000599	.000012
318.15	0	.01711	.0006	.000012
318.15	0	.02522	.000602	.000012
318.15	0	.02652	.000602	.000012
288.15	.1	.00833	.001148	.000012
288.15	.1	.01471	.001151	.000012
288.15	.1	.01728	.001153	.000012
288.15	.1	.02218	.001156	.000012
288.15	.1	.02563	.001157	.000012
288.15	.1	.02897	.001158	.000012
298.15	.1	.00833	.000899	.000012
298.15	.1	.01471	.000901	.000012
298.15	.1	.01728	.000902	.000012
298.15	.1	.02218	.000905	.000012
298.15	.1	.02563	.000906	.000012
298.15	.1	.02897	.000907	.000012
308.15	.1	.00833	.000725	.000012
308.15	.1	.01471	.000726	.000012
308.15	.1	.01728	.000727	.000012
308.15	.1	.02218	.000728	.000012
308.15	.1	.02563	.000729	.000012
308.15	.1	.02897	.000731	.000012
318.15	.1	.00833	.000602	.000012
318.15	.1	.01471	.000604	.000012
318.15	.1	.01728	.000604	.000012
318.15	.1	.02218	.000606	.000012
318.15	.1	.02563	.000606	.000012
318.15	.1	.02897	.000607	.000012
288.15	.25	.01011	.001156	.000012
288.15	.25	.01371	.001159	.000012
288.15	.25	.01534	.00116	.000012
288.15	.25	.02382	.001164	.000012
288.15	.25	.02765	.001166	.000012
288.15	.25	.03046	.001168	.000012
298.15	.25	.01011	.000905	.000012
298.15	.25	.01371	.000906	.000012
298.15	.25	.01534	.000906	.000012
298.15	.25	.02382	.00091	.000012
298.15	.25	.02765	.000911	.000012
298.15	.25	.03046	.000912	.000012
308.15	.25	.01011	.00073	.000012
308.15	.25	.01371	.000731	.000012
308.15	.25	.01534	.000732	.000012
308.15	.25	.02382	.000734	.000012
308.15	.25	.02765	.000735	.000012
308.15	.25	.03046	.000736	.000012
318.15	.25	.01011	.000607	.000012
318.15	.25	.01371	.000608	.000012
318.15	.25	.01534	.000608	.000012
318.15	.25	.02382	.00061	.000012
318.15	.25	.02765	.000611	.000012
318.15	.25	.03046	.000611	.000012
288.15	.5	.00566	.001165	.000012
288.15	.5	.0133	.001169	.000012
288.15	.5	.01613	.00117	.000012
288.15	.5	.02205	.001174	.000012
288.15	.5	.02561	.001176	.000012
288.15	.5	.02772	.001177	.000012
298.15	.5	.00566	.000911	.000012
298.15	.5	.0133	.000913	.000012
298.15	.5	.01613	.000914	.000012
298.15	.5	.02205	.000917	.000012
298.15	.5	.02561	.000919	.000012
298.15	.5	.02772	.000919	.000012
308.15	.5	.00566	.000737	.000012
308.15	.5	.0133	.000739	.000012
308.15	.5	.01613	.00074	.000012
308.15	.5	.02205	.000742	.000012
308.15	.5	.02561	.000743	.000012
308.15	.5	.02772	.000744	.000012
318.15	.5	.00566	.000614	.000012
318.15	.5	.0133	.000616	.000012
318.15	.5	.01613	.000617	.000012
318.15	.5	.02205	.000619	.000012
318.15	.5	.02561	.00062	.000012
318.15	.5	.02772	.00062	.000012
288.15	.75	.00939	.001175	.000012
288.15	.75	.01453	.001178	.000012
288.15	.75	.01917	.001181	.000012
288.15	.75	.02237	.001183	.000012
288.15	.75	.02334	.001184	.000012
288.15	.75	.02549	.001185	.000012
298.15	.75	.00939	.000919	.000012
298.15	.75	.01453	.000921	.000012
298.15	.75	.01917	.000923	.000012
298.15	.75	.02237	.000924	.000012
298.15	.75	.02334	.000924	.000012
298.15	.75	.02549	.000925	.000012
308.15	.75	.00939	.000745	.000012
308.15	.75	.01453	.000746	.000012
308.15	.75	.01917	.000748	.000012
308.15	.75	.02237	.000749	.000012
308.15	.75	.02334	.000749	.000012
308.15	.75	.02549	.00075	.000012
318.15	.75	.00939	.000623	.000012
318.15	.75	.01453	.000624	.000012
318.15	.75	.01917	.000626	.000012
318.15	.75	.02237	.000627	.000012
318.15	.75	.02334	.000627	.000012
318.15	.75	.02549	.000627	.000012
288.15	1	.00451	.001185	.000012
288.15	1	.00982	.001187	.000012
288.15	1	.01364	.00119	.000012
288.15	1	.01853	.001192	.000012
288.15	1	.02256	.001194	.000012
288.15	1	.0299	.001198	.000012
298.15	1	.00451	.000925	.000012
298.15	1	.00982	.000927	.000012
298.15	1	.01364	.000929	.000012
298.15	1	.01853	.00093	.000012
298.15	1	.02256	.000932	.000012
298.15	1	.0299	.000935	.000012
308.15	1	.00451	.000751	.000012
308.15	1	.00982	.000752	.000012
308.15	1	.01364	.000753	.000012
308.15	1	.01853	.000755	.000012
308.15	1	.02256	.000756	.000012
308.15	1	.0299	.000758	.000012
318.15	1	.00451	.000627	.000012
318.15	1	.00982	.000629	.000012
318.15	1	.01364	.00063	.000012
318.15	1	.01853	.000631	.000012
318.15	1	.02256	.000632	.000012
318.15	1	.0299	.000634	.000012
288.15	0	0	.001138	.000012
298.15	0	0	.00089	.000012
308.15	0	0	.000719	.000012
318.15	0	0	.000596	.000012
288.15	.1	0	.001144	.000012
298.15	.1	0	.000896	.000012
308.15	.1	0	.000722	.000012
318.15	.1	0	.0006	.000012
288.15	.25	0	.001152	.000012
298.15	.25	0	.000901	.000012
308.15	.25	0	.000727	.000012
318.15	.25	0	.000604	.000012
288.15	.5	0	.001162	.000012
298.15	.5	0	.000908	.000012
308.15	.5	0	.000735	.000012
318.15	.5	0	.000613	.000012
288.15	.75	0	.001171	.000012
298.15	.75	0	.000915	.000012
308.15	.75	0	.000742	.000012
318.15	.75	0	.000621	.000012
288.15	1	0	.001182	.000012
298.15	1	0	.000923	.000012
308.15	1	0	.000748	.000012
318.15	1	0	.000626	.000012

System: uracil + water; phases: Liquid
Fixed: Pressure, kPa = 101.3
Property: Molar enthalpy of dilution, kJ/mol (Liquid); method: Calvet calorimetry
Temperature, K	Initial molality of solute, mol/kg	Final molality of solute, mol/kg	Molar enthalpy of dilution, kJ/mol	uncertainty
288.15	.02	.0001958	.09	2
298.15	.02	.0001958	.075	2
308.15	.02	.0001958	.059	2
318.15	.02	.0001958	.03	2

System: uracil + water; phases: Liquid
Property: Viscosity, Pa*s (Liquid); method: Capillary tube (Ostwald; Ubbelohde) method
Temperature, K	Molality, mol/kg of uracil	Pressure, kPa	Viscosity, Pa*s	uncertainty
288.15	.00913	101.3	.00114	.000012
288.15	.01445	101.3	.001142	.000012
288.15	.01827	101.3	.001143	.000012
288.15	.02396	101.3	.001144	.000012
288.15	.02452	101.3	.001144	.000012
288.15	.02632	101.3	.001145	.000012
298.15	.00913	101.3	.000892	.000012
298.15	.01445	101.3	.000894	.000012
298.15	.01827	101.3	.000895	.000012
298.15	.02396	101.3	.000896	.000012
298.15	.02452	101.3	.000896	.000012
298.15	.02632	101.3	.000897	.000012
308.15	.00913	101.3	.000721	.000012
308.15	.01445	101.3	.000723	.000012
308.15	.01827	101.3	.000723	.000012
308.15	.02396	101.3	.000724	.000012
308.15	.02452	101.3	.000725	.000012
308.15	.02632	101.3	.000725	.000012
318.15	.00913	101.3	.000598	.000012
318.15	.01445	101.3	.000599	.000012
318.15	.01827	101.3	.0006	.000012
318.15	.02396	101.3	.000601	.000012
318.15	.02452	101.3	.000601	.000012
318.15	.02632	101.3	.000601	.000012

System: guanidine hydrochloride + water; phases: Liquid
Property: Viscosity, Pa*s (Liquid); method: Capillary tube (Ostwald; Ubbelohde) method
Temperature, K	Molality, mol/kg of guanidine hydrochloride	Pressure, kPa	Viscosity, Pa*s	uncertainty
288.15	.1	101.3	.001144	.000012
298.15	.1	101.3	.000896	.000012
308.15	.1	101.3	.000722	.000012
318.15	.1	101.3	.0006	.000012
288.15	.25	101.3	.001152	.000012
298.15	.25	101.3	.000901	.000012
308.15	.25	101.3	.000727	.000012
318.15	.25	101.3	.000604	.000012
288.15	.5	101.3	.001162	.000012
298.15	.5	101.3	.000908	.000012
308.15	.5	101.3	.000735	.000012
318.15	.5	101.3	.000613	.000012
288.15	.75	101.3	.001171	.000012
298.15	.75	101.3	.000915	.000012
308.15	.75	101.3	.000742	.000012
318.15	.75	101.3	.000621	.000012
288.15	1	101.3	.001182	.000012
298.15	1	101.3	.000923	.000012
308.15	1	101.3	.000748	.000012
318.15	1	101.3	.000626	.000012

System: cytosine + water; phases: Liquid
Fixed: Pressure, kPa = 101.3
Property: Molar enthalpy of dilution, kJ/mol (Liquid); method: Calvet calorimetry
Temperature, K	Initial molality of solute, mol/kg	Final molality of solute, mol/kg	Molar enthalpy of dilution, kJ/mol	uncertainty
288.15	.02	.0001958	.16	2
298.16	.02	.0001958	.123	2
308.15	.02	.0001958	.108	2
318.15	.02	.0001958	.098	2

System: cytosine + water; phases: Liquid
Property: Viscosity, Pa*s (Liquid); method: Capillary tube (Ostwald; Ubbelohde) method
Temperature, K	Molality, mol/kg of cytosine	Pressure, kPa	Viscosity, Pa*s	uncertainty
288.15	.00727	101.3	.00114	.000012
288.15	.01052	101.3	.001141	.000012
288.15	.01567	101.3	.001142	.000012
288.15	.02538	101.3	.001144	.000012
288.15	.02715	101.3	.001145	.000012
288.15	.03105	101.3	.001145	.000012
298.15	.00727	101.3	.000892	.000012
298.15	.01052	101.3	.000893	.000012
298.15	.01567	101.3	.000894	.000012
298.15	.02538	101.3	.000895	.000012
298.15	.02715	101.3	.000896	.000012
298.15	.03105	101.3	.000897	.000012
308.15	.00727	101.3	.000721	.000012
308.15	.01052	101.3	.000722	.000012
308.15	.01567	101.3	.000722	.000012
308.15	.02538	101.3	.000724	.000012
308.15	.02715	101.3	.000724	.000012
308.15	.03105	101.3	.000725	.000012
318.15	.00727	101.3	.000598	.000012
318.15	.01052	101.3	.000598	.000012
318.15	.01567	101.3	.000599	.000012
318.15	.02538	101.3	.000601	.000012
318.15	.02715	101.3	.000601	.000012
318.15	.03105	101.3	.000602	.000012

System: thymine + water; phases: Liquid
Fixed: Pressure, kPa = 101.3
Property: Molar enthalpy of dilution, kJ/mol (Liquid); method: Calvet calorimetry
Temperature, K	Initial molality of solute, mol/kg	Final molality of solute, mol/kg	Molar enthalpy of dilution, kJ/mol	uncertainty
288.15	.02	.0001958	.222	2
298.15	.02	.0001958	.21	2
308.15	.02	.0001958	.176	2
318.15	.02	.0001958	.169	2

System: thymine + water; phases: Liquid
Property: Viscosity, Pa*s (Liquid); method: Capillary tube (Ostwald; Ubbelohde) method
Temperature, K	Molality, mol/kg of thymine	Pressure, kPa	Viscosity, Pa*s	uncertainty
288.15	.0091	101.3	.001141	.000012
288.15	.01477	101.3	.001143	.000012
288.15	.01854	101.3	.001145	.000012
288.15	.02062	101.3	.001146	.000012
288.15	.02329	101.3	.001147	.000012
288.15	.02672	101.3	.001148	.000012
298.15	.0091	101.3	.000893	.000012
298.15	.01477	101.3	.000895	.000012
298.15	.01854	101.3	.000896	.000012
298.15	.02062	101.3	.000896	.000012
298.15	.02329	101.3	.000897	.000012
298.15	.02672	101.3	.000898	.000012
308.15	.0091	101.3	.000722	.000012
308.15	.01477	101.3	.000723	.000012
308.15	.01854	101.3	.000724	.000012
308.15	.02062	101.3	.000724	.000012
308.15	.02329	101.3	.000725	.000012
308.15	.02672	101.3	.000726	.000012
318.15	.0091	101.3	.000598	.000012
318.15	.01477	101.3	.0006	.000012
318.15	.01854	101.3	.0006	.000012
318.15	.02062	101.3	.000601	.000012
318.15	.02329	101.3	.000601	.000012
318.15	.02672	101.3	.000602	.000012

System: uridine + water; phases: Liquid
Fixed: Pressure, kPa = 101.3
Property: Molar enthalpy of dilution, kJ/mol (Liquid); method: Calvet calorimetry
Temperature, K	Initial molality of solute, mol/kg	Final molality of solute, mol/kg	Molar enthalpy of dilution, kJ/mol	uncertainty
288.15	.04	.0003916	.212	2
298.15	.04	.0003916	.204	2
308.15	.04	.0003916	.193	2
318.15	.04	.0003916	.183	2

System: uridine + water; phases: Liquid
Property: Viscosity, Pa*s (Liquid); method: Capillary tube (Ostwald; Ubbelohde) method
Temperature, K	Molality, mol/kg of uridine	Pressure, kPa	Viscosity, Pa*s	uncertainty
288.15	.01025	101.3	.001143	.000012
288.15	.0142	101.3	.001146	.000012
288.15	.01766	101.3	.001148	.000012
288.15	.02196	101.3	.00115	.000012
288.15	.02819	101.3	.001153	.000012
288.15	.03105	101.3	.001155	.000012
298.15	.01025	101.3	.000895	.000012
298.15	.0142	101.3	.000897	.000012
298.15	.01766	101.3	.000898	.000012
298.15	.02196	101.3	.0009	.000012
298.15	.02819	101.3	.000902	.000012
298.15	.03105	101.3	.000904	.000012
308.15	.01025	101.3	.000723	.000012
308.15	.0142	101.3	.000724	.000012
308.15	.01766	101.3	.000726	.000012
308.15	.02196	101.3	.000727	.000012
308.15	.02819	101.3	.000729	.000012
308.15	.03105	101.3	.000731	.000012
318.15	.01025	101.3	.000599	.000012
318.15	.0142	101.3	.000601	.000012
318.15	.01766	101.3	.000602	.000012
318.15	.02196	101.3	.000603	.000012
318.15	.02819	101.3	.000605	.000012
318.15	.03105	101.3	.000606	.000012

System: cytidine + water; phases: Liquid
Fixed: Pressure, kPa = 101.3
Property: Molar enthalpy of dilution, kJ/mol (Liquid); method: Calvet calorimetry
Temperature, K	Initial molality of solute, mol/kg	Final molality of solute, mol/kg	Molar enthalpy of dilution, kJ/mol	uncertainty
288.15	.04	.0003916	.36	2
298.15	.04	.0003916	.353	2
308.15	.04	.0003916	.324	2
318.15	.04	.0003916	.3	2

System: cytidine + water; phases: Liquid
Property: Viscosity, Pa*s (Liquid); method: Capillary tube (Ostwald; Ubbelohde) method
Temperature, K	Molality, mol/kg of cytidine	Pressure, kPa	Viscosity, Pa*s	uncertainty
288.15	.01033	101.3	.001143	.000012
288.15	.02126	101.3	.001148	.000012
288.15	.03122	101.3	.001153	.000012
288.15	.03827	101.3	.001157	.000012
288.15	.0418	101.3	.00116	.000012
288.15	.04358	101.3	.001161	.000012
298.15	.01033	101.3	.000895	.000012
298.15	.02126	101.3	.000899	.000012
298.15	.03122	101.3	.000903	.000012
298.15	.03827	101.3	.000906	.000012
298.15	.0418	101.3	.000907	.000012
298.15	.04358	101.3	.000909	.000012
308.15	.01033	101.3	.000723	.000012
308.15	.02126	101.3	.000727	.000012
308.15	.03122	101.3	.00073	.000012
308.15	.03827	101.3	.000733	.000012
308.15	.0418	101.3	.000734	.000012
308.15	.04358	101.3	.000735	.000012
318.15	.01033	101.3	.0006	.000012
318.15	.02126	101.3	.000603	.000012
318.15	.03122	101.3	.000606	.000012
318.15	.03827	101.3	.000608	.000012
318.15	.0418	101.3	.000609	.000012
318.15	.04358	101.3	.000609	.000012

System: thymidine + water; phases: Liquid
Fixed: Pressure, kPa = 101.3
Property: Molar enthalpy of dilution, kJ/mol (Liquid); method: Calvet calorimetry
Temperature, K	Initial molality of solute, mol/kg	Final molality of solute, mol/kg	Molar enthalpy of dilution, kJ/mol	uncertainty
288.15	.04	.0003916	.332	2
298.15	.04	.0003916	.295	2
308.15	.04	.0003916	.261	2
318.15	.04	.0003916	.255	2

System: thymidine + water; phases: Liquid
Property: Viscosity, Pa*s (Liquid); method: Capillary tube (Ostwald; Ubbelohde) method
Temperature, K	Molality, mol/kg of thymidine	Pressure, kPa	Viscosity, Pa*s	uncertainty
288.15	.00501	101.3	.00114	.000012
288.15	.00882	101.3	.001143	.000012
288.15	.01258	101.3	.001144	.000012
288.15	.01711	101.3	.001147	.000012
288.15	.02522	101.3	.001151	.000012
288.15	.02652	101.3	.001151	.000012
298.15	.00501	101.3	.000893	.000012
298.15	.00882	101.3	.000894	.000012
298.15	.01258	101.3	.000895	.000012
298.15	.01711	101.3	.000897	.000012
298.15	.02522	101.3	.000899	.000012
298.15	.02652	101.3	.0009	.000012
308.15	.00501	101.3	.000721	.000012
308.15	.00882	101.3	.000722	.000012
308.15	.01258	101.3	.000723	.000012
308.15	.01711	101.3	.000724	.000012
308.15	.02522	101.3	.000726	.000012
308.15	.02652	101.3	.000727	.000012
318.15	.00501	101.3	.000598	.000012
318.15	.00882	101.3	.000598	.000012
318.15	.01258	101.3	.000599	.000012
318.15	.01711	101.3	.0006	.000012
318.15	.02522	101.3	.000602	.000012
318.15	.02652	101.3	.000602	.000012
