Measured thermophysical data. Calorimetric studies and thermodynamic properties of liquid Ag-Ca alloys
Source: J. Chem. Thermodyn., 2014, 10.1016/j.jct.2014.05.021
Compound 1: silver, Ag, purity 99.9%
Compound 2: calcium, Ca, purity 99.5%

System: silver + calcium; phases: Liquid
Fixed: Pressure, kPa = 101
Property: Excess molar enthalpy (molar enthalpy of mixing), kJ/mol (Liquid); method: Calvet calorimetry
Temperature, K	Mole fraction of calcium	Excess molar enthalpy (molar enthalpy of mixing), kJ/mol	uncertainty
1254	.249	-19.62	1
1254	.4634	-24.609	1
1254	.5562	-23.497	1
1254	.6313	-20.931	1
1254	.6768	-19.661	1
1254	.7157	-17.908	1
1254	.9396	-4.025	1
1254	.8259	-10.821	1
1254	.7353	-15.745	1
1254	.6306	-20.054	1
1254	.5477	-22.184	1
1254	.4708	-22.754	1
1254	.3962	-22.105	1
1254	.3416	-20.723	1
1254	.2999	-19.024	1
1254	.2673	-17.432	1
1254	.2393	-15.782	1
1254	.0642	-5.522	1
1254	.1123	-9.541	1
1254	.1288	-10.863	1
1254	.2073	-13.598	1
1254	.5175	-24.219	1
1254	.4438	-24.367	1
1254	.3685	-23.154	1
1254	.3115	-21.26	1
1254	.2711	-19.491	1
1254	.2405	-17.799	1
1254	.2145	-16.182	1
1254	.1893	-14.356	1
1254	.1699	-12.9	1
1254	.1487	-11.13	1
1254	.1327	-9.717	1
1254	.1203	-8.543	1
1254	.1103	-7.643	1
1254	.0984	-7.126	1
1254	.1897	-13.838	1
1131	.9626	-2.246	1
1131	.9156	-4.982	1
1131	.8703	-7.675	1
1131	.8188	-10.841	1
1131	.7564	-14.127	1
1131	.9647	-2.077	1
1131	.9224	-4.593	1
1131	.8808	-6.941	1
