Measured thermophysical data. Dielectric data of binary mixtures of 1,2-butanediol with 2-ethyl-1-hexanol and 1,4-dioxane at T = (298.2, 308.2, and 318.2) K
Source: J. Chem. Thermodyn., 2012, 10.1016/j.jct.2011.07.021
Compound 1: 1-hexanol, 2-ethyl-, C8H18O, purity 99.5%
Compound 2: DL-1,2-butanediol, C4H10O2, purity 98%
Compound 3: 1,4-dioxane, C4H8O2, purity 99.5%

System: 1-hexanol, 2-ethyl-; phases: Liquid
Fixed: Pressure, kPa = 101.325
Property: Relative permittivity at zero frequency (Liquid); method: Parallel plate capacitor
Temperature, K	Relative permittivity at zero frequency	uncertainty
298.2	7.353	.005
308.2	6.361	.005
318.2	5.522	.005

System: 1-hexanol, 2-ethyl-; phases: Liquid
Fixed: Pressure, kPa = 101.325
Property: Refractive index (Na D-line) (Liquid); method: Standard Abbe refractometry
Temperature, K	Refractive index (Na D-line)	uncertainty
298.2	1.4293	.0001
308.2	1.4252	.0001
318.2	1.4213	.0001

System: 1-hexanol, 2-ethyl-; phases: Liquid
Fixed: Pressure, kPa = 101.325
Property: Mass density, kg/m3 (Liquid); method: Vibrating tube method
Temperature, K	Mass density, kg/m3	uncertainty
298.2	830.62	.05
308.2	823.1	.05
318.2	814.91	.05

System: DL-1,2-butanediol; phases: Liquid
Fixed: Pressure, kPa = 101.325
Property: Relative permittivity at zero frequency (Liquid); method: Parallel plate capacitor
Temperature, K	Relative permittivity at zero frequency	uncertainty
298.2	22.143	.005
308.2	20.365	.005
318.2	18.661	.005

System: DL-1,2-butanediol; phases: Liquid
Fixed: Pressure, kPa = 101.325
Property: Refractive index (Na D-line) (Liquid); method: Standard Abbe refractometry
Temperature, K	Refractive index (Na D-line)	uncertainty
298.2	1.4372	.0001
308.2	1.433	.0001
318.2	1.4288	.0001

System: DL-1,2-butanediol; phases: Liquid
Fixed: Pressure, kPa = 101.325
Property: Mass density, kg/m3 (Liquid); method: Vibrating tube method
Temperature, K	Mass density, kg/m3	uncertainty
298.2	998.67	.05
308.2	991.15	.05
318.2	983.55	.05

System: 1,4-dioxane; phases: Liquid
Fixed: Pressure, kPa = 101.325
Property: Relative permittivity at zero frequency (Liquid); method: Parallel plate capacitor
Temperature, K	Relative permittivity at zero frequency	uncertainty
298.2	2.228	.005
308.2	2.21	.005
318.2	2.187	.005

System: 1,4-dioxane; phases: Liquid
Fixed: Pressure, kPa = 101.325
Property: Refractive index (Na D-line) (Liquid); method: Standard Abbe refractometry
Temperature, K	Refractive index (Na D-line)	uncertainty
298.2	1.4201	.0001
308.2	1.4142	.0001
318.2	1.4084	.0001

System: 1,4-dioxane; phases: Liquid
Fixed: Pressure, kPa = 101.325
Property: Mass density, kg/m3 (Liquid); method: Vibrating tube method
Temperature, K	Mass density, kg/m3	uncertainty
298.2	1027.9	.05
308.2	1016.11	.05
318.2	1005	.05

System: 1,4-dioxane + DL-1,2-butanediol; phases: Liquid
Fixed: Pressure, kPa = 101
Property: Relative permittivity at zero frequency (Liquid); method: Parallel plate capacitor
Temperature, K	Mole fraction of DL-1,2-butanediol	Relative permittivity at zero frequency	uncertainty
298.2	0	2.228	.005
298.2	.099	3.127	.005
298.2	.148	3.659	.005
298.2	.197	4.254	.005
298.2	.246	4.882	.005
298.2	.299	5.685	.005
298.2	.349	6.472	.005
298.2	.401	7.376	.005
298.2	.448	8.243	.005
298.2	.51	9.466	.005
298.2	.55	10.263	.005
298.2	.611	11.646	.005
298.2	.685	13.401	.005
298.2	.788	16.007	.005
298.2	.855	17.761	.005
298.2	.907	19.272	.005
298.2	.96	20.867	.005
298.2	1	22.143	.005
308.2	0	2.209	.005
308.2	.099	3.015	.005
308.2	.148	3.496	.005
308.2	.197	4.064	.005
308.2	.246	4.632	.005
308.2	.299	5.407	.005
308.2	.349	6.079	.005
308.2	.401	6.854	.005
308.2	.448	7.732	.005
308.2	.51	8.817	.005
308.2	.55	9.592	.005
308.2	.611	10.84	.005
308.2	.685	12.41	.005
308.2	.788	14.739	.005
308.2	.855	16.335	.005
308.2	.907	17.748	.005
308.2	.96	19.214	.005
308.2	1	20.365	.005
318.2	0	2.187	.005
318.2	.099	2.92	.005
318.2	.148	3.359	.005
318.2	.197	3.875	.005
318.2	.246	4.406	.005
318.2	.299	5.046	.005
318.2	.349	5.696	.005
318.2	.401	6.419	.005
318.2	.448	7.193	.005
318.2	.51	8.122	.005
318.2	.55	8.783	.005
318.2	.611	9.908	.005
318.2	.685	11.301	.005
318.2	.788	13.469	.005
318.2	.855	15.027	.005
318.2	.907	16.307	.005
318.2	.96	17.628	.005
318.2	1	18.661	.005

System: 1,4-dioxane + DL-1,2-butanediol; phases: Liquid
Fixed: Pressure, kPa = 101
Property: Refractive index (Na D-line) (Liquid); method: Standard Abbe refractometry
Temperature, K	Mole fraction of DL-1,2-butanediol	Refractive index (Na D-line)	uncertainty
298.2	0	1.4201	.0001
298.2	.099	1.4212	.0001
298.2	.148	1.4221	.0001
298.2	.197	1.4227	.0001
298.2	.246	1.4236	.0001
298.2	.299	1.4242	.0001
298.2	.349	1.4253	.0001
298.2	.401	1.4259	.0001
298.2	.448	1.4268	.0001
298.2	.51	1.428	.0001
298.2	.55	1.4287	.0001
298.2	.611	1.4297	.0001
298.2	.685	1.4311	.0001
298.2	.788	1.433	.0001
298.2	.855	1.4341	.0001
298.2	.907	1.4353	.0001
298.2	.96	1.436	.0001
298.2	1	1.4372	.0001
308.2	0	1.4142	.0001
308.2	.099	1.416	.0001
308.2	.148	1.4166	.0001
308.2	.197	1.4173	.0001
308.2	.246	1.4182	.0001
308.2	.299	1.4189	.0001
308.2	.349	1.42	.0001
308.2	.401	1.4208	.0001
308.2	.448	1.4218	.0001
308.2	.51	1.4231	.0001
308.2	.55	1.4237	.0001
308.2	.611	1.4248	.0001
308.2	.685	1.4263	.0001
308.2	.788	1.4285	.0001
308.2	.855	1.4295	.0001
308.2	.907	1.4307	.0001
308.2	.96	1.432	.0001
308.2	1	1.433	.0001
318.2	0	1.4084	.0001
318.2	.099	1.4103	.0001
318.2	.148	1.4115	.0001
318.2	.197	1.4124	.0001
318.2	.246	1.4133	.0001
318.2	.299	1.4142	.0001
318.2	.349	1.415	.0001
318.2	.401	1.4162	.0001
318.2	.448	1.4168	.0001
318.2	.51	1.4177	.0001
318.2	.55	1.4191	.0001
318.2	.611	1.4203	.0001
318.2	.685	1.4218	.0001
318.2	.788	1.4236	.0001
318.2	.855	1.4253	.0001
318.2	.907	1.4265	.0001
318.2	.96	1.4278	.0001
318.2	1	1.4288	.0001

System: 1-hexanol, 2-ethyl- + DL-1,2-butanediol; phases: Liquid
Fixed: Pressure, kPa = 101
Property: Relative permittivity at zero frequency (Liquid); method: Parallel plate capacitor
Temperature, K	Mole fraction of DL-1,2-butanediol	Relative permittivity at zero frequency	uncertainty
298.2	0	7.353	.005
298.2	.111	7.683	.005
298.2	.199	8.152	.005
298.2	.291	8.91	.005
298.2	.345	9.464	.005
298.2	.399	10.065	.005
298.2	.448	10.678	.005
298.2	.501	11.404	.005
298.2	.563	12.382	.005
298.2	.625	13.435	.005
298.2	.667	14.198	.005
298.2	.702	14.955	.005
298.2	.75	15.885	.005
298.2	.814	17.454	.005
298.2	.897	19.447	.005
298.2	1	22.143	.005
308.2	0	6.362	.005
308.2	.111	6.922	.005
308.2	.199	7.52	.005
308.2	.291	8.32	.005
308.2	.345	8.8	.005
308.2	.399	9.44	.005
308.2	.448	9.995	.005
308.2	.501	10.69	.005
308.2	.563	11.556	.005
308.2	.625	12.625	.005
308.2	.667	13.357	.005
308.2	.702	14.023	.005
308.2	.75	15.005	.005
308.2	.814	16.338	.005
308.2	.897	18.115	.005
308.2	1	20.365	.005
318.2	0	5.52	.005
318.2	.111	6.232	.005
318.2	.199	6.851	.005
318.2	.291	7.636	.005
318.2	.345	8.14	.005
318.2	.399	8.701	.005
318.2	.448	9.312	.005
318.2	.501	9.954	.005
318.2	.563	10.873	.005
318.2	.625	11.819	.005
318.2	.667	12.559	.005
318.2	.702	13.21	.005
318.2	.75	14.022	.005
318.2	.814	15.347	.005
318.2	.897	16.989	.005
318.2	1	18.661	.005

System: 1-hexanol, 2-ethyl- + DL-1,2-butanediol; phases: Liquid
Fixed: Pressure, kPa = 101
Property: Refractive index (Na D-line) (Liquid); method: Standard Abbe refractometry
Temperature, K	Mole fraction of DL-1,2-butanediol	Refractive index (Na D-line)	uncertainty
298.2	0	1.4293	.0001
298.2	.111	1.4295	.0001
298.2	.199	1.4295	.0001
298.2	.291	1.4299	.0001
298.2	.345	1.4301	.0001
298.2	.399	1.4303	.0001
298.2	.448	1.4307	.0001
298.2	.501	1.431	.0001
298.2	.563	1.4313	.0001
298.2	.625	1.432	.0001
298.2	.667	1.4323	.0001
298.2	.702	1.4327	.0001
298.2	.75	1.4335	.0001
298.2	.814	1.4342	.0001
298.2	.897	1.4354	.0001
298.2	1	1.4372	.0001
308.2	0	1.4252	.0001
308.2	.111	1.4254	.0001
308.2	.199	1.4257	.0001
308.2	.291	1.4259	.0001
308.2	.345	1.4261	.0001
308.2	.399	1.4265	.0001
308.2	.448	1.4269	.0001
308.2	.501	1.4272	.0001
308.2	.563	1.4275	.0001
308.2	.625	1.4281	.0001
308.2	.667	1.4284	.0001
308.2	.702	1.4289	.0001
308.2	.75	1.4295	.0001
308.2	.814	1.4303	.0001
308.2	.897	1.4314	.0001
308.2	1	1.4312	.0001
318.2	0	1.4213	.0001
318.2	.111	1.4215	.0001
318.2	.199	1.4219	.0001
318.2	.291	1.4222	.0001
318.2	.345	1.4225	.0001
318.2	.399	1.4228	.0001
318.2	.448	1.423	.0001
318.2	.501	1.4234	.0001
318.2	.563	1.4237	.0001
318.2	.625	1.4241	.0001
318.2	.667	1.4245	.0001
318.2	.702	1.4249	.0001
318.2	.75	1.4253	.0001
318.2	.814	1.4259	.0001
318.2	.897	1.427	.0001
318.2	1	1.4281	.0001
