Measured thermophysical data. Excess molar enthalpies of the binary systems: (Dibutyl ether + isomers of pentanol) at T = (298.15 and 308.15) K
Source: J. Chem. Thermodyn., 2015, 10.1016/j.jct.2015.03.021
Compound 1: 1-pentanol, C5H12O, purity 99%
Compound 2: 2-pentanol, C5H12O, purity 98%
Compound 3: 3-pentanol, C5H12O, purity 98%
Compound 4: 3-methyl-2-butanol, C5H12O, purity 98%
Compound 5: 2-methyl-1-butanol, C5H12O, purity 99%
Compound 6: 3-methyl-1-butanol, C5H12O, purity 99%
Compound 7: 2-methyl-2-butanol, C5H12O, purity 98%
Compound 8: dibutyl ether, C8H18O, purity 99.5%

System: 1-pentanol; phases: Liquid
Fixed: Pressure, kPa = 101.325
Property: Mass density, kg/m3 (Liquid); method: Vibrating tube method
Temperature, K	Mass density, kg/m3	uncertainty
298.15	810.89	
308.15	803.7	

System: 1-pentanol; phases: Liquid
Fixed: Frequency, MHz = 1
Property: Relative permittivity at various frequencies (Liquid); method: Parallel plate capacitor
Pressure, kPa	Temperature, K	Relative permittivity at various frequencies	uncertainty
100	298.15	15	.01
100	308.15	13.51	.01

System: 2-pentanol; phases: Liquid
Fixed: Pressure, kPa = 101.325
Property: Mass density, kg/m3 (Liquid); method: Vibrating tube method
Temperature, K	Mass density, kg/m3	uncertainty
298.15	806.11	
308.15	798	

System: 2-pentanol; phases: Liquid
Fixed: Frequency, MHz = 1
Property: Relative permittivity at various frequencies (Liquid); method: Parallel plate capacitor
Pressure, kPa	Temperature, K	Relative permittivity at various frequencies	uncertainty
100	298.15	13.54	.01
100	308.15	12.08	.01

System: 3-pentanol; phases: Liquid
Fixed: Pressure, kPa = 101.325
Property: Mass density, kg/m3 (Liquid); method: Vibrating tube method
Temperature, K	Mass density, kg/m3	uncertainty
298.15	815.62	
308.15	806.9	

System: 3-pentanol; phases: Liquid
Fixed: Frequency, MHz = 1
Property: Relative permittivity at various frequencies (Liquid); method: Parallel plate capacitor
Pressure, kPa	Temperature, K	Relative permittivity at various frequencies	uncertainty
100	298.15	13.21	.01
100	308.15	11.39	.01

System: 3-methyl-2-butanol; phases: Liquid
Fixed: Pressure, kPa = 101.325
Property: Mass density, kg/m3 (Liquid); method: Vibrating tube method
Temperature, K	Mass density, kg/m3	uncertainty
298.15	813.09	
308.15	804.35	

System: 3-methyl-2-butanol; phases: Liquid
Fixed: Frequency, MHz = 1
Property: Relative permittivity at various frequencies (Liquid); method: Parallel plate capacitor
Pressure, kPa	Temperature, K	Relative permittivity at various frequencies	uncertainty
100	298.15	11.98	.01
100	308.15	10.78	.01

System: 2-methyl-1-butanol; phases: Liquid
Fixed: Pressure, kPa = 101.325
Property: Mass density, kg/m3 (Liquid); method: Vibrating tube method
Temperature, K	Mass density, kg/m3	uncertainty
298.15	814.98	
308.15	807.63	

System: 2-methyl-1-butanol; phases: Liquid
Fixed: Frequency, MHz = 1
Property: Relative permittivity at various frequencies (Liquid); method: Parallel plate capacitor
Pressure, kPa	Temperature, K	Relative permittivity at various frequencies	uncertainty
100	298.15	15.52	.01
100	308.15	14.07	.01

System: 3-methyl-1-butanol; phases: Liquid
Fixed: Pressure, kPa = 101.325
Property: Mass density, kg/m3 (Liquid); method: Vibrating tube method
Temperature, K	Mass density, kg/m3	uncertainty
298.15	804.24	
308.15	796.95	

System: 3-methyl-1-butanol; phases: Liquid
Fixed: Frequency, MHz = 1
Property: Relative permittivity at various frequencies (Liquid); method: Parallel plate capacitor
Pressure, kPa	Temperature, K	Relative permittivity at various frequencies	uncertainty
100	298.15	15.09	.01
100	308.15	13.73	.01

System: 2-methyl-2-butanol; phases: Liquid
Fixed: Pressure, kPa = 101.325
Property: Mass density, kg/m3 (Liquid); method: Vibrating tube method
Temperature, K	Mass density, kg/m3	uncertainty
298.15	804.31	
308.15	795.16	

System: 2-methyl-2-butanol; phases: Liquid
Fixed: Frequency, MHz = 1
Property: Relative permittivity at various frequencies (Liquid); method: Parallel plate capacitor
Pressure, kPa	Temperature, K	Relative permittivity at various frequencies	uncertainty
100	298.15	5.63	.01
100	308.15	5.23	.01

System: dibutyl ether; phases: Liquid
Fixed: Pressure, kPa = 101.325
Property: Mass density, kg/m3 (Liquid); method: Vibrating tube method
Temperature, K	Mass density, kg/m3	uncertainty
298.15	764.11	
308.15	755.91	

System: 1-pentanol + dibutyl ether; phases: Liquid
Fixed: Pressure, kPa = 100
Property: Excess molar enthalpy (molar enthalpy of mixing), kJ/mol (Liquid); method: Calvet calorimetry
Temperature, K	Mole fraction of dibutyl ether	Excess molar enthalpy (molar enthalpy of mixing), kJ/mol	uncertainty
298.15	.0625	.142	.00142
298.15	.1224	.273	.00273
298.15	.1662	.365	.00365
298.15	.2329	.474	.00474
298.15	.2901	.594	.00594
298.15	.3528	.682	.00682
298.15	.4129	.75	.0075
298.15	.4763	.815	.00815
298.15	.5409	.858	.00858
298.15	.6036	.87	.0087
298.15	.6587	.867	.00867
298.15	.7219	.845	.00845
298.15	.7756	.784	.00784
298.15	.8253	.712	.00712
298.15	.9031	.515	.00515
298.15	.9273	.421	.00421
308.15	.0559	.145	.00145
308.15	.1172	.296	.00296
308.15	.1759	.431	.00431
308.15	.228	.54	.0054
308.15	.2926	.655	.00655
308.15	.3469	.746	.00746
308.15	.3922	.793	.00793
308.15	.4624	.884	.00884
308.15	.5372	.938	.00938
308.15	.5914	.954	.00954
308.15	.6516	.964	.00964
308.15	.7132	.938	.00938
308.15	.7681	.871	.00871
308.15	.8942	.626	.00626
308.15	.9494	.35	.0035

System: dibutyl ether + 2-pentanol; phases: Liquid
Fixed: Pressure, kPa = 100
Property: Excess molar enthalpy (molar enthalpy of mixing), kJ/mol (Liquid); method: Calvet calorimetry
Temperature, K	Mole fraction of dibutyl ether	Excess molar enthalpy (molar enthalpy of mixing), kJ/mol	uncertainty
298.15	.0974	.351	.00351
298.15	.1685	.569	.00569
298.15	.2474	.775	.00775
298.15	.3335	.941	.00941
298.15	.397	1.016	.01016
298.15	.549	1.129	.01129
298.15	.5096	1.12	.0112
298.15	.6386	1.123	.01123
298.15	.705	1.068	.01068
298.15	.7803	.971	.00971
298.15	.8623	.809	.00809
298.15	.9322	.495	.00495
308.15	.0841	.317	.00317
308.15	.1634	.577	.00577
308.15	.2305	.761	.00761
308.15	.3156	.943	.00943
308.15	.4161	1.104	.01104
308.15	.4834	1.19	.0119
308.15	.5759	1.203	.01203
308.15	.6314	1.198	.01198
308.15	.7299	1.108	.01108
308.15	.8144	.978	.00978
308.15	.908	.672	.00672
308.15	.964	.312	.00312

System: dibutyl ether + 3-pentanol; phases: Liquid
Fixed: Pressure, kPa = 100
Property: Excess molar enthalpy (molar enthalpy of mixing), kJ/mol (Liquid); method: Calvet calorimetry
Temperature, K	Mole fraction of dibutyl ether	Excess molar enthalpy (molar enthalpy of mixing), kJ/mol	uncertainty
298.15	.0979	.398	.00398
298.15	.1702	.664	.00664
298.15	.2558	.917	.00917
298.15	.3242	1.074	.01074
298.15	.4033	1.182	.01182
298.15	.4684	1.262	.01262
298.15	.5438	1.313	.01313
298.15	.6374	1.301	.01301
298.15	.7023	1.254	.01254
298.15	.7739	1.127	.01127
298.15	.8554	.896	.00896
298.15	.9278	.539	.00539
308.15	.0991	.405	.00405
308.15	.1692	.657	.00657
308.15	.235	.846	.00846
308.15	.3202	1.046	.01046
308.15	.3985	1.155	.01155
308.15	.5414	1.28	.0128
308.15	.6464	1.281	.01281
308.15	.7326	1.213	.01213
308.15	.811	1.03	.0103
308.15	.8986	.761	.00761
308.15	.9603	.342	.00342

System: 2-methyl-1-butanol + dibutyl ether; phases: Liquid
Fixed: Pressure, kPa = 100
Property: Excess molar enthalpy (molar enthalpy of mixing), kJ/mol (Liquid); method: Calvet calorimetry
Temperature, K	Mole fraction of dibutyl ether	Excess molar enthalpy (molar enthalpy of mixing), kJ/mol	uncertainty
298.15	.0954	.278	.00278
298.15	.162	.472	.00472
298.15	.2536	.691	.00691
298.15	.3156	.808	.00808
298.15	.4007	.923	.00923
298.15	.4806	1.01	.0101
298.15	.5445	1.031	.01031
298.15	.6338	1.038	.01038
298.15	.7017	.992	.00992
298.15	.7832	.883	.00883
298.15	.8542	.737	.00737
298.15	.9335	.424	.00424
308.15	.0798	.249	.00249
308.15	.152	.463	.00463
308.15	.2539	.704	.00704
308.15	.3152	.827	.00827
308.15	.4069	.938	.00938
308.15	.4701	1.013	.01013
308.15	.5703	1.051	.01051
308.15	.6528	1.041	.01041
308.15	.7263	.984	.00984
308.15	.8093	.847	.00847
308.15	.897	.614	.00614
308.15	.9553	.293	.00293

System: 2-methyl-2-butanol + dibutyl ether; phases: Liquid
Fixed: Pressure, kPa = 100
Property: Excess molar enthalpy (molar enthalpy of mixing), kJ/mol (Liquid); method: Calvet calorimetry
Temperature, K	Mole fraction of dibutyl ether	Excess molar enthalpy (molar enthalpy of mixing), kJ/mol	uncertainty
298.15	.0916	.233	.00233
298.15	.1591	.41	.0041
298.15	.2403	.589	.00589
298.15	.3201	.752	.00752
298.15	.3985	.878	.00878
298.15	.4755	.979	.00979
298.15	.5445	1.043	.01043
298.15	.6392	1.078	.01078
298.15	.6992	1.068	.01068
298.15	.7733	.991	.00991
298.15	.8569	.833	.00833
298.15	.933	.513	.00513
308.15	.0919	.272	.00272
308.15	.1603	.453	.00453
308.15	.2403	.649	.00649
308.15	.3244	.788	.00788
308.15	.4034	.907	.00907
308.15	.476	1.022	.01022
308.15	.5541	1.097	.01097
308.15	.702	1.139	.01139
308.15	.7747	1.079	.01079
308.15	.8671	.854	.00854
308.15	.9322	.54	.0054

System: 3-methyl-1-butanol + dibutyl ether; phases: Liquid
Fixed: Pressure, kPa = 100
Property: Excess molar enthalpy (molar enthalpy of mixing), kJ/mol (Liquid); method: Calvet calorimetry
Temperature, K	Mole fraction of dibutyl ether	Excess molar enthalpy (molar enthalpy of mixing), kJ/mol	uncertainty
298.15	.092	.231	.00231
298.15	.1608	.39	.0039
298.15	.2389	.551	.00551
298.15	.3161	.67	.0067
298.15	.3993	.783	.00783
298.15	.4694	.852	.00852
298.15	.5458	.905	.00905
298.15	.6389	.925	.00925
298.15	.7088	.884	.00884
298.15	.776	.812	.00812
298.15	.8626	.645	.00645
298.15	.9423	.35	.0035
308.15	.0836	.226	.00226
308.15	.1547	.398	.00398
308.15	.2348	.576	.00576
308.15	.3248	.735	.00735
308.15	.4249	.846	.00846
308.15	.4894	.92	.0092
308.15	.5775	.952	.00952
308.15	.6519	.944	.00944
308.15	.7302	.895	.00895
308.15	.787	.811	.00811
308.15	.8553	.674	.00674
308.15	.9681	.236	.00236

System: dibutyl ether + 3-methyl-2-butanol; phases: Liquid
Fixed: Pressure, kPa = 100
Property: Excess molar enthalpy (molar enthalpy of mixing), kJ/mol (Liquid); method: Calvet calorimetry
Temperature, K	Mole fraction of dibutyl ether	Excess molar enthalpy (molar enthalpy of mixing), kJ/mol	uncertainty
298.15	.0959	.369	.00369
298.15	.1639	.604	.00604
298.15	.2508	.852	.00852
298.15	.3274	1.01	.0101
298.15	.3977	1.099	.01099
298.15	.4693	1.167	.01167
298.15	.552	1.209	.01209
298.15	.6335	1.201	.01201
298.15	.7081	1.143	.01143
298.15	.7757	1.038	.01038
298.15	.8645	.812	.00812
298.15	.9394	.444	.00444
308.15	.0813	.271	.00271
308.15	.155	.492	.00492
308.15	.2572	.759	.00759
308.15	.3229	.975	.00975
308.15	.4119	1.099	.01099
308.15	.4817	1.174	.01174
308.15	.5473	1.206	.01206
308.15	.6348	1.201	.01201
308.15	.7226	1.126	.01126
308.15	.8083	.982	.00982
308.15	.8908	.703	.00703
308.15	.9786	.225	.00225
