Measured thermophysical data. Phase behavior of (CO2 + methanol + lauric acid) system
Source: J. Chem. Thermodyn., 2011, 10.1016/j.jct.2011.02.017
Compound 1: dodecanoic acid, C12H24O2, purity 99.2%
Compound 2: methanol, CH4O, purity 99.8%
Compound 3: carbon dioxide, CO2, purity 99.9%

System: carbon dioxide + dodecanoic acid; phases: Gas, Liquid
Property: Vapor or sublimation pressure, kPa (Gas); method: Closed cell (Static) method
Temperature, K	Mole fraction of carbon dioxide	Vapor or sublimation pressure, kPa	uncertainty
303.5	.7524	7460	80
313.6	.7524	10060	160
323.2	.7524	12210	60
333.1	.7524	14360	120
343.2	.7524	16530	80
313.8	.8196	15890	120
323.2	.8196	17590	40
333.1	.8196	19390	100
343.2	.8196	21350	140
313.3	.9761	18580	120
323.4	.9761	20300	80
333.1	.9761	21990	80
343.1	.9761	23780	220
313.2	.9837	16100	20
323.2	.9837	18040	40
333.2	.9837	20160	100
343.1	.9837	22140	40
313.3	.9887	14290	60
323.4	.9887	16450	100
333.1	.9887	18450	100
343.1	.9887	20290	40
303.2	.9955	7490	20
313.1	.9955	10320	20
323.2	.9955	13230	180
332.8	.9955	15380	120
343.2	.9955	17320	120

System: carbon dioxide + dodecanoic acid; phases: Gas, Liquid mixture 1, Liquid mixture 2
Property: Vapor or sublimation pressure, kPa (Gas); method: Closed cell (Static) method
Mole fraction of carbon dioxide	Vapor or sublimation pressure, kPa	uncertainty
.8196	6650	60
.9129	6710	220
.9761	6640	100
.9887	6720	20

System: carbon dioxide + dodecanoic acid; phases: Liquid mixture 1, Liquid mixture 2
Property: Phase boundary pressure, kPa (Liquid mixture 1); method: Closed cell (Static) method
Temperature, K	Mole fraction of carbon dioxide	Phase boundary pressure, kPa	uncertainty
303.6	.8196	14510	60
303.6	.9129	22660	80
303.4	.9761	17290	60
303.2	.9887	11500	100

System: carbon dioxide + dodecanoic acid; phases: Gas, Liquid mixture 1, Liquid mixture 2
Property: Vapor or sublimation pressure, kPa (Gas); method: Closed cell (Static) method
Temperature, K	Vapor or sublimation pressure, kPa	uncertainty
303.4	6650	60
303.4	6710	220
303.2	6640	100
303.2	6720	20

System: carbon dioxide + dodecanoic acid; phases: Gas, Crystal, Liquid
Property: Phase boundary pressure, kPa (Gas); method: Closed cell (Static) method
Mole fraction of carbon dioxide	Phase boundary pressure, kPa	uncertainty
.7524	7000	120

System: carbon dioxide + dodecanoic acid; phases: Gas, Crystal, Liquid
Property: Phase boundary pressure, kPa (Gas); method: Closed cell (Static) method
Temperature, K	Phase boundary pressure, kPa	uncertainty
298.3	7000	120

System: carbon dioxide + dodecanoic acid; phases: Fluid (supercritical or subcritical phases), Crystal
Property: Phase boundary pressure, kPa (Fluid (supercritical or subcritical phases)); method: Closed cell (Static) method
Mole fraction of carbon dioxide	Temperature, K	Phase boundary pressure, kPa	uncertainty
.7524	298.8	10020	120
.7524	299.2	12990	120
.7524	299.5	16020	120
.8196	297.9	15030	120
.8196	298.7	20360	120
.9761	297.1	20450	120
.9887	295.7	11440	120
.9887	295.6	13440	120
.9887	294.9	17420	120
.9887	294.5	20370	120
.9955	295.4	6480	120
.9955	290.7	10040	120
.9955	289.5	14750	120
.9955	289.2	19750	120

System: carbon dioxide + dodecanoic acid; phases: Liquid mixture 1, Liquid mixture 2, Crystal
Property: Phase boundary pressure, kPa (Liquid mixture 1); method: Closed cell (Static) method
Temperature, K	Phase boundary pressure, kPa	uncertainty
297.8	6800	120
297.7	11030	120
297.3	7220	120
297.4	10010	120
297.6	15020	120
298	20000	120
296	7520	120
296.9	12510	120
297.1	16490	120
296.7	7470	120
296.6	9450	120

System: methanol + carbon dioxide + dodecanoic acid; phases: Gas, Liquid
Property: Vapor or sublimation pressure, kPa (Gas); method: Closed cell (Static) method
Mole fraction of carbon dioxide	Mole fraction of methanol	Temperature, K	Vapor or sublimation pressure, kPa	uncertainty
.4617	.3589	313.38	6140	80
.4617	.3589	323.25	7220	20
.4617	.3589	333.02	8300	80
.4617	.3589	343.05	9470	20
.571	.286	303.48	5650	20
.571	.286	313.58	7210	60
.571	.286	323.45	8740	60
.571	.286	333.22	10290	100
.571	.286	342.92	11910	40
.6675	.2217	303.55	6420	140
.6675	.2217	313.38	8160	100
.6675	.2217	323.25	10160	40
.6675	.2217	333.32	12400	180
.6675	.2217	343.05	14470	160
.7492	.1672	303.4	6340	40
.7492	.1672	313.42	9310	120
.7492	.1672	323.18	11890	80
.7492	.1672	333.25	14310	260
.7492	.1672	343.25	16540	100
.8248	.1168	313.28	10960	60
.8248	.1168	323.12	13600	140
.8248	.1168	333.28	16120	20
.8248	.1168	343.15	18250	20
.859	.094	313.55	11650	40
.859	.094	323.22	14300	20
.859	.094	333.05	16610	40
.859	.094	343.22	18880	140
.8886	.0743	313.28	12460	120
.8886	.0743	322.88	14890	120
.8886	.0743	332.82	17230	100
.8886	.0743	343.02	19400	140
.9194	.0537	303.48	6320	40
.9194	.0537	303.6	9060	120
.9194	.0537	313.08	11700	80
.9194	.0537	323.75	14590	100
.9194	.0537	333.08	16900	180
.9194	.0537	343.08	19220	160
.9479	.0347	313.15	12160	20
.9479	.0347	323.15	14780	100
.9479	.0347	333.15	17180	40
.9479	.0347	343.15	19290	140
.9642	.0239	303.02	6250	40
.9642	.0239	303.28	9050	20
.9642	.0239	313.15	11480	100
.9642	.0239	323.15	14200	80
.9642	.0239	333.15	16690	140
.9642	.0239	343.15	18610	20
.9745	.017	313.15	11190	60
.9745	.017	323.15	13920	140
.9745	.017	333.15	16270	80
.9745	.017	343.15	18280	60
.9895	.007	303.02	6770	20
.9895	.007	313.25	9440	80
.9895	.007	323.05	11840	100
.9895	.007	332.88	13920	60
.9895	.007	342.85	15740	60

System: methanol + carbon dioxide + dodecanoic acid; phases: Gas, Liquid mixture 1, Liquid mixture 2
Property: Vapor or sublimation pressure, kPa (Gas); method: Closed cell (Static) method
Mole fraction of carbon dioxide	Mole fraction of methanol	Vapor or sublimation pressure, kPa	uncertainty
.8248	.1168	6420	20
.859	.094	6360	120
.8886	.0743	6630	60
.9194	.0537	6320	40
.9642	.0239	6250	40

System: methanol + carbon dioxide + dodecanoic acid; phases: Liquid mixture 1, Liquid mixture 2
Property: Phase boundary pressure, kPa (Liquid mixture 1); method: Closed cell (Static) method
Mole fraction of carbon dioxide	Mole fraction of methanol	Temperature, K	Phase boundary pressure, kPa	uncertainty
.8248	.1168	303.32	8140	120
.859	.094	303.28	9040	60
.8886	.0743	303.03	9790	280
.9194	.0537	303.6	9060	120
.9642	.0239	303.28	9050	20

System: methanol + carbon dioxide + dodecanoic acid; phases: Gas, Liquid mixture 1, Liquid mixture 2
Property: Liquid-liquid equilibrium temperature, K (Gas); method: Closed cell (Static) method
Mole fraction of carbon dioxide	Mole fraction of methanol	Liquid-liquid equilibrium temperature, K	uncertainty
.8248	.1168	303.38	.3
.859	.094	303.55	.3
.8886	.0743	303.18	.3
.9194	.0537	303.48	.3
.9642	.0239	303.02	.3

System: methanol + carbon dioxide + dodecanoic acid; phases: Gas, Liquid
Property: Vapor or sublimation pressure, kPa (Gas); method: Closed cell (Static) method
Mole fraction of carbon dioxide	Mole fraction of methanol	Temperature, K	Vapor or sublimation pressure, kPa	uncertainty
.3414	.5488	313.45	5690	60
.3414	.5488	323.35	6590	80
.3414	.5488	333.05	7500	80
.3414	.5488	343.15	8530	60
.5598	.3668	303.55	5960	40
.5598	.3668	313.22	7330	180
.5598	.3668	323.42	8820	120
.5598	.3668	333.15	10400	40
.5598	.3668	343.12	12030	40
.7474	.2105	303.58	6540	120
.7474	.2105	313.32	8110	120
.7474	.2105	323.18	10520	20
.7474	.2105	332.95	12700	180
.7474	.2105	343.08	14760	20
