Measured thermophysical data. Equilibrium solubility of carbon dioxide in aqueous 2-((2-aminoethyl)amino)ethanol and N-methyldiethanolamine solution and modeling by electrolyte mPR-CPA EoS
Source: J. Chem. Thermodyn., 2013, 10.1016/j.jct.2013.08.002
Compound 1: N-(2-aminoethyl)ethanolamine, C4H12N2O, purity 98%
Compound 2: water, H2O, purity 99%

System: N-(2-aminoethyl)ethanolamine; phases: Liquid
Fixed: Frequency, MHz = 0.010
Property: Relative permittivity at various frequencies (Liquid); method: Coaxial cylinder capacitor
Temperature, K	Pressure, kPa	Relative permittivity at various frequencies	uncertainty
293.2	101	21.51	.1
299.2	101	19.87	.1
304.2	101	18.18	.1
308.2	101	17.09	.1
314.2	101	15.84	.1
320.2	101	14.64	.1
323.2	101	13.97	.1
330.2	101	12.89	.1
333.2	101	12.3	.1
339.2	101	11.37	.1
343.2	101	10.77	.1
348.2	101	10.19	.1

System: N-(2-aminoethyl)ethanolamine + water; phases: Liquid, Gas
Fixed: Pressure, kPa = 86.66
Property: Boiling temperature at pressure P, K (Liquid); method: Ebulliometric method (Recirculating still)
Mass fraction of N-(2-aminoethyl)ethanolamine	Boiling temperature at pressure P, K	uncertainty
.058	369.65	5
.101	369.8	5
.15	370.61	5
.244	371.06	5
.353	372.49	5
.434	373.5	5
.483	374.87	5
.538	375.86	5
.574	376.86	5
.607	378.06	5
.659	380.81	5
.705	382.26	5
.69	381.56	5
.886	407.73	5
.884	412.22	5
.97	468.15	5
.98	515.15	5

System: N-(2-aminoethyl)ethanolamine + water; phases: Gas, Liquid
Fixed: Pressure, kPa = 86.66
Property: Mass fraction of N-(2-aminoethyl)ethanolamine (Gas); method: Index of refraction calibration data
Mass fraction of N-(2-aminoethyl)ethanolamine	Mass fraction of N-(2-aminoethyl)ethanolamine	uncertainty
.058	0	.01
.101	0	.01
.15	0	.01
.244	0	.01
.353	0	.01
.434	0	.01
.483	0	.01
.538	0	.01
.574	0	.01
.607	0	.01
.659	0	.01
.705	0	.01
.69	0	.01
.886	0	.01
.884	.01	.01
.97	.302	.01
.98	.98	.01
