Measured thermophysical data. Calorimetric and computational studies for three nitroimidazole isomers
Source: J. Chem. Thermodyn., 2017, 10.1016/j.jct.2016.10.026
Compound 1: 4-nitroimidazole, C3H3N3O2
Compound 2: carbon dioxide, CO2
Compound 3: nitrogen, N2
Compound 4: water, H2O
Compound 5: oxygen, O2

System: 4-nitroimidazole; phases: Crystal, Gas
Property: Molar enthalpy of vaporization or sublimation, kJ/mol (Crystal); method: Static calorimetry
Temperature, K	Molar enthalpy of vaporization or sublimation, kJ/mol	uncertainty
298.15	122.9	2.7

System: 4-nitroimidazole; phases: Gas, Crystal
Property: Molar enthalpy, kJ/mol (Gas); method: Other
Temperature, K	Molar enthalpy, kJ/mol	uncertainty
487.5	146.5	

Reaction: -1 4-nitroimidazole + 3 carbon dioxide + 1.5 nitrogen + 1.5 water + -2.75 oxygen
Property: Specific internal energy of reaction at constant volume, J/g
-14217.23
