Measured thermophysical data. Effect of paracetamol in aqueous sodium malonate solutions with reference to volumetric and viscometric measurements
Source: J. Chem. Thermodyn., 2016, 10.1016/j.jct.2015.12.024
Compound 1: paracetamol, C8H9NO2, purity 99%
Compound 2: sodium malonate, C3H2Na2O4, purity 97%
Compound 3: water, H2O

System: sodium malonate + water; phases: Liquid
Property: Mass density, kg/m3 (Liquid); method: Vibrating tube method
Molality, mol/kg of sodium malonate	Temperature, K	Pressure, kPa	Mass density, kg/m3	uncertainty
.005	298.15	101	997.59	
.005	308.15	101	994.53	
.005	318.15	101	990.45	
.01	298.15	101	998.15	
.01	308.15	101	995.12	
.01	318.15	101	991.15	
.015	298.15	101	998.68	
.015	308.15	101	995.63	
.015	318.15	101	991.52	
.02	298.15	101	999.18	
.02	308.15	101	996.13	
.02	318.15	101	992.1	

System: sodium malonate + water; phases: Liquid
Property: Viscosity, Pa*s (Liquid); method: Capillary tube (Ostwald; Ubbelohde) method
Molality, mol/kg of sodium malonate	Temperature, K	Pressure, kPa	Viscosity, Pa*s	uncertainty
.005	298.15	101	.0008932	
.005	308.15	101	.0007222	
.005	318.15	101	.000598	
.01	298.15	101	.0008959	
.01	308.15	101	.0007237	
.01	318.15	101	.0006007	
.015	298.15	101	.0008987	
.015	308.15	101	.0007253	
.015	318.15	101	.0006021	
.02	298.15	101	.0009014	
.02	308.15	101	.0007279	
.02	318.15	101	.0006048	

System: paracetamol + sodium malonate + water; phases: Liquid
Fixed: Pressure, kPa = 101
Property: Mass density, kg/m3 (Liquid); method: Vibrating tube method
Solvent: Molality, mol/kg of sodium malonate	Temperature, K	Molality, mol/kg of paracetamol	Mass density, kg/m3	uncertainty
0	298.15	.006	997.2	
0	298.15	.0134	997.4	
0	298.15	.0268	997.78	
0	298.15	.0404	998.16	
0	298.15	.0542	998.55	
0	298.15	.068	998.96	
0	308.15	.006	994.18	
0	308.15	.0134	994.37	
0	308.15	.0268	994.73	
0	308.15	.0404	995.1	
0	308.15	.0542	995.49	
0	308.15	.068	995.89	
0	318.15	.006	990.4	
0	318.15	.0134	990.59	
0	318.15	.0268	990.94	
0	318.15	.0404	991.31	
0	318.15	.0542	991.68	
0	318.15	.068	992.06	
.005	298.15	.006	997.74	
.005	298.15	.0134	997.93	
.005	298.15	.0267	998.29	
.005	298.15	.0401	998.67	
.005	298.15	.0536	999.04	
.005	298.15	.0671	999.42	
.005	308.15	.006	994.68	
.005	308.15	.0134	994.87	
.005	308.15	.0267	995.22	
.005	308.15	.0401	995.58	
.005	308.15	.0536	995.96	
.005	308.15	.0671	996.34	
.005	318.15	.006	990.595	
.005	318.15	.0134	990.78	
.005	318.15	.0267	991.12	
.005	318.15	.0401	991.47	
.005	318.15	.0536	991.83	
.005	318.15	.0671	992.2	
.01	298.15	.006	998.29	
.01	298.15	.0133	998.48	
.01	298.15	.0266	998.84	
.01	298.15	.0401	999.2	
.01	298.15	.0536	999.57	
.01	298.15	.0671	999.95	
.01	308.15	.006	995.26	
.01	308.15	.0133	995.44	
.01	308.15	.0266	995.78	
.01	308.15	.0401	996.14	
.01	308.15	.0536	996.49	
.01	308.15	.0671	996.86	
.01	318.15	.006	991.29	
.01	318.15	.0133	991.47	
.01	318.15	.0266	991.81	
.01	318.15	.0401	992.17	
.01	318.15	.0536	992.51	
.01	318.15	.0671	992.88	
.015	298.15	.006	998.81	
.015	298.15	.0133	998.99	
.015	298.15	.0266	999.33	
.015	298.15	.0401	999.69	
.015	298.15	.0535	1000.06	
.015	298.15	.067	1000.45	
.015	308.15	.006	995.76	
.015	308.15	.0133	995.93	
.015	308.15	.0266	996.27	
.015	308.15	.0401	996.62	
.015	308.15	.0535	996.96	
.015	308.15	.067	997.35	
.015	318.15	.006	991.65	
.015	318.15	.0133	991.82	
.015	318.15	.0266	992.15	
.015	318.15	.0401	992.51	
.015	318.15	.0535	992.85	
.015	318.15	.067	993.22	
.02	298.15	.006	999.3	
.02	298.15	.0133	999.47	
.02	298.15	.0266	999.82	
.02	298.15	.0401	1000.17	
.02	298.15	.0535	1000.55	
.02	298.15	.067	1000.93	
.02	308.15	.006	996.25	
.02	308.15	.0133	996.41	
.02	308.15	.0266	996.75	
.02	308.15	.0401	997.11	
.02	308.15	.0535	997.46	
.02	308.15	.067	997.82	
.02	318.15	.006	992.22	
.02	318.15	.0133	992.39	
.02	318.15	.0266	992.72	
.02	318.15	.0401	993.07	
.02	318.15	.0535	993.44	
.02	318.15	.067	993.81	
.005	298.15	0	997.59	
.005	308.15	0	994.53	
.005	318.15	0	990.45	
.01	298.15	0	998.15	
.01	308.15	0	995.12	
.01	318.15	0	991.15	
.015	298.15	0	998.68	
.015	308.15	0	995.63	
.015	318.15	0	991.52	
.02	298.15	0	999.18	
.02	308.15	0	996.13	
.02	318.15	0	992.1	

System: paracetamol + sodium malonate + water; phases: Liquid
Fixed: Pressure, kPa = 101
Property: Viscosity, Pa*s (Liquid); method: Capillary tube (Ostwald; Ubbelohde) method
Solvent: Molality, mol/kg of sodium malonate	Temperature, K	Molality, mol/kg of paracetamol	Viscosity, Pa*s	uncertainty
0	298.15	.006	.0008928	
0	298.15	.0134	.0008964	
0	298.15	.0268	.0009001	
0	298.15	.0404	.0009061	
0	298.15	.0542	.0009121	
0	298.15	.068	.0009178	
0	308.15	.006	.0007208	
0	308.15	.0134	.0007243	
0	308.15	.0268	.0007281	
0	308.15	.0404	.0007329	
0	308.15	.0542	.0007378	
0	308.15	.068	.0007424	
0	318.15	.006	.000598	
0	318.15	.0134	.0006004	
0	318.15	.0268	.0006053	
0	318.15	.0404	.0006102	
0	318.15	.0542	.0006151	
0	318.15	.068	.0006197	
.005	298.15	.006	.0008944	
.005	298.15	.0134	.000898	
.005	298.15	.0267	.0009029	
.005	298.15	.0401	.0009089	
.005	298.15	.0536	.0009149	
.005	298.15	.0671	.0009216	
.005	308.15	.006	.0007234	
.005	308.15	.0134	.0007259	
.005	308.15	.0267	.0007296	
.005	308.15	.0401	.0007356	
.005	308.15	.0536	.0007416	
.005	308.15	.0671	.0007462	
.005	318.15	.006	.0005992	
.005	318.15	.0134	.0006017	
.005	318.15	.0267	.0006066	
.005	318.15	.0401	.0006114	
.005	318.15	.0536	.0006175	
.005	318.15	.0671	.000621	
.01	298.15	.006	.0008972	
.01	298.15	.0133	.0009008	
.01	298.15	.0266	.0009056	
.01	298.15	.0401	.0009127	
.01	298.15	.0536	.0009187	
.01	298.15	.0671	.0009255	
.01	308.15	.006	.000725	
.01	308.15	.0133	.0007274	
.01	308.15	.0266	.0007323	
.01	308.15	.0401	.0007383	
.01	308.15	.0536	.0007443	
.01	308.15	.0671	.0007489	
.01	318.15	.006	.000602	
.01	318.15	.0133	.0006044	
.01	318.15	.0266	.0006093	
.01	318.15	.0401	.0006154	
.01	318.15	.0536	.0006202	
.01	318.15	.0671	.0006249	
.015	298.15	.006	.0008999	
.015	298.15	.0133	.0009035	
.015	298.15	.0266	.0009095	
.015	298.15	.0401	.0009155	
.015	298.15	.0535	.0009226	
.015	298.15	.067	.0009294	
.015	308.15	.006	.0007265	
.015	308.15	.0133	.0007289	
.015	308.15	.0266	.0007338	
.015	308.15	.0401	.0007398	
.015	308.15	.0535	.0007458	
.015	308.15	.067	.0007515	
.015	318.15	.006	.0006034	
.015	318.15	.0133	.0006058	
.015	318.15	.0266	.0006107	
.015	318.15	.0401	.0006167	
.015	318.15	.0535	.0006216	
.015	318.15	.067	.0006274	
.02	298.15	.006	.0009026	
.02	298.15	.0133	.0009062	
.02	298.15	.0266	.0009122	
.02	298.15	.0401	.0009193	
.02	298.15	.0535	.0009264	
.02	298.15	.067	.0009332	
.02	308.15	.006	.0007292	
.02	308.15	.0133	.0007316	
.02	308.15	.0266	.0007376	
.02	308.15	.0401	.0007424	
.02	308.15	.0535	.0007496	
.02	308.15	.067	.0007553	
.02	318.15	.006	.0006061	
.02	318.15	.0133	.0006085	
.02	318.15	.0266	.0006134	
.02	318.15	.0401	.0006194	
.02	318.15	.0535	.0006255	
.02	318.15	.067	.0006313	
.005	298.15	0	.0008932	
.005	308.15	0	.0007222	
.005	318.15	0	.000598	
.01	298.15	0	.0008959	
.01	308.15	0	.0007237	
.01	318.15	0	.0006007	
.015	298.15	0	.0008987	
.015	308.15	0	.0007253	
.015	318.15	0	.0006021	
.02	298.15	0	.0009014	
.02	308.15	0	.0007279	
.02	318.15	0	.0006048	

System: paracetamol + water; phases: Liquid
Property: Mass density, kg/m3 (Liquid); method: Vibrating tube method
Temperature, K	Molality, mol/kg of paracetamol	Pressure, kPa	Mass density, kg/m3	uncertainty
298.15	.006	101	997.2	
298.15	.0134	101	997.4	
298.15	.0268	101	997.78	
298.15	.0404	101	998.16	
298.15	.0542	101	998.55	
298.15	.068	101	998.96	
308.15	.006	101	994.18	
308.15	.0134	101	994.37	
308.15	.0268	101	994.73	
308.15	.0404	101	995.1	
308.15	.0542	101	995.49	
308.15	.068	101	995.89	
318.15	.006	101	990.4	
318.15	.0134	101	990.59	
318.15	.0268	101	990.94	
318.15	.0404	101	991.31	
318.15	.0542	101	991.68	
318.15	.068	101	992.06	

System: paracetamol + water; phases: Liquid
Property: Viscosity, Pa*s (Liquid); method: Capillary tube (Ostwald; Ubbelohde) method
Temperature, K	Molality, mol/kg of paracetamol	Pressure, kPa	Viscosity, Pa*s	uncertainty
298.15	.006	101	.0008928	
298.15	.0134	101	.0008964	
298.15	.0268	101	.0009001	
298.15	.0404	101	.0009061	
298.15	.0542	101	.0009121	
298.15	.068	101	.0009178	
308.15	.006	101	.0007208	
308.15	.0134	101	.0007243	
308.15	.0268	101	.0007281	
308.15	.0404	101	.0007329	
308.15	.0542	101	.0007378	
308.15	.068	101	.0007424	
318.15	.006	101	.000598	
318.15	.0134	101	.0006004	
318.15	.0268	101	.0006053	
318.15	.0404	101	.0006102	
318.15	.0542	101	.0006151	
318.15	.068	101	.0006197	
