Measured thermophysical data. Highly precise (liquid + liquid) equilibrium and heat capacity measurements near the critical point for [Bmim][BF4] + 1H, 1H, 2H, 2H perfluoroctanol
Source: J. Chem. Thermodyn., 2013, 10.1016/j.jct.2013.05.029
Compound 1: 1-butyl-3-methylimidazolium tetrafluoroborate, C8H15BF4N2, purity 99%
Compound 2: 1H,1H,2H,2H-perfluorooctanol, C8H5F13O, purity 99%
Compound 3: dimethyl carbonate, C3H6O3, purity 99%
Compound 4: decane, C10H22, purity 99%

System: 1-butyl-3-methylimidazolium tetrafluoroborate; phases: Liquid
Fixed: Pressure, kPa = 101.325
Property: Mass density, kg/m3 (Liquid); method: Vibrating tube method
Temperature, K	Mass density, kg/m3	uncertainty
291.151	1206.3	.1
293.148	1204.9	.1
295.145	1203.5	.1
298.148	1201.3	.1
300.145	1199.9	.1
303.148	1197.7	.1
305.145	1196.3	.1
308.148	1194.1	.1
310.145	1192.7	.1

System: 1-butyl-3-methylimidazolium tetrafluoroborate; phases: Liquid
Fixed: Wavelength, nm = 633
Property: Refractive index (other wavelength) (Liquid); method: Standard Abbe refractometry
Pressure, kPa	Temperature, K	Refractive index (other wavelength)	uncertainty
101.325	298.14	1.4194	.001
101.325	292.99	1.4207	.001
101.325	303.06	1.4182	.001
101.325	307.96	1.4169	.001
101.325	300.94	1.4187	.001

System: 1H,1H,2H,2H-perfluorooctanol; phases: Liquid
Fixed: Pressure, kPa = 101.325
Property: Mass density, kg/m3 (Liquid); method: Vibrating tube method
Temperature, K	Mass density, kg/m3	uncertainty
291.151	1692.2	.1
293.148	1688.7	.1
295.145	1685.2	.1
298.148	1679.9	.1
300.145	1676.4	.1
303.148	1671	.1
305.145	1667.5	.1
308.148	1662.1	.1
310.145	1658.5	.1

System: 1H,1H,2H,2H-perfluorooctanol; phases: Liquid
Fixed: Wavelength, nm = 633
Property: Refractive index (other wavelength) (Liquid); method: Standard Abbe refractometry
Pressure, kPa	Temperature, K	Refractive index (other wavelength)	uncertainty
101.325	304.98	1.3112	.001
101.325	308.13	1.31	.001
101.325	292.89	1.3152	.001
101.325	297.98	1.3134	.001
101.325	307.95	1.3101	.001
101.325	300.94	1.3125	.001

System: 1H,1H,2H,2H-perfluorooctanol; phases: Liquid
Fixed: Frequency, MHz = 0.151
Property: Relative permittivity at various frequencies (Liquid); method: Parallel plate capacitor
Pressure, kPa	Temperature, K	Relative permittivity at various frequencies	uncertainty
101.325	293.15	9.67	.01
101.325	298.15	9.21	.01
101.325	303.15	8.83	.01
101.325	308.15	8.46	.01
101.325	313.15	8.12	.01

System: decane + dimethyl carbonate; phases: Liquid mixture 1, Liquid mixture 2, Air at 1 atmosphere
Property: Upper consolute temperature, K (Liquid mixture 1); method: from fitting of the LL coexistance curve
Upper consolute temperature, K	uncertainty
287.392	.2

System: decane + dimethyl carbonate; phases: Liquid mixture 1, Liquid mixture 2, Air at 1 atmosphere
Property: Upper consolute composition: mole fraction of decane (Liquid mixture 1); method: from fitting of the LL coexistance curve
Upper consolute composition: mole fraction of decane	uncertainty
.2324	.002

System: decane + dimethyl carbonate; phases: Liquid
Fixed: Wavelength, nm = 633
Property: Refractive index (other wavelength) (Liquid); method: Standard Abbe refractometry
Mole fraction of dimethyl carbonate	Temperature, K	Refractive index (other wavelength)	uncertainty
.517	280.97	1.4023	.001
.537	281.95	1.4011	.001
.549	283	1.4002	.001
.581	284.42	1.3983	.001
.615	285.51	1.3964	.001
.63	286.06	1.3954	.001
.641	286.31	1.3948	.001
.65	286.44	1.3943	.001
.663	286.64	1.3936	.001
.671	286.84	1.3932	.001
.677	286.94	1.3928	.001
.689	287.03	1.3922	.001
.692	287.13	1.392	.001
.708	287.21	1.3911	.001
.703	287.21	1.3914	.001
.705	287.23	1.3913	.001
.712	287.23	1.3909	.001
.716	287.26	1.3907	.001
.712	287.27	1.3909	.001
.716	287.28	1.3907	.001
.716	287.29	1.3907	.001
.72	287.31	1.3905	.001
.72	287.32	1.3905	.001
.723	287.32	1.3903	.001
.729	287.32	1.39	.001
.725	287.35	1.3902	.001
.735	287.35	1.3896	.001
.741	287.35	1.3893	.001
.731	287.35	1.3899	.001
.737	287.36	1.3895	.001
.737	287.37	1.3895	.001
.741	287.37	1.3893	.001
.915	280.97	1.3807	.001
.913	281.95	1.3805	.001
.903	283	1.3808	.001
.89	284.42	1.3811	.001
.876	285.51	1.3817	.001
.867	286.06	1.382	.001
.859	286.31	1.3825	.001
.855	286.44	1.3827	.001
.849	286.64	1.383	.001
.842	286.84	1.3834	.001
.837	286.94	1.3837	.001
.831	287.03	1.3841	.001
.827	287.13	1.3843	.001
.824	287.21	1.3844	.001
.819	287.21	1.3847	.001
.815	287.23	1.385	.001
.82	287.23	1.3847	.001
.817	287.26	1.3849	.001
.813	287.27	1.3851	.001
.817	287.28	1.3849	.001
.809	287.29	1.3853	.001
.814	287.31	1.385	.001
.806	287.32	1.3855	.001
.804	287.32	1.3857	.001
.809	287.32	1.3853	.001
.803	287.35	1.3857	.001
.799	287.35	1.3859	.001
.809	287.35	1.3853	.001
.796	287.35	1.3861	.001
.798	287.36	1.386	.001
.796	287.37	1.3861	.001
.79	287.37	1.3865	.001

System: decane + dimethyl carbonate; phases: Liquid mixture 1, Liquid mixture 2
Property: Mole fraction of dimethyl carbonate (Liquid mixture 1); method: Index of refraction calibration data
Temperature, K	Pressure, kPa	Mole fraction of dimethyl carbonate	uncertainty
280.97	101.325	.517	.002
281.95	101.325	.537	.002
283	101.325	.549	.002
284.42	101.325	.581	.002
285.51	101.325	.615	.002
286.06	101.325	.63	.002
286.31	101.325	.641	.002
286.44	101.325	.65	.002
286.64	101.325	.663	.002
286.84	101.325	.671	.002
286.94	101.325	.677	.002
287.03	101.325	.689	.002
287.13	101.325	.692	.002
287.21	101.325	.708	.002
287.21	101.325	.703	.002
287.23	101.325	.705	.002
287.23	101.325	.712	.002
287.26	101.325	.716	.002
287.27	101.325	.712	.002
287.28	101.325	.716	.002
287.29	101.325	.716	.002
287.31	101.325	.72	.002
287.32	101.325	.72	.002
287.32	101.325	.723	.002
287.32	101.325	.729	.002
287.35	101.325	.725	.002
287.35	101.325	.735	.002
287.35	101.325	.741	.002
287.35	101.325	.731	.002
287.36	101.325	.737	.002
287.37	101.325	.737	.002
287.37	101.325	.741	.002

System: decane + dimethyl carbonate; phases: Liquid mixture 2, Liquid mixture 1
Property: Mole fraction of dimethyl carbonate (Liquid mixture 2); method: Index of refraction calibration data
Temperature, K	Pressure, kPa	Mole fraction of dimethyl carbonate	uncertainty
280.97	101.325	.915	.002
281.95	101.325	.913	.002
283	101.325	.903	.002
284.42	101.325	.89	.002
285.51	101.325	.876	.002
286.06	101.325	.867	.002
286.31	101.325	.859	.002
286.44	101.325	.855	.002
286.64	101.325	.849	.002
286.84	101.325	.842	.002
286.94	101.325	.837	.002
287.03	101.325	.831	.002
287.13	101.325	.827	.002
287.21	101.325	.824	.002
287.21	101.325	.819	.002
287.23	101.325	.815	.002
287.23	101.325	.82	.002
287.26	101.325	.817	.002
287.27	101.325	.813	.002
287.28	101.325	.817	.002
287.29	101.325	.809	.002
287.31	101.325	.814	.002
287.32	101.325	.806	.002
287.32	101.325	.804	.002
287.32	101.325	.809	.002
287.35	101.325	.803	.002
287.35	101.325	.799	.002
287.35	101.325	.809	.002
287.35	101.325	.796	.002
287.36	101.325	.798	.002
287.37	101.325	.796	.002
287.37	101.325	.79	.002

System: 1H,1H,2H,2H-perfluorooctanol + 1-butyl-3-methylimidazolium tetrafluoroborate; phases: Liquid mixture 1, Liquid mixture 2, Air at 1 atmosphere
Property: Upper consolute temperature, K (Liquid mixture 1); method: from fitting of the LL coexistance curve
Upper consolute temperature, K	uncertainty
303.858	.2

System: 1H,1H,2H,2H-perfluorooctanol + 1-butyl-3-methylimidazolium tetrafluoroborate; phases: Liquid mixture 1, Liquid mixture 2, Air at 1 atmosphere
Property: Upper consolute composition: mole fraction of 1H,1H,2H,2H-perfluorooctanol (Liquid mixture 1); method: from fitting of the LL coexistance curve
Upper consolute composition: mole fraction of 1H,1H,2H,2H-perfluorooctanol	uncertainty
.1821	.002

System: 1H,1H,2H,2H-perfluorooctanol + 1-butyl-3-methylimidazolium tetrafluoroborate; phases: Liquid
Fixed: Wavelength, nm = 633
Property: Refractive index (other wavelength) (Liquid); method: Standard Abbe refractometry
Mole fraction of 1-butyl-3-methylimidazolium tetrafluoroborate	Temperature, K	Refractive index (other wavelength)	uncertainty
.975	568.17	1.417	.001
.972	569.9	1.4162	.001
.969	570.62	1.4157	.001
.967	571.13	1.4153	.001
.963	571.88	1.4146	.001
.96	572.59	1.414	.001
.958	573.11	1.4137	.001
.953	573.58	1.4128	.001
.946	574.07	1.4119	.001
.944	574.57	1.4115	.001
.935	575.11	1.4102	.001
.93	575.59	1.4096	.001
.917	576.09	1.4078	.001
.892	576.69	1.4045	.001
.483	568.17	1.3609	.001
.514	569.9	1.3635	.001
.528	570.62	1.3648	.001
.539	571.13	1.3658	.001
.555	571.88	1.3673	.001
.569	572.59	1.3686	.001
.585	573.11	1.3701	.001
.595	573.58	1.3712	.001
.61	574.07	1.3726	.001
.62	574.57	1.3736	.001
.641	575.11	1.3757	.001
.663	575.59	1.378	.001
.684	576.09	1.3803	.001
.729	576.69	1.3852	.001

System: 1H,1H,2H,2H-perfluorooctanol + 1-butyl-3-methylimidazolium tetrafluoroborate; phases: Liquid mixture 1, Liquid mixture 2
Property: Mole fraction of 1-butyl-3-methylimidazolium tetrafluoroborate (Liquid mixture 1); method: Index of refraction calibration data
Temperature, K	Pressure, kPa	Mole fraction of 1-butyl-3-methylimidazolium tetrafluoroborate	uncertainty
295.02	101.325	.975	.002
296.75	101.325	.972	.002
297.47	101.325	.969	.002
297.98	101.325	.967	.002
298.73	101.325	.963	.002
299.44	101.325	.96	.002
299.96	101.325	.958	.002
300.43	101.325	.953	.002
300.92	101.325	.946	.002
301.42	101.325	.944	.002
301.96	101.325	.935	.002
302.44	101.325	.93	.002
302.94	101.325	.917	.002
303.54	101.325	.892	.002

System: 1H,1H,2H,2H-perfluorooctanol + 1-butyl-3-methylimidazolium tetrafluoroborate; phases: Liquid mixture 2, Liquid mixture 1
Property: Mole fraction of 1-butyl-3-methylimidazolium tetrafluoroborate (Liquid mixture 2); method: Index of refraction calibration data
Temperature, K	Pressure, kPa	Mole fraction of 1-butyl-3-methylimidazolium tetrafluoroborate	uncertainty
295.02	101.325	.483	.002
296.75	101.325	.514	.002
297.47	101.325	.528	.002
297.98	101.325	.539	.002
298.73	101.325	.555	.002
299.44	101.325	.569	.002
299.96	101.325	.585	.002
300.43	101.325	.595	.002
300.92	101.325	.61	.002
301.42	101.325	.62	.002
301.96	101.325	.641	.002
302.44	101.325	.663	.002
302.94	101.325	.684	.002
303.54	101.325	.729	.002
