Measured thermophysical data. Densimetric and ultrasonic characterization of urea and its derivatives in water
Source: J. Chem. Thermodyn., 2013, 10.1016/j.jct.2012.11.007
Compound 1: carbonyldiamide, CH4N2O, purity 99.5%
Compound 2: methyl carbamide, C2H6N2O, purity 97%
Compound 3: N,N'-dimethylurea, C3H8N2O, purity 99%
Compound 4: N,N,N',N'-tetramethylurea, C5H12N2O, purity 99%
Compound 5: urea, ethyl-, C3H8N2O, purity 97%
Compound 6: N,N'-diethylurea, C5H12N2O, purity 97%
Compound 7: 1-butylurea, C5H12N2O, purity 99%
Compound 8: water, H2O, purity 99%

System: water; phases: Liquid
Property: Mass density, kg/m3 (Liquid); method: Vibrating tube method
Temperature, K	Pressure, kPa	Mass density, kg/m3	uncertainty
288.15	101	999.094	.005
293.15	101	998.205	.005
298.15	101	997.036	.005
303.15	101	995.644	.005
308.15	101	994.028	.005
293.15	101	998.196	.005
298.15	101	997.034	.005
303.15	101	995.634	.005
308.15	101	994.017	.005
298.15	101	997.035	.005
303.15	101	995.635	.005
308.15	101	994.016	.005
288.15	101	999.09	.005
293.15	101	998.192	.005
298.15	101	997.03	.005
303.15	101	995.628	.005
308.15	101	994.01	.005
288.15	101	999.093	.005
293.15	101	998.193	.005
298.15	101	997.032	.005
303.15	101	995.633	.005
308.15	101	994.018	.005
288.15	101	999.095	.005
293.15	101	998.198	.005
298.15	101	997.037	.005
303.15	101	995.636	.005
308.15	101	994.02	.005
288.15	101	999.098	.005
293.15	101	998.2	.005
298.15	101	997.039	.005
303.15	101	995.638	.005
308.15	101	994.021	.005

System: carbonyldiamide + water; phases: Liquid
Fixed: Pressure, kPa = 101
Property: Mass density, kg/m3 (Liquid); method: Vibrating tube method
Molality, mol/kg of carbonyldiamide	Temperature, K	Mass density, kg/m3	uncertainty
0	288.15	999.094	.005
.06521	288.15	1000.185	.005
.1233	288.15	1001.145	.005
.1812	288.15	1002.092	.005
.2403	288.15	1003.055	.005
.3004	288.15	1004.029	.005
0	293.15	998.205	.005
.06521	293.15	999.268	.005
.1233	293.15	1000.204	.005
.1812	293.15	1001.126	.005
.2403	293.15	1002.068	.005
.3004	293.15	1003.02	.005
0	298.15	997.036	.005
.06521	298.15	998.076	.005
.1233	298.15	998.994	.005
.1812	298.15	999.906	.005
.2403	298.15	1000.829	.005
.3004	298.15	1001.761	.005
0	303.15	995.644	.005
.06521	303.15	996.664	.005
.1233	303.15	997.564	.005
.1812	303.15	998.455	.005
.2403	303.15	999.361	.005
.3004	303.15	1000.277	.005
0	308.15	994.028	.005
.06521	308.15	995.029	.005
.1233	308.15	995.915	.005
.1812	308.15	996.792	.005
.2403	308.15	997.684	.005
.3004	308.15	998.584	.005

System: carbonyldiamide + water; phases: Liquid
Fixed: Pressure, kPa = 101
Fixed: Temperature, K = 298.15
Property: Speed of sound, m/s (Liquid); method: Pulse-echo method
Molality, mol/kg of carbonyldiamide	Speed of sound, m/s	uncertainty
.06521	1498.45	.05
.1233	1500	.05
.1812	1501.55	.05
.2403	1503.08	.05
.3004	1504.6	.05

System: methyl carbamide + water; phases: Liquid
Fixed: Pressure, kPa = 101
Property: Mass density, kg/m3 (Liquid); method: Vibrating tube method
Molality, mol/kg of methyl carbamide	Temperature, K	Mass density, kg/m3	uncertainty
0	288.15	999.094	.005
.06094	288.15	999.856	.005
.1225	288.15	1000.622	.005
.1837	288.15	1001.376	.005
.2452	288.15	1002.131	.005
.3076	288.15	1002.895	.005
0	293.15	998.196	.005
.06094	293.15	998.94	.005
.1225	293.15	999.688	.005
.1837	293.15	1000.422	.005
.2452	293.15	1001.157	.005
.3076	293.15	1001.902	.005
0	298.15	997.034	.005
.06094	298.15	997.762	.005
.1225	298.15	998.491	.005
.1837	298.15	999.21	.005
.2452	298.15	999.928	.005
.3076	298.15	1000.656	.005
0	303.15	995.634	.005
.06094	303.15	996.348	.005
.1225	303.15	997.062	.005
.1837	303.15	997.766	.005
.2452	303.15	998.469	.005
.3076	303.15	999.182	.005
0	308.15	994.017	.005
.06094	308.15	994.718	.005
.1225	308.15	995.418	.005
.1837	308.15	996.108	.005
.2452	308.15	996.799	.005
.3076	308.15	997.498	.005

System: methyl carbamide + water; phases: Liquid
Fixed: Pressure, kPa = 101
Fixed: Temperature, K = 298.15
Property: Speed of sound, m/s (Liquid); method: Pulse-echo method
Molality, mol/kg of methyl carbamide	Speed of sound, m/s	uncertainty
.06094	1499.09	.05
.1225	1501.5	.05
.1837	1503.89	.05
.2452	1506.27	.05
.3076	1508.67	.05

System: N,N'-dimethylurea + water; phases: Liquid
Fixed: Pressure, kPa = 101
Property: Mass density, kg/m3 (Liquid); method: Vibrating tube method
Molality, mol/kg of N,N'-dimethylurea	Temperature, K	Mass density, kg/m3	uncertainty
0	288.15	999.094	.005
.06095	288.15	999.619	.005
.1226	288.15	1000.154	.005
.1846	288.15	1000.693	.005
.247	288.15	1001.237	.005
.3099	288.15	1001.79	.005
0	293.15	998.196	.005
.06095	293.15	998.707	.005
.1226	293.15	999.227	.005
.1846	293.15	999.75	.005
.247	293.15	1000.28	.005
.3099	293.15	1000.816	.005
0	298.15	997.035	.005
.06095	298.15	997.534	.005
.1226	298.15	998.04	.005
.1846	298.15	998.549	.005
.247	298.15	999.063	.005
.3099	298.15	999.585	.005
0	303.15	995.635	.005
.06095	303.15	996.121	.005
.1226	303.15	996.616	.005
.1846	303.15	997.113	.005
.247	303.15	997.613	.005
.3099	303.15	998.121	.005
0	308.15	994.016	.005
.06095	308.15	994.493	.005
.1226	308.15	994.975	.005
.1846	308.15	995.461	.005
.247	308.15	995.947	.005
.3099	308.15	996.442	.005

System: N,N'-dimethylurea + water; phases: Liquid
Fixed: Pressure, kPa = 101
Fixed: Temperature, K = 298.15
Property: Speed of sound, m/s (Liquid); method: Pulse-echo method
Molality, mol/kg of N,N'-dimethylurea	Speed of sound, m/s	uncertainty
.06095	1499.82	.05
.1226	1502.95	.05
.1846	1506.07	.05
.247	1509.19	.05
.3099	1512.31	.05

System: N,N,N',N'-tetramethylurea + water; phases: Liquid
Fixed: Pressure, kPa = 101
Property: Mass density, kg/m3 (Liquid); method: Vibrating tube method
Molality, mol/kg of N,N,N',N'-tetramethylurea	Temperature, K	Mass density, kg/m3	uncertainty
0	288.15	999.09	.005
.05891	288.15	999.174	.005
.119	288.15	999.272	.005
.1794	288.15	999.383	.005
.2395	288.15	999.512	.005
.3011	288.15	999.653	.005
0	293.15	998.192	.005
.05891	293.15	998.255	.005
.119	293.15	998.329	.005
.1794	293.15	998.419	.005
.2395	293.15	998.518	.005
.3011	293.15	998.632	.005
0	298.15	997.03	.005
.05891	298.15	997.075	.005
.119	298.15	997.129	.005
.1794	298.15	997.195	.005
.2395	298.15	997.269	.005
.3011	298.15	997.357	.005
0	303.15	995.628	.005
.05891	303.15	995.657	.005
.119	303.15	995.689	.005
.1794	303.15	995.734	.005
.2395	303.15	995.787	.005
.3011	303.15	995.851	.005
0	308.15	994.01	.005
.05891	308.15	994.022	.005
.119	308.15	994.033	.005
.1794	308.15	994.062	.005
.2395	308.15	994.089	.005
.3011	308.15	994.131	.005

System: N,N,N',N'-tetramethylurea + water; phases: Liquid
Fixed: Pressure, kPa = 101
Fixed: Temperature, K = 298.15
Property: Speed of sound, m/s (Liquid); method: Pulse-echo method
Molality, mol/kg of N,N,N',N'-tetramethylurea	Speed of sound, m/s	uncertainty
.05891	1500.88	.05
.119	1505.12	.05
.1794	1509.33	.05
.2395	1513.49	.05
.3011	1517.72	.05

System: urea, ethyl- + water; phases: Liquid
Fixed: Pressure, kPa = 101
Property: Mass density, kg/m3 (Liquid); method: Vibrating tube method
Molality, mol/kg of urea, ethyl-	Temperature, K	Mass density, kg/m3	uncertainty
0	288.15	999.093	.005
.06285	288.15	999.725	.005
.1203	288.15	1000.294	.005
.179	288.15	1000.877	.005
.2358	288.15	1001.439	.005
.3016	288.15	1002.092	.005
0	293.15	998.193	.005
.06285	293.15	998.807	.005
.1203	293.15	999.358	.005
.179	293.15	999.919	.005
.2358	293.15	1000.466	.005
.3016	293.15	1001.092	.005
0	298.15	997.032	.005
.06285	298.15	997.629	.005
.1203	298.15	998.163	.005
.179	298.15	998.707	.005
.2358	298.15	999.234	.005
.3016	298.15	999.839	.005
0	303.15	995.633	.005
.06285	303.15	996.213	.005
.1203	303.15	996.73	.005
.179	303.15	997.258	.005
.2358	303.15	997.769	.005
.3016	303.15	998.357	.005
0	308.15	994.018	.005
.06285	308.15	994.58	.005
.1203	308.15	995.083	.005
.179	308.15	995.602	.005
.2358	308.15	996.09	.005
.3016	308.15	996.661	.005

System: urea, ethyl- + water; phases: Liquid
Fixed: Pressure, kPa = 101
Fixed: Temperature, K = 298.15
Property: Speed of sound, m/s (Liquid); method: Pulse-echo method
Molality, mol/kg of urea, ethyl-	Speed of sound, m/s	uncertainty
.06285	1500.03	.05
.1203	1503.07	.05
.179	1506.16	.05
.2358	1509.12	.05
.3016	1512.51	.05

System: N,N'-diethylurea + water; phases: Liquid
Fixed: Pressure, kPa = 101
Property: Mass density, kg/m3 (Liquid); method: Vibrating tube method
Molality, mol/kg of N,N'-diethylurea	Temperature, K	Mass density, kg/m3	uncertainty
0	288.15	999.095	.005
.06282	288.15	999.298	.005
.1269	288.15	999.524	.005
.1909	288.15	999.768	.005
.2561	288.15	1000.033	.005
.3224	288.15	1000.312	.005
0	293.15	998.198	.005
.06282	293.15	998.383	.005
.1269	293.15	998.589	.005
.1909	293.15	998.812	.005
.2561	293.15	999.043	.005
.3224	293.15	999.289	.005
0	298.15	997.037	.005
.06282	298.15	997.207	.005
.1269	298.15	997.392	.005
.1909	298.15	997.588	.005
.2561	298.15	997.793	.005
.3224	298.15	998.012	.005
0	303.15	995.636	.005
.06282	303.15	995.788	.005
.1269	303.15	995.959	.005
.1909	303.15	996.14	.005
.2561	303.15	996.313	.005
.3224	303.15	996.517	.005
0	308.15	994.02	.005
.06282	308.15	994.155	.005
.1269	308.15	994.306	.005
.1909	308.15	994.468	.005
.2561	308.15	994.634	.005
.3224	308.15	994.82	.005

System: N,N'-diethylurea + water; phases: Liquid
Fixed: Pressure, kPa = 101
Fixed: Temperature, K = 298.15
Property: Speed of sound, m/s (Liquid); method: Pulse-echo method
Molality, mol/kg of N,N'-diethylurea	Speed of sound, m/s	uncertainty
.06282	1501.82	.05
.1269	1507.01	.05
.1909	1512.08	.05
.2561	1517.19	.05
.3224	1522.33	.05

System: 1-butylurea + water; phases: Liquid
Fixed: Pressure, kPa = 101
Property: Mass density, kg/m3 (Liquid); method: Vibrating tube method
Molality, mol/kg of 1-butylurea	Temperature, K	Mass density, kg/m3	uncertainty
0	288.15	999.098	.005
.05745	288.15	999.477	.005
.1154	288.15	999.871	.005
.173	288.15	1000.274	.005
.2305	288.15	1000.681	.005
.2873	288.15	1001.105	.005
0	293.15	998.2	.005
.05745	293.15	998.55	.005
.1154	293.15	998.918	.005
.173	293.15	999.281	.005
.2305	293.15	999.67	.005
.2873	293.15	1000.057	.005
0	298.15	997.039	.005
.05745	298.15	997.366	.005
.1154	298.15	997.706	.005
.173	298.15	998.053	.005
.2305	298.15	998.404	.005
.2873	298.15	998.771	.005
0	303.15	995.638	.005
.05745	303.15	995.939	.005
.1154	303.15	996.251	.005
.173	303.15	996.57	.005
.2305	303.15	996.892	.005
.2873	303.15	997.219	.005
0	308.15	994.021	.005
.05745	308.15	994.3	.005
.1154	308.15	994.591	.005
.173	308.15	994.872	.005
.2305	308.15	995.175	.005
.2873	308.15	995.477	.005

System: 1-butylurea + water; phases: Liquid
Fixed: Pressure, kPa = 101
Fixed: Temperature, K = 298.15
Property: Speed of sound, m/s (Liquid); method: Pulse-echo method
Molality, mol/kg of 1-butylurea	Speed of sound, m/s	uncertainty
.05745	1501.46	.05
.1154	1506.29	.05
.173	1511.15	.05
.2305	1516.03	.05
.2873	1520.9	.05
