Measured thermophysical data. Excess properties and vapour pressure of {3-diethylaminopropylamine + cyclohexane}
Source: J. Chem. Thermodyn., 2010, 10.1016/j.jct.2010.01.016
Compound 1: cyclohexane, C6H12, purity 99%
Compound 2: 3-diethylaminopropylamine, C7H18N2, purity 99%

System: cyclohexane; phases: Liquid
Fixed: Pressure, kPa = 101.325
Property: Molar volume, m3/mol (Liquid); method: Vibrating tube method
Temperature, K	Molar volume, m3/mol	uncertainty
273.15	.00010525	.0000001
283.15	.00010642	.0000001
293.15	.00010764	.0000001
303.15	.0001089	.0000001
313.15	.00011022	.0000001
323.15	.00011159	.0000001
333.15	.00011303	.0000001
343.15	.00011453	.0000001
353.15	.0001161	.0000001
363.15	.00011776	.0000001

System: cyclohexane; phases: Liquid, Gas
Property: Vapor or sublimation pressure, kPa (Liquid); method: Closed cell (Static) method
Temperature, K	Vapor or sublimation pressure, kPa	uncertainty
273.15	3.726	.3
283.15	6.352	.3
293.15	10.361	.3
303.15	16.257	.3
313.15	24.647	.3
323.15	36.241	.3
333.15	51.854	.3
343.15	72.396	.3
353.15	98.868	.3
363.15	132.352	.3

System: 3-diethylaminopropylamine; phases: Liquid
Fixed: Pressure, kPa = 101.325
Property: Molar volume, m3/mol (Liquid); method: Vibrating tube method
Temperature, K	Molar volume, m3/mol	uncertainty
273.15	.00013686	.0000001
283.15	.0001383	.0000001
293.15	.00013978	.0000001
303.15	.00014132	.0000001
313.15	.0001429	.0000001
323.15	.00014455	.0000001
333.15	.00014626	.0000001
343.15	.00014804	.0000001
353.15	.00014988	.0000001
363.15	.00015181	.0000001

System: 3-diethylaminopropylamine; phases: Liquid, Gas
Property: Vapor or sublimation pressure, kPa (Liquid); method: Closed cell (Static) method
Temperature, K	Vapor or sublimation pressure, kPa	uncertainty
273.15	.031	1
283.15	.073	1
293.15	.155	1
303.15	.31	1
313.15	.586	1
323.15	1.053	1
333.15	1.809	.3
343.15	2.987	.3
353.15	4.759	.3
363.15	7.346	.3

System: 3-diethylaminopropylamine + cyclohexane; phases: Gas, Liquid
Property: Mole fraction of 3-diethylaminopropylamine (Gas); method: Calculated by Gibbs-Duhem equation
Mole fraction of 3-diethylaminopropylamine	Temperature, K	Mole fraction of 3-diethylaminopropylamine	uncertainty
.1013	273.15	.00185	.00005
.2177	273.15	.00326	.00005
.3209	273.15	.00452	.00005
.4535	273.15	.00655	.00005
.6559	273.15	.01228	.00005
.8455	273.15	.03052	.00005
.1013	283.15	.00235	.00005
.2177	283.15	.00425	.00005
.3209	283.15	.00599	.00005
.4535	283.15	.00886	.00005
.6559	283.15	.01701	.00005
.8455	283.15	.04274	.00005
.1013	293.15	.00291	.00005
.2177	293.15	.00541	.00005
.3209	293.15	.00774	.00005
.4535	293.15	.01165	.00005
.6559	293.15	.02276	.00005
.8455	293.15	.05753	.00005
.1013	303.15	.00355	.00005
.2177	303.15	.00673	.00005
.3209	303.15	.00978	.00005
.4535	303.15	.01492	.00005
.6559	303.15	.02959	.00005
.8455	303.15	.07488	.00005
.1013	313.15	.00425	.00005
.2177	313.15	.00822	.00005
.3209	313.15	.0121	.00005
.4535	313.15	.0187	.00005
.6559	313.15	.03751	.00005
.8455	313.15	.09468	.00005
.1013	323.15	.00504	.00005
.2177	323.15	.00994	.00005
.3209	323.15	.01478	.00005
.4535	323.15	.02302	.00005
.6559	323.15	.04644	.00005
.8455	323.15	.11624	.00005
.1013	333.15	.00586	.00005
.2177	333.15	.01173	.00005
.3209	333.15	.01763	.00005
.4535	333.15	.0278	.00005
.6559	333.15	.05664	.00005
.8455	333.15	.14092	.00005
.1013	343.15	.00676	.00005
.2177	343.15	.01373	.00005
.3209	343.15	.02084	.00005
.4535	343.15	.03313	.00005
.6559	343.15	.06784	.00005
.8455	343.15	.16687	.00005
.1013	353.15	.00773	.00005
.2177	353.15	.01591	.00005
.3209	353.15	.02434	.00005
.4535	353.15	.03897	.00005
.6559	353.15	.08007	.00005
.8455	353.15	.19435	.00005
.1013	363.15	.00877	.00005
.2177	363.15	.01825	.00005
.3209	363.15	.02814	.00005
.4535	363.15	.04532	.00005
.6559	363.15	.09332	.00005
.8455	363.15	.22307	.00005

System: 3-diethylaminopropylamine + cyclohexane; phases: Liquid, Gas
Property: Vapor or sublimation pressure, kPa (Liquid); method: Closed cell (Static) method
Mole fraction of 3-diethylaminopropylamine	Temperature, K	Vapor or sublimation pressure, kPa	uncertainty
.1013	273.15	3.4259	.0102777
.2177	273.15	3.1231	.0093693
.3209	273.15	2.89	.00867
.4535	273.15	2.5115	.0075345
.6559	273.15	1.7665	.0052995
.8455	273.15	.8654	1
.1013	283.15	5.8381	.0175143
.2177	283.15	5.3141	.0159423
.3209	283.15	4.8608	.0145824
.4535	283.15	4.2059	.0126177
.6559	283.15	2.9264	.0087792
.8455	283.15	1.422	1
.1013	293.15	9.5163	.0285489
.2177	293.15	8.6496	.0259488
.3209	293.15	7.8413	.0235239
.4535	293.15	6.755	.020265
.6559	293.15	4.6593	.0139779
.8455	293.15	2.2586	.0067758
.1013	303.15	14.9174	.0447522
.2177	303.15	13.5398	.0406194
.3209	303.15	12.191	.036573
.4535	303.15	10.4559	.0313677
.6559	303.15	7.1622	.0214866
.8455	303.15	3.4789	.0104367
.1013	313.15	22.5893	.0677679
.2177	313.15	20.4753	.0614259
.3209	313.15	18.3419	.0550257
.4535	313.15	15.6629	.0469887
.6559	313.15	10.6702	.0320106
.8455	313.15	5.2121	.0156363
.1013	323.15	33.1714	.0995142
.2177	323.15	30.0277	.0900831
.3209	323.15	26.8002	.0804006
.4535	323.15	22.7874	.0683622
.6559	323.15	15.5471	.0466413
.8455	323.15	7.6149	.0228447
.1013	333.15	47.4105	.1422315
.2177	333.15	42.7214	.1281642
.3209	333.15	38.345	.115035
.4535	333.15	32.2174	.0966522
.6559	333.15	21.7456	.0652368
.8455	333.15	10.9973	.0329919
.1013	343.15	66.0641	.1981923
.2177	343.15	59.6555	.1789665
.3209	343.15	53.0259	.1590777
.4535	343.15	44.7109	.1341327
.6559	343.15	30.1528	.0904584
.8455	343.15	15.2075	.0456225
.1013	353.15	90.0756	.2702268
.2177	353.15	81.243	.243729
.3209	353.15	72.1575	.2164725
.4535	353.15	60.597	.181791
.6559	353.15	40.7934	.1223802
.8455	353.15	20.8663	.0625989
.1013	363.15	120.3824	.3611472
.2177	363.15	108.8566	.3265698
.3209	363.15	96.3141	.2889423
.4535	363.15	80.5678	.2417034
.6559	363.15	54.1705	.1625115
.8455	363.15	28.1343	.0844029

System: 3-diethylaminopropylamine + cyclohexane; phases: Liquid
Fixed: Pressure, kPa = 101
Fixed: Temperature, K = 298.15
Property: Excess molar volume, m3/mol (Liquid); method: Calculated with densities of this investigation
Mole fraction of 3-diethylaminopropylamine	Excess molar volume, m3/mol	uncertainty
.113	.0000004593	.0000000013779
.21	.0000006762	.0000000020286
.3035	.0000007804	.0000000023412
.403	.0000008016	.0000000024048
.499	.0000007567	.0000000022701
.6008	.0000006785	.0000000020355
.7025	.0000005362	.0000000016086
.7965	.0000003692	.0000000011076
.8911	.0000002545	.0000000007635

System: 3-diethylaminopropylamine + cyclohexane; phases: Liquid
Fixed: Pressure, kPa = 101
Fixed: Temperature, K = 303.15
Property: Excess molar enthalpy (molar enthalpy of mixing), kJ/mol (Liquid); method: Calvet calorimetry
Mole fraction of 3-diethylaminopropylamine	Excess molar enthalpy (molar enthalpy of mixing), kJ/mol	uncertainty
.1022	.59	.0118
.2027	.874	.01748
.3028	1.024	.02048
.3197	1.034	.02068
.3519	1.051	.02102
.3953	1.068	.02136
.407	1.074	.02148
.4449	1.075	.0215
.4943	1.064	.02128
.5061	1.065	.0213
.5307	1.038	.02076
.5351	1.037	.02074
.5595	1.017	.02034
.5741	.998	.01996
.6073	.952	.01904
.6523	.879	.01758
.7017	.784	.01568
.7997	.548	.01096
.8696	.35	.007
