Measured thermophysical data. Volumetric properties of binary mixtures of {difluoromethane (R32) + trans-1,3,3,3-tetrafluoropropene (R1234ze(E))} at temperatures from 283.15 K to 363.15 K and pressures up to 100 MPa
Source: J. Chem. Thermodyn., 2016, 10.1016/j.jct.2016.05.013
Compound 1: R-134a, C2H2F4, purity 99.9%
Compound 2: R-32, CH2F2, purity 99.8%
Compound 3: R-1234ze(E), C3H2F4, purity 99.5%

System: R-134a; phases: Liquid
Property: Mass density, kg/m3 (Liquid); method: Vibrating tube method
Temperature, K	Pressure, kPa	Mass density, kg/m3	uncertainty
283.61	1000	1262.74	
283.61	5000	1279.71	
283.61	10000	1298.25	
283.61	20000	1329.21	
283.59	40000	1376.92	
283.59	60000	1413.86	
283.6	80000	1444.35	
303.46	1000	1188.35	
303.46	5000	1212.37	
303.46	10000	1237.01	
303.46	20000	1275.97	
303.46	40000	1332.37	
303.47	60000	1374.37	
303.47	80000	1408.33	
323.24	3000	1119.53	
323.24	5000	1136.67	
323.24	10000	1171.08	
323.24	20000	1220.9	
323.24	40000	1287.9	
323.24	60000	1335.45	
323.25	80000	1373.28	
343.03	3000	1015.76	
343.01	5000	1046.15	
343.02	10000	1098.02	
343.02	20000	1163.58	
343.03	40000	1243.36	
343.03	60000	1297.19	
343.03	80000	1338.42	
362.73	5000	923.63	
362.75	10000	1014.58	
362.75	20000	1102.91	
362.75	40000	1198.13	
362.74	60000	1258.69	
362.74	80000	1304.07	

System: R-32; phases: Liquid
Property: Mass density, kg/m3 (Liquid); method: Vibrating tube method
Temperature, K	Pressure, kPa	Mass density, kg/m3	uncertainty
283.54	3000	1027.1	
283.54	5000	1035.42	
283.55	10000	1054.01	
283.55	15000	1070.11	
283.55	20000	1084.45	
283.55	25000	1097.41	
283.56	30000	1109.29	
283.56	40000	1130.47	
283.56	60000	1165.73	
283.56	80000	1194.77	
283.55	100000	1219.47	
293.49	3000	989.19	
293.49	5000	999.53	
293.49	10000	1021.69	
293.48	15000	1040.44	
293.49	20000	1056.75	
293.49	25000	1071.31	
293.49	30000	1084.43	
293.49	40000	1107.67	
293.49	60000	1145.64	
293.5	80000	1176.55	
293.5	100000	1202.49	
303.43	3000	946.84	
303.43	5000	960	
303.42	10000	987.14	
303.42	15000	1009.19	
303.43	20000	1027.86	
303.43	25000	1044.2	
303.44	30000	1058.82	
303.43	40000	1084.3	
303.44	60000	1125.22	
303.45	80000	1157.85	
303.44	100000	1185.37	
313.35	3000	898.97	
313.36	5000	916.76	
313.35	10000	951.05	
313.36	15000	977.36	
313.36	20000	999	
313.37	25000	1017.48	
313.36	30000	1033.81	
313.36	40000	1061.8	
313.37	60000	1105.9	
313.36	80000	1140.76	
313.36	100000	1169.51	
323.26	5000	864.36	
323.25	10000	909.88	
323.25	15000	941.66	
323.25	20000	966.72	
323.25	25000	987.67	
323.25	30000	1005.85	
323.25	40000	1036.43	
323.25	60000	1083.93	
323.25	80000	1120.89	
323.25	100000	1151.14	
333.14	10000	865.89	
333.14	15000	905.11	
333.15	20000	934.53	
333.15	25000	958.47	
333.15	30000	978.86	
333.15	40000	1012.65	
333.15	60000	1063.95	
333.15	80000	1103.15	
333.15	100000	1134.94	
343	10000	815.42	
342.99	15000	866.16	
343	20000	901.33	
343	25000	928.7	
343	30000	951.59	
343	40000	988.88	
343.01	60000	1044.01	
343.01	80000	1085.29	
343.01	100000	1118.63	

System: R-32; phases: Fluid (supercritical or subcritical phases)
Property: Mass density, kg/m3 (Fluid (supercritical or subcritical phases)); method: Vibrating tube method
Temperature, K	Pressure, kPa	Mass density, kg/m3	uncertainty
352.86	15000	823.96	
352.87	20000	866.4	
352.87	25000	898.15	
352.87	30000	924.08	
352.87	40000	964.91	
352.87	60000	1024.24	
352.88	80000	1068.12	
352.88	100000	1102.96	
362.69	15000	776.44	
362.7	20000	828.47	
362.7	25000	865.39	
362.7	30000	894.58	
362.7	40000	939.6	
362.71	60000	1003.21	
362.71	80000	1049.32	
362.71	100000	1085.79	

System: R-32 + R-1234ze(E); phases: Liquid
Property: Mass density, kg/m3 (Liquid); method: Vibrating tube method
Temperature, K	Pressure, kPa	Mole fraction of R-32	Mass density, kg/m3	uncertainty
283.54	3000	.1742	1199.78	
283.56	3000	.4729	1155.9	
283.57	3000	.6651	1118.67	
283.57	3000	.8295	1078.74	
283.5	3000	.9448	1045.12	
283.54	5000	.1742	1207.31	
283.56	5000	.4729	1163.68	
283.57	5000	.6651	1126.63	
283.57	5000	.8295	1086.89	
283.5	5000	.9448	1053.38	
283.54	10000	.1742	1224.35	
283.56	10000	.4729	1181.24	
283.57	10000	.6651	1144.53	
283.57	10000	.8295	1105.15	
283.5	10000	.9448	1071.85	
283.54	15000	.1742	1239.45	
283.56	15000	.4729	1196.68	
283.57	15000	.6651	1160.23	
283.57	15000	.8295	1121.09	
283.5	15000	.9448	1087.94	
283.54	20000	.1742	1253.06	
283.56	20000	.4729	1210.54	
283.57	20000	.6651	1174.28	
283.57	20000	.8295	1135.29	
283.5	20000	.9448	1102.27	
283.54	25000	.1742	1265.5	
283.56	25000	.4729	1223.16	
283.57	25000	.6651	1187.02	
283.57	25000	.8295	1148.14	
283.5	25000	.9448	1115.23	
283.54	30000	.1742	1276.99	
283.56	30000	.4729	1234.77	
283.57	30000	.6651	1198.7	
283.57	30000	.8295	1159.91	
283.5	30000	.9448	1127.09	
283.54	40000	.1742	1297.73	
283.56	40000	.4729	1255.66	
283.57	40000	.6651	1219.7	
283.57	40000	.8295	1181.04	
283.5	40000	.9448	1148.3	
283.54	60000	.1742	1332.76	
283.56	60000	.4729	1290.76	
283.57	60000	.6651	1254.89	
283.57	60000	.8295	1216.29	
283.5	60000	.9448	1183.63	
283.54	80000	.1742	1361.96	
283.56	80000	.4729	1319.84	
283.57	80000	.6651	1283.91	
283.57	80000	.8295	1245.24	
283.5	80000	.9448	1212.65	
283.54	100000	.1742	1387.21	
283.56	100000	.4729	1344.87	
283.57	100000	.6651	1308.79	
283.57	100000	.8295	1270	
283.5	100000	.9448	1237.4	
293.46	3000	.1742	1169	
293.47	3000	.4729	1123	
293.48	3000	.6651	1084.02	
293.5	3000	.8295	1042.66	
293.44	3000	.9448	1007.66	
293.46	5000	.1742	1177.75	
293.47	5000	.4729	1132.2	
293.48	5000	.6651	1093.58	
293.5	5000	.8295	1052.53	
293.44	5000	.9448	1017.81	
293.46	10000	.1742	1197.2	
293.47	10000	.4729	1152.54	
293.48	10000	.6651	1114.54	
293.5	10000	.8295	1074.07	
293.44	10000	.9448	1039.79	
293.46	15000	.1742	1214.12	
293.47	15000	.4729	1170.02	
293.48	15000	.6651	1132.46	
293.5	15000	.8295	1092.39	
293.44	15000	.9448	1058.39	
293.46	20000	.1742	1229.13	
293.47	20000	.4729	1185.47	
293.48	20000	.6651	1148.22	
293.5	20000	.8295	1108.44	
293.44	20000	.9448	1074.66	
293.46	25000	.1742	1242.74	
293.47	25000	.4729	1199.36	
293.48	25000	.6651	1162.35	
293.5	25000	.8295	1122.75	
293.44	25000	.9448	1089.18	
293.46	30000	.1742	1255.2	
293.47	30000	.4729	1212.03	
293.48	30000	.6651	1175.18	
293.5	30000	.8295	1135.76	
293.44	30000	.9448	1102.35	
293.46	40000	.1742	1277.51	
293.47	40000	.4729	1234.61	
293.48	40000	.6651	1197.97	
293.5	40000	.8295	1158.76	
293.44	40000	.9448	1125.56	
293.46	60000	.1742	1314.69	
293.47	60000	.4729	1272.06	
293.48	60000	.6651	1235.63	
293.5	60000	.8295	1196.57	
293.44	60000	.9448	1163.63	
293.46	80000	.1742	1345.35	
293.47	80000	.4729	1302.75	
293.48	80000	.6651	1266.32	
293.5	80000	.8295	1227.28	
293.44	80000	.9448	1194.38	
293.46	100000	.1742	1371.7	
293.47	100000	.4729	1328.93	
293.48	100000	.6651	1292.46	
293.5	100000	.8295	1253.31	
293.44	100000	.9448	1220.33	
303.38	3000	.1742	1136.31	
303.38	3000	.4729	1087.37	
303.41	3000	.6651	1046.2	
303.42	3000	.8295	1002.68	
303.41	3000	.9448	965.98	
303.38	5000	.1742	1146.63	
303.38	5000	.4729	1098.55	
303.41	5000	.6651	1057.96	
303.42	5000	.8295	1015.11	
303.41	5000	.9448	978.89	
303.38	10000	.1742	1169.09	
303.38	10000	.4729	1122.47	
303.41	10000	.6651	1082.96	
303.42	10000	.8295	1041.15	
303.41	10000	.9448	1005.69	
303.38	15000	.1742	1188.14	
303.38	15000	.4729	1142.44	
303.41	15000	.6651	1103.65	
303.42	15000	.8295	1062.43	
303.41	15000	.9448	1027.48	
303.38	20000	.1742	1204.82	
303.38	20000	.4729	1159.77	
303.41	20000	.6651	1121.47	
303.42	20000	.8295	1080.67	
303.41	20000	.9448	1046.08	
303.38	25000	.1742	1219.72	
303.38	25000	.4729	1175.12	
303.41	25000	.6651	1137.2	
303.42	25000	.8295	1096.73	
303.41	25000	.9448	1062.4	
303.38	30000	.1742	1233.24	
303.38	30000	.4729	1188.99	
303.41	30000	.6651	1151.3	
303.42	30000	.8295	1111.12	
303.41	30000	.9448	1076.99	
303.38	40000	.1742	1257.26	
303.38	40000	.4729	1213.47	
303.41	40000	.6651	1176.11	
303.42	40000	.8295	1136.26	
303.41	40000	.9448	1102.45	
303.38	60000	.1742	1296.73	
303.38	60000	.4729	1253.42	
303.41	60000	.6651	1216.43	
303.42	60000	.8295	1176.9	
303.41	60000	.9448	1143.44	
303.38	80000	.1742	1328.93	
303.38	80000	.4729	1285.74	
303.41	80000	.6651	1248.85	
303.42	80000	.8295	1209.43	
303.41	80000	.9448	1176.07	
303.38	100000	.1742	1356.39	
303.38	100000	.4729	1313.13	
303.41	100000	.6651	1276.26	
303.42	100000	.8295	1236.73	
303.41	100000	.9448	1203.34	
313.38	3000	.1742	1100.66	
313.32	3000	.4729	1047.68	
313.36	3000	.6651	1003.17	
313.38	3000	.8295	956.89	
313.34	3000	.9448	918.12	
313.38	5000	.1742	1113.22	
313.32	5000	.4729	1061.91	
313.36	5000	.6651	1018.61	
313.38	5000	.8295	973.46	
313.34	5000	.9448	935.53	
313.38	10000	.1742	1139.57	
313.32	10000	.4729	1090.74	
313.36	10000	.6651	1049.39	
313.38	10000	.8295	1005.9	
313.34	10000	.9448	969.24	
313.38	15000	.1742	1161.22	
313.32	15000	.4729	1113.84	
313.36	15000	.6651	1073.59	
313.38	15000	.8295	1031.05	
313.34	15000	.9448	995.13	
313.38	20000	.1742	1179.84	
313.32	20000	.4729	1133.35	
313.36	20000	.6651	1093.85	
313.38	20000	.8295	1051.96	
313.34	20000	.9448	1016.53	
313.38	25000	.1742	1196.22	
313.32	25000	.4729	1150.4	
313.36	25000	.6651	1111.37	
313.38	25000	.8295	1070.01	
313.34	25000	.9448	1034.95	
313.38	30000	.1742	1210.94	
313.32	30000	.4729	1165.63	
313.36	30000	.6651	1126.94	
313.38	30000	.8295	1085.96	
313.34	30000	.9448	1051.2	
313.38	40000	.1742	1236.78	
313.32	40000	.4729	1192.14	
313.36	40000	.6651	1153.97	
313.38	40000	.8295	1113.46	
313.34	40000	.9448	1079.12	
313.38	60000	.1742	1278.71	
313.32	60000	.4729	1234.74	
313.36	60000	.6651	1197.15	
313.38	60000	.8295	1157.11	
313.34	60000	.9448	1123.21	
313.38	80000	.1742	1312.47	
313.32	80010	.4729	1268.8	
313.36	80000	.6651	1231.43	
313.38	80000	.8295	1191.53	
313.34	80000	.9448	1157.85	
313.38	100000	.1742	1341.1	
313.32	100000	.4729	1297.44	
313.36	100000	.6651	1260.2	
313.38	100000	.8295	1220.26	
313.34	100000	.9448	1186.56	
323.25	5000	.1742	1077.41	
323.21	5000	.4729	1021.06	
323.24	5000	.6651	974.43	
323.21	5000	.8295	925.68	
323.19	5000	.9448	885.61	
323.25	10000	.1742	1108.99	
323.21	10000	.4729	1057.09	
323.24	10000	.6651	1013.72	
323.21	10000	.8295	967.97	
323.19	10000	.9448	929.96	
323.25	15000	.1742	1133.8	
323.21	15000	.4729	1084.14	
323.24	15000	.6651	1042.41	
323.21	15000	.8295	998.2	
323.19	15000	.9448	961.26	
323.25	20000	.1742	1154.59	
323.21	20000	.4729	1106.32	
323.24	20000	.6651	1065.63	
323.21	20000	.8295	1022.39	
323.19	20000	.9448	986.13	
323.25	25000	.1742	1172.65	
323.21	25000	.4729	1125.33	
323.24	25000	.6651	1085.35	
323.21	25000	.8295	1042.79	
323.19	25000	.9448	1007	
323.25	30000	.1742	1188.71	
323.21	30000	.4729	1142.08	
323.24	30000	.6651	1102.62	
323.21	30000	.8295	1060.55	
323.19	30000	.9448	1025.13	
323.25	40000	.1742	1216.55	
323.21	40000	.4729	1170.84	
323.24	40000	.6651	1132.06	
323.21	40000	.8295	1090.7	
323.19	40000	.9448	1055.76	
323.25	60000	.1742	1261.05	
323.21	60000	.4729	1216.34	
323.24	60000	.6651	1178.28	
323.21	60000	.8295	1137.62	
323.19	60000	.9448	1103.26	
323.25	80000	.1742	1296.53	
323.21	80000	.4729	1252.23	
323.24	80000	.6651	1214.5	
323.21	80000	.8295	1174.08	
323.19	80000	.9448	1140.02	
323.25	100000	.1742	1326.32	
323.21	100000	.4729	1282.17	
323.24	100000	.6651	1244.57	
323.21	100000	.8295	1204.22	
323.19	100000	.9448	1170.26	
333.1	5000	.1742	1038.07	
333.1	5000	.4729	972.49	
333.12	5000	.6651	919.85	
333.12	5000	.8295	866.09	
333.08	5000	.9448	822.45	
333.1	10000	.1742	1077.44	
333.1	10000	.4729	1020.69	
333.12	10000	.6651	974.37	
333.12	10000	.8295	926.19	
333.08	10000	.9448	886.39	
333.1	15000	.1742	1106.23	
333.1	15000	.4729	1053	
333.12	15000	.6651	1009.26	
333.12	15000	.8295	963.39	
333.08	15000	.9448	925.25	
333.1	20000	.1742	1129.65	
333.1	20000	.4729	1078.41	
333.12	20000	.6651	1036.16	
333.12	20000	.8295	991.64	
333.08	20000	.9448	954.47	
333.1	25000	.1742	1149.62	
333.1	25000	.4729	1099.68	
333.12	25000	.6651	1058.39	
333.12	25000	.8295	1014.8	
333.08	25000	.9448	978.3	
333.1	30000	.1742	1167.15	
333.1	30000	.4729	1118.14	
333.12	30000	.6651	1077.56	
333.12	30000	.8295	1034.61	
333.08	30000	.9448	998.58	
333.1	40000	.1742	1197.12	
333.1	40000	.4729	1149.34	
333.12	40000	.6651	1109.67	
333.12	40000	.8295	1067.59	
333.08	40000	.9448	1032.25	
333.1	60000	.1742	1244.35	
333.1	60000	.4729	1197.87	
333.12	60000	.6651	1159.13	
333.12	60000	.8295	1117.94	
333.08	60000	.9448	1083.33	
333.1	80000	.1742	1281.53	
333.1	80000	.4729	1235.61	
333.12	80000	.6651	1197.35	
333.12	80000	.8295	1156.52	
333.08	80000	.9448	1122.28	
333.1	100000	.1742	1312.52	
333.1	100000	.4729	1266.85	
333.12	100000	.6651	1228.78	
333.12	100000	.8295	1188.11	
333.08	100000	.9448	1154.06	
342.98	5000	.1742	993.46	
342.98	10000	.1742	1048.56	
342.97	10000	.4729	986.5	
342.99	10000	.6651	935.97	
342.99	10000	.8295	884.58	
342.96	10000	.9448	842.83	
342.98	15000	.1742	1082.35	
342.97	15000	.4729	1026.01	
342.99	15000	.6651	979.51	
342.99	15000	.8295	932.05	
342.96	15000	.9448	892.94	
342.98	20000	.1742	1108.67	
342.97	20000	.4729	1055.19	
342.99	20000	.6651	1010.77	
342.99	20000	.8295	965.36	
342.96	20000	.9448	927.58	
342.98	25000	.1742	1130.64	
342.97	25000	.4729	1078.94	
342.99	25000	.6651	1035.75	
342.99	25000	.8295	991.58	
342.96	25000	.9448	954.74	
342.98	30000	.1742	1149.61	
342.97	30000	.4729	1099.11	
342.99	30000	.6651	1056.75	
342.99	30000	.8295	1013.48	
342.96	30000	.9448	977.35	
342.98	40000	.1742	1181.81	
342.97	40000	.4729	1132.92	
342.99	40000	.6651	1091.66	
342.99	40000	.8295	1049.65	
342.96	40000	.9448	1014.39	
342.98	60000	.1742	1231.96	
342.97	60000	.4729	1184.7	
342.99	60000	.6651	1144.6	
342.99	60000	.8295	1103.85	
342.96	60000	.9448	1069.53	
342.98	80000	.1742	1270.87	
342.97	80000	.4729	1224.35	
342.99	80000	.6651	1184.76	
342.99	80000	.8295	1144.59	
342.96	80000	.9448	1110.74	
342.98	100000	.1742	1303.12	
342.97	100000	.4729	1256.95	
342.99	100000	.6651	1217.51	
342.99	100000	.8295	1177.62	
342.96	100000	.9448	1143.99	
283.54	3000	1	1027.1	
283.54	5000	1	1035.42	
283.55	10000	1	1054.01	
283.55	15000	1	1070.11	
283.55	20000	1	1084.45	
283.55	25000	1	1097.41	
283.56	30000	1	1109.29	
283.56	40000	1	1130.47	
283.56	60000	1	1165.73	
283.56	80000	1	1194.77	
283.55	100000	1	1219.47	
293.49	3000	1	989.19	
293.49	5000	1	999.53	
293.49	10000	1	1021.69	
293.48	15000	1	1040.44	
293.49	20000	1	1056.75	
293.49	25000	1	1071.31	
293.49	30000	1	1084.43	
293.49	40000	1	1107.67	
293.49	60000	1	1145.64	
293.5	80000	1	1176.55	
293.5	100000	1	1202.49	
303.43	3000	1	946.84	
303.43	5000	1	960	
303.42	10000	1	987.14	
303.42	15000	1	1009.19	
303.43	20000	1	1027.86	
303.43	25000	1	1044.2	
303.44	30000	1	1058.82	
303.43	40000	1	1084.3	
303.44	60000	1	1125.22	
303.45	80000	1	1157.85	
303.44	100000	1	1185.37	
313.35	3000	1	898.97	
313.36	5000	1	916.76	
313.35	10000	1	951.05	
313.36	15000	1	977.36	
313.36	20000	1	999	
313.37	25000	1	1017.48	
313.36	30000	1	1033.81	
313.36	40000	1	1061.8	
313.37	60000	1	1105.9	
313.36	80000	1	1140.76	
313.36	100000	1	1169.51	
323.26	5000	1	864.36	
323.25	10000	1	909.88	
323.25	15000	1	941.66	
323.25	20000	1	966.72	
323.25	25000	1	987.67	
323.25	30000	1	1005.85	
323.25	40000	1	1036.43	
323.25	60000	1	1083.93	
323.25	80000	1	1120.89	
323.25	100000	1	1151.14	
333.14	10000	1	865.89	
333.14	15000	1	905.11	
333.15	20000	1	934.53	
333.15	25000	1	958.47	
333.15	30000	1	978.86	
333.15	40000	1	1012.65	
333.15	60000	1	1063.95	
333.15	80000	1	1103.15	
333.15	100000	1	1134.94	
343	10000	1	815.42	
342.99	15000	1	866.16	
343	20000	1	901.33	
343	25000	1	928.7	
343	30000	1	951.59	
343	40000	1	988.88	
343.01	60000	1	1044.01	
343.01	80000	1	1085.29	
343.01	100000	1	1118.63	

System: R-32 + R-1234ze(E); phases: Fluid (supercritical or subcritical phases)
Property: Mass density, kg/m3 (Fluid (supercritical or subcritical phases)); method: Vibrating tube method
Temperature, K	Pressure, kPa	Mole fraction of R-32	Mass density, kg/m3	uncertainty
352.84	10000	.1742	1010.66	
352.82	10000	.4729	940.25	
352.85	10000	.6651	883.8	
352.88	10000	.8295	827.62	
352.8	10000	.9448	782.91	
352.84	15000	.1742	1051.43	
352.82	15000	.4729	990.83	
352.85	15000	.6651	941.13	
352.88	15000	.8295	890.94	
352.8	15000	.9448	850.1	
352.84	20000	.1742	1081.4	
352.82	20000	.4729	1025.11	
352.85	20000	.6651	978.38	
352.88	20000	.8295	930.97	
352.8	20000	.9448	892.13	
352.84	25000	.1742	1105.74	
352.82	25000	.4729	1051.97	
352.85	25000	.6651	1006.96	
352.88	25000	.8295	961.2	
352.8	25000	.9448	923.62	
352.84	30000	.1742	1126.6	
352.82	30000	.4729	1074.44	
352.85	30000	.6651	1030.58	
352.88	30000	.8295	985.9	
352.8	30000	.9448	949.33	
352.84	40000	.1742	1161.42	
352.82	40000	.4729	1111.33	
352.85	40000	.6651	1068.94	
352.88	40000	.8295	1025.76	
352.8	40000	.9448	990.04	
352.84	60000	.1742	1214.74	
352.82	60000	.4729	1166.62	
352.85	60000	.6651	1125.71	
352.88	60000	.8295	1084	
352.8	60000	.9448	1049.46	
352.84	80000	.1742	1255.64	
352.82	80000	.4729	1208.43	
352.85	80000	.6651	1168.13	
352.88	80000	.8295	1127.21	
352.8	80000	.9448	1093.22	
352.84	100000	.1742	1289.27	
352.82	100000	.4729	1242.48	
352.85	100000	.6651	1202.47	
352.88	100000	.8295	1161.87	
352.8	100000	.9448	1128.27	
362.68	10000	.1742	967.8	
362.68	15000	.1742	1019.21	
362.64	15000	.4729	953.42	
362.69	15000	.6651	900.37	
362.71	15000	.8295	846.98	
362.66	15000	.9448	804.07	
362.68	20000	.1742	1053.79	
362.64	20000	.4729	994.24	
362.69	20000	.6651	945.34	
362.71	20000	.8295	895.76	
362.66	20000	.9448	855.51	
362.68	25000	.1742	1081.1	
362.64	25000	.4729	1024.75	
362.69	25000	.6651	978.23	
362.71	25000	.8295	930.72	
362.66	25000	.9448	892	
362.68	30000	.1742	1103.92	
362.64	30000	.4729	1049.66	
362.69	30000	.6651	1004.54	
362.71	30000	.8295	958.44	
362.66	30000	.9448	920.74	
362.68	40000	.1742	1141.52	
362.64	40000	.4729	1089.81	
362.69	40000	.6651	1046.39	
362.71	40000	.8295	1002.04	
362.66	40000	.9448	965.74	
362.68	60000	.1742	1198.02	
362.64	60000	.4729	1148.74	
362.69	60000	.6651	1107	
362.71	60000	.8295	1064.46	
362.66	60000	.9448	1029.53	
362.68	80000	.1742	1240.73	
362.64	80000	.4729	1192.61	
362.69	80000	.6651	1151.59	
362.71	80000	.8295	1109.92	
362.66	80000	.9448	1075.65	
362.68	100000	.1742	1275.61	
362.64	100000	.4729	1228	
362.69	100000	.6651	1187.29	
362.71	100000	.8295	1146.16	
362.66	100000	.9448	1112.21	
352.86	15000	1	823.96	
352.87	20000	1	866.4	
352.87	25000	1	898.15	
352.87	30000	1	924.08	
352.87	40000	1	964.91	
352.87	60000	1	1024.24	
352.88	80000	1	1068.12	
352.88	100000	1	1102.96	
362.69	15000	1	776.44	
362.7	20000	1	828.47	
362.7	25000	1	865.39	
362.7	30000	1	894.58	
362.7	40000	1	939.6	
362.71	60000	1	1003.21	
362.71	80000	1	1049.32	
362.71	100000	1	1085.79	
