Measured thermophysical data. Effect of temperature on the physical properties of two ionic liquids
Source: J. Chem. Thermodyn., 2009, 10.1016/j.jct.2009.06.020
Compound 1: 1-butyl-1-methylpyrrolidinium bis[(trifluoromethyl)sulfonyl]imide, C11H20F6N2O4S2, purity 99%
Compound 2: trihexyltetradecylphosphonium dicyanamide, C34H66N3P, purity 97%
Compound 3: benzene, C6H6, purity 99%
Compound 4: toluene, C7H8, purity 99%
Compound 5: ethylbenzene, C8H10, purity 99%

System: 1-butyl-1-methylpyrrolidinium bis[(trifluoromethyl)sulfonyl]imide; phases: Crystal, Liquid, Air at 1 atmosphere
Property: Normal melting temperature, K (Crystal); method: Visual observation
Normal melting temperature, K	uncertainty
265.15	

System: 1-butyl-1-methylpyrrolidinium bis[(trifluoromethyl)sulfonyl]imide; phases: Liquid
Fixed: Pressure, kPa = 101.325
Property: Mass density, kg/m3 (Liquid); method: Vibrating tube method
Temperature, K	Mass density, kg/m3	uncertainty
278.15	1412.36	2.82472
283.15	1407.86	2.81572
288.15	1403.45	2.8069
293.15	1399.02	2.79804
298.15	1394.59	2.78918
303.15	1390.2	2.7804
308.15	1385.8	2.7716
313.15	1381.42	2.76284
318.15	1377.04	2.75408
323.15	1372.69	2.74538
328.15	1368.35	2.7367
333.15	1364.02	2.72804
338.15	1359.71	2.71942
343.15	1355.41	2.71082

System: 1-butyl-1-methylpyrrolidinium bis[(trifluoromethyl)sulfonyl]imide; phases: Liquid
Fixed: Pressure, kPa = 101.325
Property: Speed of sound, m/s (Liquid); method: Single path-length method
Temperature, K	Speed of sound, m/s	uncertainty
278.15	1316	1.316
283.15	1303	1.303
288.15	1291	1.291
293.15	1280	1.28
298.15	1269	1.269
303.15	1258	1.258
308.15	1247	1.247
313.15	1236	1.236
318.15	1225	1.225
323.15	1214	1.214
328.15	1204	1.204
333.15	1193	1.193
338.15	1183	1.183
343.15	1173	1.173

System: 1-butyl-1-methylpyrrolidinium bis[(trifluoromethyl)sulfonyl]imide; phases: Liquid
Fixed: Pressure, kPa = 101.325
Property: Refractive index (Na D-line) (Liquid); method: Standard Abbe refractometry
Temperature, K	Refractive index (Na D-line)	uncertainty
283.15	1.42717	.00004
288.15	1.42573	.00004
293.15	1.4243	.00004
298.15	1.42304	.00004
303.15	1.42164	.00004
308.15	1.42021	.00004
313.15	1.41878	.00004
318.15	1.41736	.00004
323.15	1.41588	.00004
328.15	1.41447	.00004
333.15	1.413	.00004
338.15	1.4116	.00004
343.15	1.4102	.00004

System: 1-butyl-1-methylpyrrolidinium bis[(trifluoromethyl)sulfonyl]imide; phases: Liquid
Fixed: Pressure, kPa = 101.325
Property: Viscosity, Pa*s (Liquid); method: Capillary tube (Ostwald; Ubbelohde) method
Temperature, K	Viscosity, Pa*s	uncertainty
293.15	.09807	.0019614
298.15	.07692	.0015384
303.15	.06147	.0012294
308.15	.04994	.0009988
313.15	.04122	.0008244
318.15	.03432	.0006864
323.15	.02895	.000579
328.15	.02468	.0004936
333.15	.02123	.0004246
338.15	.01842	.0003684
343.15	.01612	.0003224

System: 1-butyl-1-methylpyrrolidinium bis[(trifluoromethyl)sulfonyl]imide; phases: Liquid
Fixed: Pressure, kPa = 101.325
Property: Isobaric coefficient of expansion, 1/K (Liquid); method: Curve Fitting Density Data
Temperature, K	Isobaric coefficient of expansion, 1/K	uncertainty
298.15	.0633	.0003165

System: trihexyltetradecylphosphonium dicyanamide; phases: Liquid
Fixed: Pressure, kPa = 101.325
Property: Mass density, kg/m3 (Liquid); method: Vibrating tube method
Temperature, K	Mass density, kg/m3	uncertainty
278.15	910.72	1.82144
283.15	907.58	1.81516
288.15	904.66	1.80932
293.15	901.76	1.80352
298.15	898.86	1.79772
303.15	895.98	1.79196
308.15	893.09	1.78618
313.15	890.26	1.78052
318.15	887.46	1.77492
323.15	884.65	1.7693
328.15	881.83	1.76366
333.15	879.03	1.75806
338.15	876.22	1.75244
343.15	873.42	1.74684

System: trihexyltetradecylphosphonium dicyanamide; phases: Liquid
Fixed: Pressure, kPa = 101.325
Property: Speed of sound, m/s (Liquid); method: Single path-length method
Temperature, K	Speed of sound, m/s	uncertainty
278.15	1599	1.599
283.15	1579	1.579
288.15	1561	1.561
293.15	1542	1.542
298.15	1526	1.526
303.15	1509	1.509
308.15	1493	1.493
313.15	1477	1.477
318.15	1462	1.462
323.15	1447	1.447
328.15	1432	1.432
333.15	1418	1.418
338.15	1404	1.404
343.15	1390	1.39

System: trihexyltetradecylphosphonium dicyanamide; phases: Liquid
Fixed: Pressure, kPa = 101.325
Property: Refractive index (Na D-line) (Liquid); method: Standard Abbe refractometry
Temperature, K	Refractive index (Na D-line)	uncertainty
283.15	1.48826	.00004
288.15	1.48667	.00004
293.15	1.48502	.00004
298.15	1.48337	.00004
303.15	1.48174	.00004
308.15	1.48008	.00004
313.15	1.47843	.00004
318.15	1.47679	.00004
323.15	1.47516	.00004
328.15	1.47352	.00004
333.15	1.47189	.00004
338.15	1.47024	.00004
343.15	1.46848	.00004

System: trihexyltetradecylphosphonium dicyanamide; phases: Liquid
Fixed: Pressure, kPa = 101.325
Property: Viscosity, Pa*s (Liquid); method: Capillary tube (Ostwald; Ubbelohde) method
Temperature, K	Viscosity, Pa*s	uncertainty
293.15	.56245	.011249
298.15	.41833	.0083666
303.15	.31269	.0062538
308.15	.23997	.0047994
313.15	.18679	.0037358
318.15	.14595	.002919
323.15	.11618	.0023236
328.15	.0938	.001876
333.15	.07614	.0015228
338.15	.06263	.0012526
343.15	.05199	.0010398

System: trihexyltetradecylphosphonium dicyanamide; phases: Liquid
Fixed: Pressure, kPa = 101.325
Property: Isobaric coefficient of expansion, 1/K (Liquid); method: Curve Fitting Density Data
Temperature, K	Isobaric coefficient of expansion, 1/K	uncertainty
298.15	.0642	.000321

System: benzene + 1-butyl-1-methylpyrrolidinium bis[(trifluoromethyl)sulfonyl]imide; phases: Liquid mixture 1, Liquid mixture 2
Fixed: Pressure, kPa = 101.3
Property: Mole fraction of benzene (Liquid mixture 1); method: Density calibration data
Temperature, K	Mole fraction of benzene	uncertainty
298.15	.19	.002

System: toluene + 1-butyl-1-methylpyrrolidinium bis[(trifluoromethyl)sulfonyl]imide; phases: Liquid mixture 1, Liquid mixture 2
Fixed: Pressure, kPa = 101.3
Property: Mole fraction of toluene (Liquid mixture 1); method: Density calibration data
Temperature, K	Mole fraction of toluene	uncertainty
298.15	.27	.002

System: ethylbenzene + 1-butyl-1-methylpyrrolidinium bis[(trifluoromethyl)sulfonyl]imide; phases: Liquid mixture 1, Liquid mixture 2
Fixed: Pressure, kPa = 101.3
Property: Mole fraction of ethylbenzene (Liquid mixture 1); method: Density calibration data
Temperature, K	Mole fraction of ethylbenzene	uncertainty
298.15	.32	.002
