Measured thermophysical data. Liquid-liquid extraction of aromatics from their mixtures with alkanes using 1-methyl 3-octylimidazolium thiocyanate ionic liquid
Source: J. Chem. Thermodyn., 2012, 10.1016/j.jct.2012.05.006
Compound 1: 1-methyl-3-octylimidazolium thiocyanate, C13H23N3S
Compound 2: n-hexane, C6H14, purity 99%
Compound 3: heptane, C7H16, purity 99%
Compound 4: n-octane, C8H18, purity 99%
Compound 5: ethylbenzene, C8H10, purity 99%
Compound 6: 1,4-dimethylbenzene, C8H10, purity 99%

System: 1-methyl-3-octylimidazolium thiocyanate; phases: Liquid
Fixed: Pressure, kPa = 101.325
Property: Mass density, kg/m3 (Liquid); method: Vibrating tube method
Temperature, K	Mass density, kg/m3	uncertainty
288.15	1014	.04
293.15	1011.1	.04
298.15	1008.3	.04
303.15	1005.4	.04
308.15	1002.6	.04
313.15	999.7	.04
318.15	996.7	.04
323.15	994.1	.04
328.15	991.3	.04
333.15	988.4	.04
338.15	985.6	.04
343.15	982.9	.04

System: ethylbenzene + n-hexane + 1-methyl-3-octylimidazolium thiocyanate; phases: Liquid mixture 2, Liquid mixture 1
Fixed: Pressure, kPa = 101
Fixed: Temperature, K = 298.15
Property: Mole fraction of n-hexane (Liquid mixture 2); method: Chromatography
Property: Mole fraction of ethylbenzene (Liquid mixture 1); method: Chromatography
Property: Mole fraction of n-hexane (Liquid mixture 1); method: Chromatography
Mole fraction of ethylbenzene	Mole fraction of n-hexane	uncertainty	Mole fraction of ethylbenzene	uncertainty	Mole fraction of n-hexane	uncertainty
.436	.085	.005	.709	.005	.291	.005
.288	.121	.005	.494	.005	.506	.005
.233	.122	.005	.394	.005	.606	.005
.175	.115	.005	.306	.005	.694	.005
.113	.08	.005	.131	.005	.869	.005
.421	.087	.005	.664	.005	.336	.005
.351	.106	.005	.56	.005	.44	.005
.243	.112	.005	.417	.005	.583	.005
.21	.105	.005	.331	.005	.669	.005
.141	.099	.005	.183	.005	.817	.005

System: ethylbenzene + heptane + 1-methyl-3-octylimidazolium thiocyanate; phases: Liquid mixture 2, Liquid mixture 1
Fixed: Temperature, K = 298.15
Fixed: Pressure, kPa = 101
Property: Mole fraction of heptane (Liquid mixture 2); method: Chromatography
Property: Mole fraction of ethylbenzene (Liquid mixture 1); method: Chromatography
Property: Mole fraction of heptane (Liquid mixture 1); method: Chromatography
Mole fraction of ethylbenzene	Mole fraction of heptane	uncertainty	Mole fraction of ethylbenzene	uncertainty	Mole fraction of heptane	uncertainty
.446	.061	.005	.726	.005	.274	.005
.302	.074	.005	.515	.005	.485	.005
.236	.071	.005	.424	.005	.576	.005
.191	.079	.005	.331	.005	.669	.005
.107	.052	.005	.153	.005	.847	.005
.42	.08	.005	.701	.005	.299	.005
.322	.067	.005	.529	.005	.471	.005
.206	.071	.005	.364	.005	.636	.005
.14	.073	.005	.205	.005	.795	.005

System: ethylbenzene + n-octane + 1-methyl-3-octylimidazolium thiocyanate; phases: Liquid mixture 2, Liquid mixture 1
Fixed: Temperature, K = 298.15
Fixed: Pressure, kPa = 101
Property: Mole fraction of n-octane (Liquid mixture 2); method: Chromatography
Property: Mole fraction of ethylbenzene (Liquid mixture 1); method: Chromatography
Property: Mole fraction of n-octane (Liquid mixture 1); method: Chromatography
Mole fraction of ethylbenzene	Mole fraction of n-octane	uncertainty	Mole fraction of ethylbenzene	uncertainty	Mole fraction of n-octane	uncertainty
.441	.046	.005	.747	.005	.253	.005
.314	.06	.005	.541	.005	.459	.005
.251	.054	.005	.435	.005	.565	.005
.209	.063	.005	.345	.005	.655	.005
.122	.088	.005	.167	.005	.833	.005
.416	.044	.005	.718	.005	.282	.005
.313	.057	.005	.552	.005	.448	.005
.26	.059	.005	.473	.005	.527	.005
.21	.062	.005	.387	.005	.613	.005
.151	.081	.005	.225	.005	.775	.005

System: 1,4-dimethylbenzene + n-hexane + 1-methyl-3-octylimidazolium thiocyanate; phases: Liquid mixture 2, Liquid mixture 1
Fixed: Temperature, K = 298.15
Fixed: Pressure, kPa = 101
Property: Mole fraction of n-hexane (Liquid mixture 2); method: Chromatography
Property: Mole fraction of 1,4-dimethylbenzene (Liquid mixture 1); method: Chromatography
Property: Mole fraction of n-hexane (Liquid mixture 1); method: Chromatography
Mole fraction of 1,4-dimethylbenzene	Mole fraction of n-hexane	uncertainty	Mole fraction of 1,4-dimethylbenzene	uncertainty	Mole fraction of n-hexane	uncertainty
.48	.042	.005	.781	.005	.219	.005
.374	.079	.005	.636	.005	.364	.005
.278	.108	.005	.495	.005	.505	.005
.175	.101	.005	.306	.005	.694	.005
.113	.098	.005	.131	.005	.869	.005
.389	.066	.005	.668	.005	.332	.005
.219	.107	.005	.418	.005	.582	.005
.192	.101	.005	.328	.005	.672	.005
.141	.101	.005	.182	.005	.818	.005

System: 1,4-dimethylbenzene + heptane + 1-methyl-3-octylimidazolium thiocyanate; phases: Liquid mixture 2, Liquid mixture 1
Fixed: Temperature, K = 298.15
Fixed: Pressure, kPa = 101
Property: Mole fraction of heptane (Liquid mixture 2); method: Chromatography
Property: Mole fraction of 1,4-dimethylbenzene (Liquid mixture 1); method: Chromatography
Property: Mole fraction of heptane (Liquid mixture 1); method: Chromatography
Mole fraction of 1,4-dimethylbenzene	Mole fraction of heptane	uncertainty	Mole fraction of 1,4-dimethylbenzene	uncertainty	Mole fraction of heptane	uncertainty
.418	.052	.005	.734	.005	.266	.005
.183	.065	.005	.333	.005	.667	.005
.098	.063	.005	.155	.005	.845	.005
.395	.057	.005	.699	.005	.301	.005
.294	.054	.005	.626	.005	.374	.005
.267	.067	.005	.533	.005	.467	.005
.238	.081	.005	.452	.005	.548	.005
.126	.074	.005	.212	.005	.788	.005

System: 1,4-dimethylbenzene + n-octane + 1-methyl-3-octylimidazolium thiocyanate; phases: Liquid mixture 2, Liquid mixture 1
Fixed: Pressure, kPa = 101
Fixed: Temperature, K = 298.15
Property: Mole fraction of n-octane (Liquid mixture 2); method: Chromatography
Property: Mole fraction of 1,4-dimethylbenzene (Liquid mixture 1); method: Chromatography
Property: Mole fraction of n-octane (Liquid mixture 1); method: Chromatography
Mole fraction of 1,4-dimethylbenzene	Mole fraction of n-octane	uncertainty	Mole fraction of 1,4-dimethylbenzene	uncertainty	Mole fraction of n-octane	uncertainty
.426	.044	.005	.753	.005	.247	.005
.286	.049	.005	.553	.005	.447	.005
.221	.048	.005	.458	.005	.542	.005
.184	.047	.005	.361	.005	.639	.005
.098	.063	.005	.172	.005	.828	.005
.393	.041	.005	.724	.005	.276	.005
.307	.063	.005	.62	.005	.38	.005
.25	.059	.005	.48	.005	.52	.005
.205	.064	.005	.396	.005	.604	.005
.123	.056	.005	.235	.005	.765	.005
