Measured thermophysical data. A comprehensive study of the heat capacity of CsF from T = 5 K to T = 1400 K
Source: J. Chem. Thermodyn., 2013, 10.1016/j.jct.2012.08.003
Compound 1: cesium monofluoride, CsF, purity 99.95%

System: cesium monofluoride; phases: Crystal, Liquid, Air at 1 atmosphere
Property: Molar enthalpy of transition or fusion, kJ/mol (Crystal); method: DSC/DTA
Molar enthalpy of transition or fusion, kJ/mol	uncertainty
22.1	2

System: cesium monofluoride; phases: Crystal, Liquid, Air at 1 atmosphere
Property: Molar enthalpy of transition or fusion, kJ/mol (Crystal); method: enthalpy increment functions
Molar enthalpy of transition or fusion, kJ/mol	uncertainty
21.4	3

System: cesium monofluoride; phases: Crystal
Fixed: Pressure, kPa = 101.325
Property: Molar heat capacity at constant pressure, J/K/mol (Crystal); method: Vacuum adiabatic calorimetry
Temperature, K	Molar heat capacity at constant pressure, J/K/mol	uncertainty
5	.16	2
10	1.3	2
15	4.39	2
20	8.57	2
25	12.33	2
30	15.77	2
35	18.9	2
40	21.75	2
45	24.36	2
50	26.72	2
60	30.78	2
70	34.08	2
80	36.74	1
90	38.87	1
100	40.59	1
110	42.2	1
120	43.53	1
130	44.7	1
140	45.59	1
150	46.3	1
160	46.86	1
170	47.31	1
180	47.69	1
190	48	1
200	48.28	1
210	48.51	1
220	48.73	1
230	48.93	1
240	49.12	1
250	49.3	1
260	49.48	1
270	49.66	1
280	49.84	1
290	50.03	1
298.15	50.19	1
300	50.22	1
310	50.42	1
320	50.63	1
330	50.86	1
340	51.09	1
350	51.33	1

System: cesium monofluoride; phases: Crystal
Fixed: Pressure, kPa = 101.325
Property: Molar entropy, J/K/mol (Crystal); method: Vacuum adiabatic calorimetry
Temperature, K	Molar entropy, J/K/mol	uncertainty
5	.08	
10	.49	
15	1.54	
20	3.34	
25	5.65	
30	8.2	
35	10.86	
40	13.57	
45	16.28	
50	18.97	
60	24.21	
70	29.21	
80	33.94	
90	38.4	
100	42.59	
110	46.53	
120	50.27	
130	53.8	
140	57.15	
150	60.32	
160	63.33	
170	66.18	
180	68.9	
190	71.49	
200	73.95	
210	76.32	
220	78.58	
230	80.75	
240	82.84	
250	84.84	
260	86.78	
270	88.65	
280	90.46	
290	92.21	
298.15	93.6	
300	93.91	
310	95.56	
320	97.17	
330	98.73	
340	100.25	
350	101.74	

System: cesium monofluoride; phases: Crystal
Fixed: Pressure, kPa = 101.325
Property: Molar enthalpy, kJ/mol (Crystal); method: Vacuum adiabatic calorimetry
Temperature, K	Molar enthalpy, kJ/mol	uncertainty
5	.0004	
10	.0041	
15	.0183	
20	.0507	
25	.1029	
30	.1732	
35	.2599	
40	.3615	
45	.4768	
50	.6045	
60	.8925	
70	1.2172	
80	1.5717	
90	1.95	
100	2.3475	
110	2.7617	
120	3.191	
130	3.6324	
140	4.084	
150	4.5436	
160	5.0094	
170	5.4803	
180	5.9554	
190	6.4339	
200	6.9153	
210	7.3992	
220	7.8855	
230	8.3738	
240	8.864	
250	9.3561	
260	9.85	
270	10.3457	
280	10.8432	
290	11.3425	
298.15	11.7509	
300	11.8438	
310	12.347	
320	12.8522	
330	13.3597	
340	13.8694	
350	14.3815	

System: cesium monofluoride; phases: Crystal
Fixed: Pressure, kPa = 101.325
Property: Molar enthalpy, kJ/mol (Crystal); method: Drop calorimetry
Temperature, K	Molar enthalpy, kJ/mol	uncertainty
402.9	5.257	
429.4	7.093	
455.5	8.23	
481.6	9.553	
507.4	13.215	
533.2	14.618	
558.9	15.688	
584.2	16.413	
609.9	20.125	
634.9	21.876	
660.1	23.889	
685.3	25.554	
710.4	24.402	
735.5	25.568	
760.6	29.482	
785.8	29.401	
810.5	32.339	
835.6	35.048	
860.9	39.19	
885.4	38.635	
910.7	42.894	
935.1	44.312	
960.2	52.34	

System: cesium monofluoride; phases: Liquid
Fixed: Pressure, kPa = 101.325
Property: Molar enthalpy, kJ/mol (Liquid); method: Drop calorimetry
Temperature, K	Molar enthalpy, kJ/mol	uncertainty
1033.6	68.746	
1083.7	75.341	
1133.5	78.178	
1183.2	79.845	
1233	83.674	
1282.8	85.773	
1257.8	83.736	
1208.2	83.383	
1108.7	76.89	
1059	73.227	
1158.3	81.876	
984.3	69.914	
1332.2	95.186	
1382.3	98.011	

System: cesium monofluoride; phases: Crystal
Fixed: Pressure, kPa = 101.325
Property: Molar heat capacity at constant pressure, J/K/mol (Crystal); method: Drop calorimetry
Temperature, K	Molar heat capacity at constant pressure, J/K/mol	uncertainty
298.15	50.19	
300	50.23	
350	51.72	
400	53.82	
450	56.28	
500	58.95	
550	61.78	
600	64.69	
650	67.68	
700	70.72	
750	73.8	
800	76.9	
850	80.02	
900	83.17	
950	86.32	
973	87.78	

System: cesium monofluoride; phases: Liquid
Fixed: Pressure, kPa = 101.325
Property: Molar heat capacity at constant pressure, J/K/mol (Liquid); method: Drop calorimetry
Temperature, K	Molar heat capacity at constant pressure, J/K/mol	uncertainty
973	70.56	
1000	70.56	
1050	70.56	
1100	70.56	
1150	70.56	
1200	70.56	
1250	70.56	
1300	70.56	
1350	70.56	
1400	70.56	

System: cesium monofluoride; phases: Crystal
Fixed: Pressure, kPa = 101.325
Property: Molar enthalpy, kJ/mol (Crystal); method: Drop calorimetry
Temperature, K	Molar enthalpy, kJ/mol	uncertainty
298.15	0	
300	.093	
350	2.638	
400	5.275	
450	8.026	
500	10.906	
550	13.924	
600	17.085	
650	20.395	
700	23.855	
750	27.467	
800	31.234	
850	35.157	
900	39.237	
950	43.474	
973	45.476	

System: cesium monofluoride; phases: Liquid
Fixed: Pressure, kPa = 101.325
Property: Molar enthalpy, kJ/mol (Liquid); method: Drop calorimetry
Temperature, K	Molar enthalpy, kJ/mol	uncertainty
973	67.576	
1000	69.481	
1050	73.009	
1100	76.537	
1150	80.065	
1200	83.593	
1250	87.121	
1300	90.649	
1350	94.177	
1400	97.705	

System: cesium monofluoride; phases: Crystal
Fixed: Pressure, kPa = 101.325
Property: Molar entropy, J/K/mol (Crystal); method: Drop calorimetry
Temperature, K	Molar entropy, J/K/mol	uncertainty
298.15	93.6	
300	93.91	
350	101.76	
400	108.79	
450	115.27	
500	121.34	
550	127.09	
600	132.59	
650	137.88	
700	143.01	
750	148	
800	152.86	
850	157.61	
900	162.28	
950	166.86	
973	168.94	

System: cesium monofluoride; phases: Liquid
Fixed: Pressure, kPa = 101.325
Property: Molar entropy, J/K/mol (Liquid); method: Drop calorimetry
Temperature, K	Molar entropy, J/K/mol	uncertainty
973	191.65	
1000	193.58	
1050	197.03	
1100	200.31	
1150	203.44	
1200	206.45	
1250	209.33	
1300	212.1	
1350	214.76	
1400	217.32	
