Measured thermophysical data. Adamantanes: Benchmarking of thermochemical properties
Source: J. Chem. Thermodyn., 2016, 10.1016/j.jct.2016.05.017
Compound 1: 2-adamantanone, C10H14O, purity 99%
Compound 2: 1-adamantanol, C10H16O, purity 99%
Compound 3: 1-adamantyl methyl ketone, C12H18O, purity 98%
Compound 4: 1-adamantanecarboxylic acid, C11H16O2, purity 99%
Compound 5: adamantane-2-carboxylic acid, C11H16O2, purity 98%
Compound 6: cyclohexane, C6H12, purity 99%
Compound 7: carbon dioxide, CO2
Compound 8: water, H2O
Compound 9: oxygen, O2

System: 2-adamantanone; phases: Crystal, Gas
Property: Vapor or sublimation pressure, kPa (Crystal); method: Transpiration method
Temperature, K	Vapor or sublimation pressure, kPa	uncertainty
293.5	.00109	
296.4	.00142	
297.4	.00156	
298.5	.00172	
300.4	.00199	
303.4	.00258	
306.4	.00341	
308.4	.00417	
313.4	.00608	
318.4	.00903	
323.4	.01275	
328.4	.01873	
333.4	.02597	
338.5	.03782	
343.3	.05432	
348.4	.07513	
353.3	.09857	
358.3	.1302	
363.4	.1815	
368.4	.2462	
373.4	.3099	

System: 1-adamantyl methyl ketone; phases: Crystal, Liquid, Air at 1 atmosphere
Property: Triple point temperature, K (Crystal); method: DSC
Triple point temperature, K	uncertainty
325.2	.5

System: 1-adamantyl methyl ketone; phases: Crystal, Liquid, Air at 1 atmosphere
Property: Molar enthalpy of transition or fusion, kJ/mol (Crystal); method: DSC
Molar enthalpy of transition or fusion, kJ/mol	uncertainty
19.5	.3

System: 1-adamantyl methyl ketone; phases: Crystal, Gas
Property: Vapor or sublimation pressure, kPa (Crystal); method: Transpiration method
Temperature, K	Vapor or sublimation pressure, kPa	uncertainty
291.6	.00076	
293.7	.00099	
296.5	.00136	
298.4	.00174	
303.3	.00299	
308.2	.00505	
308.4	.00506	
313.2	.0085	
316.2	.01174	
318.2	.01406	
318.7	.01511	
320.3	.01713	
323.3	.02368	

System: 1-adamantyl methyl ketone; phases: Liquid, Gas
Property: Vapor or sublimation pressure, kPa (Liquid); method: Transpiration method
Temperature, K	Vapor or sublimation pressure, kPa	uncertainty
331.3	.0399	
331.3	.0404	
333.2	.04637	
333.2	.0468	
335.2	.0516	
338.2	.0633	
341.2	.0767	
343.1	.08701	
346.2	.1025	
348.1	.1221	
348.3	.1231	
351.7	.1433	
352.1	.1514	
353.1	.1567	
355.5	.1853	
356	.1912	
358.1	.2111	
358.2	.2186	
360.4	.2451	
363.1	.2835	

System: 1-adamantanecarboxylic acid; phases: Crystal, Liquid, Air at 1 atmosphere
Property: Triple point temperature, K (Crystal); method: DSC
Triple point temperature, K	uncertainty
449.1	.5

System: 1-adamantanecarboxylic acid; phases: Crystal, Liquid, Air at 1 atmosphere
Property: Molar enthalpy of transition or fusion, kJ/mol (Crystal); method: DSC
Molar enthalpy of transition or fusion, kJ/mol	uncertainty
17.6	.3

System: 1-adamantanecarboxylic acid; phases: Crystal, Gas
Property: Vapor or sublimation pressure, kPa (Crystal); method: Transpiration method
Temperature, K	Vapor or sublimation pressure, kPa	uncertainty
345.2	.0009	
348.2	.00122	
353.2	.00193	
356.7	.00266	
360.2	.00382	
362.2	.00453	
365.2	.00575	
367.7	.00692	
370.2	.00896	
370.3	.00895	
373.2	.01102	
375.2	.01263	
377.3	.01524	
377.7	.01587	
380.2	.01902	
382.2	.02303	
385.3	.02961	

System: adamantane-2-carboxylic acid; phases: Crystal, Liquid, Air at 1 atmosphere
Property: Triple point temperature, K (Crystal); method: DSC
Triple point temperature, K	uncertainty
416.3	.5

System: adamantane-2-carboxylic acid; phases: Crystal, Liquid, Air at 1 atmosphere
Property: Molar enthalpy of transition or fusion, kJ/mol (Crystal); method: DSC
Molar enthalpy of transition or fusion, kJ/mol	uncertainty
9.8	.5

System: adamantane-2-carboxylic acid; phases: Crystal, Gas
Property: Vapor or sublimation pressure, kPa (Crystal); method: Transpiration method
Temperature, K	Vapor or sublimation pressure, kPa	uncertainty
344.3	.00066	
347.3	.00087	
350.3	.00113	
353.4	.00157	
355.4	.0018	
356.4	.00212	
358.4	.00246	
360.4	.00307	
362.4	.00345	
364.4	.00436	
365.8	.0048	
368.3	.00577	
368.4	.00595	
369.4	.00628	
370.4	.00725	
371.4	.00757	
373.4	.00923	
374.4	.00992	
376.4	.01193	
377.4	.01257	
377.4	.01301	
378.4	.01382	
380.3	.01584	
381.3	.01701	
383.4	.02003	
386.4	.02497	

System: cyclohexane + 1-adamantyl methyl ketone; phases: Liquid
Fixed: Temperature, K = 298.15
Fixed: Pressure, kPa = 100
Property: Molar enthalpy of solution, kJ/mol (Liquid); method: Power-compensation calorimetry
Mole fraction of 1-adamantyl methyl ketone	Molar enthalpy of solution, kJ/mol	uncertainty
0	22.67	

Reaction: -1 2-adamantanone + 10 carbon dioxide + 7 water + -13 oxygen
Property: Specific internal energy of reaction at constant volume, J/g
-37423.7

Reaction: -1 1-adamantanol + 10 carbon dioxide + 8 water + -13.5 oxygen
Property: Specific internal energy of reaction at constant volume, J/g
-38165.6
