Measured thermophysical data. Phase equilibria study of the binary systems (N-butyl-4-methylpyridinium  tosylate ionic liquid + an alcohol)
Source: J. Chem. Thermodyn., 2009, 10.1016/j.jct.2009.03.008
Compound 1: n-butyl-4-methylpyridinium tosylate, C17H23NO3S, purity 98%
Compound 2: ethanol, C2H6O
Compound 3: 1-propanol, C3H8O
Compound 4: 1-butanol, C4H10O

System: ethanol + n-butyl-4-methylpyridinium tosylate; phases: Liquid, Gas
Fixed: Temperature, K = 373.15
Property: Vapor or sublimation pressure, kPa (Liquid); method: Ebulliometric method (Recirculating still)
Mole fraction of n-butyl-4-methylpyridinium tosylate	Vapor or sublimation pressure, kPa	uncertainty
.5412	49.2	.1
.5121	55.5	.1
.4894	60.3	.1
.4523	68.7	.1
.4321	74.4	.1
.4043	81.6	.1
.3711	91.3	.1
.3436	95.9	.1
.3256	101.1	.1
.2941	107.8	.1
0	227	.1

System: ethanol + n-butyl-4-methylpyridinium tosylate; phases: Liquid, Crystal
Fixed: Pressure, kPa = 101
Property: Solid-liquid equilibrium temperature, K (Liquid); method: Visual observation
Mole fraction of n-butyl-4-methylpyridinium tosylate	Solid-liquid equilibrium temperature, K	uncertainty
1	324.86	.05
.9035	321.67	.05
.8158	318.68	.05
.742	315.01	.05
.6992	312.08	.05
.6598	310.13	.05
.6199	307.5	.05
.5898	304.4	.05
.5493	300.29	.05
.5052	295.61	.05
.4691	291.52	.05
.4224	285.02	.05
.3478	272.29	.05
.2984	262.06	.05
.264	255.46	.05

System: 1-propanol + n-butyl-4-methylpyridinium tosylate; phases: Liquid, Gas
Fixed: Temperature, K = 373.15
Property: Vapor or sublimation pressure, kPa (Liquid); method: Ebulliometric method (Recirculating still)
Mole fraction of n-butyl-4-methylpyridinium tosylate	Vapor or sublimation pressure, kPa	uncertainty
.3382	53.3	.1
.301	58.5	.1
.279	63	.1
.2499	70.3	.1
.2103	76.2	.1
.1929	80.4	.1
.1723	84.3	.1
.1502	89.7	.1
.1268	93.5	.1
.1145	96	.1
0	112.7	.1

System: 1-propanol + n-butyl-4-methylpyridinium tosylate; phases: Liquid, Crystal
Fixed: Pressure, kPa = 101
Property: Solid-liquid equilibrium temperature, K (Liquid); method: Visual observation
Mole fraction of n-butyl-4-methylpyridinium tosylate	Solid-liquid equilibrium temperature, K	uncertainty
1	324.86	.05
.931	323.17	.05
.8721	320.64	.05
.825	319.13	.05
.777	316.61	.05
.728	313.93	.05
.6631	309.88	.05
.6074	305.2	.05
.5623	301.46	.05
.5262	297.82	.05
.491	294.31	.05
.4533	288.98	.05
.408	283.33	.05
.3833	279.13	.05
.3493	274.13	.05
.3244	269.4	.05
.2811	259.7	.05

System: 1-butanol + n-butyl-4-methylpyridinium tosylate; phases: Liquid, Gas
Fixed: Temperature, K = 373.15
Property: Vapor or sublimation pressure, kPa (Liquid); method: Ebulliometric method (Recirculating still)
Mole fraction of n-butyl-4-methylpyridinium tosylate	Vapor or sublimation pressure, kPa	uncertainty
.2622	35.7	.1
.2314	38.3	.1
.2064	40.1	.1
.1738	42.8	.1
.15	44.6	.1
.1166	46.9	.1
.0999	48.5	.1
.0775	49.8	.1
.0496	51.1	.1
0	52	.1
