Measured thermophysical data. Physicochemical and thermodynamic study on aqueous solutions of dicyanamide  based ionic liquids
Source: J. Chem. Thermodyn., 2014, 10.1016/j.jct.2013.10.034
Compound 1: 1-butyl-1-methylpiperidinium dicyanamide, C12H22N4, purity 97%
Compound 2: 1-butyl-1-methylpyrrolidinium dicyanamide, C11H20N4, purity 97%
Compound 3: water, H2O

System: 1-butyl-1-methylpiperidinium dicyanamide; phases: Liquid
Property: Mass density, kg/m3 (Liquid); method: Vibrating tube method
Temperature, K	Pressure, kPa	Mass density, kg/m3	uncertainty
298.15	100	1016.13	.1
303.15	100	1012.98	.1
308.15	100	1010.65	.1
313.15	100	1007.92	.1
318.15	100	1005.2	.1
323.15	100	1002.47	.1
328.15	100	999.77	.1
333.15	100	997.08	.1
338.15	100	994.39	.1
343.15	100	991.72	.1

System: 1-butyl-1-methylpiperidinium dicyanamide; phases: Liquid
Property: Viscosity, Pa*s (Liquid); method: Falling or rolling sphere viscometry
Temperature, K	Pressure, kPa	Viscosity, Pa*s	uncertainty
298.15	100	.1233	.006165
303.15	100	.09297	.0046485
308.15	100	.07558	.003779
313.15	100	.06093	.0030465
318.15	100	.04979	.0024895
323.15	100	.04131	.0020655
328.15	100	.03472	.001736
333.15	100	.02945	.0014725
338.15	100	.02331	.0011655
343.15	100	.02198	.001099

System: 1-butyl-1-methylpyrrolidinium dicyanamide; phases: Liquid
Property: Mass density, kg/m3 (Liquid); method: Vibrating tube method
Temperature, K	Pressure, kPa	Mass density, kg/m3	uncertainty
298.15	100	1019.2	.1
303.15	100	1016.38	.1
308.15	100	1013.58	.1
313.15	100	1010.79	.1
318.15	100	1008	.1
323.15	100	1005.23	.1
328.15	100	1002.48	.1
333.15	100	999.74	.1
338.15	100	997	.1
343.15	100	994.28	.1

System: 1-butyl-1-methylpyrrolidinium dicyanamide; phases: Liquid
Property: Viscosity, Pa*s (Liquid); method: Falling or rolling sphere viscometry
Temperature, K	Pressure, kPa	Viscosity, Pa*s	uncertainty
298.15	100	.03474	.001737
303.15	100	.02933	.0014665
308.15	100	.02509	.0012545
313.15	100	.0217	.001085
318.15	100	.01895	.0009475
323.15	100	.01672	.000836
328.15	100	.01484	.000742
333.15	100	.01328	.000664
338.15	100	.01196	.000598
343.15	100	.01082	.000541

System: water; phases: Liquid
Property: Mass density, kg/m3 (Liquid); method: Vibrating tube method
Temperature, K	Pressure, kPa	Mass density, kg/m3	uncertainty
298.15	100	997.06	.1
303.15	100	995.65	.1
308.15	100	994.01	.1
313.15	100	992.15	.1
318.15	100	990.14	.1
323.15	100	987.93	.1
328.15	100	985.61	.1
333.15	100	983.17	.1
338.15	100	980.3	.1
343.15	100	978.1	.1

System: water; phases: Liquid
Property: Viscosity, Pa*s (Liquid); method: Falling or rolling sphere viscometry
Temperature, K	Pressure, kPa	Viscosity, Pa*s	uncertainty
298.15	100	.00089	.0000445
303.15	100	.000808	.0000404
308.15	100	.00074	.000037
313.15	100	.000681	.00003405
318.15	100	.00063	.0000315
323.15	100	.000593	.00002965
328.15	100	.00056	.000028
333.15	100	.000528	.0000264
338.15	100	.0005	.000025
343.15	100	.000473	.00002365

System: water; phases: Liquid, Gas
Property: Vapor or sublimation pressure, kPa (Liquid); method: Ebulliometric method (Recirculating still)
Temperature, K	Vapor or sublimation pressure, kPa	uncertainty
328.15	15.8	.5
338.15	25.1	.5
348.15	38.6	.5
358.15	57.9	.5
368.15	84.4	.5

System: water + 1-butyl-1-methylpiperidinium dicyanamide; phases: Liquid
Fixed: Pressure, kPa = 100
Property: Mass density, kg/m3 (Liquid); method: Vibrating tube method
Temperature, K	Mole fraction of 1-butyl-1-methylpiperidinium dicyanamide	Mass density, kg/m3	uncertainty
298.15	1	1016.13	.1
298.15	.9216	1015.91	.1
298.15	.7878	1015.65	.1
298.15	.6246	1015.36	.1
298.15	.4952	1014.9	.1
298.15	.3581	1014.27	.1
298.15	.2651	1013.31	.1
298.15	.1748	1011.38	.1
298.15	.0936	1007.95	.1
298.15	0	997.06	.1
303.15	1	1012.98	.1
303.15	.9216	1012.88	.1
303.15	.7878	1012.82	.1
303.15	.6246	1012.52	.1
303.15	.4952	1012.13	.1
303.15	.3581	1011.26	.1
303.15	.2651	1010.2	.1
303.15	.1748	1008.21	.1
303.15	.0936	1004.63	.1
303.15	0	995.65	.1
308.15	1	1010.65	.1
308.15	.9216	1010.57	.1
308.15	.7878	1010.41	.1
308.15	.6246	1009.93	.1
308.15	.4952	1009.31	.1
308.15	.3581	1008.27	.1
308.15	.2651	1007.08	.1
308.15	.1748	1005.06	.1
308.15	.0936	1001.56	.1
308.15	0	994.01	.1
313.15	1	1007.92	.1
313.15	.9216	1007.8	.1
313.15	.7878	1007.53	.1
313.15	.6246	1007.01	.1
313.15	.4952	1006.34	.1
313.15	.3581	1005.25	.1
313.15	.2651	1004.02	.1
313.15	.1748	1001.86	.1
313.15	.0936	998.43	.1
313.15	0	992.15	.1
318.15	1	1005.2	.1
318.15	.9216	1005.06	.1
318.15	.7878	1004.74	.1
318.15	.6246	1004.15	.1
318.15	.4952	1003.45	.1
318.15	.3581	1002.25	.1
318.15	.2651	1000.91	.1
318.15	.1748	998.67	.1
318.15	.0936	995.26	.1
318.15	0	990.14	.1
323.15	1	1002.47	.1
323.15	.9216	1002.33	.1
323.15	.7878	1001.95	.1
323.15	.6246	1001.31	.1
323.15	.4952	1000.53	.1
323.15	.3581	999.24	.1
323.15	.2651	997.8	.1
323.15	.1748	995.43	.1
323.15	.0936	992.05	.1
323.15	0	987.93	.1
328.15	1	999.77	.1
328.15	.9216	999.6	.1
328.15	.7878	999.19	.1
328.15	.6246	998.47	.1
328.15	.4952	997.63	.1
328.15	.3581	996.18	.1
328.15	.2651	994.68	.1
328.15	.1748	992.22	.1
328.15	.0936	988.8	.1
328.15	0	985.61	.1
333.15	1	997.08	.1
333.15	.9216	996.9	.1
333.15	.7878	996.46	.1
333.15	.6246	995.66	.1
333.15	.4952	994.75	.1
333.15	.3581	993.2	.1
333.15	.2651	991.37	.1
333.15	.1748	988.96	.1
333.15	.0936	985.51	.1
333.15	0	983.17	.1
338.15	1	994.39	.1
338.15	.9216	994.16	.1
338.15	.7878	993.65	.1
338.15	.6246	992.85	.1
338.15	.4952	991.9	.1
338.15	.3581	990.24	.1
338.15	.2651	988.38	.1
338.15	.1748	985.7	.1
338.15	.0936	982.59	.1
338.15	0	980.3	.1
343.15	1	991.72	.1
343.15	.9216	991.45	.1
343.15	.7878	990.92	.1
343.15	.6246	990.06	.1
343.15	.4952	988.84	.1
343.15	.3581	986.93	.1
343.15	.2651	984.88	.1
343.15	.1748	982.41	.1
343.15	.0936	979.99	.1
343.15	0	978.1	.1

System: water + 1-butyl-1-methylpiperidinium dicyanamide; phases: Liquid
Fixed: Pressure, kPa = 100
Property: Viscosity, Pa*s (Liquid); method: Falling or rolling sphere viscometry
Temperature, K	Mole fraction of 1-butyl-1-methylpiperidinium dicyanamide	Viscosity, Pa*s	uncertainty
298.15	1	.1233	.006165
298.15	.9216	.1033	.005165
298.15	.7878	.07253	.0036265
298.15	.6246	.04982	.002491
298.15	.4952	.03693	.0018465
298.15	.3581	.02465	.0012325
298.15	.2651	.01696	.000848
298.15	.1748	.01016	.000508
298.15	.0936	.006144	.0003072
298.15	0	.00089	.0000445
303.15	1	.09297	.0046485
303.15	.9216	.07912	.003956
303.15	.7878	.05758	.002879
303.15	.6246	.04079	.0020395
303.15	.4952	.02968	.001484
303.15	.3581	.02016	.001008
303.15	.2651	.01405	.0007025
303.15	.1748	.00856	.000428
303.15	.0936	.005247	.00026235
303.15	0	.000808	.0000404
308.15	1	.07558	.003779
308.15	.9216	.06415	.0032075
308.15	.7878	.046	.0023
308.15	.6246	.03252	.001626
308.15	.4952	.02459	.0012295
308.15	.3581	.01678	.000839
308.15	.2651	.01181	.0005905
308.15	.1748	.0073	.000365
308.15	.0936	.004529	.00022645
308.15	0	.00074	.000037
313.15	1	.06093	.0030465
313.15	.9216	.05199	.0025995
313.15	.7878	.03887	.0019435
313.15	.6246	.02794	.001397
313.15	.4952	.02059	.0010295
313.15	.3581	.014164	.0007082
313.15	.2651	.010046	.0005023
313.15	.1748	.006291	.00031455
313.15	.0936	.003946	.0001973
313.15	0	.000681	.00003405
318.15	1	.04979	.0024895
318.15	.9216	.04271	.0021355
318.15	.7878	.03226	.001613
318.15	.6246	.02332	.001166
318.15	.4952	.01745	.0008725
318.15	.3581	.01211	.0006055
318.15	.2651	.008651	.00043255
318.15	.1748	.00547	.0002735
318.15	.0936	.003467	.00017335
318.15	0	.00063	.0000315
323.15	1	.04131	.0020655
323.15	.9216	.03562	.001781
323.15	.7878	.02735	.0013675
323.15	.6246	.0195	.000975
323.15	.4952	.01498	.000749
323.15	.3581	.01045	.0005225
323.15	.2651	.00752	.000376
323.15	.1748	.0048	.00024
323.15	.0936	.003072	.0001536
323.15	0	.000593	.00002965
328.15	1	.03472	.001736
328.15	.9216	.030078	.0015039
328.15	.7878	.02347	.0011735
328.15	.6246	.01643	.0008215
328.15	.4952	.01299	.0006495
328.15	.3581	.009141	.00045705
328.15	.2651	.006592	.0003296
328.15	.1748	.004249	.00021245
328.15	.0936	.002741	.00013705
328.15	0	.00056	.000028
333.15	1	.02945	.0014725
333.15	.9216	.02564	.001282
333.15	.7878	.02041	.0010205
333.15	.6246	.01393	.0006965
333.15	.4952	.01137	.0005685
333.15	.3581	.008041	.00040205
333.15	.2651	.00605	.0003025
333.15	.1748	.003788	.0001894
333.15	.0936	.002461	.00012305
333.15	0	.000528	.0000264
338.15	1	.02331	.0011655
338.15	.9216	.02135	.0010675
338.15	.7878	.01717	.0008585
338.15	.6246	.0129	.000645
338.15	.4952	.01004	.000502
338.15	.3581	.00712	.000356
338.15	.2651	.005181	.00025905
338.15	.1748	.003407	.00017035
338.15	.0936	.002223	.00011115
338.15	0	.0005	.000025
343.15	1	.02198	.001099
343.15	.9216	.01952	.000976
343.15	.7878	.01574	.000787
343.15	.6246	.01172	.000586
343.15	.4952	.008928	.0004464
343.15	.3581	.006355	.00031775
343.15	.2651	.004682	.0002341
343.15	.1748	.003088	.0001544
343.15	.0936	.002021	.00010105
343.15	0	.000473	.00002365

System: water + 1-butyl-1-methylpiperidinium dicyanamide; phases: Liquid, Gas
Property: Vapor or sublimation pressure, kPa (Liquid); method: Ebulliometric method (Recirculating still)
Temperature, K	Mole fraction of 1-butyl-1-methylpiperidinium dicyanamide	Vapor or sublimation pressure, kPa	uncertainty
328.15	0	15.8	.5
328.15	.005	15.5	.5
328.15	.01	15.5	.5
328.15	.016	15.4	.5
328.15	.02	15.4	.5
328.15	.033	15.3	.5
328.15	.045	15.4	.5
328.15	.063	15.3	.5
328.15	.09	15	.5
328.15	.117	14.8	.5
328.15	.162	13.9	.5
328.15	.204	13.4	.5
328.15	.225	12.8	.5
328.15	.292	12	.5
328.15	.307	11.6	.5
328.15	.364	10.1	.5
338.15	0	25.1	.5
338.15	.005	24.9	.5
338.15	.01	24.8	.5
338.15	.016	24.7	.5
338.15	.02	24.6	.5
338.15	.033	24.4	.5
338.15	.046	24.1	.5
338.15	.062	24.2	.5
338.15	.088	23.9	.5
338.15	.116	23.1	.5
338.15	.158	21.9	.5
338.15	.199	20.8	.5
338.15	.223	19.9	.5
338.15	.275	18.8	.5
338.15	.297	18	.5
338.15	.354	15.8	.5
348.15	0	38.6	.5
348.15	.005	38.1	.5
348.15	.01	38.1	.5
348.15	.016	37.9	.5
348.15	.02	38	.5
348.15	.033	37.6	.5
348.15	.047	37.6	.5
348.15	.061	36.9	.5
348.15	.086	36.6	.5
348.15	.116	35.5	.5
348.15	.153	34.1	.5
348.15	.194	32.2	.5
348.15	.22	30.5	.5
348.15	.259	28.9	.5
348.15	.287	27.8	.5
348.15	.343	24.6	.5
358.15	0	57.9	.5
358.15	.006	57.4	.5
358.15	.01	57.1	.5
358.15	.016	56.9	.5
358.15	.02	56.7	.5
358.15	.033	56.4	.5
358.15	.047	56	.5
358.15	.061	55.5	.5
358.15	.084	54.6	.5
358.15	.115	53	.5
358.15	.148	51	.5
358.15	.189	48.5	.5
358.15	.218	46.4	.5
358.15	.242	43.8	.5
358.15	.277	42.5	.5
358.15	.332	37.7	.5
368.15	0	84.4	.5
368.15	.006	83.9	.5
368.15	.01	83.3	.5
368.15	.015	83	.5
368.15	.02	82.8	.5
368.15	.033	82.3	.5
368.15	.048	81.7	.5
368.15	.06	81	.5
368.15	.082	79.5	.5
368.15	.114	77.1	.5
368.15	.143	74.4	.5
368.15	.184	71	.5
368.15	.216	67.9	.5
368.15	.242	65.4	.5
368.15	.267	63	.5
368.15	.322	57.2	.5

System: water + 1-butyl-1-methylpiperidinium dicyanamide; phases: Liquid
Fixed: Pressure, kPa = 100
Fixed: Temperature, K = 298.15
Property: Excess molar enthalpy (molar enthalpy of mixing), kJ/mol (Liquid); method: Calvet calorimetry
Mole fraction of 1-butyl-1-methylpiperidinium dicyanamide	Excess molar enthalpy (molar enthalpy of mixing), kJ/mol	uncertainty
.9872	-.022489	-.000112445
.9606	-.063496	-.00031748
.9354	-.107289	-.000536445
.9114	-.147961	-.000739805
.8887	-.186796	-.00093398
.8671	-.221509	-.001107545
.8465	-.252484	-.00126242
.8268	-.283318	-.00141659
.8081	-.313332	-.00156666
.7902	-.34134	-.0017067
.7557	-.394293	-.001971465
.7241	-.440897	-.002204485
.6951	-.483212	-.00241606
.6683	-.519819	-.002599095
.6314	-.569978	-.00284989
.5984	-.611459	-.003057295
.5687	-.646505	-.003232525
.5418	-.675749	-.003378745
.5173	-.699989	-.003499945
.4741	-.736972	-.00368486
.4376	-.757531	-.003787655
.4062	-.770334	-.00385167
.371	-.77401	-.00387005
.3414	-.767386	-.00383693
.3103	-.749665	-.003748325
.2797	-.717845	-.003589225
.249	-.670965	-.003354825
.2173	-.605867	-.003029335
.1873	-.531244	-.00265622
.1607	-.454928	-.00227464
.1379	-.383863	-.001919315
.1186	-.32195	-.00160975
.101	-.265069	-.001325345
.0846	-.21278	-.0010639
.0706	-.168565	-.000842825
.0639	-.148663	-.000743315

System: water + 1-butyl-1-methylpyrrolidinium dicyanamide; phases: Liquid
Fixed: Pressure, kPa = 100
Property: Mass density, kg/m3 (Liquid); method: Vibrating tube method
Temperature, K	Mole fraction of 1-butyl-1-methylpyrrolidinium dicyanamide	Mass density, kg/m3	uncertainty
298.15	1	1019.2	.1
298.15	.9732	1019.13	.1
298.15	.8776	1018.79	.1
298.15	.7413	1018.22	.1
298.15	.711	1018.09	.1
298.15	.629	1017.73	.1
298.15	.6244	1017.71	.1
298.15	.5239	1017.27	.1
298.15	.4762	1016.99	.1
298.15	.4198	1016.65	.1
298.15	.3548	1016.11	.1
298.15	.3163	1015.68	.1
298.15	.2234	1014.18	.1
298.15	.1652	1012.47	.1
298.15	.0729	1007.24	.1
298.15	0	997.06	.1
303.15	1	1016.38	.1
303.15	.9732	1016.28	.1
303.15	.8776	1015.96	.1
303.15	.7413	1015.41	.1
303.15	.711	1015.28	.1
303.15	.629	1014.89	.1
303.15	.6244	1014.87	.1
303.15	.5239	1014.32	.1
303.15	.4762	1014	.1
303.15	.4198	1013.55	.1
303.15	.3548	1012.9	.1
303.15	.3163	1012.43	.1
303.15	.2234	1010.84	.1
303.15	.1652	1009.29	.1
303.15	.0729	1004.74	.1
303.15	0	995.65	.1
308.15	1	1013.58	.1
308.15	.9732	1013.47	.1
308.15	.8776	1013.13	.1
308.15	.7413	1012.56	.1
308.15	.711	1012.42	.1
308.15	.629	1012.02	.1
308.15	.6244	1011.99	.1
308.15	.5239	1011.4	.1
308.15	.4762	1011.05	.1
308.15	.4198	1010.57	.1
308.15	.3548	1009.87	.1
308.15	.3163	1009.37	.1
308.15	.2234	1007.7	.1
308.15	.1652	1006.1	.1
308.15	.0729	1001.6	.1
308.15	0	994.01	.1
313.15	1	1010.79	.1
313.15	.9732	1010.72	.1
313.15	.8776	1010.35	.1
313.15	.7413	1009.72	.1
313.15	.711	1009.55	.1
313.15	.629	1009.13	.1
313.15	.6244	1009.1	.1
313.15	.5239	1008.46	.1
313.15	.4762	1008.11	.1
313.15	.4198	1007.61	.1
313.15	.3548	1006.88	.1
313.15	.3163	1006.34	.1
313.15	.2234	1004.59	.1
313.15	.1652	1002.9	.1
313.15	.0729	998.69	.1
313.15	0	992.15	.1
318.15	1	1008	.1
318.15	.9732	1007.94	.1
318.15	.8776	1007.51	.1
318.15	.7413	1006.88	.1
318.15	.711	1006.71	.1
318.15	.629	1006.28	.1
318.15	.6244	1006.25	.1
318.15	.5239	1005.54	.1
318.15	.4762	1005.15	.1
318.15	.4198	1004.58	.1
318.15	.3548	1003.78	.1
318.15	.3163	1003.18	.1
318.15	.2234	1001.37	.1
318.15	.1652	999.68	.1
318.15	.0729	995.65	.1
318.15	0	990.14	.1
323.15	1	1005.23	.1
323.15	.9732	1005.09	.1
323.15	.8776	1004.69	.1
323.15	.7413	1004.07	.1
323.15	.711	1003.92	.1
323.15	.629	1003.41	.1
323.15	.6244	1003.38	.1
323.15	.5239	1002.64	.1
323.15	.4762	1002.18	.1
323.15	.4198	1001.58	.1
323.15	.3548	1000.71	.1
323.15	.3163	1000.13	.1
323.15	.2234	998.16	.1
323.15	.1652	996.43	.1
323.15	.0729	992.46	.1
323.15	0	987.93	.1
328.15	1	1002.48	.1
328.15	.9732	1002.31	.1
328.15	.8776	1001.89	.1
328.15	.7413	1001.26	.1
328.15	.711	1001.11	.1
328.15	.629	1000.57	.1
328.15	.6244	1000.55	.1
328.15	.5239	999.74	.1
328.15	.4762	999.26	.1
328.15	.4198	998.6	.1
328.15	.3548	997.72	.1
328.15	.3163	997.04	.1
328.15	.2234	994.93	.1
328.15	.1652	993.17	.1
328.15	.0729	989.39	.1
328.15	0	985.61	.1
333.15	1	999.74	.1
333.15	.9732	999.61	.1
333.15	.8776	999.13	.1
333.15	.7413	998.46	.1
333.15	.711	998.24	.1
333.15	.629	997.7	.1
333.15	.6244	997.67	.1
333.15	.5239	996.85	.1
333.15	.4762	996.34	.1
333.15	.4198	995.72	.1
333.15	.3548	994.76	.1
333.15	.3163	994.04	.1
333.15	.2234	991.81	.1
333.15	.1652	989.89	.1
333.15	.0729	985.91	.1
333.15	0	983.17	.1
338.15	1	997	.1
338.15	.9732	996.91	.1
338.15	.8776	996.49	.1
338.15	.7413	995.67	.1
338.15	.711	995.49	.1
338.15	.629	994.9	.1
338.15	.6244	994.85	.1
338.15	.5239	993.96	.1
338.15	.4762	993.46	.1
338.15	.4198	992.73	.1
338.15	.3548	991.74	.1
338.15	.3163	990.99	.1
338.15	.2234	988.61	.1
338.15	.1652	986.61	.1
338.15	.0729	982.26	.1
338.15	0	980.3	.1
343.15	1	994.28	.1
343.15	.9732	994.09	.1
343.15	.8776	993.62	.1
343.15	.7413	992.85	.1
343.15	.711	992.62	.1
343.15	.629	991.96	.1
343.15	.6244	991.95	.1
343.15	.5239	991.03	.1
343.15	.4762	990.47	.1
343.15	.4198	989.8	.1
343.15	.3548	988.75	.1
343.15	.3163	988.01	.1
343.15	.2234	985.46	.1
343.15	.1652	983.31	.1
343.15	.0729	979.39	.1
343.15	0	978.1	.1

System: water + 1-butyl-1-methylpyrrolidinium dicyanamide; phases: Liquid
Fixed: Pressure, kPa = 100
Property: Viscosity, Pa*s (Liquid); method: Falling or rolling sphere viscometry
Temperature, K	Mole fraction of 1-butyl-1-methylpyrrolidinium dicyanamide	Viscosity, Pa*s	uncertainty
298.15	1	.03474	.001737
298.15	.9732	.0336	.00168
298.15	.8776	.02968	.001484
298.15	.7413	.02499	.0012495
298.15	.711	.02403	.0012015
298.15	.629	.02162	.001081
298.15	.6244	.02149	.0010745
298.15	.5239	.01857	.0009285
298.15	.4762	.01741	.0008705
298.15	.4198	.01586	.000793
298.15	.3548	.01394	.000697
298.15	.3163	.01288	.000644
298.15	.2234	.009939	.00049695
298.15	.1652	.007983	.00039915
298.15	.0729	.004316	.0002158
298.15	0	.00089	.0000445
303.15	1	.02933	.0014665
303.15	.9732	.0284	.00142
303.15	.8776	.02519	.0012595
303.15	.7413	.02131	.0010655
303.15	.711	.0205	.001025
303.15	.629	.01848	.000924
303.15	.6244	.01837	.0009185
303.15	.5239	.0159	.000795
303.15	.4762	.0149	.000745
303.15	.4198	.01357	.0006785
303.15	.3548	.01196	.000598
303.15	.3163	.01102	.000551
303.15	.2234	.008502	.0004251
303.15	.1652	.006795	.00033975
303.15	.0729	.003713	.00018565
303.15	0	.000808	.0000404
308.15	1	.02509	.0012545
308.15	.9732	.02432	.001216
308.15	.8776	.02164	.001082
308.15	.7413	.01834	.000917
308.15	.711	.01769	.0008845
308.15	.629	.01596	.000798
308.15	.6244	.01587	.0007935
308.15	.5239	.01375	.0006875
308.15	.4762	.01288	.000644
308.15	.4198	.01173	.0005865
308.15	.3548	.01037	.0005185
308.15	.3163	.009521	.00047605
308.15	.2234	.007346	.0003673
308.15	.1652	.005903	.00029515
308.15	.0729	.003226	.0001613
308.15	0	.00074	.000037
313.15	1	.0217	.001085
313.15	.9732	.02105	.0010525
313.15	.8776	.01878	.000939
313.15	.7413	.01598	.000799
313.15	.711	.0154	.00077
313.15	.629	.01391	.0006955
313.15	.6244	.01383	.0006915
313.15	.5239	.012	.0006
313.15	.4762	.01123	.0005615
313.15	.4198	.01023	.0005115
313.15	.3548	.009	.00045
313.15	.3163	.008303	.00041515
313.15	.2234	.006408	.0003204
313.15	.1652	.005143	.00025715
313.15	.0729	.00283	.0001415
313.15	0	.000681	.00003405
318.15	1	.01895	.0009475
318.15	.9732	.0184	.00092
318.15	.8776	.01646	.000823
318.15	.7413	.01402	.000701
318.15	.711	.01355	.0006775
318.15	.629	.01224	.000612
318.15	.6244	.01217	.0006085
318.15	.5239	.01057	.0005285
318.15	.4762	.0099	.000495
318.15	.4198	.009005	.00045025
318.15	.3548	.007982	.0003991
318.15	.3163	.007302	.0003651
318.15	.2234	.005632	.0002816
318.15	.1652	.004486	.0002243
318.15	.0729	.0025	.000125
318.15	0	.00063	.0000315
323.15	1	.01672	.000836
323.15	.9732	.01624	.000812
323.15	.8776	.01456	.000728
323.15	.7413	.01245	.0006225
323.15	.711	.012	.0006
323.15	.629	.01085	.0005425
323.15	.6244	.01079	.0005395
323.15	.5239	.009377	.00046885
323.15	.4762	.008763	.00043815
323.15	.4198	.007978	.0003989
323.15	.3548	.007043	.00035215
323.15	.3163	.006467	.00032335
323.15	.2234	.00499	.0002495
323.15	.1652	.003985	.00019925
323.15	.0729	.002233	.00011165
323.15	0	.000593	.00002965
328.15	1	.01484	.000742
328.15	.9732	.01443	.0007215
328.15	.8776	.01296	.000648
328.15	.7413	.0111	.000555
328.15	.711	.01071	.0005355
328.15	.629	.009685	.00048425
328.15	.6244	.009629	.00048145
328.15	.5239	.008369	.00041845
328.15	.4762	.007819	.00039095
328.15	.4198	.007116	.0003558
328.15	.3548	.006295	.00031475
328.15	.3163	.005765	.00028825
328.15	.2234	.004448	.0002224
328.15	.1652	.00359	.0001795
328.15	.0729	.002005	.00010025
328.15	0	.00056	.000028
333.15	1	.01328	.000664
333.15	.9732	.01292	.000646
333.15	.8776	.01162	.000581
333.15	.7413	.00996	.000498
333.15	.711	.009609	.00048045
333.15	.629	.008691	.00043455
333.15	.6244	.00864	.000432
333.15	.5239	.007517	.00037585
333.15	.4762	.007009	.00035045
333.15	.4198	.006375	.00031875
333.15	.3548	.005643	.00028215
333.15	.3163	.00516	.000258
333.15	.2234	.00398	.000199
333.15	.1652	.003196	.0001598
333.15	.0729	.001807	.00009035
333.15	0	.000528	.0000264
338.15	1	.01196	.000598
338.15	.9732	.01164	.000582
338.15	.8776	.01048	.000524
338.15	.7413	.009	.00045
338.15	.711	.008671	.00043355
338.15	.629	.007841	.00039205
338.15	.6244	.007795	.00038975
338.15	.5239	.006784	.0003392
338.15	.4762	.006319	.00031595
338.15	.4198	.005746	.0002873
338.15	.3548	.005083	.00025415
338.15	.3163	.004649	.00023245
338.15	.2234	.003587	.00017935
338.15	.1652	.002892	.0001446
338.15	.0729	.001642	.0000821
338.15	0	.0005	.000025
343.15	1	.01082	.000541
343.15	.9732	.01053	.0005265
343.15	.8776	.009492	.0004746
343.15	.7413	.008116	.0004058
343.15	.711	.007857	.00039285
343.15	.629	.007103	.00035515
343.15	.6244	.007061	.00035305
343.15	.5239	.006142	.0003071
343.15	.4762	.005717	.00028585
343.15	.4198	.005195	.00025975
343.15	.3548	.004587	.00022935
343.15	.3163	.004199	.00020995
343.15	.2234	.00324	.000162
343.15	.1652	.002593	.00012965
343.15	.0729	.001496	.0000748
343.15	0	.000473	.00002365

System: water + 1-butyl-1-methylpyrrolidinium dicyanamide; phases: Liquid, Gas
Property: Vapor or sublimation pressure, kPa (Liquid); method: Ebulliometric method (Recirculating still)
Temperature, K	Mole fraction of 1-butyl-1-methylpyrrolidinium dicyanamide	Vapor or sublimation pressure, kPa	uncertainty
328.15	0	15.8	.5
328.15	.005	15.7	.5
328.15	.009	15.6	.5
328.15	.014	15.6	.5
328.15	.018	15.5	.5
328.15	.023	15.4	.5
328.15	.032	15.4	.5
328.15	.043	15.4	.5
328.15	.053	15.2	.5
328.15	.071	15	.5
328.15	.079	14.5	.5
328.15	.091	14.1	.5
338.15	0	25.1	.5
338.15	.005	25	.5
338.15	.009	24.8	.5
338.15	.014	24.8	.5
338.15	.018	24.7	.5
338.15	.023	24.5	.5
338.15	.032	24.4	.5
338.15	.043	24.3	.5
338.15	.053	23.9	.5
338.15	.071	23.5	.5
338.15	.079	22.9	.5
338.15	.091	22.1	.5
348.15	0	38.6	.5
348.15	.005	38.5	.5
348.15	.009	38.1	.5
348.15	.014	38	.5
348.15	.018	37.9	.5
348.15	.023	37.6	.5
348.15	.032	37.4	.5
348.15	.043	37.1	.5
348.15	.053	36.7	.5
348.15	.07	35.8	.5
348.15	.08	34.9	.5
348.15	.092	33.6	.5
358.15	0	57.9	.5
358.15	.005	57.5	.5
358.15	.009	57.2	.5
358.15	.014	56.9	.5
358.15	.018	56.7	.5
358.15	.023	56.5	.5
358.15	.032	56	.5
358.15	.042	55.5	.5
358.15	.053	54.7	.5
358.15	.07	53.4	.5
358.15	.079	52.2	.5
358.15	.092	50.4	.5
368.15	0	84.4	.5
368.15	.005	84.1	.5
368.15	.009	83.6	.5
368.15	.014	83.2	.5
368.15	.018	82.8	.5
368.15	.025	82.4	.5
368.15	.032	81.7	.5
368.15	.042	80.9	.5
368.15	.053	79.8	.5
368.15	.069	77.6	.5
368.15	.08	75.8	.5
368.15	.092	73.2	.5

System: water + 1-butyl-1-methylpyrrolidinium dicyanamide; phases: Liquid
Fixed: Pressure, kPa = 100
Fixed: Temperature, K = 298.15
Property: Excess molar enthalpy (molar enthalpy of mixing), kJ/mol (Liquid); method: Calvet calorimetry
Mole fraction of 1-butyl-1-methylpyrrolidinium dicyanamide	Excess molar enthalpy (molar enthalpy of mixing), kJ/mol	uncertainty
.9976	-.002505	-.000012525
.9719	-.047285	-.000236425
.9475	-.099714	-.00049857
.9243	-.147461	-.000737305
.9021	-.192512	-.00096256
.881	-.235999	-.001179995
.8609	-.277048	-.00138524
.8417	-.314521	-.001572605
.8233	-.346483	-.001732415
.8057	-.379398	-.00189699
.7718	-.442214	-.00221107
.7406	-.499699	-.002498495
.7119	-.553869	-.002769345
.6853	-.60162	-.0030081
.6486	-.666422	-.00333211
.6157	-.717852	-.00358926
.5859	-.764	-.00382
.5589	-.804292	-.00402146
.5342	-.836218	-.00418109
.4906	-.887422	-.00443711
.4535	-.921579	-.004607895
.4217	-.942767	-.004713835
.3857	-.953092	-.00476546
.3554	-.951091	-.004755455
.3236	-.934291	-.004671455
.2921	-.900983	-.004504915
.2604	-.84951	-.00424755
.2275	-.775878	-.00387939
.1964	-.687071	-.003435355
.1688	-.593606	-.00296803
.145	-.50467	-.00252335
.1248	-.426015	-.002130075
.1064	-.352582	-.00176291
.0892	-.284773	-.001423865
.0744	-.22666	-.0011333
.0674	-.200304	-.00100152
