Measured thermophysical data. Densities and vapor pressures of mixed-solvent desiccant systems containing  {glycol (diethylene, or triethylene, or tetraethylene glycol) + salt (magnesium chloride) + water}
Source: J. Chem. Thermodyn., 2010, 10.1016/j.jct.2010.04.014
Compound 1: bis(2-hydroxyethyl) ether, C4H10O3, purity 99.9%
Compound 2: triethylene glycol, C6H14O4, purity 99.9%
Compound 3: tetraethylene glycol, C8H18O5, purity 99.5%
Compound 4: magnesium chloride, Cl2Mg, purity 99%
Compound 5: water, H2O, purity 99.9%

System: bis(2-hydroxyethyl) ether + water + magnesium chloride; phases: Liquid
Fixed: Pressure, kPa = 101
Fixed: Mass fraction of bis(2-hydroxyethyl) ether = .4
Property: Mass density, kg/m3 (Liquid); method: Vibrating tube method
Mass fraction of magnesium chloride	Temperature, K	Mass density, kg/m3	uncertainty
.04	293.15	1099.6	.2
.04	303.15	1094.3	.2
.04	313.15	1088.8	.2
.04	323.15	1082.9	.2
.04	333.15	1076.7	.2
.04	343.15	1070.2	.2
.09	293.15	1149.1	.2
.09	303.15	1143.8	.2
.09	313.15	1138.3	.2
.09	323.15	1132.6	.2
.09	333.15	1126.7	.2
.09	343.15	1120.5	.2
.16	293.15	1149.1	.2
.16	303.15	1143.8	.2
.16	313.15	1138.3	.2
.16	323.15	1132.6	.2
.16	333.15	1126.7	.2
.16	343.15	1120.5	.2

System: bis(2-hydroxyethyl) ether + water + magnesium chloride; phases: Liquid, Gas
Fixed: Mass fraction of bis(2-hydroxyethyl) ether = .4
Property: Vapor or sublimation pressure, kPa (Liquid); method: Closed cell (Static) method
Mass fraction of magnesium chloride	Temperature, K	Vapor or sublimation pressure, kPa	uncertainty
.04	303.15	3.45	.005175
.04	313.15	5.93	.008895
.04	323.15	9.81	.014715
.04	333.15	15.63	.023445
.04	343.15	24.34	.03651
.09	303.15	3.19	.004785
.09	313.15	5.23	.007845
.09	323.15	9.27	.013905
.09	333.15	14.27	.021405
.09	343.15	22.25	.033375
.16	303.15	2.55	.003825
.16	313.15	4.55	.006825
.16	323.15	7.59	.011385
.16	333.15	12.03	.018045
.16	343.15	18.55	.027825

System: triethylene glycol + water + magnesium chloride; phases: Liquid
Fixed: Pressure, kPa = 101
Fixed: Mass fraction of triethylene glycol = .4
Property: Mass density, kg/m3 (Liquid); method: Vibrating tube method
Mass fraction of magnesium chloride	Temperature, K	Mass density, kg/m3	uncertainty
.04	293.15	1104	.2
.04	303.15	1098.5	.2
.04	313.15	1092.7	.2
.04	323.15	1086.6	.2
.04	333.15	1080.2	.2
.04	343.15	1073.4	.2
.09	293.15	1147.5	.2
.09	303.15	1141.9	.2
.09	313.15	1136.3	.2
.09	323.15	1130.4	.2
.09	333.15	1124.3	.2
.09	343.15	1117.9	.2
.16	293.15	1215.8	.2
.16	303.15	1210.4	.2
.16	313.15	1204.9	.2
.16	323.15	1199.3	.2
.16	333.15	1193.5	.2
.16	343.15	1187.6	.2

System: triethylene glycol + water + magnesium chloride; phases: Liquid, Gas
Fixed: Mass fraction of triethylene glycol = .4
Property: Vapor or sublimation pressure, kPa (Liquid); method: Closed cell (Static) method
Mass fraction of magnesium chloride	Temperature, K	Vapor or sublimation pressure, kPa	uncertainty
.04	303.15	3.76	.00564
.04	313.15	6.31	.009465
.04	323.15	9.65	.014475
.04	333.15	15.45	.023175
.04	343.15	24.21	.036315
.09	303.15	3.39	.005085
.09	313.15	5.67	.008505
.09	323.15	8.69	.013035
.09	333.15	13.91	.020865
.09	343.15	22.16	.03324
.16	303.15	2.57	.003855
.16	313.15	4.55	.006825
.16	323.15	7.32	.01098
.16	333.15	11.59	.017385
.16	343.15	17.68	.02652

System: tetraethylene glycol + water + magnesium chloride; phases: Liquid
Fixed: Pressure, kPa = 101
Fixed: Mass fraction of tetraethylene glycol = .4
Property: Mass density, kg/m3 (Liquid); method: Vibrating tube method
Mass fraction of magnesium chloride	Temperature, K	Mass density, kg/m3	uncertainty
.04	293.15	1107	.2
.04	303.15	1101.4	.2
.04	313.15	1095.3	.2
.04	323.15	1089.1	.2
.04	333.15	1082.5	.2
.04	343.15	1075.7	.2
.09	293.15	1159.5	.2
.09	303.15	1153.7	.2
.09	313.15	1147.8	.2
.09	323.15	1141.7	.2
.09	333.15	1135.3	.2
.09	343.15	1128.8	.2
.16	293.15	1223.1	.2
.16	303.15	1217.4	.2
.16	313.15	1211.7	.2
.16	323.15	1205.9	.2
.16	333.15	1199.9	.2
.16	343.15	1193.8	.2

System: tetraethylene glycol + water + magnesium chloride; phases: Liquid, Gas
Fixed: Mass fraction of tetraethylene glycol = .4
Property: Vapor or sublimation pressure, kPa (Liquid); method: Closed cell (Static) method
Mass fraction of magnesium chloride	Temperature, K	Vapor or sublimation pressure, kPa	uncertainty
.04	303.15	3.41	.005115
.04	313.15	5.84	.00876
.04	323.15	9.67	.014505
.04	333.15	15.55	.023325
.04	343.15	24.86	.03729
.09	303.15	2.95	.004425
.09	313.15	5.16	.00774
.09	323.15	8.6	.0129
.09	333.15	14.07	.021105
.09	343.15	22.16	.03324
.16	303.15	2.31	.003465
.16	313.15	4.07	.006105
.16	323.15	6.99	.010485
.16	333.15	11.36	.01704
.16	343.15	17.71	.026565
