Measured thermophysical data. Phase equilibria study of the (N-octylisoquinolinium thiocyanate ionic liquid + aliphatic and aromatic hydrocarbon, or thiophene) binary systems
Source: J. Chem. Thermodyn., 2013, 10.1016/j.jct.2013.04.011
Compound 1: n-hexane, C6H14, purity 99.7%
Compound 2: n-heptane, C7H16, purity 99%
Compound 3: cyclohexane, C6H12, purity 99.7%
Compound 4: benzene, C6H6, purity 99.9%
Compound 5: methylbenzene, C7H8, purity 99.9%
Compound 6: .alpha.-methyltoluene, C8H10, purity 99.8%
Compound 7: propylbenzene, C9H12, purity 99%
Compound 8: thiophene, C4H4S, purity 99%
Compound 9: 2-octylisoquinolinium thiocyanate, C18H24N2S

System: n-hexane + 2-octylisoquinolinium thiocyanate; phases: Liquid mixture 1, Liquid mixture 2
Fixed: Pressure, kPa = 101
Property: Liquid-liquid equilibrium temperature, K (Liquid mixture 1); method: Visual observation
Mole fraction of 2-octylisoquinolinium thiocyanate	Liquid-liquid equilibrium temperature, K	uncertainty
.8906	302.4	.1
.8853	305.6	.1
.8783	309.8	.1
.8687	315.2	.1
.8575	322.6	.1
.8472	330.6	.1
.8425	334.6	.1
.831	341	.1

System: n-heptane + 2-octylisoquinolinium thiocyanate; phases: Liquid mixture 1, Liquid mixture 2
Fixed: Pressure, kPa = 101
Property: Liquid-liquid equilibrium temperature, K (Liquid mixture 1); method: Visual observation
Mole fraction of 2-octylisoquinolinium thiocyanate	Liquid-liquid equilibrium temperature, K	uncertainty
.9245	297.2	.1
.9063	309.6	.1
.8988	316	.1
.8902	325	.1
.8829	330.9	.1
.875	338.8	.1
.8637	349	.1
.8598	351.6	.1
.8514	356.4	.1

System: cyclohexane + 2-octylisoquinolinium thiocyanate; phases: Liquid mixture 1, Liquid mixture 2
Fixed: Pressure, kPa = 101
Property: Liquid-liquid equilibrium temperature, K (Liquid mixture 1); method: Visual observation
Mole fraction of 2-octylisoquinolinium thiocyanate	Liquid-liquid equilibrium temperature, K	uncertainty
.7862	313	.1
.7822	315.5	.1
.7811	315.8	.1
.7714	321.9	.1
.7679	324.8	.1
.7607	330.1	.1
.7561	337.3	.1
.7504	342.2	.1
.745	346	.1
.7369	355.7	.1

System: benzene + 2-octylisoquinolinium thiocyanate; phases: Liquid mixture 1, Liquid mixture 2
Fixed: Pressure, kPa = 101
Property: Liquid-liquid equilibrium temperature, K (Liquid mixture 1); method: Visual observation
Mole fraction of 2-octylisoquinolinium thiocyanate	Liquid-liquid equilibrium temperature, K	uncertainty
.1674	333	.1
.1664	322.4	.1
.1659	318.8	.1
.1655	313.7	.1
.1651	307.5	.1
.1647	301.9	.1
.1641	294.3	.1
.1636	288.5	.1

System: methylbenzene + 2-octylisoquinolinium thiocyanate; phases: Liquid mixture 1, Liquid mixture 2
Fixed: Pressure, kPa = 101
Property: Liquid-liquid equilibrium temperature, K (Liquid mixture 1); method: Visual observation
Mole fraction of 2-octylisoquinolinium thiocyanate	Liquid-liquid equilibrium temperature, K	uncertainty
.2559	322.2	.1
.2529	313.1	.1
.2519	310.8	.1
.2512	308.8	.1
.25	305.7	.1
.2497	303.9	.1
.2491	302.5	.1
.2483	299.6	.1
.2474	296.8	.1
.2465	294.7	.1
.2455	290.4	.1
.2446	288.7	.1
.2437	287	.1

System: .alpha.-methyltoluene + 2-octylisoquinolinium thiocyanate; phases: Liquid mixture 1, Liquid mixture 2
Fixed: Pressure, kPa = 101
Property: Liquid-liquid equilibrium temperature, K (Liquid mixture 1); method: Visual observation
Mole fraction of 2-octylisoquinolinium thiocyanate	Liquid-liquid equilibrium temperature, K	uncertainty
.3935	348.6	.1
.3924	341.6	.1
.3916	334.4	.1
.3904	326.2	.1
.3893	318.7	.1
.3875	312.7	.1
.3863	307.6	.1
.385	303.7	.1
.3834	298.1	.1
.382	294	.1
.3806	290.8	.1

System: propylbenzene + 2-octylisoquinolinium thiocyanate; phases: Liquid mixture 1, Liquid mixture 2
Fixed: Pressure, kPa = 101
Property: Liquid-liquid equilibrium temperature, K (Liquid mixture 1); method: Visual observation
Mole fraction of 2-octylisoquinolinium thiocyanate	Liquid-liquid equilibrium temperature, K	uncertainty
.5023	352.3	.1
.5005	340.7	.1
.4997	332.7	.1
.4985	325.1	.1
.4975	316.5	.1
.4968	309.5	.1
.4953	303.7	.1
.4931	298.4	.1
.4911	292	.1

System: thiophene + 2-octylisoquinolinium thiocyanate; phases: Liquid mixture 1, Liquid mixture 2
Fixed: Pressure, kPa = 101
Property: Liquid-liquid equilibrium temperature, K (Liquid mixture 1); method: Visual observation
Mole fraction of 2-octylisoquinolinium thiocyanate	Liquid-liquid equilibrium temperature, K	uncertainty
.085	302.4	.1
.0844	305.2	.1
.0845	304.7	.1
.0839	306.4	.1
.0833	308.4	.1
.0827	310	.1
.0821	311.8	.1
.0816	313.2	.1
.0811	314.8	.1
.0807	317.1	.1
.0802	318.5	.1
.0796	320.5	.1
.079	322.5	.1
.0784	323.8	.1
.0779	325.5	.1
.0773	327.2	.1
.0769	328.5	.1
.0763	330.1	.1
.0758	331.6	.1
.0753	332.8	.1
.0748	333.9	.1
.0743	335.4	.1
.0738	337.1	.1
.0732	338.5	.1
.0727	339.7	.1
.0722	341.2	.1
.0717	342.9	.1
.0706	345.6	.1
.0052	356.6	.1
.0045	348.2	.1
.0038	337.2	.1
.0031	327.2	.1
.0025	317.1	.1
.002	307.6	.1
