Measured thermophysical data. Solubility of 1-aminoanthraquinone and 1-nitroanthraquinone in supercritical carbon dioxide
Source: J. Chem. Thermodyn., 2017, 10.1016/j.jct.2016.09.032
Compound 1: 1-aminoanthraquinone, C14H9NO2, purity 98%
Compound 2: 1-nitroanthraquinone, C14H7NO4, purity 98%
Compound 3: carbon dioxide, CO2, purity 99.9%

System: 1-aminoanthraquinone + carbon dioxide; phases: Fluid (supercritical or subcritical phases), Crystal
Property: Mole fraction of 1-aminoanthraquinone (Fluid (supercritical or subcritical phases)); method: UV-Visible Spectrophotometer
Temperature, K	Pressure, kPa	Mole fraction of 1-aminoanthraquinone	uncertainty
323.15	12500	.00000231	
323.15	15000	.00000533	
323.15	17500	.00000734	
323.15	20000	.00000954	
323.15	22500	.00001175	
323.15	25000	.00001382	
353.15	12500	.00000055	
353.15	15000	.00000233	
353.15	17500	.0000064	
353.15	20000	.0000117	
353.15	22500	.0000166	
353.15	25000	.00002945	
383.15	12500	.00000128	
383.15	15000	.00000306	
383.15	17500	.00000738	
383.15	20000	.00001511	
383.15	22500	.00002677	
383.15	25000	.00003513	

System: 1-nitroanthraquinone + carbon dioxide; phases: Fluid (supercritical or subcritical phases), Crystal
Property: Mole fraction of 1-nitroanthraquinone (Fluid (supercritical or subcritical phases)); method: UV-Visible Spectrophotometer
Temperature, K	Pressure, kPa	Mole fraction of 1-nitroanthraquinone	uncertainty
323.15	12500	.00000309	
323.15	15000	.00000466	
323.15	17500	.00000599	
323.15	20000	.00000699	
323.15	22500	.00000884	
323.15	25000	.00001057	
353.15	12500	.00000098	
353.15	15000	.00000203	
353.15	17500	.00000426	
353.15	20000	.00000683	
353.15	22500	.00001148	
353.15	25000	.00001847	
383.15	12500	.00000155	
383.15	15000	.00000269	
383.15	17500	.00000511	
383.15	20000	.0000103	
383.15	22500	.00001642	
383.15	25000	.00002523	
