Measured thermophysical data. Interface adsorption and micelle formation of ionic liquid 1-hexyl-3-methylimidazolium chloride in the toluene + water system
Source: J. Chem. Thermodyn., 2013, 10.1016/j.jct.2013.03.004
Compound 1: water, H2O, purity 99.8%
Compound 2: 1-hexyl-3-methylimidazolium chloride, C10H19ClN2
Compound 3: toluene, C7H8, purity 99.9%

System: toluene + water + 1-hexyl-3-methylimidazolium chloride; phases: Liquid mixture 1, Liquid mixture 2
Fixed: Pressure, kPa = 101
Property: Interfacial tension, N/m (Liquid mixture 1); method: Drop volume
Temperature, K	Amount concentration (molarity), mol/dm3 of 1-hexyl-3-methylimidazolium chloride	Interfacial tension, N/m	uncertainty
293.2	0	.0372	.0001
293.2	.0001	.0371	.0001
293.2	.00025	.037	.0001
293.2	.0005	.0367	.0001
293.2	.001	.0363	.0001
293.2	.0025	.0358	.0001
293.2	.01	.0333	.0001
293.2	.03	.029	.0001
293.2	.08	.0242	.0001
293.2	.2	.0196	.0001
293.2	.3	.0171	.0001
293.2	.4	.0157	.0001
293.2	.5	.0153	.0001
293.2	.6	.0153	.0001
298.2	0	.0363	.0001
298.2	.0001	.036	.0001
298.2	.00025	.0358	.0001
298.2	.0005	.0356	.0001
298.2	.001	.0353	.0001
298.2	.0025	.0343	.0001
298.2	.01	.0314	.0001
298.2	.03	.0274	.0001
298.2	.08	.0228	.0001
298.2	.2	.0184	.0001
298.2	.3	.0159	.0001
298.2	.4	.0144	.0001
298.2	.5	.0144	.0001
298.2	.6	.0144	.0001
303.2	0	.0357	.0001
303.2	.0001	.0352	.0001
303.2	.00025	.0351	.0001
303.2	.0005	.0346	.0001
303.2	.001	.0342	.0001
303.2	.0025	.0333	.0001
303.2	.01	.03	.0001
303.2	.03	.0263	.0001
303.2	.08	.0217	.0001
303.2	.2	.0166	.0001
303.2	.3	.0145	.0001
303.2	.4	.0135	.0001
303.2	.5	.0132	.0001
303.2	.6	.0132	.0001
308.2	0	.0352	.0001
308.2	.0001	.0346	.0001
308.2	.00025	.034	.0001
308.2	.0005	.0335	.0001
308.2	.001	.0327	.0001
308.2	.0025	.0318	.0001
308.2	.01	.0286	.0001
308.2	.03	.024	.0001
308.2	.08	.0197	.0001
308.2	.2	.0155	.0001
308.2	.3	.0138	.0001
308.2	.4	.013	.0001
308.2	.5	.0126	.0001
308.2	.6	.0126	.0001
313.2	0	.0347	.0001
313.2	.0001	.0338	.0001
313.2	.00025	.0334	.0001
313.2	.0005	.0328	.0001
313.2	.001	.0317	.0001
313.2	.0025	.0305	.0001
313.2	.01	.0273	.0001
313.2	.03	.0228	.0001
313.2	.08	.0184	.0001
313.2	.2	.0143	.0001
313.2	.3	.0127	.0001
313.2	.4	.012	.0001
313.2	.5	.0116	.0001
313.2	.6	.0114	.0001

System: toluene + water + 1-hexyl-3-methylimidazolium chloride; phases: Liquid mixture 1, Liquid mixture 2
Fixed: Pressure, kPa = 101
Property: Mass density, kg/m3 (Liquid mixture 1); method: Vibrating tube method
Temperature, K	Amount concentration (molarity), mol/dm3 of 1-hexyl-3-methylimidazolium chloride	Mass density, kg/m3	uncertainty
293.2	0	998.23	.01
293.2	.0001	998.23	.01
293.2	.00025	998.25	.01
293.2	.0005	998.29	.01
293.2	.001	998.47	.01
293.2	.0025	998.51	.01
293.2	.01	998.86	.01
293.2	.03	999.34	.01
293.2	.08	1000.1	.01
293.2	.2	1000.49	.01
293.2	.3	1000.55	.01
293.2	.4	1001.05	.01
293.2	.5	1001.09	.01
293.2	.6	1001.16	.01
298.2	0	997.06	.01
298.2	.0001	997.06	.01
298.2	.00025	997.07	.01
298.2	.0005	997.09	.01
298.2	.001	997.31	.01
298.2	.0025	997.39	.01
298.2	.01	997.54	.01
298.2	.03	997.76	.01
298.2	.08	998.08	.01
298.2	.2	998.26	.01
298.2	.3	998.39	.01
298.2	.4	998.68	.01
298.2	.5	998.74	.01
298.2	.6	998.8	.01
303.2	0	995.64	.01
303.2	.0001	995.64	.01
303.2	.00025	995.66	.01
303.2	.0005	995.67	.01
303.2	.001	995.94	.01
303.2	.0025	995.99	.01
303.2	.01	996.23	.01
303.2	.03	996.4	.01
303.2	.08	996.87	.01
303.2	.2	996.97	.01
303.2	.3	997.01	.01
303.2	.4	997.05	.01
303.2	.5	997.17	.01
303.2	.6	997.26	.01
308.2	0	994.04	.01
308.2	.0001	994.04	.01
308.2	.00025	994.04	.01
308.2	.0005	994.05	.01
308.2	.001	994.46	.01
308.2	.0025	994.52	.01
308.2	.01	994.8	.01
308.2	.03	994.98	.01
308.2	.08	995.16	.01
308.2	.2	995.24	.01
308.2	.3	995.33	.01
308.2	.4	995.41	.01
308.2	.5	995.5	.01
308.2	.6	995.59	.01
313.2	0	992.18	.01
313.2	.0001	992.18	.01
313.2	.00025	992.19	.01
313.2	.0005	992.22	.01
313.2	.001	992.64	.01
313.2	.0025	992.7	.01
313.2	.01	993.05	.01
313.2	.03	993.17	.01
313.2	.08	993.36	.01
313.2	.2	993.59	.01
313.2	.3	993.7	.01
313.2	.4	993.86	.01
313.2	.5	993.91	.01
313.2	.6	994	.01

System: toluene + water + 1-hexyl-3-methylimidazolium chloride; phases: Liquid mixture 2, Liquid mixture 1
Fixed: Pressure, kPa = 101
Property: Mass density, kg/m3 (Liquid mixture 2); method: Vibrating tube method
Temperature, K	Amount concentration (molarity), mol/dm3 of 1-hexyl-3-methylimidazolium chloride	Mass density, kg/m3	uncertainty
293.2	0	866.83	.01
293.2	.0001	866.83	.01
293.2	.00025	866.84	.01
293.2	.0005	866.84	.01
293.2	.001	866.84	.01
293.2	.0025	866.84	.01
293.2	.01	866.85	.01
293.2	.03	866.85	.01
293.2	.08	866.85	.01
293.2	.2	866.85	.01
293.2	.3	866.85	.01
293.2	.4	866.85	.01
293.2	.5	866.85	.01
293.2	.6	866.85	.01
298.2	0	862.18	.01
298.2	.0001	862.18	.01
298.2	.00025	862.18	.01
298.2	.0005	862.18	.01
298.2	.001	862.18	.01
298.2	.0025	862.18	.01
298.2	.01	862.18	.01
298.2	.03	862.18	.01
298.2	.08	862.19	.01
298.2	.2	862.19	.01
298.2	.3	862.19	.01
298.2	.4	862.19	.01
298.2	.5	862.19	.01
298.2	.6	862.19	.01
303.2	0	857.53	.01
303.2	.0001	857.53	.01
303.2	.00025	857.53	.01
303.2	.0005	857.53	.01
303.2	.001	857.53	.01
303.2	.0025	857.53	.01
303.2	.01	857.53	.01
303.2	.03	857.53	.01
303.2	.08	857.53	.01
303.2	.2	857.53	.01
303.2	.3	857.53	.01
303.2	.4	857.53	.01
303.2	.5	857.54	.01
303.2	.6	857.54	.01
308.2	0	852.86	.01
308.2	.0001	852.86	.01
308.2	.00025	852.86	.01
308.2	.0005	852.86	.01
308.2	.001	852.86	.01
308.2	.0025	852.86	.01
308.2	.01	852.86	.01
308.2	.03	852.87	.01
308.2	.08	852.87	.01
308.2	.2	852.87	.01
308.2	.3	852.87	.01
308.2	.4	852.87	.01
308.2	.5	852.87	.01
308.2	.6	852.87	.01
313.2	0	848.13	.01
313.2	.0001	848.13	.01
313.2	.00025	848.13	.01
313.2	.0005	848.13	.01
313.2	.001	848.13	.01
313.2	.0025	848.13	.01
313.2	.01	848.13	.01
313.2	.03	848.13	.01
313.2	.08	848.13	.01
313.2	.2	848.13	.01
313.2	.3	848.13	.01
313.2	.4	848.14	.01
313.2	.5	848.15	.01
313.2	.6	848.15	.01

System: toluene + water; phases: Liquid mixture 1, Liquid mixture 2
Property: Interfacial tension, N/m (Liquid mixture 1); method: Drop volume
Temperature, K	Pressure, kPa	Interfacial tension, N/m	uncertainty
293.2	101	.0372	.0001
298.2	101	.0363	.0001
303.2	101	.0357	.0001
308.2	101	.0352	.0001
313.2	101	.0347	.0001

System: toluene + water; phases: Liquid mixture 1, Liquid mixture 2
Property: Mass density, kg/m3 (Liquid mixture 1); method: Vibrating tube method
Temperature, K	Pressure, kPa	Mass density, kg/m3	uncertainty
293.2	101	998.23	.01
298.2	101	997.06	.01
303.2	101	995.64	.01
308.2	101	994.04	.01
313.2	101	992.18	.01

System: toluene + water; phases: Liquid mixture 2, Liquid mixture 1
Property: Mass density, kg/m3 (Liquid mixture 2); method: Vibrating tube method
Temperature, K	Pressure, kPa	Mass density, kg/m3	uncertainty
293.2	101	866.83	.01
298.2	101	862.18	.01
303.2	101	857.53	.01
308.2	101	852.86	.01
313.2	101	848.13	.01
