Measured thermophysical data. Measurement and modelling of urea solubility in aqueous propane-1,2,3-triol and prop-2-enoic acid solutions
Source: J. Chem. Thermodyn., 2016, 10.1016/j.jct.2016.08.009
Compound 1: 1,2,3-propanetriol, C3H8O3, purity 99.5%
Compound 2: acrylic acid, C3H4O2, purity 99%
Compound 3: urea, CH4N2O, purity 98%
Compound 4: water, H2O, purity 99.8%

System: urea + water; phases: Liquid, Crystal
Fixed: Pressure, kPa = 101.3
Property: Mass ratio of solute to solvent of urea (Liquid); method: Titration
Temperature, K	Mass ratio of solute to solvent of urea	uncertainty
308.1	1.488	
313.1	1.601	
323.1	1.987	
333.1	2.438	
343.1	2.964	

System: urea + acrylic acid + water; phases: Liquid, Crystal
Fixed: Pressure, kPa = 101.3
Property: Mass ratio of solute to solvent of urea (Liquid); method: Titration
Solvent: Mass fraction of acrylic acid	Temperature, K	Mass ratio of solute to solvent of urea	uncertainty
.2071	308.15	1.425	
.2071	313.15	1.5177	
.2071	318.15	1.6778	
.2071	333.15	2.3348	
.2583	308.15	1.4112	
.2583	313.15	1.5074	
.2583	318.15	1.6665	
.2583	323.15	1.8578	
.2583	333.15	2.3033	
.4105	308.15	1.3195	
.4105	313.15	1.4137	
.4105	318.15	1.4958	
.4105	333.15	2.1158	
.5109	308.15	1.0972	
.5109	313.15	1.2298	
.5109	318.15	1.3369	
.5109	323.15	1.4415	
.5109	333.15	1.7341	
.5109	343.15	2.0728	
.6104	308.15	1.013	
.6104	313.15	1.1216	
.6104	318.15	1.22	
.6104	323.15	1.3294	
.6104	333.15	1.588	
.7091	308.15	.97043	
.7091	323.15	1.197	
.7091	343.15	1.7232	

System: 1,2,3-propanetriol + urea + water; phases: Liquid, Crystal
Fixed: Pressure, kPa = 101.3
Property: Mass ratio of solute to solvent of urea (Liquid); method: Titration
Solvent: Mass fraction of 1,2,3-propanetriol	Temperature, K	Mass ratio of solute to solvent of urea	uncertainty
.0126	308.15	1.4767	
.0126	323.15	2.001	
.0126	333.15	2.401	
.0126	343.15	2.8651	
.0625	308.15	1.4245	
.0625	323.15	1.9109	
.0625	343.15	2.774	
.1234	308.15	1.4291	
.1234	323.15	1.8026	
.1234	333.15	2.1931	
.1234	343.15	2.6371	
.2405	313.15	1.3963	
.2405	323.15	1.6889	
.2405	333.15	2.1191	
.2405	343.15	2.568	
.5588	308.15	.9019	
.5588	313.15	1.0262	
.5588	323.15	1.2022	
.5588	333.15	1.5972	
.5588	343.15	1.9694	
.7472	308.15	.6958	
.7472	323.15	.9337	
.7472	333.15	1.1035	
.7472	343.15	1.4577	
