Measured thermophysical data. Solubility of salicylic acid in pure alcohols at different temperatures
Source: J. Chem. Thermodyn., 2013, 10.1016/j.jct.2012.09.006
Compound 1: ethanol, C2H6O, purity 99.9%
Compound 2: n-propyl alcohol, C3H8O, purity 99.9%
Compound 3: n-butanol, C4H10O, purity 99.7%
Compound 4: pentyl alcohol, C5H12O, purity 99%
Compound 5: amylcarbinol, C6H14O, purity 99%
Compound 6: 1-hydroxyheptane, C7H16O, purity 98%
Compound 7: benzoic acid, 2-hydroxy-, C7H6O3, purity 99%
Compound 8: DL-2-aminopropanoic acid, C3H7NO2, purity 99%
Compound 9: water, H2O

System: benzoic acid, 2-hydroxy-; phases: Crystal, Liquid, Air at 1 atmosphere
Property: Molar enthalpy of transition or fusion, kJ/mol (Crystal); method: DSC/DTA
Molar enthalpy of transition or fusion, kJ/mol	uncertainty
24.06	.2

System: benzoic acid, 2-hydroxy-; phases: Crystal, Liquid, Air at 1 atmosphere
Property: Normal melting temperature, K (Crystal); method: DSC/DTA
Normal melting temperature, K	uncertainty
431.8	.4

System: ethanol + benzoic acid, 2-hydroxy-; phases: Liquid, Crystal
Fixed: Pressure, kPa = 101
Property: Mole fraction of benzoic acid, 2-hydroxy- (Liquid); method: Gravimetric
Temperature, K	Mole fraction of benzoic acid, 2-hydroxy-	uncertainty
278.15	.1084	.0008
283.15	.1169	.0008
288.15	.1255	.0008
293.15	.1358	.0008
298.15	.1455	.0008
303.15	.1566	.0008
308.15	.1697	.0008
313.15	.1821	.0008
318.15	.1969	.0008

System: benzoic acid, 2-hydroxy- + n-propyl alcohol; phases: Liquid, Crystal
Fixed: Pressure, kPa = 101
Property: Mole fraction of benzoic acid, 2-hydroxy- (Liquid); method: Gravimetric
Temperature, K	Mole fraction of benzoic acid, 2-hydroxy-	uncertainty
278.15	.1017	.0007
283.15	.1108	.0007
288.15	.1204	.0007
293.15	.1314	.0007
298.15	.1428	.0007
303.15	.1543	.0007
308.15	.168	.0007
313.15	.1806	.0007
318.15	.196	.0007

System: benzoic acid, 2-hydroxy- + n-butanol; phases: Liquid, Crystal
Fixed: Pressure, kPa = 101
Property: Mole fraction of benzoic acid, 2-hydroxy- (Liquid); method: Gravimetric
Temperature, K	Mole fraction of benzoic acid, 2-hydroxy-	uncertainty
278.15	.1063	.0005
283.15	.1158	.0005
288.15	.1255	.0005
293.15	.1367	.0005
298.15	.1484	.0005
303.15	.1597	.0005
308.15	.1736	.0005
313.15	.1863	.0005
318.15	.2012	.0005

System: benzoic acid, 2-hydroxy- + pentyl alcohol; phases: Liquid, Crystal
Fixed: Pressure, kPa = 101
Property: Mole fraction of benzoic acid, 2-hydroxy- (Liquid); method: Gravimetric
Temperature, K	Mole fraction of benzoic acid, 2-hydroxy-	uncertainty
278.15	.1128	.0005
283.15	.1227	.0005
288.15	.1323	.0005
293.15	.144	.0005
298.15	.155	.0005
303.15	.1663	.0005
308.15	.1802	.0005
313.15	.1919	.0005
318.15	.2059	.0005

System: benzoic acid, 2-hydroxy- + amylcarbinol; phases: Liquid, Crystal
Fixed: Pressure, kPa = 101
Property: Mole fraction of benzoic acid, 2-hydroxy- (Liquid); method: Gravimetric
Temperature, K	Mole fraction of benzoic acid, 2-hydroxy-	uncertainty
278.15	.1163	.0005
283.15	.1269	.0005
288.15	.1367	.0005
293.15	.1458	.0005
298.15	.1584	.0005
303.15	.1691	.0005
308.15	.182	.0005
313.15	.195	.0005
318.15	.2089	.0005

System: benzoic acid, 2-hydroxy- + 1-hydroxyheptane; phases: Liquid, Crystal
Fixed: Pressure, kPa = 101
Property: Mole fraction of benzoic acid, 2-hydroxy- (Liquid); method: Gravimetric
Temperature, K	Mole fraction of benzoic acid, 2-hydroxy-	uncertainty
278.15	.1172	.0006
283.15	.128	.0006
288.15	.1377	.0006
293.15	.1485	.0006
298.15	.1604	.0006
303.15	.1714	.0006
308.15	.1846	.0006
313.15	.1969	.0006
318.15	.2102	.0006

System: DL-2-aminopropanoic acid + water; phases: Liquid, Crystal
Fixed: Pressure, kPa = 101
Property: Mole fraction of DL-2-aminopropanoic acid (Liquid); method: Gravimetric
Temperature, K	Mole fraction of DL-2-aminopropanoic acid	uncertainty
278.15	.0254	
288.15	.0288	
298.15	.0326	
308.15	.0368	
318.15	.042	
328.15	.0477	
