Measured thermophysical data. The effect of ketone groups on the energetic properties of phthalan derivatives
Source: J. Chem. Thermodyn., 2016, 10.1016/j.jct.2015.12.018
Compound 1: phthalide, C8H6O2, purity 99.8%
Compound 2: phthalic anhydride, C8H4O3, purity 99.4%
Compound 3: carbon dioxide, CO2
Compound 4: water, H2O
Compound 5: oxygen, O2

System: phthalide; phases: Crystal, Gas
Property: Molar enthalpy of vaporization or sublimation, kJ/mol (Crystal); method: Static calorimetry
Temperature, K	Molar enthalpy of vaporization or sublimation, kJ/mol	uncertainty
298.15	88.4	4.4

System: phthalide; phases: Gas, Crystal
Property: Molar enthalpy, kJ/mol (Gas); method: Drop calorimetry
Temperature, K	Molar enthalpy, kJ/mol	uncertainty
347.9	95.4	

System: phthalic anhydride; phases: Crystal, Gas
Property: Molar enthalpy of vaporization or sublimation, kJ/mol (Crystal); method: Static calorimetry
Temperature, K	Molar enthalpy of vaporization or sublimation, kJ/mol	uncertainty
298.15	87.9	4.7

System: phthalic anhydride; phases: Gas, Crystal
Property: Molar enthalpy, kJ/mol (Gas); method: Drop calorimetry
Temperature, K	Molar enthalpy, kJ/mol	uncertainty
393.1	102.8	

Reaction: -1 phthalide + 8 carbon dioxide + 3 water + -8.5 oxygen
Property: Specific internal energy of reaction at constant volume, J/g
-27525.32

Reaction: -1 phthalic anhydride + 8 carbon dioxide + 2 water + -7.5 oxygen
Property: Specific internal energy of reaction at constant volume, J/g
-22023.23
