Measured thermophysical data. Effect of B-cyclodextrin on the behaviour of thermophysical and spectroscopic properties of binary mixtures of (isomeric butanediol + pyrrolidin-2-one)
Source: J. Chem. Thermodyn., 2013, 10.1016/j.jct.2012.08.026
Compound 1: butyrolactam, C4H7NO, purity 99%
Compound 2: 1,2-butanediol, C4H10O2, purity 98%
Compound 3: 1,3-dihydroxybutane, C4H10O2, purity 99%
Compound 4: butylene glycol, C4H10O2, purity 99%
Compound 5: butane, 2,3-dihydroxy-, isomer not specified, C4H10O2, purity 98%
Compound 6: .beta.-cyclodextrin, C42H70O35, purity 97%

System: butyrolactam; phases: Liquid
Fixed: Pressure, kPa = 101.325
Property: Mass density, kg/m3 (Liquid); method: Vibrating tube method
Temperature, K	Mass density, kg/m3	uncertainty
308.15	1097.14	.01

System: butyrolactam; phases: Liquid
Fixed: Pressure, kPa = 101.325
Property: Speed of sound, m/s (Liquid); method: Pulse-echo method
Temperature, K	Speed of sound, m/s	uncertainty
308.15	1599.97	.02

System: butyrolactam; phases: Liquid
Fixed: Pressure, kPa = 101.325
Property: Viscosity, Pa*s (Liquid); method: Capillary tube (Ostwald; Ubbelohde) method
Temperature, K	Viscosity, Pa*s	uncertainty
308.15	.008922	.000001

System: 1,2-butanediol; phases: Liquid
Fixed: Pressure, kPa = 101.325
Property: Mass density, kg/m3 (Liquid); method: Vibrating tube method
Temperature, K	Mass density, kg/m3	uncertainty
308.15	988.25	.01

System: 1,2-butanediol; phases: Liquid
Fixed: Pressure, kPa = 101.325
Property: Speed of sound, m/s (Liquid); method: Pulse-echo method
Temperature, K	Speed of sound, m/s	uncertainty
308.15	1422.61	.02

System: 1,2-butanediol; phases: Liquid
Fixed: Pressure, kPa = 101.325
Property: Viscosity, Pa*s (Liquid); method: Capillary tube (Ostwald; Ubbelohde) method
Temperature, K	Viscosity, Pa*s	uncertainty
308.15	.030294	.000001

System: 1,3-dihydroxybutane; phases: Liquid
Fixed: Pressure, kPa = 101.325
Property: Mass density, kg/m3 (Liquid); method: Vibrating tube method
Temperature, K	Mass density, kg/m3	uncertainty
308.15	991.28	.01

System: 1,3-dihydroxybutane; phases: Liquid
Fixed: Pressure, kPa = 101.325
Property: Speed of sound, m/s (Liquid); method: Pulse-echo method
Temperature, K	Speed of sound, m/s	uncertainty
308.15	1496.03	.02

System: 1,3-dihydroxybutane; phases: Liquid
Fixed: Pressure, kPa = 101.325
Property: Viscosity, Pa*s (Liquid); method: Capillary tube (Ostwald; Ubbelohde) method
Temperature, K	Viscosity, Pa*s	uncertainty
308.15	.054236	.000001

System: butylene glycol; phases: Liquid
Fixed: Pressure, kPa = 101.325
Property: Mass density, kg/m3 (Liquid); method: Vibrating tube method
Temperature, K	Mass density, kg/m3	uncertainty
308.15	1003.95	.01

System: butylene glycol; phases: Liquid
Fixed: Pressure, kPa = 101.325
Property: Speed of sound, m/s (Liquid); method: Pulse-echo method
Temperature, K	Speed of sound, m/s	uncertainty
308.15	1577.76	.02

System: butylene glycol; phases: Liquid
Fixed: Pressure, kPa = 101.325
Property: Viscosity, Pa*s (Liquid); method: Capillary tube (Ostwald; Ubbelohde) method
Temperature, K	Viscosity, Pa*s	uncertainty
308.15	.047378	.000001

System: butane, 2,3-dihydroxy-, isomer not specified; phases: Liquid
Fixed: Pressure, kPa = 101.325
Property: Mass density, kg/m3 (Liquid); method: Vibrating tube method
Temperature, K	Mass density, kg/m3	uncertainty
308.15	990.72	.01

System: butane, 2,3-dihydroxy-, isomer not specified; phases: Liquid
Fixed: Pressure, kPa = 101.325
Property: Speed of sound, m/s (Liquid); method: Pulse-echo method
Temperature, K	Speed of sound, m/s	uncertainty
308.15	1456.6	.02

System: butane, 2,3-dihydroxy-, isomer not specified; phases: Liquid
Fixed: Pressure, kPa = 101.325
Property: Viscosity, Pa*s (Liquid); method: Capillary tube (Ostwald; Ubbelohde) method
Temperature, K	Viscosity, Pa*s	uncertainty
308.15	.05138	.000001

System: 1,2-butanediol + butyrolactam + .beta.-cyclodextrin; phases: Liquid
Fixed: Temperature, K = 308.15
Fixed: Pressure, kPa = 101
Fixed: Solvent: Molality, mol/kg of .beta.-cyclodextrin = .00088
Property: Speed of sound, m/s (Liquid); method: Pulse-echo method
Mole fraction of 1,2-butanediol	Speed of sound, m/s	uncertainty
.0454	1598.73	.02
.0976	1587.43	.02
.1951	1566.16	.02
.3326	1538.08	.02
.3851	1527.72	.02
.4876	1508.27	.02
.5843	1490.77	.02
.6985	1471.09	.02
.7934	1455.64	.02
.893	1439.61	.02
.9478	1430.88	.02

System: 1,2-butanediol + butyrolactam + .beta.-cyclodextrin; phases: Liquid
Fixed: Temperature, K = 308.15
Fixed: Pressure, kPa = 101
Fixed: Solvent: Molality, mol/kg of .beta.-cyclodextrin = .00088
Property: Viscosity, Pa*s (Liquid); method: Capillary tube (Ostwald; Ubbelohde) method
Mole fraction of 1,2-butanediol	Viscosity, Pa*s	uncertainty
.0454	.010451	.000001
.0976	.011314	.000001
.1951	.012318	.000001
.3326	.013641	.000001
.3851	.014428	.000001
.4876	.015985	.000001
.5843	.017457	.000001
.6985	.020276	.000001
.7934	.022753	.000001
.893	.025895	.000001
.9478	.027993	.000001

System: 1,3-dihydroxybutane + butyrolactam + .beta.-cyclodextrin; phases: Liquid
Fixed: Temperature, K = 308.15
Fixed: Pressure, kPa = 101
Fixed: Solvent: Molality, mol/kg of .beta.-cyclodextrin = .00088
Property: Speed of sound, m/s (Liquid); method: Pulse-echo method
Mole fraction of 1,3-dihydroxybutane	Speed of sound, m/s	uncertainty
.0521	1596.54	.02
.0669	1593.34	.02
.1194	1585.09	.02
.201	1574.12	.02
.2823	1563.92	.02
.3605	1554.6	.02
.4803	1541.51	.02
.5752	1532.31	.02
.6838	1522.2	.02
.7808	1513.95	.02
.8893	1504.51	.02
.9171	1502.81	.02
.9475	1500.68	.02
.9685	1498.99	.02

System: 1,3-dihydroxybutane + butyrolactam + .beta.-cyclodextrin; phases: Liquid
Fixed: Temperature, K = 308.15
Fixed: Pressure, kPa = 101
Fixed: Solvent: Molality, mol/kg of .beta.-cyclodextrin = .00088
Property: Viscosity, Pa*s (Liquid); method: Capillary tube (Ostwald; Ubbelohde) method
Mole fraction of 1,3-dihydroxybutane	Viscosity, Pa*s	uncertainty
.0521	.010999	.000001
.0669	.011149	.000001
.1194	.011918	.000001
.201	.012735	.000001
.2823	.014322	.000001
.3605	.015843	.000001
.4803	.018762	.000001
.5752	.021554	.000001
.6838	.025932	.000001
.7808	.031553	.000001
.9171	.042459	.000001
.9475	.045666	.000001
.9685	.04887	.000001

System: butylene glycol + butyrolactam + .beta.-cyclodextrin; phases: Liquid
Fixed: Temperature, K = 308.15
Fixed: Pressure, kPa = 101
Fixed: Solvent: Molality, mol/kg of .beta.-cyclodextrin = .00088
Property: Speed of sound, m/s (Liquid); method: Pulse-echo method
Mole fraction of butylene glycol	Speed of sound, m/s	uncertainty
.0549	1605.15	.02
.0963	1603.27	.02
.1845	1601.13	.02
.2879	1599.11	.02
.3855	1596.92	.02
.5183	1593.41	.02
.6078	1590.66	.02
.6958	1587.91	.02
.7944	1585.18	.02
.8951	1582.05	.02
.9682	1579.04	.02

System: butylene glycol + butyrolactam + .beta.-cyclodextrin; phases: Liquid
Fixed: Temperature, K = 308.15
Fixed: Pressure, kPa = 101
Fixed: Solvent: Molality, mol/kg of .beta.-cyclodextrin = .00088
Property: Viscosity, Pa*s (Liquid); method: Capillary tube (Ostwald; Ubbelohde) method
Mole fraction of butylene glycol	Viscosity, Pa*s	uncertainty
.0549	.010687	.000001
.0963	.011263	.000001
.1845	.012987	.000001
.2879	.014906	.000001
.3855	.01723	.000001
.5183	.021195	.000001
.6078	.024518	.000001
.6958	.028068	.000001
.7944	.033255	.000001
.8951	.039297	.000001
.9682	.044854	.000001

System: butane, 2,3-dihydroxy-, isomer not specified + butyrolactam + .beta.-cyclodextrin; phases: Liquid
Fixed: Temperature, K = 308.15
Fixed: Pressure, kPa = 101
Fixed: Solvent: Molality, mol/kg of .beta.-cyclodextrin = .00088
Property: Speed of sound, m/s (Liquid); method: Pulse-echo method
Mole fraction of butane, 2,3-dihydroxy-, isomer not specified	Speed of sound, m/s	uncertainty
.0465	1608.21	.02
.0897	1602.91	.02
.1859	1592.95	.02
.2757	1582.06	.02
.4824	1550.17	.02
.5865	1532.51	.02
.6934	1513.71	.02
.8069	1494.78	.02
.907	1476.05	.02
.9525	1466.33	.02

System: butane, 2,3-dihydroxy-, isomer not specified + butyrolactam + .beta.-cyclodextrin; phases: Liquid
Fixed: Temperature, K = 308.15
Fixed: Pressure, kPa = 101
Fixed: Solvent: Molality, mol/kg of .beta.-cyclodextrin = .00088
Property: Viscosity, Pa*s (Liquid); method: Capillary tube (Ostwald; Ubbelohde) method
Mole fraction of butane, 2,3-dihydroxy-, isomer not specified	Viscosity, Pa*s	uncertainty
.0465	.011173	.000001
.0897	.011391	.000001
.1859	.012968	.000001
.2757	.014249	.000001
.3857	.015041	.000001
.4825	.016825	.000001
.5865	.021094	.000001
.6934	.02673	.000001
.8069	.033977	.000001
.907	.0428	.000001
.9525	.047259	.000001
