Measured thermophysical data. Experimental investigation on the dissociation conditions of methane hydrate in the presence of imidazolium-based ionic liquids
Source: J. Chem. Thermodyn., 2015, 10.1016/j.jct.2014.12.017
Compound 1: 1-(2-hydroxyethyl)-3-methyl-1H-imidazolium chloride, C6H11ClN2O, purity 90%
Compound 2: 3-(2-hydroxyethyl)-1-methyl-1H-imidazolium bromide, C6H11BrN2O, purity 97%
Compound 3: 1-butyl-3-methylimidazolium bromide, C8H15BrN2, purity 97%
Compound 4: 1-butyl-3-methylimidazolium chloride, C8H15ClN2, purity 95%
Compound 5: 1-butyl-3-methylimidazolium perchlorate, C8H15ClN2O4, purity 93%
Compound 6: 1-butyl-3-methylimidazolium dicyanamide, C10H15N5, purity 94%
Compound 7: 1-butyl-3-methylimidazolium hydrogen sulfate, C8H16N2O4S, purity 94%
Compound 8: 1-butyl-3-methylimidazolium trifluoromethanesulfonate, C9H15F3N2O3S, purity 95%
Compound 9: 1-butyl-3-methylimidazolium methylsulfate, C9H18N2O4S, purity 96%
Compound 10: water, H2O, purity 99%

System: water + 1-butyl-3-methylimidazolium perchlorate; phases: Liquid
Fixed: Pressure, kPa = 101
Fixed: Temperature, K = 297.15
Property: Electrical conductivity, S/m (Liquid); method: Alternating current cell with electrodes
Mass fraction of 1-butyl-3-methylimidazolium perchlorate	Electrical conductivity, S/m	uncertainty
.1	2.18	.0109

System: water + 1-butyl-3-methylimidazolium methylsulfate; phases: Liquid
Fixed: Pressure, kPa = 101
Fixed: Temperature, K = 297.15
Property: Electrical conductivity, S/m (Liquid); method: Alternating current cell with electrodes
Mass fraction of 1-butyl-3-methylimidazolium methylsulfate	Electrical conductivity, S/m	uncertainty
.1	1.727	.008635

System: water + 1-butyl-3-methylimidazolium trifluoromethanesulfonate; phases: Liquid
Fixed: Pressure, kPa = 101
Fixed: Temperature, K = 297.15
Property: Electrical conductivity, S/m (Liquid); method: Alternating current cell with electrodes
Mass fraction of 1-butyl-3-methylimidazolium trifluoromethanesulfonate	Electrical conductivity, S/m	uncertainty
.1	1.378	.00689

System: water + 1-butyl-3-methylimidazolium dicyanamide; phases: Liquid
Fixed: Pressure, kPa = 101
Fixed: Temperature, K = 297.15
Property: Electrical conductivity, S/m (Liquid); method: Alternating current cell with electrodes
Mass fraction of 1-butyl-3-methylimidazolium dicyanamide	Electrical conductivity, S/m	uncertainty
.1	1.897	.009485

System: water + 1-butyl-3-methylimidazolium bromide; phases: Liquid
Fixed: Pressure, kPa = 101
Fixed: Temperature, K = 297.15
Property: Electrical conductivity, S/m (Liquid); method: Alternating current cell with electrodes
Mass fraction of 1-butyl-3-methylimidazolium bromide	Electrical conductivity, S/m	uncertainty
.1	2.87	.01435

System: water + 1-butyl-3-methylimidazolium chloride; phases: Liquid
Fixed: Pressure, kPa = 101
Fixed: Temperature, K = 297.15
Property: Electrical conductivity, S/m (Liquid); method: Alternating current cell with electrodes
Mass fraction of 1-butyl-3-methylimidazolium chloride	Electrical conductivity, S/m	uncertainty
.1	3.43	.01715

System: water + 3-(2-hydroxyethyl)-1-methyl-1H-imidazolium bromide; phases: Liquid
Fixed: Pressure, kPa = 101
Fixed: Temperature, K = 297.15
Property: Electrical conductivity, S/m (Liquid); method: Alternating current cell with electrodes
Mass fraction of 3-(2-hydroxyethyl)-1-methyl-1H-imidazolium bromide	Electrical conductivity, S/m	uncertainty
.1	3.58	.0179

System: water + 1-butyl-3-methylimidazolium hydrogen sulfate; phases: Liquid
Fixed: Pressure, kPa = 101
Fixed: Temperature, K = 297.15
Property: Electrical conductivity, S/m (Liquid); method: Alternating current cell with electrodes
Mass fraction of 1-butyl-3-methylimidazolium hydrogen sulfate	Electrical conductivity, S/m	uncertainty
.1	7.63	.03815

System: water + 1-(2-hydroxyethyl)-3-methyl-1H-imidazolium chloride; phases: Liquid
Fixed: Pressure, kPa = 101
Fixed: Temperature, K = 297.15
Property: Electrical conductivity, S/m (Liquid); method: Alternating current cell with electrodes
Mass fraction of 1-(2-hydroxyethyl)-3-methyl-1H-imidazolium chloride	Electrical conductivity, S/m	uncertainty
.1	4.19	.02095
