Measured thermophysical data. Solubility and solution thermodynamics of sorbic acid in eight pure organic solvents
Source: J. Chem. Thermodyn., 2015, 10.1016/j.jct.2015.02.004
Compound 1: sorbic acid, C6H8O2
Compound 2: ethanol, C2H6O
Compound 3: 2-propanol, C3H8O
Compound 4: methanol, CH4O
Compound 5: 1-butanol, C4H10O
Compound 6: ethyl acetate, C4H8O2
Compound 7: methyl tert-butyl ether, C5H12O
Compound 8: acetone, C3H6O
Compound 9: acetonitrile, C2H3N

System: sorbic acid; phases: Crystal, Liquid, Air at 1 atmosphere
Property: Normal melting temperature, K (Crystal); method: DSC/DTA
Normal melting temperature, K	uncertainty
405.3	.3

System: sorbic acid; phases: Crystal, Liquid, Air at 1 atmosphere
Property: Molar enthalpy of transition or fusion, kJ/mol (Crystal); method: DSC
Molar enthalpy of transition or fusion, kJ/mol	uncertainty
18.76	.5628

System: ethanol; phases: Liquid
Fixed: Pressure, kPa = 101.325
Property: Mass density, kg/m3 (Liquid); method: Pycnometric method
Temperature, K	Mass density, kg/m3	uncertainty
298.15	784.2	.7

System: 2-propanol; phases: Liquid
Fixed: Pressure, kPa = 101.325
Property: Mass density, kg/m3 (Liquid); method: Pycnometric method
Temperature, K	Mass density, kg/m3	uncertainty
298.15	780.6	.7

System: methanol; phases: Liquid
Fixed: Pressure, kPa = 101.325
Property: Mass density, kg/m3 (Liquid); method: Pycnometric method
Temperature, K	Mass density, kg/m3	uncertainty
298.15	786.3	.7

System: 1-butanol; phases: Liquid
Fixed: Pressure, kPa = 101.325
Property: Mass density, kg/m3 (Liquid); method: Pycnometric method
Temperature, K	Mass density, kg/m3	uncertainty
298.15	805.5	.7

System: ethyl acetate; phases: Liquid
Fixed: Pressure, kPa = 101.325
Property: Mass density, kg/m3 (Liquid); method: Pycnometric method
Temperature, K	Mass density, kg/m3	uncertainty
298.15	893.4	.7

System: methyl tert-butyl ether; phases: Liquid
Fixed: Pressure, kPa = 101.325
Property: Mass density, kg/m3 (Liquid); method: Pycnometric method
Temperature, K	Mass density, kg/m3	uncertainty
298.15	734.1	.7

System: acetone; phases: Liquid
Fixed: Pressure, kPa = 101.325
Property: Mass density, kg/m3 (Liquid); method: Pycnometric method
Temperature, K	Mass density, kg/m3	uncertainty
298.15	783.8	.7

System: acetonitrile; phases: Liquid
Fixed: Pressure, kPa = 101.325
Property: Mass density, kg/m3 (Liquid); method: Pycnometric method
Temperature, K	Mass density, kg/m3	uncertainty
298.15	776.3	.7

System: ethanol + sorbic acid; phases: Liquid, Crystal
Fixed: Pressure, kPa = 101.3
Property: Mole fraction of sorbic acid (Liquid); method: gravimetric
Temperature, K	Mole fraction of sorbic acid	uncertainty
285.15	.04417	.0008834
289.15	.0488	.000976
293.15	.05716	.0011432
298.15	.06432	.0012864
303.15	.07469	.0014938
308.15	.0872	.001744
312.65	.10144	.0020288
318.15	.12071	.0024142
323.15	.14325	.002865

System: 2-propanol + sorbic acid; phases: Liquid, Crystal
Fixed: Pressure, kPa = 101.3
Property: Mole fraction of sorbic acid (Liquid); method: gravimetric
Temperature, K	Mole fraction of sorbic acid	uncertainty
285.15	.03833	.0007666
289.15	.04441	.0008882
293.15	.053	.00106
298.15	.06131	.0012262
303.15	.06836	.0013672
308.15	.07533	.0015066
312.65	.08597	.0017194
318.15	.09646	.0019292
323.15	.1034	.002068

System: methanol + sorbic acid; phases: Liquid, Crystal
Fixed: Pressure, kPa = 101.3
Property: Mole fraction of sorbic acid (Liquid); method: gravimetric
Temperature, K	Mole fraction of sorbic acid	uncertainty
285.15	.03278	.0006556
289.15	.03917	.0007834
293.15	.04574	.0009148
298.15	.05526	.0011052
303.15	.06425	.001285
308.15	.07492	.0014984
312.65	.083	.00166
318.15	.09336	.0018672
323.15	.10598	.0021196

System: 1-butanol + sorbic acid; phases: Liquid, Crystal
Fixed: Pressure, kPa = 101.3
Property: Mole fraction of sorbic acid (Liquid); method: gravimetric
Temperature, K	Mole fraction of sorbic acid	uncertainty
285.15	.06187	.0012374
289.15	.07377	.0014754
293.15	.08437	.0016874
298.15	.0973	.001946
303.15	.10791	.0021582
308.15	.12066	.0024132
312.65	.13536	.0027072
318.15	.154	.00308
323.15	.17338	.0034676

System: sorbic acid + ethyl acetate; phases: Liquid, Crystal
Fixed: Pressure, kPa = 101.3
Property: Mole fraction of sorbic acid (Liquid); method: gravimetric
Temperature, K	Mole fraction of sorbic acid	uncertainty
285.15	.02662	.0005324
289.15	.03137	.0006274
293.15	.03575	.000715
298.15	.04522	.0009044
303.15	.05421	.0010842
308.15	.06265	.001253
312.65	.07132	.0014264
318.15	.08615	.001723
323.15	.10205	.002041

System: sorbic acid + methyl tert-butyl ether; phases: Liquid, Crystal
Fixed: Pressure, kPa = 101.3
Property: Mole fraction of sorbic acid (Liquid); method: gravimetric
Temperature, K	Mole fraction of sorbic acid	uncertainty
285.15	.04026	.0008052
289.15	.04391	.0008782
293.15	.05119	.0010238
298.15	.05772	.0011544
303.15	.06931	.0013862
308.15	.07846	.0015692
312.65	.09299	.0018598
318.15	.10872	.0021744
323.15	.12125	.002425

System: acetone + sorbic acid; phases: Liquid, Crystal
Fixed: Pressure, kPa = 101.3
Property: Mole fraction of sorbic acid (Liquid); method: gravimetric
Temperature, K	Mole fraction of sorbic acid	uncertainty
285.15	.04758	.0009516
289.15	.05281	.0010562
293.15	.06129	.0012258
298.15	.07008	.0014016
303.15	.08711	.0017422
308.15	.09678	.0019356
312.65	.1154	.002308
318.15	.13951	.0027902
323.15	.15636	.0031272

System: acetonitrile + sorbic acid; phases: Liquid, Crystal
Fixed: Pressure, kPa = 101.3
Property: Mole fraction of sorbic acid (Liquid); method: gravimetric
Temperature, K	Mole fraction of sorbic acid	uncertainty
285.15	.00625	.000125
289.15	.00746	.0001492
293.15	.0098	.000196
298.15	.01122	.0002244
303.15	.01486	.0002972
308.15	.01722	.0003444
312.65	.01955	.000391
318.15	.02484	.0004968
323.15	.03058	.0006116
