Measured thermophysical data. Gas phase enthalpies of formation of nitrobenzamides using combustion calorimetry and thermal analysis
Source: J. Chem. Thermodyn., 2014, 10.1016/j.jct.2014.07.006
Compound 1: 2-nitrobenzamide, C7H6N2O3, purity 98%
Compound 2: 3-nitrobenzamide, C7H6N2O3, purity 98%
Compound 3: p-nitrobenzamide, C7H6N2O3, purity 98%
Compound 4: carbon dioxide, CO2
Compound 5: nitrogen, N2
Compound 6: water, H2O
Compound 7: oxygen, O2, purity 99.999%
Compound 8: phenanthrene, C14H10, purity 99%

System: 2-nitrobenzamide; phases: Crystal
Fixed: Pressure, kPa = 101.325
Property: Molar heat capacity at constant pressure, J/K/mol (Crystal); method: Small sample (50 mg) scanning calorimetry
Temperature, K	Molar heat capacity at constant pressure, J/K/mol	uncertainty
298.15	220.9585126	4.419170252

System: 2-nitrobenzamide; phases: Crystal, Liquid, Air at 1 atmosphere
Property: Molar enthalpy of transition or fusion, kJ/mol (Crystal); method: DSC
Molar enthalpy of transition or fusion, kJ/mol	uncertainty
27.73	

System: 2-nitrobenzamide; phases: Crystal, Liquid, Air at 1 atmosphere
Property: Normal melting temperature, K (Crystal); method: DSC/DTA
Normal melting temperature, K	uncertainty
446.95	

System: 2-nitrobenzamide; phases: Liquid, Gas
Property: Vapor or sublimation pressure, kPa (Liquid); method: Rate of evaporation
Temperature, K	Vapor or sublimation pressure, kPa	uncertainty
485.04	.5538	
490.02	.6682	
495.05	.8126	
500.05	.9934	
505.03	1.212	
510.02	1.4868	
515.08	1.8221	
520.05	2.2274	
525.01	2.6969	
530.02	3.2737	
535.02	3.9423	
485.08	.5802	
490.06	.6975	
495	.8483	
500.08	1.0356	
505.05	1.264	
510.04	1.5308	
515.02	1.8768	
520.07	2.2026	
525.01	2.8835	
530.03	3.3151	
535.03	3.9509	
485.02	.5592	
490.07	.6914	
495.01	.8342	
500.01	1.0164	
505	1.2337	
510.07	1.5027	
515.05	1.8285	
520.02	2.233	
525.06	2.7176	
530.07	3.2901	
535.06	3.9573	

System: 3-nitrobenzamide; phases: Crystal
Fixed: Pressure, kPa = 101.325
Property: Molar heat capacity at constant pressure, J/K/mol (Crystal); method: Small sample (50 mg) scanning calorimetry
Temperature, K	Molar heat capacity at constant pressure, J/K/mol	uncertainty
298.15	237.5719346	4.751438692

System: 3-nitrobenzamide; phases: Crystal, Liquid, Air at 1 atmosphere
Property: Molar enthalpy of transition or fusion, kJ/mol (Crystal); method: DSC
Molar enthalpy of transition or fusion, kJ/mol	uncertainty
24.58	

System: 3-nitrobenzamide; phases: Crystal, Liquid, Air at 1 atmosphere
Property: Normal melting temperature, K (Crystal); method: DSC/DTA
Normal melting temperature, K	uncertainty
414.66	

System: 3-nitrobenzamide; phases: Liquid, Gas
Property: Vapor or sublimation pressure, kPa (Liquid); method: Rate of evaporation
Temperature, K	Vapor or sublimation pressure, kPa	uncertainty
485.06	.6868	
490.06	.84	
495.05	1.0208	
500.04	1.2465	
505.03	1.4946	
510	1.7937	
515.06	2.1459	
520.02	2.5445	
525.06	3.0086	
530	3.5253	
535.03	4.1191	
485.02	.7094	
490.02	.868	
495.02	1.0572	
500.01	1.2842	
505.08	1.5569	
510.06	1.8717	
515.03	2.2262	
520.07	2.6333	
525.03	3.0906	
530.06	3.596	
535.01	4.1454	
485	.7222	
490.01	.8798	
495.01	1.0678	
500	1.2861	
505.07	1.5559	
510.04	1.8674	
515.02	2.2285	
520.06	2.6542	
525.02	3.1193	
530.04	3.6378	
535.06	4.2154	

System: p-nitrobenzamide; phases: Crystal
Fixed: Pressure, kPa = 101.325
Property: Molar heat capacity at constant pressure, J/K/mol (Crystal); method: Small sample (50 mg) scanning calorimetry
Temperature, K	Molar heat capacity at constant pressure, J/K/mol	uncertainty
298.15	212.6518016	4.253036032

System: p-nitrobenzamide; phases: Crystal, Liquid, Air at 1 atmosphere
Property: Molar enthalpy of transition or fusion, kJ/mol (Crystal); method: DSC
Molar enthalpy of transition or fusion, kJ/mol	uncertainty
30.09	

System: p-nitrobenzamide; phases: Crystal, Liquid, Air at 1 atmosphere
Property: Normal melting temperature, K (Crystal); method: DSC/DTA
Normal melting temperature, K	uncertainty
473.48	

System: p-nitrobenzamide; phases: Liquid, Gas
Property: Vapor or sublimation pressure, kPa (Liquid); method: Rate of evaporation
Temperature, K	Vapor or sublimation pressure, kPa	uncertainty
485.02	.6396	
490.07	.7398	
495.05	.9568	
500.06	1.1537	
505.06	1.416	
510.02	1.6833	
515.04	2.0304	
520.02	2.4516	
525.05	2.926	
530.06	3.455	
535.07	4.1523	
485.02	.6809	
490.01	.8437	
495.01	1.0212	
500.03	1.2289	
505.03	1.4735	
510.06	1.7768	
515.01	2.1128	
520.06	2.5272	
525.02	3.0012	
530.03	3.5682	
535.04	4.2062	
485.1	.6701	
490.03	.8038	
495.01	.9548	
500.04	1.142	
505.05	1.3519	
510	1.6705	
515.01	2.0104	
520.08	2.386	
525.03	2.8367	
530.05	3.3817	
535.06	4.0194	
485.04	.5788	
490.08	.7145	
495.06	.871	
500.01	1.0605	
505	1.2855	
510.04	1.5649	
515.06	1.8948	
520.04	2.2893	
525.08	2.7583	
530.01	3.2979	
535.02	3.9426	

System: phenanthrene; phases: Liquid, Gas
Property: Vapor or sublimation pressure, kPa (Liquid); method: Rate of evaporation
Temperature, K	Vapor or sublimation pressure, kPa	uncertainty
400	.1442	
405	.18	
410	.2183	
415	.2729	
420	.3366	
425	.4196	
430	.5208	
435	.6439	
440	.7951	
445	.9813	
450	1.2039	
455	1.4697	
460	1.7892	
465	2.1713	
470	2.6223	
475	3.155	
480	3.7729	
400	.1505	
405	.1861	
410	.2304	
415	.2838	
420	.3491	
425	.4331	
430	.5412	
435	.6666	
440	.8242	
445	1.013	
450	1.2439	
455	1.519	
460	1.8479	
465	2.2392	
470	2.7011	
475	3.2454	
480	3.8743	
400	.1553	
405	.1799	
410	.2212	
415	.2759	
420	.3417	
425	.427	
430	.5304	
435	.6576	
440	.8141	
445	1.0039	
450	1.235	
455	1.516	
460	1.8442	
465	2.2328	
470	2.697	
475	3.2462	
480	3.8737	
400	.147	
405	.1779	
410	.2218	
415	.2758	
420	.3416	
425	.4251	
430	.5259	
435	.6507	
440	.8042	
445	.9915	
450	1.217	
455	1.4954	
460	1.8179	
465	2.2056	
470	2.6606	
475	3.1964	
480	3.819	

Reaction: -1 2-nitrobenzamide + 7 carbon dioxide + 1 nitrogen + 3 water + -7 oxygen
Property: Specific internal energy of reaction at constant volume, J/g
-20210.8

Reaction: -1 3-nitrobenzamide + 7 carbon dioxide + 1 nitrogen + 3 water + -7 oxygen
Property: Specific internal energy of reaction at constant volume, J/g
-20362

Reaction: -1 p-nitrobenzamide + 7 carbon dioxide + 1 nitrogen + 3 water + -7 oxygen
Property: Specific internal energy of reaction at constant volume, J/g
-20416.3
