Measured thermophysical data. Measurements of isothermal (vapor + liquid) equilibrium for the (propane + cis-1,3,3,3-tetrafluoropropene) system at temperatures from (253.150 to 293.150) K
Source: J. Chem. Thermodyn., 2016, 10.1016/j.jct.2016.03.018
Compound 1: propane, C3H8, purity 99.9%
Compound 2: R-1234ze(Z), C3H2F4, purity 99.5%

System: propane; phases: Liquid, Gas
Property: Vapor or sublimation pressure, kPa (Liquid); method: Closed cell (Static) method
Temperature, K	Vapor or sublimation pressure, kPa	uncertainty
293.15	836.3	
283.15	636.4	
273.15	474.4	
263.15	345.1	
253.15	244.1	

System: R-1234ze(Z); phases: Liquid, Gas
Property: Vapor or sublimation pressure, kPa (Liquid); method: Closed cell (Static) method
Temperature, K	Vapor or sublimation pressure, kPa	uncertainty
293.15	148.9	
283.15	102.5	
273.15	68.5	

System: propane + R-1234ze(Z); phases: Liquid, Gas
Property: Vapor or sublimation pressure, kPa (Liquid); method: Closed cell (Static) method
Mole fraction of propane	Temperature, K	Vapor or sublimation pressure, kPa	uncertainty
0	293.15	148.9	
.106	293.15	352	
.17	293.15	454.2	
.24	293.15	535	
.283	293.15	570.4	
.414	293.15	658.7	
.661	293.15	758.4	
.685	293.15	772	
.755	293.15	790.8	
.798	293.15	800.1	
.853	293.15	812.6	
.876	293.15	822.4	
.93	293.15	830.2	
1	293.15	836.3	
0	283.15	102.5	
.104	283.15	275	
.171	283.15	351.5	
.241	283.15	410.7	
.285	283.15	445.2	
.415	283.15	511.4	
.662	283.15	581.4	
.685	283.15	588.3	
.757	283.15	602.8	
.798	283.15	610.1	
.853	283.15	617.6	
.875	283.15	625.5	
.931	283.15	630.7	
1	283.15	636.4	
0	273.15	68.5	
.104	273.15	209.1	
.171	273.15	271.7	
.243	273.15	313.2	
.286	273.15	340.9	
.414	273.15	386.5	
.661	273.15	435.8	
.683	273.15	440.2	
.753	273.15	449.4	
.799	273.15	452.8	
.852	273.15	460.2	
.875	273.15	465.6	
.928	273.15	469.7	
1	273.15	474.4	
.105	263.15	154.5	
.17	263.15	201.3	
.241	263.15	233.5	
.279	263.15	254.9	
.413	263.15	295.7	
.663	263.15	319.2	
.682	263.15	321.5	
.756	263.15	327.7	
.798	263.15	329.7	
.855	263.15	334.9	
.879	263.15	338.8	
.931	263.15	341.3	
1	263.15	345.1	
.105	253.15	113.5	
.171	253.15	149	
.24	253.15	173.6	
.281	253.15	186.4	
.415	253.15	206.8	
.663	253.15	227.1	
.684	253.15	229.5	
.755	253.15	233.3	
.798	253.15	234.8	
.855	253.15	237.9	
.879	253.15	239.7	
.931	253.15	241.9	
1	253.15	244.1	

System: propane + R-1234ze(Z); phases: Gas, Liquid
Property: Mole fraction of propane (Gas); method: Chromatography
Mole fraction of propane	Temperature, K	Mole fraction of propane	uncertainty
0	293.15	0	
.106	293.15	.591	
.17	293.15	.688	
.24	293.15	.746	
.283	293.15	.772	
.414	293.15	.817	
.661	293.15	.875	
.685	293.15	.879	
.755	293.15	.895	
.798	293.15	.9	
.853	293.15	.918	
.876	293.15	.927	
.93	293.15	.953	
1	293.15	1	
0	283.15	0	
.104	283.15	.638	
.171	283.15	.729	
.241	283.15	.781	
.285	283.15	.804	
.415	283.15	.841	
.662	283.15	.889	
.685	283.15	.893	
.757	283.15	.905	
.798	283.15	.913	
.853	283.15	.925	
.875	283.15	.93	
.931	283.15	.955	
1	283.15	1	
0	273.15	0	
.104	273.15	.681	
.171	273.15	.766	
.243	273.15	.797	
.286	273.15	.831	
.414	273.15	.861	
.661	273.15	.901	
.683	273.15	.901	
.753	273.15	.914	
.799	273.15	.92	
.852	273.15	.929	
.875	273.15	.933	
.928	273.15	.958	
1	273.15	1	
.105	263.15	.729	
.17	263.15	.806	
.241	263.15	.839	
.279	263.15	.861	
.413	263.15	.886	
.663	263.15	.914	
.682	263.15	.916	
.756	263.15	.923	
.798	263.15	.928	
.855	263.15	.933	
.879	263.15	.941	
.931	263.15	.96	
1	263.15	1	
.105	253.15	.773	
.171	253.15	.84	
.24	253.15	.87	
.281	253.15	.886	
.415	253.15	.903	
.663	253.15	.926	
.684	253.15	.927	
.755	253.15	.93	
.798	253.15	.935	
.855	253.15	.943	
.879	253.15	.945	
.931	253.15	.963	
1	253.15	1	
