Measured thermophysical data. Measurements of activity coefficients at infinite dilution for organic solutes and water in the ionic liquid 1-hexyl-3-methylimidazolium tetracyanoborate
Source: J. Chem. Thermodyn., 2012, 10.1016/j.jct.2011.11.025
Compound 1: 1-hexyl-3-methylimidazolium tetracyanoborate, C14H19BN6, purity 99%
Compound 2: pentane, C5H12, purity 99%
Compound 3: n-hexane, C6H14, purity 99%
Compound 4: 3-methylpentane, C6H14, purity 99%
Compound 5: butane, 2,2-dimethyl-, C6H14, purity 99%
Compound 6: heptane, C7H16, purity 99.5%
Compound 7: n-octane, C8H18, purity 99%
Compound 8: isooctane, C8H18, purity 99%
Compound 9: nonane, C9H20, purity 99%
Compound 10: n-decane, C10H22, purity 99%
Compound 11: cyclopentane, C5H10, purity 99%
Compound 12: cyclohexane, C6H12, purity 99%
Compound 13: cyclohexane, methyl-, C7H14, purity 99%
Compound 14: cycloheptane, C7H14, purity 98%
Compound 15: cyclooctane, C8H16, purity 99%
Compound 16: 1-hexene, C6H12, purity 99%
Compound 17: cyclohexene, C6H10, purity 99%
Compound 18: 1-heptene, C7H14, purity 99%
Compound 19: 1-octene, C8H16, purity 98%
Compound 20: 1-decene, C10H20, purity 97%
Compound 21: butylacetylene, C6H10, purity 97%
Compound 22: 1-heptyne, C7H12, purity 98%
Compound 23: 1-octyne, C8H14, purity 97%
Compound 24: benzene, C6H6, purity 99.8%
Compound 25: toluene, C7H8, purity 99.8%
Compound 26: ethylbenzene, C8H10, purity 99.8%
Compound 27: 1,2-dimethylbenzene, C8H10, purity 99%
Compound 28: 1,3-xylene, C8H10, purity 99%
Compound 29: 1,4-xylene, C8H10, purity 99%
Compound 30: styrene, C8H8, purity 99.9%
Compound 31: (1-methylethenyl)benzene, C9H10, purity 99%
Compound 32: methanol, CH4O, purity 99.9%
Compound 33: ethanol, C2H6O, purity 99.8%
Compound 34: propyl alcohol, C3H8O, purity 99.9%
Compound 35: 2-propanol, C3H8O, purity 99.9%
Compound 36: n-butyl alcohol, C4H10O, purity 99.8%
Compound 37: butan-2-ol, C4H10O, purity 99.5%
Compound 38: 2-methyl-1-propanol, C4H10O, purity 99.5%
Compound 39: 2-methyl-2-propanol, C4H10O, purity 99.7%
Compound 40: water, H2O, purity 99.9%
Compound 41: ethanoic acid, C2H4O2, purity 99.7%
Compound 42: thiophene, C4H4S, purity 99%
Compound 43: oxacyclopentane, C4H8O, purity 99.9%
Compound 44: 1,4-dioxane, C4H8O2, purity 99.8%
Compound 45: methyl tert-butyl ether, C5H12O, purity 99.8%
Compound 46: tert-butyl ethyl ether, C6H14O, purity 99%
Compound 47: tert-amyl methyl ether, C6H14O, purity 99%
Compound 48: ethyl ether, C4H10O, purity 99.9%
Compound 49: ether, dipropyl, C6H14O, purity 99%
Compound 50: isopropyl ether, C6H14O, purity 99%
Compound 51: butyl oxide, C8H18O, purity 99.3%
Compound 52: acetone, C3H6O, purity 99.9%
Compound 53: methyl n-propyl ketone, C5H10O, purity 99%
Compound 54: 3-pentanone, C5H10O, purity 99%
Compound 55: methyl ethanoate, C3H6O2, purity 99.8%
Compound 56: ethyl ethanoate, C4H8O2, purity 99.8%
Compound 57: propionic acid, methyl ester, C4H8O2, purity 99%
Compound 58: methyl butanoate, C5H10O2, purity 99%
Compound 59: butanal, C4H8O, purity 99%
Compound 60: ethanonitrile, C2H3N, purity 99.9%
Compound 61: pyridine, C5H5N, purity 99.8%
Compound 62: 1-nitropropane, C3H7NO2, purity 98.5%

System: 1-hexyl-3-methylimidazolium tetracyanoborate; phases: Liquid
Fixed: Pressure, kPa = 101.325
Property: Mass density, kg/m3 (Liquid); method: Vibrating tube method
Temperature, K	Mass density, kg/m3	uncertainty
318.15	976.11	.05
328.15	969.06	.05
338.15	962.08	.05
348.15	955.16	.05
358.15	948.32	.05
368.15	941.2	.05

System: pentane + 1-hexyl-3-methylimidazolium tetracyanoborate; phases: Liquid, Gas
Fixed: Mole fraction of pentane = 0
Property: Activity coefficient of pentane (Liquid); method: Chromatography
Temperature, K	Activity coefficient of pentane	uncertainty
318.15	8.63	
328.15	8.22	
338.15	7.85	
348.15	7.61	
358.15	7.33	
368.15	7.13	

System: n-hexane + 1-hexyl-3-methylimidazolium tetracyanoborate; phases: Liquid, Gas
Fixed: Mole fraction of n-hexane = 0
Property: Activity coefficient of n-hexane (Liquid); method: Chromatography
Temperature, K	Activity coefficient of n-hexane	uncertainty
318.15	11.8	
328.15	11.2	
338.15	10.6	
348.15	10.2	
358.15	9.79	
368.15	9.53	

System: 3-methylpentane + 1-hexyl-3-methylimidazolium tetracyanoborate; phases: Liquid, Gas
Fixed: Mole fraction of 3-methylpentane = 0
Property: Activity coefficient of 3-methylpentane (Liquid); method: Chromatography
Temperature, K	Activity coefficient of 3-methylpentane	uncertainty
318.15	10.5	
328.15	9.96	
338.15	9.5	
348.15	9.15	
358.15	8.81	
368.15	8.6	

System: butane, 2,2-dimethyl- + 1-hexyl-3-methylimidazolium tetracyanoborate; phases: Liquid, Gas
Fixed: Mole fraction of butane, 2,2-dimethyl- = 0
Property: Activity coefficient of butane, 2,2-dimethyl- (Liquid); method: Chromatography
Temperature, K	Activity coefficient of butane, 2,2-dimethyl-	uncertainty
318.15	10.5	
328.15	9.96	
338.15	9.52	
348.15	9.24	
358.15	8.92	
368.15	8.69	

System: heptane + 1-hexyl-3-methylimidazolium tetracyanoborate; phases: Liquid, Gas
Fixed: Mole fraction of heptane = 0
Property: Activity coefficient of heptane (Liquid); method: Chromatography
Temperature, K	Activity coefficient of heptane	uncertainty
318.15	16.5	
328.15	15.4	
338.15	14.5	
348.15	13.7	
358.15	13	
368.15	12.4	

System: n-octane + 1-hexyl-3-methylimidazolium tetracyanoborate; phases: Liquid, Gas
Fixed: Mole fraction of n-octane = 0
Property: Activity coefficient of n-octane (Liquid); method: Chromatography
Temperature, K	Activity coefficient of n-octane	uncertainty
318.15	22.8	
328.15	21.1	
338.15	19.7	
348.15	18.6	
358.15	17.4	
368.15	16.6	

System: isooctane + 1-hexyl-3-methylimidazolium tetracyanoborate; phases: Liquid, Gas
Fixed: Mole fraction of isooctane = 0
Property: Activity coefficient of isooctane (Liquid); method: Chromatography
Temperature, K	Activity coefficient of isooctane	uncertainty
318.15	18.8	
328.15	17.6	
338.15	16.5	
348.15	15.7	
358.15	15	
368.15	14.3	

System: nonane + 1-hexyl-3-methylimidazolium tetracyanoborate; phases: Liquid, Gas
Fixed: Mole fraction of nonane = 0
Property: Activity coefficient of nonane (Liquid); method: Chromatography
Temperature, K	Activity coefficient of nonane	uncertainty
318.15	31.4	
328.15	28.8	
338.15	26.6	
348.15	24.9	
358.15	23.2	
368.15	21.9	

System: n-decane + 1-hexyl-3-methylimidazolium tetracyanoborate; phases: Liquid, Gas
Fixed: Mole fraction of n-decane = 0
Property: Activity coefficient of n-decane (Liquid); method: Chromatography
Temperature, K	Activity coefficient of n-decane	uncertainty
318.15	43.6	
328.15	40	
338.15	36.4	
348.15	33.8	
358.15	31.3	
368.15	29.3	

System: cyclopentane + 1-hexyl-3-methylimidazolium tetracyanoborate; phases: Liquid, Gas
Fixed: Mole fraction of cyclopentane = 0
Property: Activity coefficient of cyclopentane (Liquid); method: Chromatography
Temperature, K	Activity coefficient of cyclopentane	uncertainty
318.15	4.65	
328.15	4.45	
338.15	4.28	
348.15	4.14	
358.15	4.02	
368.15	3.93	

System: cyclohexane + 1-hexyl-3-methylimidazolium tetracyanoborate; phases: Liquid, Gas
Fixed: Mole fraction of cyclohexane = 0
Property: Activity coefficient of cyclohexane (Liquid); method: Chromatography
Temperature, K	Activity coefficient of cyclohexane	uncertainty
318.15	6.52	
328.15	6.15	
338.15	5.85	
348.15	5.58	
358.15	5.38	
368.15	5.21	

System: cyclohexane, methyl- + 1-hexyl-3-methylimidazolium tetracyanoborate; phases: Liquid, Gas
Fixed: Mole fraction of cyclohexane, methyl- = 0
Property: Activity coefficient of cyclohexane, methyl- (Liquid); method: Chromatography
Temperature, K	Activity coefficient of cyclohexane, methyl-	uncertainty
318.15	8.87	
328.15	8.35	
338.15	7.87	
348.15	7.58	
358.15	7.24	
368.15	7	

System: cycloheptane + 1-hexyl-3-methylimidazolium tetracyanoborate; phases: Liquid, Gas
Fixed: Mole fraction of cycloheptane = 0
Property: Activity coefficient of cycloheptane (Liquid); method: Chromatography
Temperature, K	Activity coefficient of cycloheptane	uncertainty
318.15	7.96	
328.15	7.46	
338.15	7.07	
348.15	6.76	
358.15	6.45	
368.15	6.21	

System: cyclooctane + 1-hexyl-3-methylimidazolium tetracyanoborate; phases: Liquid, Gas
Fixed: Mole fraction of cyclooctane = 0
Property: Activity coefficient of cyclooctane (Liquid); method: Chromatography
Temperature, K	Activity coefficient of cyclooctane	uncertainty
318.15	9.94	
328.15	9.29	
338.15	8.75	
348.15	8.33	
358.15	7.9	
368.15	7.57	

System: 1-hexene + 1-hexyl-3-methylimidazolium tetracyanoborate; phases: Liquid, Gas
Fixed: Mole fraction of 1-hexene = 0
Property: Activity coefficient of 1-hexene (Liquid); method: Chromatography
Temperature, K	Activity coefficient of 1-hexene	uncertainty
318.15	6.13	
328.15	5.88	
338.15	5.71	
348.15	5.58	
358.15	5.44	
368.15	5.35	

System: cyclohexene + 1-hexyl-3-methylimidazolium tetracyanoborate; phases: Liquid, Gas
Fixed: Mole fraction of cyclohexene = 0
Property: Activity coefficient of cyclohexene (Liquid); method: Chromatography
Temperature, K	Activity coefficient of cyclohexene	uncertainty
318.15	3.48	
328.15	3.38	
338.15	3.27	
348.15	3.25	
358.15	3.17	
368.15	3.14	

System: 1-heptene + 1-hexyl-3-methylimidazolium tetracyanoborate; phases: Liquid, Gas
Fixed: Mole fraction of 1-heptene = 0
Property: Activity coefficient of 1-heptene (Liquid); method: Chromatography
Temperature, K	Activity coefficient of 1-heptene	uncertainty
318.15	8.39	
328.15	8.06	
338.15	7.79	
348.15	7.59	
358.15	7.37	
368.15	7.24	

System: 1-octene + 1-hexyl-3-methylimidazolium tetracyanoborate; phases: Liquid, Gas
Fixed: Mole fraction of 1-octene = 0
Property: Activity coefficient of 1-octene (Liquid); method: Chromatography
Temperature, K	Activity coefficient of 1-octene	uncertainty
318.15	11.7	
328.15	11.1	
338.15	10.7	
348.15	10.3	
358.15	9.91	
368.15	9.64	

System: 1-decene + 1-hexyl-3-methylimidazolium tetracyanoborate; phases: Liquid, Gas
Fixed: Mole fraction of 1-decene = 0
Property: Activity coefficient of 1-decene (Liquid); method: Chromatography
Temperature, K	Activity coefficient of 1-decene	uncertainty
318.15	21.5	
328.15	20.5	
338.15	19.3	
348.15	18.5	
358.15	17.6	
368.15	16.9	

System: butylacetylene + 1-hexyl-3-methylimidazolium tetracyanoborate; phases: Liquid, Gas
Fixed: Mole fraction of butylacetylene = 0
Property: Activity coefficient of butylacetylene (Liquid); method: Chromatography
Temperature, K	Activity coefficient of butylacetylene	uncertainty
318.15	2.17	
328.15	2.19	
338.15	2.2	
348.15	2.24	
358.15	2.26	
368.15	2.3	

System: 1-heptyne + 1-hexyl-3-methylimidazolium tetracyanoborate; phases: Liquid, Gas
Fixed: Mole fraction of 1-heptyne = 0
Property: Activity coefficient of 1-heptyne (Liquid); method: Chromatography
Temperature, K	Activity coefficient of 1-heptyne	uncertainty
318.15	2.92	
328.15	2.93	
338.15	2.94	
348.15	2.98	
358.15	2.99	
368.15	3.02	

System: 1-octyne + 1-hexyl-3-methylimidazolium tetracyanoborate; phases: Liquid, Gas
Fixed: Mole fraction of 1-octyne = 0
Property: Activity coefficient of 1-octyne (Liquid); method: Chromatography
Temperature, K	Activity coefficient of 1-octyne	uncertainty
318.15	3.99	
328.15	3.97	
338.15	3.96	
348.15	3.98	
358.15	3.97	
368.15	3.99	

System: benzene + 1-hexyl-3-methylimidazolium tetracyanoborate; phases: Liquid, Gas
Fixed: Mole fraction of benzene = 0
Property: Activity coefficient of benzene (Liquid); method: Chromatography
Temperature, K	Activity coefficient of benzene	uncertainty
318.15	.733	
328.15	.743	
338.15	.758	
348.15	.773	
358.15	.783	
368.15	.8	

System: toluene + 1-hexyl-3-methylimidazolium tetracyanoborate; phases: Liquid, Gas
Fixed: Mole fraction of toluene = 0
Property: Activity coefficient of toluene (Liquid); method: Chromatography
Temperature, K	Activity coefficient of toluene	uncertainty
318.15	.975	
328.15	.993	
338.15	1.02	
348.15	1.04	
358.15	1.06	
368.15	1.08	

System: ethylbenzene + 1-hexyl-3-methylimidazolium tetracyanoborate; phases: Liquid, Gas
Fixed: Mole fraction of ethylbenzene = 0
Property: Activity coefficient of ethylbenzene (Liquid); method: Chromatography
Temperature, K	Activity coefficient of ethylbenzene	uncertainty
318.15	1.39	
328.15	1.41	
338.15	1.43	
348.15	1.45	
358.15	1.47	
368.15	1.49	

System: 1,2-dimethylbenzene + 1-hexyl-3-methylimidazolium tetracyanoborate; phases: Liquid, Gas
Fixed: Mole fraction of 1,2-dimethylbenzene = 0
Property: Activity coefficient of 1,2-dimethylbenzene (Liquid); method: Chromatography
Temperature, K	Activity coefficient of 1,2-dimethylbenzene	uncertainty
318.15	1.19	
328.15	1.22	
338.15	1.24	
348.15	1.26	
358.15	1.28	
368.15	1.31	

System: 1,3-xylene + 1-hexyl-3-methylimidazolium tetracyanoborate; phases: Liquid, Gas
Fixed: Mole fraction of 1,3-xylene = 0
Property: Activity coefficient of 1,3-xylene (Liquid); method: Chromatography
Temperature, K	Activity coefficient of 1,3-xylene	uncertainty
318.15	1.36	
328.15	1.39	
338.15	1.42	
348.15	1.44	
358.15	1.47	
368.15	1.5	

System: 1,4-xylene + 1-hexyl-3-methylimidazolium tetracyanoborate; phases: Liquid, Gas
Fixed: Mole fraction of 1,4-xylene = 0
Property: Activity coefficient of 1,4-xylene (Liquid); method: Chromatography
Temperature, K	Activity coefficient of 1,4-xylene	uncertainty
318.15	1.33	
328.15	1.36	
338.15	1.39	
348.15	1.42	
358.15	1.44	
368.15	1.47	

System: styrene + 1-hexyl-3-methylimidazolium tetracyanoborate; phases: Liquid, Gas
Fixed: Mole fraction of styrene = 0
Property: Activity coefficient of styrene (Liquid); method: Chromatography
Temperature, K	Activity coefficient of styrene	uncertainty
328.15	.83	
338.15	.856	
348.15	.878	
358.15	.902	
368.15	.926	

System: (1-methylethenyl)benzene + 1-hexyl-3-methylimidazolium tetracyanoborate; phases: Liquid, Gas
Fixed: Mole fraction of (1-methylethenyl)benzene = 0
Property: Activity coefficient of (1-methylethenyl)benzene (Liquid); method: Chromatography
Temperature, K	Activity coefficient of (1-methylethenyl)benzene	uncertainty
328.15	1.2	
338.15	1.26	
348.15	1.3	
358.15	1.34	
368.15	1.38	

System: methanol + 1-hexyl-3-methylimidazolium tetracyanoborate; phases: Liquid, Gas
Fixed: Mole fraction of methanol = 0
Property: Activity coefficient of methanol (Liquid); method: Chromatography
Temperature, K	Activity coefficient of methanol	uncertainty
318.15	.837	
328.15	.786	
338.15	.745	
348.15	.704	
358.15	.668	
368.15	.633	

System: ethanol + 1-hexyl-3-methylimidazolium tetracyanoborate; phases: Liquid, Gas
Fixed: Mole fraction of ethanol = 0
Property: Activity coefficient of ethanol (Liquid); method: Chromatography
Temperature, K	Activity coefficient of ethanol	uncertainty
318.15	1.05	
328.15	.978	
338.15	.912	
348.15	.855	
358.15	.807	
368.15	.761	

System: propyl alcohol + 1-hexyl-3-methylimidazolium tetracyanoborate; phases: Liquid, Gas
Fixed: Mole fraction of propyl alcohol = 0
Property: Activity coefficient of propyl alcohol (Liquid); method: Chromatography
Temperature, K	Activity coefficient of propyl alcohol	uncertainty
318.15	1.19	
328.15	1.1	
338.15	1.02	
348.15	.965	
358.15	.913	
368.15	.864	

System: 2-propanol + 1-hexyl-3-methylimidazolium tetracyanoborate; phases: Liquid, Gas
Fixed: Mole fraction of 2-propanol = 0
Property: Activity coefficient of 2-propanol (Liquid); method: Chromatography
Temperature, K	Activity coefficient of 2-propanol	uncertainty
318.15	1.2	
328.15	1.11	
338.15	1.03	
348.15	.961	
358.15	.902	
368.15	.852	

System: n-butyl alcohol + 1-hexyl-3-methylimidazolium tetracyanoborate; phases: Liquid, Gas
Fixed: Mole fraction of n-butyl alcohol = 0
Property: Activity coefficient of n-butyl alcohol (Liquid); method: Chromatography
Temperature, K	Activity coefficient of n-butyl alcohol	uncertainty
318.15	1.43	
328.15	1.32	
338.15	1.22	
348.15	1.14	
358.15	1.07	
368.15	1.01	

System: butan-2-ol + 1-hexyl-3-methylimidazolium tetracyanoborate; phases: Liquid, Gas
Fixed: Mole fraction of butan-2-ol = 0
Property: Activity coefficient of butan-2-ol (Liquid); method: Chromatography
Temperature, K	Activity coefficient of butan-2-ol	uncertainty
318.15	1.27	
328.15	1.17	
338.15	1.1	
348.15	1.03	
358.15	.977	
368.15	.938	

System: 2-methyl-1-propanol + 1-hexyl-3-methylimidazolium tetracyanoborate; phases: Liquid, Gas
Fixed: Mole fraction of 2-methyl-1-propanol = 0
Property: Activity coefficient of 2-methyl-1-propanol (Liquid); method: Chromatography
Temperature, K	Activity coefficient of 2-methyl-1-propanol	uncertainty
318.15	1.44	
328.15	1.31	
338.15	1.2	
348.15	1.11	
358.15	1.04	
368.15	.977	

System: 2-methyl-2-propanol + 1-hexyl-3-methylimidazolium tetracyanoborate; phases: Liquid, Gas
Fixed: Mole fraction of 2-methyl-2-propanol = 0
Property: Activity coefficient of 2-methyl-2-propanol (Liquid); method: Chromatography
Temperature, K	Activity coefficient of 2-methyl-2-propanol	uncertainty
318.15	1.2	
328.15	1.11	
338.15	1.04	
348.15	.988	
358.15	.951	
368.15	.914	

System: water + 1-hexyl-3-methylimidazolium tetracyanoborate; phases: Liquid, Gas
Fixed: Mole fraction of water = 0
Property: Activity coefficient of water (Liquid); method: Chromatography
Temperature, K	Activity coefficient of water	uncertainty
318.15	2.05	
328.15	1.87	
338.15	1.7	
348.15	1.55	
358.15	1.42	
368.15	1.33	

System: ethanoic acid + 1-hexyl-3-methylimidazolium tetracyanoborate; phases: Liquid, Gas
Fixed: Mole fraction of ethanoic acid = 0
Property: Activity coefficient of ethanoic acid (Liquid); method: Chromatography
Temperature, K	Activity coefficient of ethanoic acid	uncertainty
328.15	.285	
338.15	.298	
348.15	.311	
358.15	.323	
368.15	.335	

System: thiophene + 1-hexyl-3-methylimidazolium tetracyanoborate; phases: Liquid, Gas
Fixed: Mole fraction of thiophene = 0
Property: Activity coefficient of thiophene (Liquid); method: Chromatography
Temperature, K	Activity coefficient of thiophene	uncertainty
318.15	.636	
328.15	.647	
338.15	.657	
348.15	.666	
358.15	.678	
368.15	.689	

System: oxacyclopentane + 1-hexyl-3-methylimidazolium tetracyanoborate; phases: Liquid, Gas
Fixed: Mole fraction of oxacyclopentane = 0
Property: Activity coefficient of oxacyclopentane (Liquid); method: Chromatography
Temperature, K	Activity coefficient of oxacyclopentane	uncertainty
318.15	.453	
328.15	.47	
338.15	.485	
348.15	.501	
358.15	.513	
368.15	.527	

System: 1,4-dioxane + 1-hexyl-3-methylimidazolium tetracyanoborate; phases: Liquid, Gas
Fixed: Mole fraction of 1,4-dioxane = 0
Property: Activity coefficient of 1,4-dioxane (Liquid); method: Chromatography
Temperature, K	Activity coefficient of 1,4-dioxane	uncertainty
318.15	.362	
328.15	.381	
338.15	.401	
348.15	.419	
358.15	.435	
368.15	.454	

System: methyl tert-butyl ether + 1-hexyl-3-methylimidazolium tetracyanoborate; phases: Liquid, Gas
Fixed: Mole fraction of methyl tert-butyl ether = 0
Property: Activity coefficient of methyl tert-butyl ether (Liquid); method: Chromatography
Temperature, K	Activity coefficient of methyl tert-butyl ether	uncertainty
318.15	1.62	
328.15	1.66	
338.15	1.71	
348.15	1.76	
358.15	1.81	
368.15	1.87	

System: tert-butyl ethyl ether + 1-hexyl-3-methylimidazolium tetracyanoborate; phases: Liquid, Gas
Fixed: Mole fraction of tert-butyl ethyl ether = 0
Property: Activity coefficient of tert-butyl ethyl ether (Liquid); method: Chromatography
Temperature, K	Activity coefficient of tert-butyl ethyl ether	uncertainty
318.15	3.51	
328.15	3.53	
338.15	3.53	
348.15	3.58	
358.15	3.61	
368.15	3.66	

System: tert-amyl methyl ether + 1-hexyl-3-methylimidazolium tetracyanoborate; phases: Liquid, Gas
Fixed: Mole fraction of tert-amyl methyl ether = 0
Property: Activity coefficient of tert-amyl methyl ether (Liquid); method: Chromatography
Temperature, K	Activity coefficient of tert-amyl methyl ether	uncertainty
318.15	2.19	
328.15	2.24	
338.15	2.27	
348.15	2.33	
358.15	2.36	
368.15	2.42	

System: ethyl ether + 1-hexyl-3-methylimidazolium tetracyanoborate; phases: Liquid, Gas
Fixed: Mole fraction of ethyl ether = 0
Property: Activity coefficient of ethyl ether (Liquid); method: Chromatography
Temperature, K	Activity coefficient of ethyl ether	uncertainty
318.15	1.59	
328.15	1.62	
338.15	1.64	
348.15	1.68	
358.15	1.71	
368.15	1.76	

System: ether, dipropyl + 1-hexyl-3-methylimidazolium tetracyanoborate; phases: Liquid, Gas
Fixed: Mole fraction of ether, dipropyl = 0
Property: Activity coefficient of ether, dipropyl (Liquid); method: Chromatography
Temperature, K	Activity coefficient of ether, dipropyl	uncertainty
318.15	3.82	
328.15	3.77	
338.15	3.73	
348.15	3.74	
358.15	3.72	
368.15	3.73	

System: isopropyl ether + 1-hexyl-3-methylimidazolium tetracyanoborate; phases: Liquid, Gas
Fixed: Mole fraction of isopropyl ether = 0
Property: Activity coefficient of isopropyl ether (Liquid); method: Chromatography
Temperature, K	Activity coefficient of isopropyl ether	uncertainty
318.15	3.68	
328.15	3.71	
338.15	3.75	
348.15	3.8	
358.15	3.82	
368.15	3.87	

System: butyl oxide + 1-hexyl-3-methylimidazolium tetracyanoborate; phases: Liquid, Gas
Fixed: Mole fraction of butyl oxide = 0
Property: Activity coefficient of butyl oxide (Liquid); method: Chromatography
Temperature, K	Activity coefficient of butyl oxide	uncertainty
318.15	7.23	
328.15	6.98	
338.15	6.79	
348.15	6.68	
358.15	6.52	
368.15	6.42	

System: acetone + 1-hexyl-3-methylimidazolium tetracyanoborate; phases: Liquid, Gas
Fixed: Mole fraction of acetone = 0
Property: Activity coefficient of acetone (Liquid); method: Chromatography
Temperature, K	Activity coefficient of acetone	uncertainty
318.15	.335	
328.15	.344	
338.15	.354	
348.15	.363	
358.15	.372	
368.15	.381	

System: methyl n-propyl ketone + 1-hexyl-3-methylimidazolium tetracyanoborate; phases: Liquid, Gas
Fixed: Mole fraction of methyl n-propyl ketone = 0
Property: Activity coefficient of methyl n-propyl ketone (Liquid); method: Chromatography
Temperature, K	Activity coefficient of methyl n-propyl ketone	uncertainty
318.15	.497	
328.15	.513	
338.15	.529	
348.15	.544	
358.15	.556	
368.15	.572	

System: 3-pentanone + 1-hexyl-3-methylimidazolium tetracyanoborate; phases: Liquid, Gas
Fixed: Mole fraction of 3-pentanone = 0
Property: Activity coefficient of 3-pentanone (Liquid); method: Chromatography
Temperature, K	Activity coefficient of 3-pentanone	uncertainty
318.15	.478	
328.15	.498	
338.15	.518	
348.15	.536	
358.15	.551	
368.15	.569	

System: methyl ethanoate + 1-hexyl-3-methylimidazolium tetracyanoborate; phases: Liquid, Gas
Fixed: Mole fraction of methyl ethanoate = 0
Property: Activity coefficient of methyl ethanoate (Liquid); method: Chromatography
Temperature, K	Activity coefficient of methyl ethanoate	uncertainty
318.15	.508	
328.15	.521	
338.15	.538	
348.15	.55	
358.15	.566	
368.15	.586	

System: ethyl ethanoate + 1-hexyl-3-methylimidazolium tetracyanoborate; phases: Liquid, Gas
Fixed: Mole fraction of ethyl ethanoate = 0
Property: Activity coefficient of ethyl ethanoate (Liquid); method: Chromatography
Temperature, K	Activity coefficient of ethyl ethanoate	uncertainty
318.15	.664	
328.15	.684	
338.15	.701	
348.15	.715	
358.15	.733	
368.15	.751	

System: propionic acid, methyl ester + 1-hexyl-3-methylimidazolium tetracyanoborate; phases: Liquid, Gas
Fixed: Mole fraction of propionic acid, methyl ester = 0
Property: Activity coefficient of propionic acid, methyl ester (Liquid); method: Chromatography
Temperature, K	Activity coefficient of propionic acid, methyl ester	uncertainty
318.15	.609	
328.15	.628	
338.15	.648	
348.15	.668	
358.15	.685	
368.15	.705	

System: methyl butanoate + 1-hexyl-3-methylimidazolium tetracyanoborate; phases: Liquid, Gas
Fixed: Mole fraction of methyl butanoate = 0
Property: Activity coefficient of methyl butanoate (Liquid); method: Chromatography
Temperature, K	Activity coefficient of methyl butanoate	uncertainty
318.15	.664	
328.15	.684	
338.15	.701	
348.15	.715	
358.15	.733	
368.15	.751	

System: butanal + 1-hexyl-3-methylimidazolium tetracyanoborate; phases: Liquid, Gas
Fixed: Mole fraction of butanal = 0
Property: Activity coefficient of butanal (Liquid); method: Chromatography
Temperature, K	Activity coefficient of butanal	uncertainty
318.15	.512	
328.15	.523	
338.15	.539	
348.15	.554	
358.15	.564	
368.15	.579	

System: ethanonitrile + 1-hexyl-3-methylimidazolium tetracyanoborate; phases: Liquid, Gas
Fixed: Mole fraction of ethanonitrile = 0
Property: Activity coefficient of ethanonitrile (Liquid); method: Chromatography
Temperature, K	Activity coefficient of ethanonitrile	uncertainty
318.15	.387	
328.15	.391	
338.15	.394	
348.15	.396	
358.15	.398	
368.15	.4	

System: pyridine + 1-hexyl-3-methylimidazolium tetracyanoborate; phases: Liquid, Gas
Fixed: Mole fraction of pyridine = 0
Property: Activity coefficient of pyridine (Liquid); method: Chromatography
Temperature, K	Activity coefficient of pyridine	uncertainty
318.15	.38	
328.15	.389	
338.15	.4	
348.15	.408	
358.15	.418	
368.15	.429	

System: 1-nitropropane + 1-hexyl-3-methylimidazolium tetracyanoborate; phases: Liquid, Gas
Fixed: Mole fraction of 1-nitropropane = 0
Property: Activity coefficient of 1-nitropropane (Liquid); method: Chromatography
Temperature, K	Activity coefficient of 1-nitropropane	uncertainty
328.15	.497	
338.15	.503	
348.15	.508	
358.15	.511	
368.15	.518	
