Measured thermophysical data. Investigation of 1-(2-carboxyethyl)-3-methylimidazolium chloride[HOOCEMIM][Cl] ionic liquid effect on water activity and solubility of L-serine at T = 298.15 K
Source: J. Chem. Thermodyn., 2015, 10.1016/j.jct.2014.08.016
Compound 1: 1-(2-carboxyethyl)-3-methylimidazolium chloride, C7H11ClN2O2
Compound 2: L-serine, C3H7NO3, purity 99%
Compound 3: water, H2O

System: water + 1-(2-carboxyethyl)-3-methylimidazolium chloride; phases: Liquid
Fixed: Pressure, kPa = 100
Fixed: Temperature, K = 298.15
Property: (Relative) activity of water (Liquid); method: isopiestic method
Molality, mol/kg of 1-(2-carboxyethyl)-3-methylimidazolium chloride	(Relative) activity of water	uncertainty
.7317	.9779	.0005
1.1098	.9668	.0005
1.3695	.96	.0005
1.489	.9559	.0005
1.8062	.9467	.0005
1.8509	.9455	.0005
2.0343	.94	.0005
2.3079	.9317	.0005
2.5307	.9249	.0005
3.4026	.899	.0005
3.7512	.8889	.0005
.3339	.9891	.0005
.7315	.9779	.0005
.9241	.9728	.0005
1.0771	.9685	.0005
1.5629	.9533	.0005
1.8019	.9459	.0005

System: L-serine + water + 1-(2-carboxyethyl)-3-methylimidazolium chloride; phases: Liquid
Fixed: Pressure, kPa = 100
Fixed: Temperature, K = 298.15
Property: (Relative) activity of water (Liquid); method: Isopiestic method
Molality, mol/kg of 1-(2-carboxyethyl)-3-methylimidazolium chloride	Molality, mol/kg of L-serine	(Relative) activity of water	uncertainty
.3339	0	.9891	.0005
.21478	.17383	.9891	.0005
.19144	.20418	.9891	.0005
0	.64635	.9891	.0005
.7315	0	.9779	.0005
.6675	.1455	.9779	.0005
.5439	.3103	.9779	.0005
0	1.265	.9779	.0005
.9241	0	.9728	.0005
.8576	.077	.9728	.0005
.722	.3163	.9728	.0005
0	1.5185	.9728	.0005
1.0771	0	.9685	.0005
1.0025	.0901	.9685	.0005
.8522	.3733	.9685	.0005
0	1.8719	.9685	.0005
1.3695	0	.96	.0005
1.2734	.1144	.96	.0005
1.0861	.4758	.96	.0005
0	2.4609	.96	.0005
1.5629	0	.9533	.0005
1.4009	.345	.9533	.0005
1.1607	.7907	.9533	.0005
0	3.0082	.9533	.0005
1.8019	0	.9459	.0005
1.5719	.387	.9459	.0005
1.3135	.8951	.9459	.0005
0	3.5323	.9459	.0005

System: L-serine + water + 1-(2-carboxyethyl)-3-methylimidazolium chloride; phases: Liquid, Crystal
Fixed: Pressure, kPa = 85.5
Fixed: Temperature, K = 298.15
Property: Mass ratio of solute to solvent of L-serine (Liquid); method: Gravimetric method
Molality, mol/kg of 1-(2-carboxyethyl)-3-methylimidazolium chloride	Mass ratio of solute to solvent of L-serine	uncertainty
.104	.4407	.0005
.187	.4495	.0005
.288	.4586	.0005
.386	.4675	.0005

System: L-serine + water; phases: Liquid
Property: (Relative) activity of water (Liquid); method: Isopiestic method
Molality, mol/kg of L-serine	Pressure, kPa	Temperature, K	(Relative) activity of water	uncertainty
.64635	100	298.15	.9891	.0005
1.265	100	298.15	.9779	.0005
1.5185	100	298.15	.9728	.0005
1.8719	100	298.15	.9685	.0005
2.4609	100	298.15	.96	.0005
3.0082	100	298.15	.9533	.0005
3.5323	100	298.15	.9459	.0005
