Measured thermophysical data. Measurement and correlation of the solubility of genistin in eleven organic solvents from T = (283.2 to 323.2) K
Source: J. Chem. Thermodyn., 2015, 10.1016/j.jct.2015.05.019
Compound 1: ethyl acetate, C4H8O2, purity 99.5%
Compound 2: acetonitrile, C2H3N, purity 99.9%
Compound 3: cyclohexane, C6H12, purity 99.5%
Compound 4: hexane, C6H14, purity 97%
Compound 5: trichloromethane, CHCl3, purity 99%
Compound 6: propan-2-ol, C3H8O, purity 99.5%
Compound 7: butan-1-ol, C4H10O, purity 99.5%
Compound 8: methanol, CH4O, purity 99.8%
Compound 9: ethanol, C2H6O, purity 99.7%
Compound 10: tetrahydrofuran, C4H8O, purity 99%
Compound 11: acetone, C3H6O, purity 99.5%
Compound 12: genistin, C21H20O10, purity 98%

System: genistin; phases: Crystal, Liquid, Air at 1 atmosphere
Property: Normal melting temperature, K (Crystal); method: DSC/DTA
Normal melting temperature, K	uncertainty
547.47	

System: genistin; phases: Crystal, Liquid, Air at 1 atmosphere
Property: Molar enthalpy of transition or fusion, kJ/mol (Crystal); method: DSC
Molar enthalpy of transition or fusion, kJ/mol	uncertainty
65.6	6.56

System: ethyl acetate + genistin; phases: Liquid, Crystal
Fixed: Pressure, kPa = 101.1
Property: Mole fraction of genistin (Liquid); method: Chromatography
Temperature, K	Mole fraction of genistin	uncertainty
283.2	.00000117	.000000069
293.2	.00000152	.00000014
303.2	.00000199	.00000018
313.2	.00000255	.00000016
323.2	.000003253	.00000006

System: acetonitrile + genistin; phases: Liquid, Crystal
Fixed: Pressure, kPa = 101.1
Property: Mole fraction of genistin (Liquid); method: Chromatography
Temperature, K	Mole fraction of genistin	uncertainty
283.2	.000001148	.000000029
293.2	.000001612	.000000072
303.2	.00000215	.00000018
313.2	.00000262	.00000024
323.2	.00000312	.00000024

System: cyclohexane + genistin; phases: Liquid, Crystal
Fixed: Pressure, kPa = 101.1
Property: Mole fraction of genistin (Liquid); method: Chromatography
Temperature, K	Mole fraction of genistin	uncertainty
283.2	.000000266	.000000016
293.2	.000000459	.000000021
303.2	.000000656	.00000003
313.2	.000000911	.000000033
323.2	.000001254	.000000028

System: hexane + genistin; phases: Liquid, Crystal
Fixed: Pressure, kPa = 101.1
Property: Mole fraction of genistin (Liquid); method: Chromatography
Temperature, K	Mole fraction of genistin	uncertainty
283.2	.000000364	.000000023
293.2	.000000487	.00000004
303.2	.000000647	.000000019
313.2	.0000008576	.0000000091
323.2	.000001139	.000000075

System: trichloromethane + genistin; phases: Liquid, Crystal
Fixed: Pressure, kPa = 101.1
Property: Mole fraction of genistin (Liquid); method: Chromatography
Temperature, K	Mole fraction of genistin	uncertainty
283.2	.000000286	.000000023
293.2	.000000337	.000000031
303.2	.000000414	.00000003
313.2	.000000502	.000000032
323.2	.000000654	.00000003

System: propan-2-ol + genistin; phases: Liquid, Crystal
Fixed: Pressure, kPa = 101.1
Property: Mole fraction of genistin (Liquid); method: Chromatography
Temperature, K	Mole fraction of genistin	uncertainty
283.2	.00000795	.00000023
293.2	.0000105	.00000028
303.2	.00001336	.00000041
313.2	.00001714	.0000006
323.2	.00002204	.0000007

System: butan-1-ol + genistin; phases: Liquid, Crystal
Fixed: Pressure, kPa = 101.1
Property: Mole fraction of genistin (Liquid); method: Chromatography
Temperature, K	Mole fraction of genistin	uncertainty
283.2	.00000478	.0000001
293.2	.00000848	.00000048
303.2	.0000125	.0000004
313.2	.0000156	.0000014
323.2	.0000191	.0000017

System: methanol + genistin; phases: Liquid, Crystal
Fixed: Pressure, kPa = 101.1
Property: Mole fraction of genistin (Liquid); method: Chromatography
Temperature, K	Mole fraction of genistin	uncertainty
283.2	.00005	.0000012
293.2	.0000554	.0000012
303.2	.0000591	.0000028
313.2	.0000644	.0000016
323.2	.0000704	.0000041

System: ethanol + genistin; phases: Liquid, Crystal
Fixed: Pressure, kPa = 101.1
Property: Mole fraction of genistin (Liquid); method: Chromatography
Temperature, K	Mole fraction of genistin	uncertainty
283.2	.0000263	.0000014
293.2	.0000285	.0000015
303.2	.0000328	.0000019
313.2	.0000372	.0000011
323.2	.00004383	.00000084

System: tetrahydrofuran + genistin; phases: Liquid, Crystal
Fixed: Pressure, kPa = 101.1
Property: Mole fraction of genistin (Liquid); method: Chromatography
Temperature, K	Mole fraction of genistin	uncertainty
283.2	.0000867	.0000018
293.2	.0001011	.0000014
303.2	.000123	.00001
313.2	.000149	.000013
323.2	.0001855	.0000093

System: acetone + genistin; phases: Liquid, Crystal
Fixed: Pressure, kPa = 101.1
Property: Mole fraction of genistin (Liquid); method: Chromatography
Temperature, K	Mole fraction of genistin	uncertainty
283.2	.00001108	.00000045
293.2	.00001454	.00000074
303.2	.0000188	.0000013
313.2	.0000241	.0000012
323.2	.0000298	.0000022
