Measured thermophysical data. Partial molar volumes of organic solutes in water. XX. Glycine(aq) and L-alanine(aq) at temperatures (298 to 443) K and at pressures up to 30 MPa
Source: J. Chem. Thermodyn., 2010, 10.1016/j.jct.2009.08.003
Compound 1: glycine, C2H5NO2, purity 99%
Compound 2: L-alanine, C3H7NO2, purity 99.5%
Compound 3: water, H2O, purity 99.5%

System: glycine + water; phases: Liquid
Fixed: Mole fraction of glycine = 0
Property: Molar volume, m3/mol (Liquid); method: calculated from density and mass
Temperature, K	Pressure, kPa	Molar volume, m3/mol	uncertainty
298.16	350	.00004335	.00000002
318.16	280	.00004424	.00000002
338.14	580	.00004467	.00000002
358.16	650	.00004475	.00000002
378.15	2170	.00004456	.00000002
408.17	2180	.00004363	.00000002
443.16	2120	.0000413	.00000002
298.16	15050	.00004373	.00000002
318.16	15050	.00004459	.00000002
338.14	15990	.00004499	.00000002
358.16	15540	.00004508	.00000002
378.15	16590	.00004496	.00000002
408.18	16980	.00004425	.00000002
298.15	30240	.00004419	.00000002
318.16	30240	.00004497	.00000002
338.14	30200	.00004537	.00000002
358.16	29910	.00004543	.00000002
378.15	30150	.00004536	.00000002
408.17	30170	.0000448	.00000002

System: L-alanine + water; phases: Liquid
Fixed: Mole fraction of L-alanine = 0
Property: Molar volume, m3/mol (Liquid); method: calculated from density and mass
Temperature, K	Pressure, kPa	Molar volume, m3/mol	uncertainty
298.16	340	.0000606	.00000002
318.16	280	.0000614	.00000002
338.14	580	.00006191	.00000002
358.16	630	.00006215	.00000002
378.15	2180	.00006228	.00000002
408.17	2170	.00006204	.00000002
443.16	2110	.00006084	.00000002
298.16	15090	.00006096	.00000002
318.16	16010	.00006169	.00000002
338.14	15990	.00006215	.00000002
358.16	15540	.0000624	.00000002
378.15	16590	.00006251	.00000002
408.18	16980	.00006243	.00000002
298.15	30260	.00006135	.00000002
318.16	30250	.000062	.00000002
338.14	30210	.00006242	.00000002
358.16	30100	.0000626	.00000002
378.15	30160	.00006275	.00000002
408.17	30170	.00006281	.00000002
