Measured thermophysical data. Thermal stabilities and properties of equilibrium phases in the Pt-Te-O system
Source: J. Chem. Thermodyn., 2017, 10.1016/j.jct.2016.11.016
Compound 1: platinum, Pt, purity 99.99%
Compound 2: platinum telluride (PtTe), PtTe, purity 99%

System: platinum telluride (PtTe) + platinum; phases: Crystal, Crystal, Liquid, Air at 1 atmosphere
Fixed: Pressure, kPa = 101.325
Property: Eutectic temperature, K (Crystal); method: DSC/DTA
Eutectic temperature, K	uncertainty
1146.6	

System: platinum telluride (PtTe) + platinum; phases: Liquid, Crystal
Fixed: Pressure, kPa = 100
Property: Solid-liquid equilibrium temperature, K (Liquid); method: DSC/DTA
Mole fraction of platinum telluride (PtTe)	Solid-liquid equilibrium temperature, K	uncertainty
.667	1175.2	
