Measured thermophysical data. The binary (solid + liquid) phase diagrams of (caprylic or capric acid) + (1-octanol or 1-decanol)
Source: J. Chem. Thermodyn., 2014, 10.1016/j.jct.2014.06.011
Compound 1: caprylic acid, C8H16O2, purity 99.1%
Compound 2: capric acid, C10H20O2, purity 99%
Compound 3: 1-octanol, C8H18O, purity 99.5%
Compound 4: 1-decanol, C10H22O, purity 99.4%

System: caprylic acid; phases: Crystal, Liquid, Air at 1 atmosphere
Property: Normal melting temperature, K (Crystal); method: DSC/DTA
Normal melting temperature, K	uncertainty
289.7	.3

System: caprylic acid; phases: Crystal, Liquid, Air at 1 atmosphere
Property: Molar enthalpy of transition or fusion, kJ/mol (Crystal); method: DSC
Molar enthalpy of transition or fusion, kJ/mol	uncertainty
21.4	1.5

System: capric acid; phases: Crystal, Liquid, Air at 1 atmosphere
Property: Normal melting temperature, K (Crystal); method: DSC/DTA
Normal melting temperature, K	uncertainty
305.3	.3

System: capric acid; phases: Crystal, Liquid, Air at 1 atmosphere
Property: Molar enthalpy of transition or fusion, kJ/mol (Crystal); method: DSC
Molar enthalpy of transition or fusion, kJ/mol	uncertainty
28	1.5

System: 1-octanol; phases: Crystal, Liquid, Air at 1 atmosphere
Property: Normal melting temperature, K (Crystal); method: DSC/DTA
Normal melting temperature, K	uncertainty
258.7	.3

System: 1-octanol; phases: Crystal, Liquid, Air at 1 atmosphere
Property: Molar enthalpy of transition or fusion, kJ/mol (Crystal); method: DSC
Molar enthalpy of transition or fusion, kJ/mol	uncertainty
23.7	1.5

System: 1-decanol; phases: Crystal, Liquid, Air at 1 atmosphere
Property: Normal melting temperature, K (Crystal); method: DSC/DTA
Normal melting temperature, K	uncertainty
280.3	.3

System: 1-decanol; phases: Crystal, Liquid, Air at 1 atmosphere
Property: Molar enthalpy of transition or fusion, kJ/mol (Crystal); method: DSC
Molar enthalpy of transition or fusion, kJ/mol	uncertainty
28.8	1.5

System: 1-octanol + caprylic acid; phases: Crystal of intercomponent compound 1, Crystal, Liquid, Air at 1 atmosphere
Fixed: Pressure, kPa = 101.325
Property: Eutectic temperature, K (Crystal of intercomponent compound 1); method: DSC/DTA
Eutectic temperature, K	uncertainty
251.7	.3

System: 1-octanol + caprylic acid; phases: Crystal of intercomponent compound 1, Crystal, Liquid, Air at 1 atmosphere
Property: Boiling temperature at pressure P, K (Crystal of intercomponent compound 1); method: DSC
Boiling temperature at pressure P, K	uncertainty
255.8	.3

System: 1-octanol + caprylic acid; phases: Liquid, Crystal
Fixed: Pressure, kPa = 94.6
Property: Solid-liquid equilibrium temperature, K (Liquid); method: DSC/DTA
Mole fraction of 1-octanol	Solid-liquid equilibrium temperature, K	uncertainty
1	258.7	.3
.8974	256.2	.3
.8503	253.4	.3
.799	252.9	.3

System: 1-octanol + caprylic acid; phases: Liquid, Crystal of intercomponent compound 1
Fixed: Pressure, kPa = 94.6
Property: Solid-liquid equilibrium temperature, K (Liquid); method: DSC/DTA
Mole fraction of 1-octanol	Solid-liquid equilibrium temperature, K	uncertainty
.799	252.9	.3
.7552	253.3	.3
.6969	256.7	.3
.6511	257	.3

System: 1-octanol + caprylic acid; phases: Liquid, Crystal
Fixed: Pressure, kPa = 94.6
Property: Solid-liquid equilibrium temperature, K (Liquid); method: DSC/DTA
Mole fraction of 1-octanol	Solid-liquid equilibrium temperature, K	uncertainty
.6511	257	.3
.602	264.3	.3
.5499	268.8	.3
.5036	270.4	.3
.4065	275	.3
.2987	280.1	.3
.1977	282.2	.3
.1064	285.7	.3
0	289.7	.3

System: 1-decanol + capric acid; phases: Crystal of intercomponent compound 1, Crystal, Liquid, Air at 1 atmosphere
Fixed: Pressure, kPa = 101.325
Property: Eutectic temperature, K (Crystal of intercomponent compound 1); method: DSC/DTA
Eutectic temperature, K	uncertainty
275.6	.3

System: 1-decanol + capric acid; phases: Crystal of intercomponent compound 1, Crystal, Liquid, Air at 1 atmosphere
Property: Boiling temperature at pressure P, K (Crystal of intercomponent compound 1); method: DSC
Boiling temperature at pressure P, K	uncertainty
278.9	.3

System: 1-decanol + capric acid; phases: Liquid, Crystal
Fixed: Pressure, kPa = 94.6
Property: Solid-liquid equilibrium temperature, K (Liquid); method: DSC/DTA
Mole fraction of 1-decanol	Solid-liquid equilibrium temperature, K	uncertainty
1	280.3	.3
.9456	278.7	.3
.8988	278.1	.3
.7998	275.8	.3

System: 1-decanol + capric acid; phases: Liquid, Crystal of intercomponent compound 1
Fixed: Pressure, kPa = 94.6
Property: Solid-liquid equilibrium temperature, K (Liquid); method: DSC/DTA
Mole fraction of 1-decanol	Solid-liquid equilibrium temperature, K	uncertainty
.7043	279	.3
.7998	275.8	.3

System: 1-decanol + capric acid; phases: Liquid, Crystal
Fixed: Pressure, kPa = 94.6
Property: Solid-liquid equilibrium temperature, K (Liquid); method: DSC/DTA
Mole fraction of 1-decanol	Solid-liquid equilibrium temperature, K	uncertainty
.5971	280.8	.3
.4989	287.9	.3
.395	291.9	.3
.3194	295.4	.3
.2077	299	.3
.1058	301.9	.3
0	305.3	.3

System: 1-octanol + capric acid; phases: Crystal of intercomponent compound 1, Crystal, Liquid, Air at 1 atmosphere
Property: Boiling temperature at pressure P, K (Crystal of intercomponent compound 1); method: DSC
Boiling temperature at pressure P, K	uncertainty
271.9	.3

System: 1-octanol + capric acid; phases: Crystal of intercomponent compound 1, Crystal, Liquid, Air at 1 atmosphere
Fixed: Pressure, kPa = 101.325
Property: Eutectic temperature, K (Crystal of intercomponent compound 1); method: DSC/DTA
Eutectic temperature, K	uncertainty
256.3	.3

System: 1-octanol + capric acid; phases: Liquid, Crystal
Fixed: Pressure, kPa = 94.6
Property: Solid-liquid equilibrium temperature, K (Liquid); method: DSC/DTA
Mole fraction of 1-octanol	Solid-liquid equilibrium temperature, K	uncertainty
1	258.7	.3
.9639	256.7	.3

System: 1-octanol + capric acid; phases: Liquid, Crystal of intercomponent compound 1
Fixed: Pressure, kPa = 94.6
Property: Solid-liquid equilibrium temperature, K (Liquid); method: DSC/DTA
Mole fraction of 1-octanol	Solid-liquid equilibrium temperature, K	uncertainty
.9639	256.7	.3
.9307	262.2	.3
.8762	265.3	.3
.751	271.4	.3

System: 1-octanol + capric acid; phases: Liquid, Crystal
Fixed: Pressure, kPa = 94.6
Property: Solid-liquid equilibrium temperature, K (Liquid); method: DSC/DTA
Mole fraction of 1-octanol	Solid-liquid equilibrium temperature, K	uncertainty
.6381	275.8	.3
.5312	281.4	.3
.43	287.2	.3
.3349	291.7	.3
.245	295	.3
.1616	298.5	.3
.0789	302.2	.3
.0491	303.3	.3
0	305.3	.3

System: 1-decanol + caprylic acid; phases: Crystal, Crystal of intercomponent compound 1, Liquid, Air at 1 atmosphere
Fixed: Pressure, kPa = 101.325
Property: Eutectic temperature, K (Crystal); method: DSC/DTA
Eutectic temperature, K	uncertainty
270.3	.3

System: 1-decanol + caprylic acid; phases: Crystal, Crystal of intercomponent compound 1, Liquid, Air at 1 atmosphere
Fixed: Pressure, kPa = 101.325
Property: Eutectic temperature, K (Crystal); method: DSC/DTA
Eutectic temperature, K	uncertainty
270.5	.3

System: 1-decanol + caprylic acid; phases: Liquid, Crystal
Fixed: Pressure, kPa = 94.6
Property: Solid-liquid equilibrium temperature, K (Liquid); method: DSC/DTA
Mole fraction of 1-decanol	Solid-liquid equilibrium temperature, K	uncertainty
1	280.3	.3
.9521	277.8	.3
.8991	276.8	.3
.8524	275.3	.3
.8021	274.4	.3
.75	272.8	.3
.6986	272	.3
.6498	270.9	.3

System: 1-decanol + caprylic acid; phases: Liquid, Crystal of intercomponent compound 1
Fixed: Pressure, kPa = 94.6
Property: Solid-liquid equilibrium temperature, K (Liquid); method: DSC/DTA
Mole fraction of 1-decanol	Solid-liquid equilibrium temperature, K	uncertainty
.5933	270.4	.3
.5496	271.5	.3
.5053	271.7	.3

System: 1-decanol + caprylic acid; phases: Liquid, Crystal
Fixed: Pressure, kPa = 94.6
Property: Solid-liquid equilibrium temperature, K (Liquid); method: DSC/DTA
Mole fraction of 1-decanol	Solid-liquid equilibrium temperature, K	uncertainty
.4696	271.6	.3
.4536	272.4	.3
.4046	273.8	.3
.3517	276.2	.3
.3	278.5	.3
.1987	282	.3
.1557	283.5	.3
.0717	286.3	.3
0	289.7	.3
