Measured thermophysical data. (Liquid + liquid) equilibrium data for the ternary systems (cycloalkane + ethylbenzene + 1-ethyl-3-methylimidazolium  ethylsulfate) at T = 298.15 K and atmospheric pressure
Source: J. Chem. Thermodyn., 2011, 10.1016/j.jct.2010.12.014
Compound 1: ethylbenzene, C8H10, purity 99.8%
Compound 2: cyclohexane, C6H12, purity 99.9%
Compound 3: methylcyclohexane, C7H14, purity 99.9%
Compound 4: cyclooctane, C8H16, purity 99%
Compound 5: 1-ethyl-3-methylimidazolium ethyl sulfate, C8H16N2O4S, purity 99%

System: ethylbenzene; phases: Liquid
Fixed: Pressure, kPa = 101.325
Property: Mass density, kg/m3 (Liquid); method: Vibrating tube method
Temperature, K	Mass density, kg/m3	uncertainty
298.15	862.51	.03

System: ethylbenzene; phases: Liquid
Fixed: Pressure, kPa = 101.325
Property: Refractive index (Na D-line) (Liquid); method: Standard Abbe refractometry
Temperature, K	Refractive index (Na D-line)	uncertainty
298.15	1.49304	.00004

System: cyclohexane; phases: Liquid
Fixed: Pressure, kPa = 101.325
Property: Mass density, kg/m3 (Liquid); method: Vibrating tube method
Temperature, K	Mass density, kg/m3	uncertainty
298.15	773.8	.03

System: cyclohexane; phases: Liquid
Fixed: Pressure, kPa = 101.325
Property: Refractive index (Na D-line) (Liquid); method: Standard Abbe refractometry
Temperature, K	Refractive index (Na D-line)	uncertainty
298.15	1.4236	.00004

System: methylcyclohexane; phases: Liquid
Fixed: Pressure, kPa = 101.325
Property: Mass density, kg/m3 (Liquid); method: Vibrating tube method
Temperature, K	Mass density, kg/m3	uncertainty
298.15	765.02	.03

System: methylcyclohexane; phases: Liquid
Fixed: Pressure, kPa = 101.325
Property: Refractive index (Na D-line) (Liquid); method: Standard Abbe refractometry
Temperature, K	Refractive index (Na D-line)	uncertainty
298.15	1.42062	.00004

System: cyclooctane; phases: Liquid
Fixed: Pressure, kPa = 101.325
Property: Mass density, kg/m3 (Liquid); method: Vibrating tube method
Temperature, K	Mass density, kg/m3	uncertainty
298.15	831.47	.03

System: cyclooctane; phases: Liquid
Fixed: Pressure, kPa = 101.325
Property: Refractive index (Na D-line) (Liquid); method: Standard Abbe refractometry
Temperature, K	Refractive index (Na D-line)	uncertainty
298.15	1.45598	.00004

System: 1-ethyl-3-methylimidazolium ethyl sulfate; phases: Liquid
Fixed: Pressure, kPa = 101.325
Property: Mass density, kg/m3 (Liquid); method: Vibrating tube method
Temperature, K	Mass density, kg/m3	uncertainty
298.15	1237.23	.03

System: 1-ethyl-3-methylimidazolium ethyl sulfate; phases: Liquid
Fixed: Pressure, kPa = 101.325
Property: Refractive index (Na D-line) (Liquid); method: Standard Abbe refractometry
Temperature, K	Refractive index (Na D-line)	uncertainty
298.15	1.4791	.00004

System: ethylbenzene + cyclohexane + 1-ethyl-3-methylimidazolium ethyl sulfate; phases: Liquid
Fixed: Temperature, K = 298.15
Fixed: Pressure, kPa = 101
Property: Mass density, kg/m3 (Liquid); method: Vibrating tube method
Mole fraction of cyclohexane	Mole fraction of ethylbenzene	Mass density, kg/m3	uncertainty
.027	0	1230.94	.03
.023	.022	1227.9	.03
.026	.026	1226.61	.03
.022	.043	1224.24	.03
.019	.063	1220.62	.03
.017	.066	1220.23	.03
.015	.081	1217.65	.03
.014	.092	1215.71	.03
.013	.099	1214.56	.03
0	.124	1210.43	.03

System: ethylbenzene + cyclohexane + 1-ethyl-3-methylimidazolium ethyl sulfate; phases: Liquid mixture 2, Liquid mixture 1
Fixed: Temperature, K = 298.15
Fixed: Pressure, kPa = 101.325
Property: Mole fraction of cyclohexane (Liquid mixture 2); method: Titration method
Property: Mole fraction of cyclohexane (Liquid mixture 1); method: Titration method
Property: Mole fraction of ethylbenzene (Liquid mixture 1); method: Titration method
Mole fraction of ethylbenzene	Mole fraction of cyclohexane	uncertainty	Mole fraction of cyclohexane	uncertainty	Mole fraction of ethylbenzene	uncertainty
.008	.023	.006	.934	.006	.066	.006
.016	.025	.006	.872	.006	.128	.006
.025	.025	.006	.807	.006	.193	.006
.033	.024	.006	.741	.006	.259	.006
.049	.022	.006	.613	.006	.387	.006
.067	.018	.006	.475	.006	.525	.006
.067	.018	.006	.475	.006	.525	.006
.083	.014	.006	.344	.006	.656	.006
.1	.01	.006	.213	.006	.787	.006
.126	.004	.006	.081	.006	.919	.006

System: ethylbenzene + cyclooctane + 1-ethyl-3-methylimidazolium ethyl sulfate; phases: Liquid
Fixed: Temperature, K = 298.15
Fixed: Pressure, kPa = 101
Property: Mass density, kg/m3 (Liquid); method: Vibrating tube method
Mole fraction of cyclooctane	Mole fraction of ethylbenzene	Mass density, kg/m3	uncertainty
.012	0	1232.65	.03
.012	.023	1228.69	.03
.015	.058	1222.18	.03
.006	.097	1215.42	.03
.002	.118	1211.63	.03
0	.124	1210.4	.03

System: ethylbenzene + cyclooctane + 1-ethyl-3-methylimidazolium ethyl sulfate; phases: Liquid mixture 2, Liquid mixture 1
Fixed: Temperature, K = 298.15
Fixed: Pressure, kPa = 101.325
Property: Mole fraction of cyclooctane (Liquid mixture 2); method: Titration method
Property: Mole fraction of cyclooctane (Liquid mixture 1); method: Titration method
Property: Mole fraction of ethylbenzene (Liquid mixture 1); method: Titration method
Mole fraction of ethylbenzene	Mole fraction of cyclooctane	uncertainty	Mole fraction of cyclooctane	uncertainty	Mole fraction of ethylbenzene	uncertainty
.012	.01	.006	.86	.006	.14	.006
.02	.012	.006	.8	.006	.2	.006
.03	.014	.006	.728	.006	.272	.006
.044	.014	.006	.605	.006	.395	.006
.062	.013	.006	.475	.006	.525	.006
.079	.011	.006	.338	.006	.662	.006
.097	.008	.006	.199	.006	.801	.006
.117	.004	.006	.072	.006	.928	.006

System: ethylbenzene + methylcyclohexane + 1-ethyl-3-methylimidazolium ethyl sulfate; phases: Liquid
Fixed: Temperature, K = 298.15
Fixed: Pressure, kPa = 101
Property: Mass density, kg/m3 (Liquid); method: Vibrating tube method
Mole fraction of methylcyclohexane	Mole fraction of ethylbenzene	Mass density, kg/m3	uncertainty
.026	0	1232.26	.03
.025	.024	1229.42	.03
.021	.059	1224.15	.03
.016	.078	1220.47	.03
.008	.107	1214.7	.03
0	.124	1210.4	.03

System: ethylbenzene + methylcyclohexane + 1-ethyl-3-methylimidazolium ethyl sulfate; phases: Liquid mixture 2, Liquid mixture 1
Fixed: Temperature, K = 298.15
Fixed: Pressure, kPa = 101.325
Property: Mole fraction of methylcyclohexane (Liquid mixture 2); method: Titration method
Property: Mole fraction of methylcyclohexane (Liquid mixture 1); method: Titration method
Property: Mole fraction of ethylbenzene (Liquid mixture 1); method: Titration method
Mole fraction of ethylbenzene	Mole fraction of methylcyclohexane	uncertainty	Mole fraction of methylcyclohexane	uncertainty	Mole fraction of ethylbenzene	uncertainty
.022	.023		.857	.006	.143	.006
.033	.026		.796	.006	.204	.006
.041	.025		.729	.006	.271	.006
.04	.025		.73	.006	.27	.006
.057	.023		.601	.006	.399	.006
.073	.019		.463	.006	.537	.006
.088	.015		.333	.006	.667	.006
.103	.01		.199	.006	.801	.006
.122	.002		.039	.006	.961	.006

System: cyclohexane + 1-ethyl-3-methylimidazolium ethyl sulfate; phases: Liquid
Property: Mass density, kg/m3 (Liquid); method: Vibrating tube method
Mole fraction of cyclohexane	Temperature, K	Pressure, kPa	Mass density, kg/m3	uncertainty
.027	298.15	101	1230.94	.03

System: ethylbenzene + 1-ethyl-3-methylimidazolium ethyl sulfate; phases: Liquid
Property: Mass density, kg/m3 (Liquid); method: Vibrating tube method
Mole fraction of ethylbenzene	Temperature, K	Pressure, kPa	Mass density, kg/m3	uncertainty
.124	298.15	101	1210.43	.03
.124	298.15	101	1210.4	.03

System: ethylbenzene + cyclohexane; phases: Liquid mixture 1, Liquid mixture 2
Property: Mole fraction of ethylbenzene (Liquid mixture 1); method: Titration method
Temperature, K	Pressure, kPa	Mole fraction of ethylbenzene	uncertainty
298.15	101.325	.066	.006
298.15	101.325	.128	.006
298.15	101.325	.193	.006
298.15	101.325	.259	.006
298.15	101.325	.387	.006
298.15	101.325	.525	.006
298.15	101.325	.656	.006
298.15	101.325	.787	.006
298.15	101.325	.919	.006

System: cyclooctane + 1-ethyl-3-methylimidazolium ethyl sulfate; phases: Liquid
Property: Mass density, kg/m3 (Liquid); method: Vibrating tube method
Mole fraction of cyclooctane	Temperature, K	Pressure, kPa	Mass density, kg/m3	uncertainty
.012	298.15	101	1232.65	.03

System: ethylbenzene + cyclooctane; phases: Liquid mixture 1, Liquid mixture 2
Property: Mole fraction of ethylbenzene (Liquid mixture 1); method: Titration method
Temperature, K	Pressure, kPa	Mole fraction of ethylbenzene	uncertainty
298.15	101.325	.14	.006
298.15	101.325	.2	.006
298.15	101.325	.272	.006
298.15	101.325	.395	.006
298.15	101.325	.525	.006
298.15	101.325	.662	.006
298.15	101.325	.801	.006
298.15	101.325	.928	.006

System: methylcyclohexane + 1-ethyl-3-methylimidazolium ethyl sulfate; phases: Liquid
Property: Mass density, kg/m3 (Liquid); method: Vibrating tube method
Mole fraction of methylcyclohexane	Temperature, K	Pressure, kPa	Mass density, kg/m3	uncertainty
.026	298.15	101	1232.26	.03

System: ethylbenzene + methylcyclohexane; phases: Liquid mixture 1, Liquid mixture 2
Property: Mole fraction of ethylbenzene (Liquid mixture 1); method: Titration method
Temperature, K	Pressure, kPa	Mole fraction of ethylbenzene	uncertainty
298.15	101.325	.143	.006
298.15	101.325	.204	.006
298.15	101.325	.271	.006
298.15	101.325	.27	.006
298.15	101.325	.399	.006
298.15	101.325	.537	.006
298.15	101.325	.667	.006
298.15	101.325	.801	.006
298.15	101.325	.961	.006
