Measured thermophysical data. Coordination abilities of Good's buffer ionic liquids toward europium(III) ion in aqueous solution
Source: J. Chem. Thermodyn., 2016, 10.1016/j.jct.2015.11.003
Compound 1: tetramethylammonium tricine, C10H24N2O5, purity 99.0%
Compound 2: tetraethylammonium tricine, C14H32N2O5, purity 98.9%
Compound 3: tetrabutylammonium tricine, C22H48N2O5, purity 98.5%
Compound 4: choline tricine, C11H26N2O6, purity 99.0%

System: tetramethylammonium tricine; phases: Crystal, Liquid, Air at 1 atmosphere
Property: Normal melting temperature, K (Crystal); method: DSC/DTA
Normal melting temperature, K	uncertainty
388.9	.1

System: tetraethylammonium tricine; phases: Crystal, Liquid, Air at 1 atmosphere
Property: Normal melting temperature, K (Crystal); method: DSC/DTA
Normal melting temperature, K	uncertainty
441.8	.1

System: tetrabutylammonium tricine; phases: Crystal, Liquid, Air at 1 atmosphere
Property: Normal melting temperature, K (Crystal); method: DSC/DTA
Normal melting temperature, K	uncertainty
370.8	.1

System: choline tricine; phases: Crystal, Liquid, Air at 1 atmosphere
Property: Normal melting temperature, K (Crystal); method: DSC/DTA
Normal melting temperature, K	uncertainty
336.8	.1
