Measured thermophysical data. (Liquid + liquid) equilibria measurements for ternary systems (sulfolane + a carboxylic acid + n-heptane) at T = 303.15 K and at 0.1 MPa
Source: J. Chem. Thermodyn., 2016, 10.1016/j.jct.2015.12.019
Compound 1: acetic acid, C2H4O2, purity 99%
Compound 2: propanoic acid, C3H6O2, purity 99%
Compound 3: butanoic acid, C4H8O2, purity 99%
Compound 4: 2-methylpropanoic acid, C4H8O2, purity 99%
Compound 5: pentanoic acid, C5H10O2, purity 99%
Compound 6: 3-methylbutanoic acid, C5H10O2, purity 99%
Compound 7: heptane, C7H16, purity 99%
Compound 8: sulfolane, C4H8O2S, purity 99%

System: 2-methylpropanoic acid; phases: Liquid
Fixed: Pressure, kPa = 101.325
Property: Refractive index (Na D-line) (Liquid); method: Standard Abbe refractometry
Temperature, K	Refractive index (Na D-line)	uncertainty
303.15	1.3913	.0092

System: heptane; phases: Liquid
Fixed: Pressure, kPa = 101.325
Property: Refractive index (Na D-line) (Liquid); method: Standard Abbe refractometry
Temperature, K	Refractive index (Na D-line)	uncertainty
303.15	1.3844	.0092

System: sulfolane; phases: Liquid
Fixed: Pressure, kPa = 101.325
Property: Refractive index (Na D-line) (Liquid); method: Standard Abbe refractometry
Temperature, K	Refractive index (Na D-line)	uncertainty
303.15	1.4815	.0092

System: acetic acid + sulfolane + heptane; phases: Liquid mixture 1, Liquid mixture 2
Fixed: Temperature, K = 303.15
Fixed: Pressure, kPa = 100
Property: Mole fraction of acetic acid (Liquid mixture 1); method: Titration method
Mole fraction of sulfolane	Mole fraction of acetic acid	uncertainty
.006	0	
.0085	.105	
.011	.195	
.012	.2834	
.013	.3859	
.015	.4964	
.018	.5863	
.0215	.732	
.0262	.7825	
.0525	.8202	
.1164	.817	
.1941	.7664	
.2713	.6986	
.473	.5046	
.5647	.422	
.6782	.3079	
.8326	.1554	
.906	.0803	
.936	.0471	
.985	0	

System: acetic acid + sulfolane + heptane; phases: Liquid
Fixed: Pressure, kPa = 100
Fixed: Temperature, K = 303.15
Property: Refractive index (Na D-line) (Liquid); method: Standard Abbe refractometry
Mole fraction of sulfolane	Mole fraction of acetic acid	Refractive index (Na D-line)	uncertainty
.0045	.105	1.3897	
.0082	.2711	1.3896	
.0114	.3829	1.3894	
.0137	.5507	1.3893	
.0321	.7542	1.3892	
.9678	.0201	1.4726	
.9671	.0252	1.461	
.9495	.0414	1.4416	
.923	.062	1.4175	
.8794	.1086	1.4061	

System: acetic acid + sulfolane + heptane; phases: Liquid mixture 1, Liquid mixture 2
Fixed: Temperature, K = 303.15
Fixed: Pressure, kPa = 100
Property: Mole fraction of sulfolane (Liquid mixture 1); method: Index of refraction calibration data
Property: Mole fraction of acetic acid (Liquid mixture 2); method: Index of refraction calibration data
Property: Mole fraction of sulfolane (Liquid mixture 2); method: Index of refraction calibration data
Mole fraction of acetic acid	Mole fraction of sulfolane	uncertainty	Mole fraction of acetic acid	uncertainty	Mole fraction of sulfolane	uncertainty
.105	.0045	.005	.0201	.005	.9678	.005
.2711	.0082	.005	.0252	.005	.9671	.005
.3829	.0114	.005	.0414	.005	.9495	.005
.5507	.0137	.005	.062	.005	.923	.005
.7542	.0321	.005	.1086	.005	.8794	.005

System: propanoic acid + sulfolane + heptane; phases: Liquid mixture 1, Liquid mixture 2
Fixed: Temperature, K = 303.15
Fixed: Pressure, kPa = 100
Property: Mole fraction of propanoic acid (Liquid mixture 1); method: Titration method
Mole fraction of sulfolane	Mole fraction of propanoic acid	uncertainty
.006	0	
.0079	.009	
.0109	.109	
.0123	.189	
.0169	.2862	
.0179	.3821	
.0217	.4309	
.041	.4946	
.126	.6123	
.2135	.6293	
.3112	.6033	
.511	.4351	
.6186	.3442	
.728	.2421	
.8519	.1234	
.9143	.0687	
.9528	.0278	
.985	0	

System: propanoic acid + sulfolane + heptane; phases: Liquid
Fixed: Pressure, kPa = 100
Fixed: Temperature, K = 303.15
Property: Refractive index (Na D-line) (Liquid); method: Standard Abbe refractometry
Mole fraction of sulfolane	Mole fraction of propanoic acid	Refractive index (Na D-line)	uncertainty
.0107	.1002	1.3864	
.0117	.245	1.3861	
.0127	.2839	1.3859	
.0154	.3429	1.3858	
.0252	.4547	1.3857	
.9782	.0095	1.461	
.9724	.0212	1.4559	
.9569	.0311	1.4482	
.9244	.0612	1.4301	
.8922	.0853	1.4234	

System: propanoic acid + sulfolane + heptane; phases: Liquid mixture 1, Liquid mixture 2
Fixed: Temperature, K = 303.15
Fixed: Pressure, kPa = 100
Property: Mole fraction of sulfolane (Liquid mixture 1); method: Index of refraction calibration data
Property: Mole fraction of propanoic acid (Liquid mixture 2); method: Index of refraction calibration data
Property: Mole fraction of sulfolane (Liquid mixture 2); method: Index of refraction calibration data
Mole fraction of propanoic acid	Mole fraction of sulfolane	uncertainty	Mole fraction of propanoic acid	uncertainty	Mole fraction of sulfolane	uncertainty
.1002	.0107	.005	.0095	.005	.9782	.005
.245	.0117	.005	.0212	.005	.9724	.005
.2839	.0127	.005	.0311	.005	.9569	.005
.3429	.0154	.005	.0612	.005	.9244	.005
.4547	.0252	.005	.0853	.005	.8922	.005

System: butanoic acid + sulfolane + heptane; phases: Liquid mixture 1, Liquid mixture 2
Fixed: Temperature, K = 303.15
Fixed: Pressure, kPa = 100
Property: Mole fraction of butanoic acid (Liquid mixture 1); method: Titration method
Mole fraction of sulfolane	Mole fraction of butanoic acid	uncertainty
.006	0	
.0065	.0235	
.0074	.0635	
.0085	.1072	
.0254	.211	
.0388	.3179	
.045	.4644	
.1287	.5617	
.2139	.5652	
.3259	.5237	
.5577	.3827	
.6372	.3094	
.7428	.2051	
.8668	.1031	
.9296	.0541	
.9743	.0249	
.985	0	

System: butanoic acid + sulfolane + heptane; phases: Liquid
Fixed: Pressure, kPa = 100
Fixed: Temperature, K = 303.15
Property: Refractive index (Na D-line) (Liquid); method: Standard Abbe refractometry
Mole fraction of sulfolane	Mole fraction of butanoic acid	Refractive index (Na D-line)	uncertainty
.0075	.0909	1.3936	
.0165	.1635	1.3924	
.0283	.2909	1.3915	
.0505	.441	1.3905	
.062	.4851	1.3904	
.9879	.0071	1.4742	
.9801	.0168	1.4677	
.949	.0327	1.461	
.9171	.056	1.4458	
.8861	.0904	1.4416	

System: butanoic acid + sulfolane + heptane; phases: Liquid mixture 1, Liquid mixture 2
Fixed: Temperature, K = 303.15
Fixed: Pressure, kPa = 100
Property: Mole fraction of sulfolane (Liquid mixture 1); method: Index of refraction calibration data
Property: Mole fraction of butanoic acid (Liquid mixture 2); method: Index of refraction calibration data
Property: Mole fraction of sulfolane (Liquid mixture 2); method: Index of refraction calibration data
Mole fraction of butanoic acid	Mole fraction of sulfolane	uncertainty	Mole fraction of butanoic acid	uncertainty	Mole fraction of sulfolane	uncertainty
.0909	.0075	.005	.0071	.005	.9879	.005
.1635	.0165	.005	.0168	.005	.9801	.005
.2909	.0283	.005	.0327	.005	.949	.005
.441	.0505	.005	.056	.005	.9171	.005
.4851	.062	.005	.0904	.005	.8861	.005

System: 2-methylpropanoic acid + sulfolane + heptane; phases: Liquid mixture 1, Liquid mixture 2
Fixed: Temperature, K = 303.15
Fixed: Pressure, kPa = 100
Property: Mole fraction of 2-methylpropanoic acid (Liquid mixture 1); method: Titration method
Mole fraction of sulfolane	Mole fraction of 2-methylpropanoic acid	uncertainty
.006	0	
.0085	.1991	
.0094	.2959	
.0256	.3744	
.03	.4065	
.0585	.506	
.1392	.5727	
.2029	.5836	
.3399	.5462	
.5517	.3943	
.6559	.3097	
.7588	.2054	
.8541	.1048	
.9143	.0531	
.9497	.0253	
.985	0	

System: 2-methylpropanoic acid + sulfolane + heptane; phases: Liquid
Fixed: Pressure, kPa = 100
Fixed: Temperature, K = 303.15
Property: Refractive index (Na D-line) (Liquid); method: Standard Abbe refractometry
Mole fraction of sulfolane	Mole fraction of 2-methylpropanoic acid	Refractive index (Na D-line)	uncertainty
.0129	.095	1.3986	
.0127	.16	1.3984	
.0108	.225	1.396	
.0104	.3057	1.3956	
.0099	.3843	1.3892	
.9578	.0186	1.4746	
.9388	.0248	1.4691	
.9165	.0435	1.4638	
.8955	.0654	1.4597	
.8651	.0942	1.4485	

System: 2-methylpropanoic acid + sulfolane + heptane; phases: Liquid mixture 1, Liquid mixture 2
Fixed: Temperature, K = 303.15
Fixed: Pressure, kPa = 100
Property: Mole fraction of sulfolane (Liquid mixture 1); method: Index of refraction calibration data
Property: Mole fraction of 2-methylpropanoic acid (Liquid mixture 2); method: Index of refraction calibration data
Property: Mole fraction of sulfolane (Liquid mixture 2); method: Index of refraction calibration data
Mole fraction of 2-methylpropanoic acid	Mole fraction of sulfolane	uncertainty	Mole fraction of 2-methylpropanoic acid	uncertainty	Mole fraction of sulfolane	uncertainty
.095	.0129	.005	.0186	.005	.9578	.005
.16	.0127	.005	.0248	.005	.9388	.005
.225	.0108	.005	.0435	.005	.9165	.005
.3057	.0104	.005	.0654	.005	.8955	.005
.3843	.0099	.005	.0942	.005	.8651	.005

System: pentanoic acid + sulfolane + heptane; phases: Liquid mixture 1, Liquid mixture 2
Fixed: Temperature, K = 303.15
Fixed: Pressure, kPa = 100
Property: Mole fraction of pentanoic acid (Liquid mixture 1); method: Titration method
Mole fraction of sulfolane	Mole fraction of pentanoic acid	uncertainty
.006	0	
.0089	.234	
.025	.2961	
.0345	.3366	
.0432	.3467	
.0572	.485	
.1529	.5659	
.2494	.5394	
.3582	.4983	
.5736	.3619	
.6726	.2716	
.7901	.181	
.8806	.0919	
.9315	.0405	
.9521	.0258	
.985	0	

System: pentanoic acid + sulfolane + heptane; phases: Liquid
Fixed: Pressure, kPa = 100
Fixed: Temperature, K = 303.15
Property: Refractive index (Na D-line) (Liquid); method: Standard Abbe refractometry
Mole fraction of sulfolane	Mole fraction of pentanoic acid	Refractive index (Na D-line)	uncertainty
.0052	.075	1.3962	
.0081	.1763	1.3961	
.0145	.2992	1.3948	
.0324	.3592	1.3945	
.0421	.4229	1.3944	
.9631	.0123	1.4758	
.9579	.026	1.4705	
.9476	.0328	1.4654	
.9257	.0438	1.4619	
.9149	.0654	1.4551	

System: pentanoic acid + sulfolane + heptane; phases: Liquid mixture 1, Liquid mixture 2
Fixed: Temperature, K = 303.15
Fixed: Pressure, kPa = 100
Property: Mole fraction of sulfolane (Liquid mixture 1); method: Index of refraction calibration data
Property: Mole fraction of pentanoic acid (Liquid mixture 2); method: Index of refraction calibration data
Property: Mole fraction of sulfolane (Liquid mixture 2); method: Index of refraction calibration data
Mole fraction of pentanoic acid	Mole fraction of sulfolane	uncertainty	Mole fraction of pentanoic acid	uncertainty	Mole fraction of sulfolane	uncertainty
.075	.0052	.005	.0123	.005	.9631	.005
.1763	.0081	.005	.026	.005	.9579	.005
.2992	.0145	.005	.0328	.005	.9476	.005
.3592	.0324	.005	.0438	.005	.9257	.005
.4229	.0421	.005	.0654	.005	.9149	.005

System: sulfolane + heptane + 3-methylbutanoic acid; phases: Liquid mixture 1, Liquid mixture 2
Fixed: Temperature, K = 303.15
Fixed: Pressure, kPa = 100
Property: Mole fraction of 3-methylbutanoic acid (Liquid mixture 1); method: Titration method
Mole fraction of sulfolane	Mole fraction of 3-methylbutanoic acid	uncertainty
.006	0	
.0069	.1323	
.009	.1961	
.0319	.2681	
.0522	.3917	
.069	.519	
.1526	.5752	
.2643	.5451	
.36	.5018	
.5783	.3522	
.691	.2687	
.7938	.1808	
.8971	.0849	
.9326	.0497	
.9559	.0243	
.985	0	

System: sulfolane + heptane + 3-methylbutanoic acid; phases: Liquid
Fixed: Pressure, kPa = 100
Fixed: Temperature, K = 303.15
Property: Refractive index (Na D-line) (Liquid); method: Standard Abbe refractometry
Mole fraction of sulfolane	Mole fraction of 3-methylbutanoic acid	Refractive index (Na D-line)	uncertainty
.0107	.0811	1.3956	
.0197	.1835	1.3953	
.0253	.2959	1.3951	
.0509	.3957	1.3949	
.0658	.4841	1.3935	
.9592	.0109	1.4708	
.9579	.0219	1.4661	
.956	.0288	1.462	
.9519	.0378	1.4555	
.9456	.0453	1.4542	

System: sulfolane + heptane + 3-methylbutanoic acid; phases: Liquid mixture 1, Liquid mixture 2
Fixed: Temperature, K = 303.15
Fixed: Pressure, kPa = 100
Property: Mole fraction of sulfolane (Liquid mixture 1); method: Index of refraction calibration data
Property: Mole fraction of 3-methylbutanoic acid (Liquid mixture 2); method: Index of refraction calibration data
Property: Mole fraction of sulfolane (Liquid mixture 2); method: Index of refraction calibration data
Mole fraction of 3-methylbutanoic acid	Mole fraction of sulfolane	uncertainty	Mole fraction of 3-methylbutanoic acid	uncertainty	Mole fraction of sulfolane	uncertainty
.0811	.0107	.005	.0109	.005	.9592	.005
.1835	.0197	.005	.0219	.005	.9579	.005
.2959	.0253	.005	.0288	.005	.956	.005
.3957	.0509	.005	.0378	.005	.9519	.005
.4841	.0658	.005	.0453	.005	.9456	.005

System: sulfolane + heptane; phases: Liquid mixture 1, Liquid mixture 2
Property: Mole fraction of sulfolane (Liquid mixture 1); method: Titration method
Temperature, K	Pressure, kPa	Mole fraction of sulfolane	uncertainty
303.15	100	.006	
303.15	100	.985	
