Measured thermophysical data. Determination and correlation of cefuroxime acid solubility in (acetonitrile + water) mixtures
Source: J. Chem. Thermodyn., 2014, 10.1016/j.jct.2014.05.018
Compound 1: cefuroxime acid, C16H16N4O8S, purity 99%
Compound 2: acetonitrile, C2H3N, purity 99.5%
Compound 3: water, H2O

System: acetonitrile + water + cefuroxime acid; phases: Liquid, Crystal
Fixed: Pressure, kPa = 100
Property: Mole fraction of cefuroxime acid (Liquid); method: Titration method
Temperature, K	Solvent: Mole fraction of acetonitrile	Mole fraction of cefuroxime acid	uncertainty
278.15	1	.0001902	.00000951
283.15	1	.0002071	.000010355
288.15	1	.0002207	.000011035
293.15	1	.0002415	.000012075
298.15	1	.0002609	.000013045
303.15	1	.000271	.00001355
308.15	1	.0002879	.000014395
313.15	1	.0003315	.000016575
278.15	.893	.001048	.0000524
283.15	.893	.001246	.0000623
288.15	.893	.00156	.000078
293.15	.893	.001897	.00009485
298.15	.893	.00217	.0001085
303.15	.893	.002389	.00011945
308.15	.893	.002622	.0001311
313.15	.893	.002909	.00014545
278.15	.713	.001586	.0000793
283.15	.713	.002256	.0001128
288.15	.713	.003021	.00015105
293.15	.713	.003615	.00018075
298.15	.713	.004599	.00022995
303.15	.713	.006569	.00032845
308.15	.713	.008099	.00040495
313.15	.713	.009684	.0004842
278.15	.637	.001306	.0000653
283.15	.637	.001587	.00007935
288.15	.637	.001813	.00009065
293.15	.637	.002584	.0001292
298.15	.637	.003833	.00019165
303.15	.637	.005972	.0002986
308.15	.637	.007408	.0003704
313.15	.637	.009298	.0004649
278.15	.397	.0007665	.000038325
283.15	.397	.0009665	.000048325
288.15	.397	.001336	.0000668
293.15	.397	.001686	.0000843
298.15	.397	.002416	.0001208
303.15	.397	.003452	.0001726
308.15	.397	.004519	.00022595
313.15	.397	.006256	.0003128
278.15	.226	.0003045	.000015225
283.15	.226	.0004174	.00002087
288.15	.226	.0006689	.000033445
293.15	.226	.0008158	.00004079
298.15	.226	.00116	.000058
303.15	.226	.001654	.0000827
308.15	.226	.002152	.0001076
313.15	.226	.002801	.00014005
278.15	.099	.00003552	.000001776
283.15	.099	.00004094	.000002047
288.15	.099	.00004787	.0000023935
293.15	.099	.00006869	.0000034345
298.15	.099	.00008066	.000004033
303.15	.099	.00008999	.0000044995
308.15	.099	.0001108	.00000554
313.15	.099	.0001422	.00000711
278.15	0	.00002677	.0000013385
283.15	0	.00003315	.0000016575
288.15	0	.0000425	.000002125
293.15	0	.00006098	.000003049
298.15	0	.00007161	.0000035805
303.15	0	.0001062	.00000531
308.15	0	.0001719	.000008595
313.15	0	.0002082	.00001041

System: acetonitrile + cefuroxime acid; phases: Liquid, Crystal
Property: Mole fraction of cefuroxime acid (Liquid); method: Titration method
Temperature, K	Pressure, kPa	Mole fraction of cefuroxime acid	uncertainty
278.15	100	.0001902	.00000951
283.15	100	.0002071	.000010355
288.15	100	.0002207	.000011035
293.15	100	.0002415	.000012075
298.15	100	.0002609	.000013045
303.15	100	.000271	.00001355
308.15	100	.0002879	.000014395
313.15	100	.0003315	.000016575

System: water + cefuroxime acid; phases: Liquid, Crystal
Property: Mole fraction of cefuroxime acid (Liquid); method: Titration method
Temperature, K	Pressure, kPa	Mole fraction of cefuroxime acid	uncertainty
278.15	100	.00002677	.0000013385
283.15	100	.00003315	.0000016575
288.15	100	.0000425	.000002125
293.15	100	.00006098	.000003049
298.15	100	.00007161	.0000035805
303.15	100	.0001062	.00000531
308.15	100	.0001719	.000008595
313.15	100	.0002082	.00001041
