Measured thermophysical data. Experimental determination of (p,.rho.,T) data for binary mixtures of methane and helium
Source: J. Chem. Thermodyn., 2016, 10.1016/j.jct.2015.12.006
Compound 1: methane, CH4, purity 99.9995%
Compound 2: helium, He, purity 99.9999%

System: methane + helium; phases: Gas
Property: Mass density, kg/m3 (Gas); method: Buoyancy - hydrostatic balance with magnetic suspension - one sinker
Temperature, K	Pressure, kPa	Mole fraction of methane	Mass density, kg/m3	uncertainty
250.032	19568	.9500147	198.473	
250.028	19042	.9500147	194.564	
250.031	18043	.9500147	186.653	
250.032	17044	.9500147	178.081	
250.032	16039	.9500147	168.759	
250.033	15012	.9500147	158.475	
250.033	14031	.9500147	147.94	
250.033	13018	.9500147	136.433	
250.039	12014	.9500147	124.477	
250.04	11028	.9500147	112.43	
250.041	10020	.9500147	99.991	
250.039	9010	.9500147	87.651	
250.042	8002	.9500147	75.657	
250.043	7002	.9500147	64.244	
250.043	6001	.9500147	53.364	
250.045	4999	.9500147	43.071	
250.044	3998	.9500147	33.382	
250.038	2998	.9500147	24.279	
250.035	1991	.9500147	15.651	
250.041	998	.9500147	7.621	
275.006	19598	.9500147	164.546	
275.009	19027	.9500147	160.36	
275.01	18027	.9500147	152.751	
275.008	17024	.9500147	144.735	
275.008	16005	.9500147	136.235	
275.008	15019	.9500147	127.693	
275	13990	.9500147	118.505	
275	13015	.9500147	109.579	
275	12010	.9500147	100.248	
275	11003	.9500147	90.832	
275	10007	.9500147	81.538	
275.001	9005	.9500147	72.274	
275.001	7999	.9500147	63.141	
275.001	6999	.9500147	54.27	
275.001	5998	.9500147	45.638	
275.001	4999	.9500147	37.306	
274.998	3998	.9500147	29.247	
274.997	2997	.9500147	21.492	
274.997	1997	.9500147	14.036	
274.995	997	.9500147	6.868	
299.958	19947	.9500147	142.569	
299.957	19019	.9500147	136.456	
299.958	18012	.9500147	129.617	
299.958	17014	.9500147	122.639	
299.958	16012	.9500147	115.449	
299.957	15009	.9500147	108.1	
299.958	14009	.9500147	100.634	
299.959	13003	.9500147	93.029	
299.96	12004	.9500147	85.416	
299.96	11004	.9500147	77.78	
299.958	10001	.9500147	70.115	
299.959	9001	.9500147	62.524	
299.96	8000	.9500147	55.004	
299.957	6998	.9500147	47.579	
299.956	5998	.9500147	40.294	
299.956	5008	.9500147	33.227	
299.955	4021	.9500147	26.333	
299.956	2999	.9500147	19.372	
299.957	2002	.9500147	12.753	
299.957	997	.9500147	6.264	
324.954	19715	.9500147	123.531	
324.954	19000	.9500147	119.317	
324.955	18002	.9500147	113.32	
324.955	17003	.9500147	107.193	
324.956	15998	.9500147	100.92	
324.956	15005	.9500147	94.63	
324.956	14000	.9500147	88.182	
324.956	12999	.9500147	81.698	
324.955	12000	.9500147	75.193	
324.956	10998	.9500147	68.639	
324.955	10002	.9500147	62.122	
324.954	8999	.9500147	55.577	
324.955	8000	.9500147	49.095	
324.954	6996	.9500147	42.63	
324.955	5997	.9500147	36.261	
324.955	4997	.9500147	29.964	
324.955	3996	.9500147	23.752	
324.956	2997	.9500147	17.648	
324.956	1991	.9500147	11.608	
324.955	997	.9500147	5.755	
349.937	19941	.9500147	111.598	
349.937	19004	.9500147	106.652	
349.937	17994	.9500147	101.235	
349.939	16998	.9500147	95.804	
349.938	15998	.9500147	90.27	
349.939	14995	.9500147	84.662	
349.939	13996	.9500147	79.008	
349.939	12990	.9500147	73.276	
349.939	11994	.9500147	67.563	
349.938	10993	.9500147	61.799	
349.938	9999	.9500147	56.06	
349.939	9000	.9500147	50.297	
349.938	7997	.9500147	44.519	
349.937	6996	.9500147	38.775	
349.937	5996	.9500147	33.066	
349.935	4995	.9500147	27.399	
349.937	3997	.9500147	21.795	
349.936	2997	.9500147	16.237	
349.939	1989	.9500147	10.705	
349.936	997	.9500147	5.331	
374.925	19944	.9500147	101.307	
374.924	18996	.9500147	96.766	
374.923	17973	.9500147	91.8	
374.926	16992	.9500147	86.972	
374.924	15983	.9500147	81.95	
374.923	14981	.9500147	76.903	
374.924	13990	.9500147	71.871	
374.923	12991	.9500147	66.756	
374.925	11991	.9500147	61.606	
374.926	10985	.9500147	56.398	
374.926	9988	.9500147	51.222	
374.926	8990	.9500147	46.028	
374.925	7989	.9500147	40.819	
374.925	6995	.9500147	35.65	
374.926	5994	.9500147	30.458	
374.926	4995	.9500147	25.296	
374.927	3996	.9500147	20.159	
374.926	2998	.9500147	15.064	
374.924	1985	.9500147	9.932	
374.923	997	.9500147	4.962	
399.998	19908	.9500147	92.835	
399.996	18968	.9500147	88.715	
399.996	17980	.9500147	84.322	
399.997	16970	.9500147	79.783	
399.998	15982	.9500147	75.296	
399.996	14971	.9500147	70.659	
399.998	13973	.9500147	66.035	
399.997	12972	.9500147	61.369	
399.997	11976	.9500147	56.692	
399.999	10988	.9500147	52.036	
399.997	9990	.9500147	47.301	
399.999	8986	.9500147	42.531	
399.997	7987	.9500147	37.772	
399.998	6992	.9500147	33.027	
399.997	5994	.9500147	28.272	
399.998	4996	.9500147	23.52	
399.997	3996	.9500147	18.766	
399.999	2996	.9500147	14.035	
399.998	1988	.9500147	9.288	
399.999	997	.9500147	4.638	
250.029	19935	.89993256	181.673	
250.029	19046	.89993256	175.211	
250.029	18041	.89993256	167.461	
250.029	17031	.89993256	159.171	
250.022	16033	.89993256	150.497	
250.022	15029	.89993256	141.278	
250.022	14024	.89993256	131.6	
250.023	13025	.89993256	121.592	
250.023	12015	.89993256	111.18	
250.023	11015	.89993256	100.697	
250.022	10007	.89993256	90.057	
250.024	9008	.89993256	79.589	
250.024	8001	.89993256	69.241	
250.023	7001	.89993256	59.241	
250.023	6000	.89993256	49.577	
250.022	4999	.89993256	40.31	
250.022	4002	.89993256	31.484	
250.021	3000	.89993256	23.024	
250.024	2000	.89993256	14.974	
250.022	998	.89993256	7.291	
274.999	18804	.89993256	144.712	
274.999	18024	.89993256	139.174	
274.999	17008	.89993256	131.721	
274.999	16019	.89993256	124.219	
274.998	15016	.89993256	116.391	
274.997	14013	.89993256	108.363	
274.995	13002	.89993256	100.126	
274.993	12009	.89993256	91.938	
274.992	11018	.89993256	83.711	
274.992	10003	.89993256	75.27	
274.991	8999	.89993256	66.981	
274.991	8002	.89993256	58.832	
274.991	6999	.89993256	50.769	
274.992	5998	.89993256	42.884	
274.992	4997	.89993256	35.184	
274.992	3997	.89993256	27.702	
274.992	2997	.89993256	20.437	
274.991	1991	.89993256	13.357	
274.99	998	.89993256	6.585	
299.95	19681	.89993256	130.063	
299.95	19009	.89993256	125.943	
299.951	18016	.89993256	119.734	
299.952	17022	.89993256	113.365	
299.951	16006	.89993256	106.706	
299.95	15003	.89993256	100.01	
299.95	13987	.89993256	93.126	
299.949	13009	.89993256	86.415	
299.951	12007	.89993256	79.484	
299.952	11000	.89993256	72.492	
299.95	9995	.89993256	65.501	
299.951	9002	.89993256	58.607	
299.95	7997	.89993256	51.678	
299.951	7000	.89993256	44.863	
299.951	5998	.89993256	38.093	
299.951	4998	.89993256	31.436	
299.953	3997	.89993256	24.884	
299.952	2997	.89993256	18.458	
299.95	1989	.89993256	12.112	
299.951	997	.89993256	6.006	
324.957	19926	.89993256	116.277	
324.958	19015	.89993256	111.31	
324.958	18005	.89993256	105.694	
324.957	17002	.89993256	100.013	
324.956	15999	.89993256	94.246	
324.957	14998	.89993256	88.403	
324.957	14003	.89993256	82.534	
324.957	13003	.89993256	76.57	
324.958	12000	.89993256	70.552	
324.958	10999	.89993256	64.52	
324.959	9998	.89993256	58.468	
324.959	8995	.89993256	52.405	
324.959	7994	.89993256	46.366	
324.958	6998	.89993256	40.385	
324.959	5996	.89993256	34.403	
324.958	4997	.89993256	28.498	
324.956	3997	.89993256	22.64	
324.957	2998	.89993256	16.862	
324.957	1997	.89993256	11.149	
324.956	997	.89993256	5.523	
349.94	19921	.89993256	104.6	
349.94	18995	.89993256	100.043	
349.94	17984	.89993256	94.992	
349.941	16992	.89993256	89.961	
349.94	15993	.89993256	84.83	
349.938	15003	.89993256	79.68	
349.941	13990	.89993256	74.36	
349.939	12999	.89993256	69.108	
349.939	11988	.89993256	63.714	
349.94	10989	.89993256	58.36	
349.94	9989	.89993256	52.977	
349.94	8992	.89993256	47.601	
349.939	7995	.89993256	42.22	
349.941	6993	.89993256	36.826	
349.939	5995	.89993256	31.461	
349.939	4996	.89993256	26.119	
349.939	3995	.89993256	20.798	
349.939	2997	.89993256	15.529	
349.937	1989	.89993256	10.253	
349.937	997	.89993256	5.112	
374.922	19912	.89993256	95.374	
374.922	18997	.89993256	91.271	
374.923	17991	.89993256	86.7	
374.924	16856	.89993256	81.471	
374.923	15992	.89993256	77.441	
374.924	14990	.89993256	72.73	
374.922	13966	.89993256	67.866	
374.924	12998	.89993256	63.225	
374.923	11986	.89993256	58.341	
374.922	10989	.89993256	53.503	
374.926	9991	.89993256	48.64	
374.92	8994	.89993256	43.761	
374.923	7988	.89993256	38.828	
374.924	6992	.89993256	33.941	
374.923	5995	.89993256	29.05	
374.923	4996	.89993256	24.159	
374.922	3993	.89993256	19.262	
374.924	2996	.89993256	14.413	
374.924	1997	.89993256	9.577	
374.923	997	.89993256	4.766	
400.005	19812	.89993256	87.449	
400.005	18956	.89993256	83.913	
400.005	17982	.89993256	79.843	
400.006	16970	.89993256	75.567	
400.005	15958	.89993256	71.246	
400.005	14977	.89993256	67.013	
400.006	13983	.89993256	62.689	
400.006	12965	.89993256	58.225	
400.007	11979	.89993256	53.869	
400.006	10985	.89993256	49.453	
400.006	9991	.89993256	45.009	
400.008	8984	.89993256	40.487	
400.006	7987	.89993256	35.996	
400.005	6994	.89993256	31.514	
400.006	5990	.89993256	26.977	
400.007	4993	.89993256	22.465	
400.007	3997	.89993256	17.962	
400.007	2996	.89993256	13.446	
400.006	1996	.89993256	8.941	
400.005	997	.89993256	4.458	
