Measured thermophysical data. Molar heat capacities of the (water + acetonitrile) mixtures at T = (283.15, 298.15, 313.15, and 328.15) K
Source: J. Chem. Thermodyn., 2010, 10.1016/j.jct.2010.04.019
Compound 1: methylnitrile, C2H3N, purity 99.5%
Compound 2: water, H2O, purity 99.9%

System: methylnitrile + water; phases: Liquid
Fixed: Pressure, kPa = 101
Property: Molar heat capacity at constant pressure, J/K/mol (Liquid); method: Vacuum adiabatic calorimetry
Mole fraction of methylnitrile	Temperature, K	Molar heat capacity at constant pressure, J/K/mol	uncertainty
0	283.15	75.52	.03776
.0112	283.15	76.78	.03839
.0194	283.15	77.58	.03879
.0286	283.15	78.38	.03919
.0383	283.15	79.1	.03955
.0497	283.15	79.91	.039955
.0611	283.15	80.52	.04026
.0702	283.15	80.89	.040445
.0804	283.15	81.26	.04063
.091	283.15	81.66	.04083
.1007	283.15	81.99	.040995
.2124	283.15	85.36	.04268
.3063	283.15	87.72	.04386
.3987	283.15	89.89	.044945
.4856	283.15	91.57	.045785
.6011	283.15	93.03	.046515
.7107	283.15	93.7	.04685
.8024	283.15	93.56	.04678
.9005	283.15	92.77	.046385
.9091	283.15	92.66	.04633
.9203	283.15	92.52	.04626
.9316	283.15	92.36	.04618
.9402	283.15	92.25	.046125
.9496	283.15	92.11	.046055
.9604	283.15	91.94	.04597
.9711	283.15	91.77	.045885
.9803	283.15	91.61	.045805
.991	283.15	91.42	.04571
1	283.15	91.25	.045625
0	298.15	75.29	.037645
.0112	298.15	76.64	.03832
.0194	298.15	77.54	.03877
.0286	298.15	78.45	.039225
.0383	298.15	79.27	.039635
.0497	298.15	80.02	.04001
.0611	298.15	80.57	.040285
.0702	298.15	80.95	.040475
.0804	298.15	81.33	.040665
.091	298.15	81.73	.040865
.1007	298.15	82.06	.04103
.2124	298.15	85.66	.04283
.3063	298.15	88.31	.044155
.3987	298.15	90.7	.04535
.4856	298.15	92.38	.04619
.6011	298.15	93.96	.04698
.7107	298.15	94.44	.04722
.8024	298.15	94.16	.04708
.9005	298.15	93.28	.04664
.9091	298.15	93.17	.046585
.9203	298.15	93.01	.046505
.9316	298.15	92.85	.046425
.9402	298.15	92.73	.046365
.9496	298.15	92.59	.046295
.9604	298.15	92.4	.0462
.9711	298.15	92.22	.04611
.9803	298.15	92.06	.04603
.991	298.15	91.87	.045935
1	298.15	91.69	.045845
0	313.15	75.27	.037635
.0112	313.15	76.74	.03837
.0194	313.15	77.7	.03885
.0286	313.15	78.67	.039335
.0383	313.15	79.51	.039755
.0497	313.15	80.18	.04009
.0611	313.15	80.8	.0404
.0702	313.15	81.21	.040605
.0804	313.15	81.57	.040785
.091	313.15	81.99	.040995
.1007	313.15	82.36	.04118
.2124	313.15	86.24	.04312
.3063	313.15	89.08	.04454
.3987	313.15	91.59	.045795
.4856	313.15	93.42	.04671
.6011	313.15	94.89	.047445
.7107	313.15	95.33	.047665
.8024	313.15	94.79	.047395
.9005	313.15	93.87	.046935
.9091	313.15	93.75	.046875
.9203	313.15	93.59	.046795
.9316	313.15	93.41	.046705
.9402	313.15	93.29	.046645
.9496	313.15	93.14	.04657
.9604	313.15	92.95	.046475
.9711	313.15	92.76	.04638
.9803	313.15	92.59	.046295
.991	313.15	92.39	.046195
1	313.15	92.21	.046105
0	328.15	75.34	.03767
.0112	328.15	76.89	.038445
.0194	328.15	77.9	.03895
.0286	328.15	78.89	.039445
.0383	328.15	79.77	.039885
.0497	328.15	80.51	.040255
.0611	328.15	81	.0405
.0702	328.15	81.46	.04073
.0804	328.15	81.9	.04095
.091	328.15	82.33	.041165
.1007	328.15	82.7	.04135
.2124	328.15	86.82	.04341
.3063	328.15	89.92	.04496
.3987	328.15	92.56	.04628
.4856	328.15	94.38	.04719
.6011	328.15	95.86	.04793
.7107	328.15	96.16	.04808
.8024	328.15	95.62	.04781
.9005	328.15	94.55	.047275
.9091	328.15	94.42	.04721
.9203	328.15	94.24	.04712
.9316	328.15	94.06	.04703
.9402	328.15	93.94	.04697
.9496	328.15	93.77	.046885
.9604	328.15	93.58	.04679
.9711	328.15	93.38	.04669
.9803	328.15	93.21	.046605
.991	328.15	93	.0465
1	328.15	92.82	.04641
