Measured thermophysical data. Volumetric and viscosimetric properties of [bmim][DCA] + .gamma.-butyrolactone binary mixtures
Source: J. Chem. Thermodyn., 2016, 10.1016/j.jct.2016.02.014
Compound 1: 1-butyl-3-methylimidazolium dicyanamide, C10H15N5, purity 98%
Compound 2: .gamma.-butyrolactone, C4H6O2, purity 99%

System: 1-butyl-3-methylimidazolium dicyanamide; phases: Liquid
Fixed: Pressure, kPa = 101.325
Property: Mass density, kg/m3 (Liquid); method: Vibrating tube method
Temperature, K	Mass density, kg/m3	uncertainty
273.15	1075.196	
278.15	1072.131	
283.15	1068.945	
288.15	1065.724	
293.15	1062.518	
298.15	1059.326	
303.15	1056.152	
308.15	1052.992	
313.15	1049.849	
318.15	1046.721	
323.15	1043.606	
328.15	1040.507	
333.15	1037.427	

System: 1-butyl-3-methylimidazolium dicyanamide; phases: Liquid
Fixed: Pressure, kPa = 101.325
Property: Viscosity, Pa*s (Liquid); method: Capillary tube (Ostwald; Ubbelohde) method
Temperature, K	Viscosity, Pa*s	uncertainty
273.15	.09568	
278.15	.07185	
283.15	.05527	
288.15	.04357	
293.15	.03504	
298.15	.0285	
303.15	.02352	
308.15	.01987	
313.15	.01695	
318.15	.01461	
323.15	.01265	

System: .gamma.-butyrolactone + 1-butyl-3-methylimidazolium dicyanamide; phases: Liquid
Fixed: Pressure, kPa = 100
Property: Mass density, kg/m3 (Liquid); method: Vibrating tube method
Temperature, K	Mole fraction of 1-butyl-3-methylimidazolium dicyanamide	Mass density, kg/m3	uncertainty
273.15	0	1149.155	
273.15	.0504	1142.327	
273.15	.1002	1136.313	
273.15	.2002	1124.632	
273.15	.2984	1114.816	
273.15	.4005	1106.005	
273.15	.4954	1099.093	
273.15	.6957	1087.48	
273.15	.8871	1079.171	
273.15	1	1075.196	
283.15	0	1139.314	
283.15	.0504	1133.082	
283.15	.1002	1127.504	
283.15	.2002	1116.525	
283.15	.2984	1107.211	
283.15	.4005	1098.761	
283.15	.4954	1092.288	
283.15	.6957	1081.061	
283.15	.8871	1072.881	
283.15	1	1068.945	
293.15	0	1129.493	
293.15	.0504	1123.861	
293.15	.1002	1118.727	
293.15	.2002	1108.379	
293.15	.2984	1099.488	
293.15	.4005	1091.441	
293.15	.4954	1085.134	
293.15	.6957	1074.27	
293.15	.8871	1066.339	
293.15	1	1062.518	
298.15	0	1124.588	
298.15	.0504	1119.255	
298.15	.1002	1114.348	
298.15	.2002	1104.323	
298.15	.2984	1095.649	
298.15	.4005	1087.781	
298.15	.4954	1081.583	
298.15	.6957	1070.902	
298.15	.8871	1063.09	
298.15	1	1059.326	
303.15	0	1119.684	
303.15	.0504	1114.667	
303.15	.1002	1109.986	
303.15	.2002	1100.283	
303.15	.2984	1091.825	
303.15	.4005	1084.145	
303.15	.4954	1078.047	
303.15	.6957	1067.549	
303.15	.8871	1059.858	
303.15	1	1056.152	
313.15	0	1109.874	
313.15	.0504	1105.488	
313.15	.1002	1101.274	
313.15	.2002	1092.226	
313.15	.2984	1084.216	
313.15	.4005	1076.844	
313.15	.4954	1071.02	
313.15	.6957	1060.889	
313.15	.8871	1053.443	
313.15	1	1049.849	
323.15	0	1100.053	
323.15	.0504	1096.311	
323.15	.1002	1092.588	
323.15	.2002	1084.211	
323.15	.2984	1076.754	
323.15	.4005	1069.729	
323.15	.4954	1064.051	
323.15	.6957	1054.294	
323.15	.8871	1047.092	
323.15	1	1043.606	

System: .gamma.-butyrolactone + 1-butyl-3-methylimidazolium dicyanamide; phases: Liquid
Fixed: Pressure, kPa = 100
Property: Viscosity, Pa*s (Liquid); method: Capillary tube (Ostwald; Ubbelohde) method
Temperature, K	Mole fraction of 1-butyl-3-methylimidazolium dicyanamide	Viscosity, Pa*s	uncertainty
273.15	0	.00269	
273.15	.0504	.00361	
273.15	.1002	.00465	
273.15	.2002	.00769	
273.15	.2984	.01185	
273.15	.4005	.01781	
273.15	.4954	.02481	
273.15	.6957	.04575	
273.15	.8871	.07411	
273.15	1	.09568	
283.15	0	.00221	
283.15	.0504	.00294	
283.15	.1002	.00373	
283.15	.2002	.00587	
283.15	.2984	.00875	
283.15	.4005	.01254	
283.15	.4954	.0169	
283.15	.6957	.02914	
283.15	.8871	.04436	
283.15	1	.05527	
293.15	0	.00186	
293.15	.0504	.00242	
293.15	.1002	.00297	
293.15	.2002	.00453	
293.15	.2984	.00668	
293.15	.4005	.00931	
293.15	.4954	.01222	
293.15	.6957	.01995	
293.15	.8871	.02887	
293.15	1	.03504	
298.15	0	.00171	
298.15	.0504	.00222	
298.15	.1002	.00277	
298.15	.2002	.00416	
298.15	.2984	.00592	
298.15	.4005	.00818	
298.15	.4954	.01057	
298.15	.6957	.01681	
298.15	.8871	.02385	
298.15	1	.0285	
303.15	0	.00159	
303.15	.0504	.00203	
303.15	.1002	.0025	
303.15	.2002	.00381	
303.15	.2984	.00527	
303.15	.4005	.00714	
303.15	.4954	.00915	
303.15	.6957	.01423	
303.15	.8871	.01986	
303.15	1	.02352	
313.15	0	.00137	
313.15	.0504	.00174	
313.15	.1002	.00214	
313.15	.2002	.00314	
313.15	.2984	.00427	
313.15	.4005	.00564	
313.15	.4954	.00711	
313.15	.6957	.01069	
313.15	.8871	.01453	
313.15	1	.01695	
323.15	0	.0012	
323.15	.0504	.00152	
323.15	.1002	.00183	
323.15	.2002	.00263	
323.15	.2984	.00356	
323.15	.4005	.0046	
323.15	.4954	.0057	
323.15	.6957	.00838	
323.15	.8871	.01103	
323.15	1	.01265	
