Measured thermophysical data. Equilibrium solubility of CO2 in aqueous solutions of 1-amino-2-propanol as function of concentration, temperature, and pressure
Source: J. Chem. Thermodyn., 2011, 10.1016/j.jct.2010.12.008
Compound 1: 1-amino-2-propanol, C3H9NO, purity 99.7%
Compound 2: carbon dioxide, CO2, purity 99.5%
Compound 3: water, H2O

System: 1-amino-2-propanol + carbon dioxide + water; phases: Liquid, Gas
Property: Mole fraction of carbon dioxide (Liquid); method: Phase equilibration
Solvent: Mass fraction of 1-amino-2-propanol	Temperature, K	Partial pressure, kPa of carbon dioxide	Mole fraction of carbon dioxide	uncertainty
.2	313.15	.8	.027	.00108
.2	313.15	95	.036	.00144
.2	313.15	309.9	.041	.00164
.2	313.15	809.7	.047	.00188
.2	313.15	1388.8	.052	.00208
.2	313.15	2143.4	.059	.00236
.2	393.15	54	.019	.00076
.2	393.15	180.6	.024	.00096
.2	393.15	429.2	.028	.00112
.2	393.15	782.7	.031	.00124
.2	393.15	1172.7	.033	.00132
.2	393.15	1625.6	.035	.0014
.2	393.15	1958.5	.036	.00144
.2	393.15	2262.4	.036	.00144
.3	313.15	2.1	.045	.0018
.3	313.15	140.1	.057	.00228
.3	313.15	423.5	.064	.00256
.3	313.15	825.6	.07	.0028
.3	313.15	1268.3	.074	.00296
.3	313.15	1777.7	.078	.00312
.3	313.15	2251.6	.081	.00324
.3	393.15	28.7	.023	.00092
.3	393.15	120.2	.033	.00132
.3	393.15	288.4	.039	.00156
.3	393.15	499.4	.043	.00172
.3	393.15	838	.045	.0018
.3	393.15	1134.3	.047	.00188
.3	393.15	1470.8	.049	.00196
.3	393.15	1980.6	.05	.002
.3	393.15	2348.9	.051	.00204
.4	313.15	.9	.039	.00156
.4	313.15	3.4	.054	.00216
.4	313.15	74.6	.07	.0028
.4	313.15	301	.08	.0032
.4	313.15	630.7	.086	.00344
.4	313.15	1152.8	.092	.00368
.4	313.15	1694.4	.097	.00388
.4	313.15	2118.7	.101	.00404
.4	393.15	24.3	.028	.00112
.4	393.15	107.9	.047	.00188
.4	393.15	245	.054	.00216
.4	393.15	567.7	.06	.0024
.4	393.15	944	.064	.00256
.4	393.15	1411.1	.067	.00268
.4	393.15	1857.9	.069	.00276
.4	393.15	2325.7	.071	.00284
.5	313.15	.2	.073	.00292
.5	313.15	14.7	.09	.0036
.5	313.15	174.2	.102	.00408
.5	313.15	670.5	.112	.00448
.5	313.15	1104.1	.119	.00476
.5	313.15	1490.3	.123	.00492
.5	313.15	1812.9	.127	.00508
.5	313.15	2255.3	.13	.0052
.5	393.15	33.4	.039	.00156
.5	393.15	95.2	.056	.00224
.5	393.15	220.8	.07	.0028
.5	393.15	616.6	.08	.0032
.5	393.15	1035.5	.085	.0034
.5	393.15	1627.4	.089	.00356
.5	393.15	1958.8	.09	.0036
.5	393.15	2436.4	.092	.00368
