Measured thermophysical data. Experimental density, viscosity, interfacial tension and water solubility of ethyl benzene - a-methyl benzyl alcohol - water system
Source: J. Chem. Thermodyn., 2013, 10.1016/j.jct.2013.03.023
Compound 1: ethylbenzene, C8H10, purity 99%
Compound 2: .alpha.-methylbenzyl alcohol, C8H10O, purity 99%
Compound 3: water, H2O

System: ethylbenzene; phases: Liquid
Fixed: Pressure, kPa = 101.325
Property: Mass density, kg/m3 (Liquid); method: Vibrating tube method
Temperature, K	Mass density, kg/m3	uncertainty
298.15	862.51	.5
303.15	858.1	.5
308.15	853.68	.5
313.15	849.26	.5

System: ethylbenzene; phases: Liquid
Fixed: Pressure, kPa = 101.325
Property: Viscosity, Pa*s (Liquid); method: Capillary tube (Ostwald; Ubbelohde) method
Temperature, K	Viscosity, Pa*s	uncertainty
298.15	.0006378	.000006378
303.15	.000609	.00000609
308.15	.0005682	.000005682
313.15	.000541	.00000541

System: .alpha.-methylbenzyl alcohol; phases: Liquid
Fixed: Pressure, kPa = 101.325
Property: Mass density, kg/m3 (Liquid); method: Vibrating tube method
Temperature, K	Mass density, kg/m3	uncertainty
298.15	1009	.5
303.15	1004.86	.5
308.15	1000.73	.5
313.15	996.58	.5

System: .alpha.-methylbenzyl alcohol; phases: Liquid
Fixed: Pressure, kPa = 101.325
Property: Viscosity, Pa*s (Liquid); method: Capillary tube (Ostwald; Ubbelohde) method
Temperature, K	Viscosity, Pa*s	uncertainty
298.15	.008703	.00008703
303.15	.006981	.00006981
308.15	.005714	.00005714
313.15	.004748	.00004748

System: water; phases: Liquid
Fixed: Pressure, kPa = 101.325
Property: Mass density, kg/m3 (Liquid); method: Vibrating tube method
Temperature, K	Mass density, kg/m3	uncertainty
298.15	997.04	.5

System: water; phases: Liquid
Fixed: Pressure, kPa = 101.325
Property: Viscosity, Pa*s (Liquid); method: Capillary tube (Ostwald; Ubbelohde) method
Temperature, K	Viscosity, Pa*s	uncertainty
298.15	.000891	.00000891

System: .alpha.-methylbenzyl alcohol + ethylbenzene + water; phases: Liquid mixture 1, Liquid mixture 2
Fixed: Pressure, kPa = 100
Property: Mass fraction of water (Liquid mixture 1); method: Titration method
Solvent: Mole fraction of .alpha.-methylbenzyl alcohol	Temperature, K	Mass fraction of water	uncertainty
.1014	298.15	.0021	.005
.2025	298.15	.0047	.005
.3334	298.15	.0093	.005
.4037	298.15	.0125	.005
.5039	298.15	.0189	.005
.6535	298.15	.0284	.005
.8025	298.15	.0464	.005
.1014	313.15	.0024	.005
.2025	313.15	.0054	.005
.3334	313.15	.0103	.005
.4037	313.15	.014	.005
.5039	313.15	.0199	.005
.6535	313.15	.0309	.005
.8025	313.15	.0487	.005

System: .alpha.-methylbenzyl alcohol + ethylbenzene + water; phases: Liquid
Fixed: Pressure, kPa = 100
Property: Mass density, kg/m3 (Liquid); method: Vibrating tube method
Temperature, K	Mole fraction of .alpha.-methylbenzyl alcohol	Mole fraction of ethylbenzene	Mass density, kg/m3	uncertainty
298.15	0	1	862.5	.5
298.15	0	.9967	863.3	.5
298.15	.1001	.8874	875.8	.5
298.15	.1969	.7755	890.4	.5
298.15	.3151	.6299	910.4	.5
298.15	.3742	.5527	919.9	.5
298.15	.4399	.4513	936.7	.5
298.15	.5496	.2914	958.1	.5
298.15	.6072	.1495	981	.5
298.15	.6557	0	1009.5	.5
298.15	1	0	1009	.5
303.15	0	1	858.1	.5
303.15	0	.9967	858.9	.5
303.15	.1001	.8874	871.4	.5
303.15	.1969	.7755	886	.5
303.15	.3151	.6299	906	.5
303.15	.3742	.5527	915.6	.5
303.15	.4399	.4513	932.4	.5
303.15	.5496	.2914	953.9	.5
303.15	.6072	.1495	976.8	.5
303.15	.6557	0	1005.4	.5
303.15	1	0	1004.9	.5
308.15	0	1	853.7	.5
308.15	0	.9967	854.5	.5
308.15	.1001	.8874	867	.5
308.15	.1969	.7755	881.5	.5
308.15	.3151	.6299	901.6	.5
308.15	.3742	.5527	911.2	.5
308.15	.4399	.4513	928.1	.5
308.15	.5496	.2914	949.6	.5
308.15	.6072	.1495	972.6	.5
308.15	.6557	0	1001.1	.5
308.15	1	0	1000.7	.5
313.15	0	1	849.3	.5
313.15	0	.9967	849.7	.5
313.15	.1001	.8874	862.4	.5
313.15	.1969	.7755	877.1	.5
313.15	.3151	.6299	897.2	.5
313.15	.3742	.5527	907	.5
313.15	.4399	.4513	923.8	.5
313.15	.5496	.2914	945.4	.5
313.15	.6072	.1495	968.4	.5
313.15	.6557	0	997.13	.5
313.15	1	0	996.7	.5

System: .alpha.-methylbenzyl alcohol + ethylbenzene + water; phases: Liquid
Fixed: Pressure, kPa = 100
Property: Viscosity, Pa*s (Liquid); method: Capillary tube (Ostwald; Ubbelohde) method
Mole fraction of .alpha.-methylbenzyl alcohol	Mole fraction of ethylbenzene	Temperature, K	Viscosity, Pa*s	uncertainty
0	1	298.15	.000638	.00000638
0	.9967	298.15	.000614	.00000614
.1001	.8874	298.15	.000723	.00000723
.1969	.7755	298.15	.000847	.00000847
.3151	.6299	298.15	.001195	.00001195
.3742	.5527	298.15	.001335	.00001335
.4399	.4513	298.15	.001726	.00001726
.5496	.2914	298.15	.002565	.00002565
.6072	.1495	298.15	.004073	.00004073
.6557	0	298.15	.007561	.00007561
1	0	298.15	.008703	.00008703
0	1	303.15	.000609	.00000609
0	.9967	303.15	.000581	.00000581
.1001	.8874	303.15	.000678	.00000678
.1969	.7755	303.15	.000782	.00000782
.3151	.6299	303.15	.001088	.00001088
.3742	.5527	303.15	.001213	.00001213
.4399	.4513	303.15	.001544	.00001544
.5496	.2914	303.15	.002246	.00002246
.6072	.1495	303.15	.003462	.00003462
.6557	0	303.15	.006122	.00006122
1	0	303.15	.006981	.00006981
0	1	308.15	.000568	.00000568
0	.9967	308.15	.000549	.00000549
.1001	.8874	308.15	.000636	.00000636
.1969	.7755	308.15	.000727	.00000727
.3151	.6299	308.15	.000998	.00000998
.3742	.5527	308.15	.001099	.00001099
.4399	.4513	308.15	.001396	.00001396
.5496	.2914	308.15	.001976	.00001976
.6072	.1495	308.15	.00297	.0000297
.6557	0	308.15	.005052	.00005052
1	0	308.15	.005714	.00005714
0	1	313.15	.000541	.00000541
0	.9967	313.15	.000521	.00000521
.1001	.8874	313.15	.000598	.00000598
.1969	.7755	313.15	.000678	.00000678
.3151	.6299	313.15	.000919	.00000919
.3742	.5527	313.15	.001013	.00001013
.4399	.4513	313.15	.00126	.0000126
.5496	.2914	313.15	.001752	.00001752
.6072	.1495	313.15	.00258	.0000258
.6557	0	313.15	.004228	.00004228
1	0	313.15	.004748	.00004748

System: .alpha.-methylbenzyl alcohol + ethylbenzene + water; phases: Liquid mixture 1, Liquid mixture 2
Property: Interfacial tension, N/m (Liquid mixture 1); method: Ring tensiometer
Temperature, K	Mole fraction of .alpha.-methylbenzyl alcohol	Mole fraction of ethylbenzene	Interfacial tension, N/m	uncertainty
298.15	0	.9967	.0346	.0002
298.15	.0503	.9426	.0224	.0002
298.15	.1001	.8874	.0167	.0002
298.15	.1969	.7755	.0138	.0002
298.15	.3151	.6299	.0117	.0002
298.15	.3742	.5527	.0106	.0002
298.15	.4399	.4513	.0098	.0002
313.15	0	.9967	.0307	.0002
313.15	.0503	.9426	.0197	.0002
313.15	.1001	.8874	.0161	.0002
313.15	.1969	.7755	.0134	.0002
313.15	.3151	.6299	.0114	.0002
313.15	.3742	.5527	.0104	.0002
313.15	.4399	.4513	.0092	.0002
