Measured thermophysical data. Interactions of volatile organic compounds with the ionic liquid 1-ethyl-3-methylimidazolium tetracyanoborate
Source: J. Chem. Thermodyn., 2012, 10.1016/j.jct.2011.09.028
Compound 1: 1-ethyl-3-methylimidazolium tetracyanoborate, C10H11BN6, purity 99%
Compound 2: heptane, C7H16, purity 98%
Compound 3: n-octane, C8H18, purity 98%
Compound 4: 1-octene, C8H16, purity 98%
Compound 5: cyclohexane, C6H12, purity 98%
Compound 6: cyclohexane, methyl-, C7H14, purity 98%
Compound 7: cyclohexane, ethyl-, C8H16, purity 98%
Compound 8: benzene, C6H6, purity 98%
Compound 9: toluene, C7H8, purity 98%
Compound 10: ethylbenzene, C8H10, purity 98%
Compound 11: 1,3-xylene, C8H10, purity 98%
Compound 12: methanol, CH4O, purity 98%
Compound 13: ethanol, C2H6O, purity 98%
Compound 14: propyl alcohol, C3H8O, purity 98%
Compound 15: 2-propanol, C3H8O, purity 98%
Compound 16: 1,2-ethanediol, dimethyl ether, C4H10O2, purity 98%
Compound 17: isopropyl ether, C6H14O, purity 98%
Compound 18: methyl tert-butyl ether, C5H12O, purity 98%
Compound 19: oxacyclopentane, C4H8O, purity 98%
Compound 20: methyl ethanoate, C3H6O2, purity 98%
Compound 21: ethyl ethanoate, C4H8O2, purity 98%
Compound 22: acetone, C3H6O, purity 98%
Compound 23: butanone, C4H8O, purity 98%
Compound 24: dimethyl carbonate, C3H6O3, purity 98%
Compound 25: dichloromethane, CH2Cl2, purity 98%
Compound 26: freon 20, CHCl3, purity 98%
Compound 27: halothane, C2HBrClF3, purity 98%
Compound 28: carbon tetrachloride, CCl4, purity 98%
Compound 29: NM(nitromethane), CH3NO2, purity 98%
Compound 30: ethanonitrile, C2H3N, purity 98%
Compound 31: thiophene, C4H4S, purity 98%

System: 1-ethyl-3-methylimidazolium tetracyanoborate; phases: Liquid
Fixed: Pressure, kPa = 101.325
Property: Mass density, kg/m3 (Liquid); method: Vibrating tube method
Temperature, K	Mass density, kg/m3	uncertainty
288.15	1044.44	.005
293.15	1040.43	.005
298.15	1036.44	.005
303.15	1032.47	.005
308.15	1028.54	.005
313.15	1024.64	.005
318.15	1020.76	.005

System: heptane + 1-ethyl-3-methylimidazolium tetracyanoborate; phases: Liquid
Fixed: Pressure, kPa = 101
Fixed: Mole fraction of 1-ethyl-3-methylimidazolium tetracyanoborate = 0
Property: Activity coefficient of 1-ethyl-3-methylimidazolium tetracyanoborate (Liquid); method: Chromatography
Temperature, K	Activity coefficient of 1-ethyl-3-methylimidazolium tetracyanoborate	uncertainty
318.15	42.4	.848
323.15	40.7	.814
333.15	37.5	.75
343.15	34.8	.696
353.15	32.3	.646

System: n-octane + 1-ethyl-3-methylimidazolium tetracyanoborate; phases: Liquid
Fixed: Pressure, kPa = 101
Fixed: Mole fraction of 1-ethyl-3-methylimidazolium tetracyanoborate = 0
Property: Activity coefficient of 1-ethyl-3-methylimidazolium tetracyanoborate (Liquid); method: Chromatography
Temperature, K	Activity coefficient of 1-ethyl-3-methylimidazolium tetracyanoborate	uncertainty
318.15	64.2	1.284
323.15	61.2	1.224
333.15	55.8	1.116
343.15	51	1.02
353.15	47	.94

System: 1-octene + 1-ethyl-3-methylimidazolium tetracyanoborate; phases: Liquid
Fixed: Pressure, kPa = 101
Fixed: Mole fraction of 1-ethyl-3-methylimidazolium tetracyanoborate = 0
Property: Activity coefficient of 1-ethyl-3-methylimidazolium tetracyanoborate (Liquid); method: Chromatography
Temperature, K	Activity coefficient of 1-ethyl-3-methylimidazolium tetracyanoborate	uncertainty
318.15	28.8	.576
323.15	27.8	.556
333.15	26.1	.522
343.15	24.6	.492
353.15	23.3	.466

System: cyclohexane + 1-ethyl-3-methylimidazolium tetracyanoborate; phases: Liquid
Fixed: Pressure, kPa = 101
Fixed: Mole fraction of 1-ethyl-3-methylimidazolium tetracyanoborate = 0
Property: Activity coefficient of 1-ethyl-3-methylimidazolium tetracyanoborate (Liquid); method: Chromatography
Temperature, K	Activity coefficient of 1-ethyl-3-methylimidazolium tetracyanoborate	uncertainty
318.15	13.8	.276
323.15	13.4	.268
333.15	12.5	.25
343.15	11.8	.236
353.15	11.1	.222

System: cyclohexane, methyl- + 1-ethyl-3-methylimidazolium tetracyanoborate; phases: Liquid
Fixed: Pressure, kPa = 101
Fixed: Mole fraction of 1-ethyl-3-methylimidazolium tetracyanoborate = 0
Property: Activity coefficient of 1-ethyl-3-methylimidazolium tetracyanoborate (Liquid); method: Chromatography
Temperature, K	Activity coefficient of 1-ethyl-3-methylimidazolium tetracyanoborate	uncertainty
318.15	20.4	.408
323.15	19.7	.394
333.15	18.4	.368
343.15	17.2	.344
353.15	16.3	.326

System: cyclohexane, ethyl- + 1-ethyl-3-methylimidazolium tetracyanoborate; phases: Liquid
Fixed: Pressure, kPa = 101
Fixed: Mole fraction of 1-ethyl-3-methylimidazolium tetracyanoborate = 0
Property: Activity coefficient of 1-ethyl-3-methylimidazolium tetracyanoborate (Liquid); method: Chromatography
Temperature, K	Activity coefficient of 1-ethyl-3-methylimidazolium tetracyanoborate	uncertainty
318.15	318.15	6.363
323.15	323.15	6.463
333.15	333.15	6.663
343.15	343.15	6.863
353.15	353.15	7.063

System: benzene + 1-ethyl-3-methylimidazolium tetracyanoborate; phases: Liquid
Fixed: Pressure, kPa = 101
Fixed: Mole fraction of 1-ethyl-3-methylimidazolium tetracyanoborate = 0
Property: Activity coefficient of 1-ethyl-3-methylimidazolium tetracyanoborate (Liquid); method: Chromatography
Temperature, K	Activity coefficient of 1-ethyl-3-methylimidazolium tetracyanoborate	uncertainty
318.15	1.15	.023
323.15	1.15	.023
333.15	1.17	.0234
343.15	1.18	.0236
353.15	1.19	.0238

System: toluene + 1-ethyl-3-methylimidazolium tetracyanoborate; phases: Liquid
Fixed: Pressure, kPa = 101
Fixed: Mole fraction of 1-ethyl-3-methylimidazolium tetracyanoborate = 0
Property: Activity coefficient of 1-ethyl-3-methylimidazolium tetracyanoborate (Liquid); method: Chromatography
Temperature, K	Activity coefficient of 1-ethyl-3-methylimidazolium tetracyanoborate	uncertainty
318.15	1.68	.0336
323.15	1.69	.0338
333.15	1.71	.0342
343.15	1.72	.0344
353.15	1.74	.0348

System: ethylbenzene + 1-ethyl-3-methylimidazolium tetracyanoborate; phases: Liquid
Fixed: Pressure, kPa = 101
Fixed: Mole fraction of 1-ethyl-3-methylimidazolium tetracyanoborate = 0
Property: Activity coefficient of 1-ethyl-3-methylimidazolium tetracyanoborate (Liquid); method: Chromatography
Temperature, K	Activity coefficient of 1-ethyl-3-methylimidazolium tetracyanoborate	uncertainty
318.15	2.62	.0524
323.15	2.61	.0522
333.15	2.61	.0522
343.15	2.61	.0522
353.15	2.61	.0522

System: 1,3-xylene + 1-ethyl-3-methylimidazolium tetracyanoborate; phases: Liquid
Fixed: Pressure, kPa = 101
Fixed: Mole fraction of 1-ethyl-3-methylimidazolium tetracyanoborate = 0
Property: Activity coefficient of 1-ethyl-3-methylimidazolium tetracyanoborate (Liquid); method: Chromatography
Temperature, K	Activity coefficient of 1-ethyl-3-methylimidazolium tetracyanoborate	uncertainty
318.15	2.62	.0524
323.15	2.62	.0524
333.15	2.63	.0526
343.15	2.63	.0526
353.15	2.64	.0528

System: methanol + 1-ethyl-3-methylimidazolium tetracyanoborate; phases: Liquid
Fixed: Pressure, kPa = 101
Fixed: Mole fraction of 1-ethyl-3-methylimidazolium tetracyanoborate = 0
Property: Activity coefficient of 1-ethyl-3-methylimidazolium tetracyanoborate (Liquid); method: Chromatography
Temperature, K	Activity coefficient of 1-ethyl-3-methylimidazolium tetracyanoborate	uncertainty
318.15	.917	.01834
323.15	.89	.0178
333.15	.84	.0168
343.15	.795	.0159
353.15	.755	.0151

System: ethanol + 1-ethyl-3-methylimidazolium tetracyanoborate; phases: Liquid
Fixed: Pressure, kPa = 101
Fixed: Mole fraction of 1-ethyl-3-methylimidazolium tetracyanoborate = 0
Property: Activity coefficient of 1-ethyl-3-methylimidazolium tetracyanoborate (Liquid); method: Chromatography
Temperature, K	Activity coefficient of 1-ethyl-3-methylimidazolium tetracyanoborate	uncertainty
318.15	1.3	.026
323.15	1.25	.025
333.15	1.15	.023
343.15	1.07	.0214
353.15	1	.02

System: propyl alcohol + 1-ethyl-3-methylimidazolium tetracyanoborate; phases: Liquid
Fixed: Pressure, kPa = 101
Fixed: Mole fraction of 1-ethyl-3-methylimidazolium tetracyanoborate = 0
Property: Activity coefficient of 1-ethyl-3-methylimidazolium tetracyanoborate (Liquid); method: Chromatography
Temperature, K	Activity coefficient of 1-ethyl-3-methylimidazolium tetracyanoborate	uncertainty
318.15	1.62	.0324
323.15	1.55	.031
333.15	1.42	.0284
343.15	1.31	.0262
353.15	1.22	.0244

System: 2-propanol + 1-ethyl-3-methylimidazolium tetracyanoborate; phases: Liquid
Fixed: Pressure, kPa = 101
Fixed: Mole fraction of 1-ethyl-3-methylimidazolium tetracyanoborate = 0
Property: Activity coefficient of 1-ethyl-3-methylimidazolium tetracyanoborate (Liquid); method: Chromatography
Temperature, K	Activity coefficient of 1-ethyl-3-methylimidazolium tetracyanoborate	uncertainty
318.15	1.63	.0326
323.15	1.56	.0312
333.15	1.43	.0286
343.15	1.32	.0264
353.15	1.23	.0246

System: 1,2-ethanediol, dimethyl ether + 1-ethyl-3-methylimidazolium tetracyanoborate; phases: Liquid
Fixed: Pressure, kPa = 101
Fixed: Mole fraction of 1-ethyl-3-methylimidazolium tetracyanoborate = 0
Property: Activity coefficient of 1-ethyl-3-methylimidazolium tetracyanoborate (Liquid); method: Chromatography
Temperature, K	Activity coefficient of 1-ethyl-3-methylimidazolium tetracyanoborate	uncertainty
318.15	.452	.00904
323.15	.47	.0094
333.15	.505	.0101
343.15	.539	.01078
353.15	.574	.01148

System: isopropyl ether + 1-ethyl-3-methylimidazolium tetracyanoborate; phases: Liquid
Fixed: Pressure, kPa = 101
Fixed: Mole fraction of 1-ethyl-3-methylimidazolium tetracyanoborate = 0
Property: Activity coefficient of 1-ethyl-3-methylimidazolium tetracyanoborate (Liquid); method: Chromatography
Temperature, K	Activity coefficient of 1-ethyl-3-methylimidazolium tetracyanoborate	uncertainty
318.15	7.07	.1414
323.15	7.08	.1416
333.15	7.1	.142
343.15	7.11	.1422
353.15	7.13	.1426

System: methyl tert-butyl ether + 1-ethyl-3-methylimidazolium tetracyanoborate; phases: Liquid
Fixed: Pressure, kPa = 101
Fixed: Mole fraction of 1-ethyl-3-methylimidazolium tetracyanoborate = 0
Property: Activity coefficient of 1-ethyl-3-methylimidazolium tetracyanoborate (Liquid); method: Chromatography
Temperature, K	Activity coefficient of 1-ethyl-3-methylimidazolium tetracyanoborate	uncertainty
318.15	2.77	.0554
323.15	2.8	.056
333.15	2.85	.057
343.15	2.9	.058
353.15	2.95	.059

System: oxacyclopentane + 1-ethyl-3-methylimidazolium tetracyanoborate; phases: Liquid
Fixed: Pressure, kPa = 101
Fixed: Mole fraction of 1-ethyl-3-methylimidazolium tetracyanoborate = 0
Property: Activity coefficient of 1-ethyl-3-methylimidazolium tetracyanoborate (Liquid); method: Chromatography
Temperature, K	Activity coefficient of 1-ethyl-3-methylimidazolium tetracyanoborate	uncertainty
318.15	.699	.01398
323.15	.709	.01418
333.15	.727	.01454
343.15	.744	.01488
353.15	.761	.01522

System: methyl ethanoate + 1-ethyl-3-methylimidazolium tetracyanoborate; phases: Liquid
Fixed: Pressure, kPa = 101
Fixed: Mole fraction of 1-ethyl-3-methylimidazolium tetracyanoborate = 0
Property: Activity coefficient of 1-ethyl-3-methylimidazolium tetracyanoborate (Liquid); method: Chromatography
Temperature, K	Activity coefficient of 1-ethyl-3-methylimidazolium tetracyanoborate	uncertainty
318.15	.653	.01306
323.15	.662	.01324
333.15	.682	.01364
343.15	.7	.014
353.15	.723	.01446

System: ethyl ethanoate + 1-ethyl-3-methylimidazolium tetracyanoborate; phases: Liquid
Fixed: Pressure, kPa = 101
Fixed: Mole fraction of 1-ethyl-3-methylimidazolium tetracyanoborate = 0
Property: Activity coefficient of 1-ethyl-3-methylimidazolium tetracyanoborate (Liquid); method: Chromatography
Temperature, K	Activity coefficient of 1-ethyl-3-methylimidazolium tetracyanoborate	uncertainty
318.15	.989	.01978
323.15	1	.02
333.15	1.02	.0204
343.15	1.04	.0208
353.15	1.06	.0212

System: acetone + 1-ethyl-3-methylimidazolium tetracyanoborate; phases: Liquid
Fixed: Pressure, kPa = 101
Fixed: Mole fraction of 1-ethyl-3-methylimidazolium tetracyanoborate = 0
Property: Activity coefficient of 1-ethyl-3-methylimidazolium tetracyanoborate (Liquid); method: Chromatography
Temperature, K	Activity coefficient of 1-ethyl-3-methylimidazolium tetracyanoborate	uncertainty
318.15	.437	.00874
323.15	.443	.00886
333.15	.454	.00908
343.15	.466	.00932
353.15	.479	.00958

System: butanone + 1-ethyl-3-methylimidazolium tetracyanoborate; phases: Liquid
Fixed: Pressure, kPa = 101
Fixed: Mole fraction of 1-ethyl-3-methylimidazolium tetracyanoborate = 0
Property: Activity coefficient of 1-ethyl-3-methylimidazolium tetracyanoborate (Liquid); method: Chromatography
Temperature, K	Activity coefficient of 1-ethyl-3-methylimidazolium tetracyanoborate	uncertainty
318.15	.577	.01154
323.15	.584	.01168
333.15	.605	.0121
343.15	.611	.01222
353.15	.626	.01252

System: dimethyl carbonate + 1-ethyl-3-methylimidazolium tetracyanoborate; phases: Liquid
Fixed: Pressure, kPa = 101
Fixed: Mole fraction of 1-ethyl-3-methylimidazolium tetracyanoborate = 0
Property: Activity coefficient of 1-ethyl-3-methylimidazolium tetracyanoborate (Liquid); method: Chromatography
Temperature, K	Activity coefficient of 1-ethyl-3-methylimidazolium tetracyanoborate	uncertainty
318.15	.528	.01056
323.15	.535	.0107
333.15	.549	.01098
343.15	.563	.01126
353.15	.576	.01152

System: dichloromethane + 1-ethyl-3-methylimidazolium tetracyanoborate; phases: Liquid
Fixed: Pressure, kPa = 101
Fixed: Mole fraction of 1-ethyl-3-methylimidazolium tetracyanoborate = 0
Property: Activity coefficient of 1-ethyl-3-methylimidazolium tetracyanoborate (Liquid); method: Chromatography
Temperature, K	Activity coefficient of 1-ethyl-3-methylimidazolium tetracyanoborate	uncertainty
318.15	.656	.01312
323.15	.665	.0133
333.15	.682	.01364
343.15	.698	.01396
353.15	.714	.01428

System: freon 20 + 1-ethyl-3-methylimidazolium tetracyanoborate; phases: Liquid
Fixed: Pressure, kPa = 101
Fixed: Mole fraction of 1-ethyl-3-methylimidazolium tetracyanoborate = 0
Property: Activity coefficient of 1-ethyl-3-methylimidazolium tetracyanoborate (Liquid); method: Chromatography
Temperature, K	Activity coefficient of 1-ethyl-3-methylimidazolium tetracyanoborate	uncertainty
318.15	.812	.01624
323.15	.829	.01658
333.15	.863	.01726
343.15	.895	.0179
353.15	.926	.01852

System: halothane + 1-ethyl-3-methylimidazolium tetracyanoborate; phases: Liquid
Fixed: Pressure, kPa = 101
Fixed: Mole fraction of 1-ethyl-3-methylimidazolium tetracyanoborate = 0
Property: Activity coefficient of 1-ethyl-3-methylimidazolium tetracyanoborate (Liquid); method: Chromatography
Temperature, K	Activity coefficient of 1-ethyl-3-methylimidazolium tetracyanoborate	uncertainty
318.15	1.16	.0232
323.15	1.19	.0238
333.15	1.28	.0256
343.15	1.34	.0268
353.15	1.41	.0282

System: carbon tetrachloride + 1-ethyl-3-methylimidazolium tetracyanoborate; phases: Liquid
Fixed: Pressure, kPa = 101
Fixed: Mole fraction of 1-ethyl-3-methylimidazolium tetracyanoborate = 0
Property: Activity coefficient of 1-ethyl-3-methylimidazolium tetracyanoborate (Liquid); method: Chromatography
Temperature, K	Activity coefficient of 1-ethyl-3-methylimidazolium tetracyanoborate	uncertainty
318.15	3.56	.0712
323.15	3.56	.0712
333.15	3.55	.071
343.15	3.54	.0708
353.15	3.53	.0706

System: NM(nitromethane) + 1-ethyl-3-methylimidazolium tetracyanoborate; phases: Liquid
Fixed: Pressure, kPa = 101
Fixed: Mole fraction of 1-ethyl-3-methylimidazolium tetracyanoborate = 0
Property: Activity coefficient of 1-ethyl-3-methylimidazolium tetracyanoborate (Liquid); method: Chromatography
Temperature, K	Activity coefficient of 1-ethyl-3-methylimidazolium tetracyanoborate	uncertainty
318.15	.419	.00838
323.15	.421	.00842
333.15	.423	.00846
343.15	.426	.00852
353.15	.429	.00858

System: ethanonitrile + 1-ethyl-3-methylimidazolium tetracyanoborate; phases: Liquid
Fixed: Pressure, kPa = 101
Fixed: Mole fraction of 1-ethyl-3-methylimidazolium tetracyanoborate = 0
Property: Activity coefficient of 1-ethyl-3-methylimidazolium tetracyanoborate (Liquid); method: Chromatography
Temperature, K	Activity coefficient of 1-ethyl-3-methylimidazolium tetracyanoborate	uncertainty
318.15	.428	.00856
323.15	.43	.0086
333.15	.43	.0086
343.15	.431	.00862
353.15	.432	.00864

System: thiophene + 1-ethyl-3-methylimidazolium tetracyanoborate; phases: Liquid
Fixed: Pressure, kPa = 101
Fixed: Mole fraction of 1-ethyl-3-methylimidazolium tetracyanoborate = 0
Property: Activity coefficient of 1-ethyl-3-methylimidazolium tetracyanoborate (Liquid); method: Chromatography
Temperature, K	Activity coefficient of 1-ethyl-3-methylimidazolium tetracyanoborate	uncertainty
318.15	.942	.01884
323.15	.947	.01894
333.15	.957	.01914
343.15	.967	.01934
353.15	.978	.01956
