Measured thermophysical data. Thermodynamic behavior of thiophene with octane, 1-hexyl-3-methylimidazolium bromide, or 1-octyl-3-methylimidazolium bromide in dilute region at T = (288.15 to 303.15) K
Source: J. Chem. Thermodyn., 2016, 10.1016/j.jct.2015.12.031
Compound 1: thiophene, C4H4S, purity 99.5%
Compound 2: octane, C8H18, purity 95%
Compound 3: 1-hexyl-3-methylimidazolium bromide, C10H19BrN2
Compound 4: 1-octyl-3-methylimidazolium bromide, C12H23BrN2

System: thiophene; phases: Liquid
Fixed: Pressure, kPa = 101.325
Property: Mass density, kg/m3 (Liquid); method: Vibrating tube method
Temperature, K	Mass density, kg/m3	uncertainty
298.15	1058.556	3.5

System: thiophene; phases: Liquid
Fixed: Pressure, kPa = 101.325
Property: Refractive index (Na D-line) (Liquid); method: Standard Abbe refractometry
Temperature, K	Refractive index (Na D-line)	uncertainty
298.15	1.5252	

System: thiophene; phases: Liquid
Fixed: Pressure, kPa = 101.325
Property: Speed of sound, m/s (Liquid); method: Sing-around technique in a fixed-path interferometer
Temperature, K	Speed of sound, m/s	uncertainty
298.15	1278.95	
303.15	1258.65	

System: octane; phases: Liquid
Property: Mass density, kg/m3 (Liquid); method: Vibrating tube method
Temperature, K	Pressure, kPa	Mass density, kg/m3	uncertainty
288.15	86.5	706.994	
293.15	86.5	702.995	
298.15	86.5	698.923	
303.15	86.5	694.878	

System: octane; phases: Liquid
Fixed: Frequency, MHz = 3
Property: Speed of sound, m/s (Liquid); method: Sing-around technique in a fixed-path interferometer
Temperature, K	Pressure, kPa	Speed of sound, m/s	uncertainty
288.15	86.5	1214.46	
293.15	86.5	1193.32	
298.15	86.5	1172.41	
303.15	86.5	1151.48	

System: octane; phases: Liquid
Property: Refractive index (Na D-line) (Liquid); method: Standard Abbe refractometry
Temperature, K	Pressure, kPa	Refractive index (Na D-line)	uncertainty
288.15	86.5	1.3998	
293.15	86.5	1.3973	
298.15	86.5	1.3949	
303.15	86.5	1.3924	

System: 1-hexyl-3-methylimidazolium bromide; phases: Liquid
Property: Mass density, kg/m3 (Liquid); method: Vibrating tube method
Temperature, K	Pressure, kPa	Mass density, kg/m3	uncertainty
288.15	86.5	1231.021	
293.15	86.5	1227.428	
298.15	86.5	1223.74	
303.15	86.5	1220.35	

System: 1-hexyl-3-methylimidazolium bromide; phases: Liquid
Fixed: Frequency, MHz = 3
Property: Speed of sound, m/s (Liquid); method: Sing-around technique in a fixed-path interferometer
Temperature, K	Pressure, kPa	Speed of sound, m/s	uncertainty
288.15	86.5	1639.38	
293.15	86.5	1610.37	
298.15	86.5	1587.09	
303.15	86.5	1568.67	

System: 1-hexyl-3-methylimidazolium bromide; phases: Liquid
Property: Refractive index (Na D-line) (Liquid); method: Standard Abbe refractometry
Temperature, K	Pressure, kPa	Refractive index (Na D-line)	uncertainty
288.15	86.5	1.5282	
293.15	86.5	1.5268	
298.15	86.5	1.5254	
303.15	86.5	1.5237	

System: 1-octyl-3-methylimidazolium bromide; phases: Liquid
Property: Mass density, kg/m3 (Liquid); method: Vibrating tube method
Temperature, K	Pressure, kPa	Mass density, kg/m3	uncertainty
288.15	86.5	1179.372	
293.15	86.5	1176.168	
298.15	86.5	1172.983	
303.15	86.5	1169.857	

System: 1-octyl-3-methylimidazolium bromide; phases: Liquid
Fixed: Frequency, MHz = 3
Property: Speed of sound, m/s (Liquid); method: Sing-around technique in a fixed-path interferometer
Temperature, K	Pressure, kPa	Speed of sound, m/s	uncertainty
288.15	86.5	1605.17	
293.15	86.5	1581.92	
298.15	86.5	1561.93	
303.15	86.5	1542.75	

System: 1-octyl-3-methylimidazolium bromide; phases: Liquid
Property: Refractive index (Na D-line) (Liquid); method: Standard Abbe refractometry
Temperature, K	Pressure, kPa	Refractive index (Na D-line)	uncertainty
288.15	86.5	1.525	
293.15	86.5	1.5236	
298.15	86.5	1.5221	
303.15	86.5	1.5206	

System: thiophene + octane; phases: Liquid
Fixed: Pressure, kPa = 86.5
Property: Mass density, kg/m3 (Liquid); method: Vibrating tube method
Temperature, K	Molality, mol/kg of thiophene	Mass density, kg/m3	uncertainty
288.15	0	706.994	
288.15	.0158	707.297	
288.15	.0275	707.523	
288.15	.0517	707.987	
288.15	.0847	708.616	
288.15	.0952	708.817	
288.15	.1081	709.062	
288.15	.1182	709.253	
288.15	.1353	709.577	
288.15	.1494	709.844	
288.15	.1577	710	
288.15	.1729	710.288	
288.15	.1797	710.414	
288.15	.1932	710.67	
288.15	.2031	710.855	
288.15	.3004	712.662	
288.15	.4002	714.496	
288.15	.5026	716.351	
288.15	.5823	717.77	
293.15	0	702.995	
293.15	.0158	703.296	
293.15	.0275	703.52	
293.15	.0517	703.981	
293.15	.0847	704.605	
293.15	.0952	704.805	
293.15	.1081	705.047	
293.15	.1182	705.236	
293.15	.1353	705.558	
293.15	.1494	705.822	
293.15	.1577	705.976	
293.15	.1729	706.262	
293.15	.1797	706.389	
293.15	.1932	706.641	
293.15	.2031	706.824	
293.15	.3004	708.627	
293.15	.4002	710.432	
293.15	.5026	712.275	
293.15	.5823	713.683	
298.15	0	698.923	
298.15	.0158	699.223	
298.15	.0275	699.447	
298.15	.0517	699.907	
298.15	.0847	700.53	
298.15	.0952	700.728	
298.15	.1081	700.97	
298.15	.1182	701.159	
298.15	.1353	701.48	
298.15	.1494	701.743	
298.15	.1577	701.901	
298.15	.1729	702.182	
298.15	.1797	702.312	
298.15	.1932	702.561	
298.15	.2031	702.742	
298.15	.3004	704.545	
298.15	.4002	706.341	
298.15	.5026	708.178	
298.15	.5823	709.577	
303.15	0	694.878	
303.15	.0158	695.177	
303.15	.0275	695.398	
303.15	.0517	695.856	
303.15	.0847	696.474	
303.15	.0952	696.672	
303.15	.1081	696.912	
303.15	.1182	697.101	
303.15	.1353	697.419	
303.15	.1494	697.682	
303.15	.1577	697.834	
303.15	.1729	698.118	
303.15	.1797	698.244	
303.15	.1932	698.492	
303.15	.2031	698.675	
303.15	.3004	700.46	
303.15	.4002	702.25	
303.15	.5026	704.068	
303.15	.5823	705.455	

System: thiophene + octane; phases: Liquid
Fixed: Pressure, kPa = 86.5
Fixed: Frequency, MHz = 3
Property: Speed of sound, m/s (Liquid); method: Sing-around technique in a fixed-path interferometer
Temperature, K	Molality, mol/kg of thiophene	Speed of sound, m/s	uncertainty
288.15	0	1214.46	
288.15	.0158	1214.44	
288.15	.0275	1214.42	
288.15	.0517	1214.38	
288.15	.0847	1214.33	
288.15	.0952	1214.32	
288.15	.1081	1214.29	
288.15	.1182	1214.28	
288.15	.1353	1214.25	
288.15	.1494	1214.22	
288.15	.1577	1214.21	
288.15	.1729	1214.18	
288.15	.1797	1214.17	
288.15	.1932	1214.15	
288.15	.2031	1214.14	
288.15	.3004	1213.97	
288.15	.4002	1213.81	
288.15	.5026	1213.63	
288.15	.5823	1213.5	
293.15	0	1193.32	
293.15	.0158	1193.31	
293.15	.0275	1193.3	
293.15	.0517	1193.27	
293.15	.0847	1193.24	
293.15	.0952	1193.23	
293.15	.1081	1193.22	
293.15	.1182	1193.21	
293.15	.1353	1193.19	
293.15	.1494	1193.17	
293.15	.1577	1193.17	
293.15	.1729	1193.15	
293.15	.1797	1193.14	
293.15	.1932	1193.12	
293.15	.2031	1193.11	
293.15	.3004	1192.99	
293.15	.4002	1192.87	
293.15	.5026	1192.71	
293.15	.5823	1192.59	
298.15	0	1172.41	
298.15	.0158	1172.4	
298.15	.0275	1172.39	
298.15	.0517	1172.37	
298.15	.0847	1172.34	
298.15	.0952	1172.33	
298.15	.1081	1172.32	
298.15	.1182	1172.31	
298.15	.1353	1172.3	
298.15	.1494	1172.28	
298.15	.1577	1172.27	
298.15	.1729	1172.26	
298.15	.1797	1172.24	
298.15	.1932	1172.22	
298.15	.2031	1172.21	
298.15	.3004	1172.06	
298.15	.4002	1171.92	
298.15	.5026	1171.78	
298.15	.5823	1171.61	
303.15	0	1151.48	
303.15	.0158	1151.47	
303.15	.0275	1151.46	
303.15	.0517	1151.44	
303.15	.0847	1151.41	
303.15	.0952	1151.4	
303.15	.1081	1151.38	
303.15	.1182	1151.37	
303.15	.1353	1151.35	
303.15	.1494	1151.34	
303.15	.1577	1151.33	
303.15	.1729	1151.3	
303.15	.1797	1151.29	
303.15	.1932	1151.28	
303.15	.2031	1151.26	
303.15	.3004	1151.13	
303.15	.4002	1150.99	
303.15	.5026	1150.79	
303.15	.5823	1150.65	

System: thiophene + octane; phases: Liquid
Fixed: Pressure, kPa = 86.5
Property: Refractive index (Na D-line) (Liquid); method: Standard Abbe refractometry
Temperature, K	Molality, mol/kg of thiophene	Refractive index (Na D-line)	uncertainty
288.15	0	1.3998	
288.15	.0158	1.4002	
288.15	.0275	1.4003	
288.15	.0517	1.4004	
288.15	.0847	1.4005	
288.15	.0952	1.4006	
288.15	.1081	1.4006	
288.15	.1182	1.4007	
288.15	.1353	1.4008	
288.15	.1494	1.4008	
288.15	.1577	1.4009	
288.15	.1729	1.401	
288.15	.1797	1.401	
288.15	.1932	1.4011	
288.15	.2031	1.4012	
288.15	.3004	1.4017	
288.15	.4002	1.4023	
288.15	.5026	1.4028	
288.15	.5823	1.4033	
293.15	0	1.3973	
293.15	.0158	1.3976	
293.15	.0275	1.3977	
293.15	.0517	1.3978	
293.15	.0847	1.398	
293.15	.0952	1.3981	
293.15	.1081	1.3982	
293.15	.1182	1.3982	
293.15	.1353	1.3983	
293.15	.1494	1.3984	
293.15	.1577	1.3985	
293.15	.1729	1.3985	
293.15	.1797	1.3986	
293.15	.1932	1.3986	
293.15	.2031	1.3987	
293.15	.3004	1.3992	
293.15	.4002	1.3997	
293.15	.5026	1.4003	
293.15	.5823	1.4007	
298.15	0	1.3949	
298.15	.0158	1.3952	
298.15	.0275	1.3953	
298.15	.0517	1.3954	
298.15	.0847	1.3956	
298.15	.0952	1.3957	
298.15	.1081	1.3957	
298.15	.1182	1.3958	
298.15	.1353	1.3959	
298.15	.1494	1.396	
298.15	.1577	1.3961	
298.15	.1729	1.3961	
298.15	.1797	1.3962	
298.15	.1932	1.3962	
298.15	.2031	1.3963	
298.15	.3004	1.3968	
298.15	.4002	1.3973	
298.15	.5026	1.3978	
298.15	.5823	1.3982	
303.15	0	1.3924	
303.15	.0158	1.3926	
303.15	.0275	1.3927	
303.15	.0517	1.3928	
303.15	.0847	1.393	
303.15	.0952	1.393	
303.15	.1081	1.3931	
303.15	.1182	1.3932	
303.15	.1353	1.3933	
303.15	.1494	1.3934	
303.15	.1577	1.3934	
303.15	.1729	1.3935	
303.15	.1797	1.3935	
303.15	.1932	1.3936	
303.15	.2031	1.3936	
303.15	.3004	1.3941	
303.15	.4002	1.3947	
303.15	.5026	1.3953	
303.15	.5823	1.3957	

System: thiophene + 1-hexyl-3-methylimidazolium bromide; phases: Liquid
Fixed: Pressure, kPa = 86.5
Property: Mass density, kg/m3 (Liquid); method: Vibrating tube method
Temperature, K	Molality, mol/kg of thiophene	Mass density, kg/m3	uncertainty
288.15	0	1231.021	
288.15	.0186	1230.37	
288.15	.0221	1230.251	
288.15	.0358	1229.806	
288.15	.0433	1229.575	
288.15	.0632	1228.97	
288.15	.0727	1228.693	
288.15	.0952	1228.101	
288.15	.1142	1227.692	
288.15	.137	1227.207	
288.15	.1603	1226.736	
288.15	.1869	1226.313	
293.15	0	1227.428	
293.15	.0186	1226.765	
293.15	.0221	1226.649	
293.15	.0358	1226.191	
293.15	.0433	1225.959	
293.15	.0632	1225.37	
293.15	.0727	1225.11	
293.15	.0952	1224.521	
293.15	.1142	1224.094	
293.15	.137	1223.634	
293.15	.1603	1223.187	
293.15	.1869	1222.773	
298.15	0	1223.74	
298.15	.0186	1223.067	
298.15	.0221	1222.951	
298.15	.0358	1222.489	
298.15	.0433	1222.252	
298.15	.0632	1221.649	
298.15	.0727	1221.377	
298.15	.0952	1220.797	
298.15	.1142	1220.329	
298.15	.137	1219.882	
298.15	.1603	1219.441	
298.15	.1869	1218.997	
303.15	0	1220.35	
303.15	.0186	1219.671	
303.15	.0221	1219.548	
303.15	.0358	1219.092	
303.15	.0433	1218.843	
303.15	.0632	1218.251	
303.15	.0727	1217.977	
303.15	.0952	1217.402	
303.15	.1142	1216.964	
303.15	.137	1216.505	
303.15	.1603	1216.066	
303.15	.1869	1215.658	

System: thiophene + 1-hexyl-3-methylimidazolium bromide; phases: Liquid
Fixed: Pressure, kPa = 86.5
Fixed: Frequency, MHz = 3
Property: Speed of sound, m/s (Liquid); method: Sing-around technique in a fixed-path interferometer
Temperature, K	Molality, mol/kg of thiophene	Speed of sound, m/s	uncertainty
288.15	0	1639.38	
288.15	.0186	1638.23	
288.15	.0221	1638.04	
288.15	.0358	1637.22	
288.15	.0433	1636.78	
288.15	.0632	1635.71	
288.15	.0727	1635.16	
288.15	.0952	1634.02	
288.15	.1142	1633	
288.15	.137	1631.74	
288.15	.1603	1630.65	
288.15	.1869	1629.79	
293.15	0	1610.37	
293.15	.0186	1609.47	
293.15	.0221	1609.29	
293.15	.0358	1608.68	
293.15	.0433	1608.36	
293.15	.0632	1607.52	
293.15	.0727	1607.11	
293.15	.0952	1606.12	
293.15	.1142	1605.46	
293.15	.137	1604.51	
293.15	.1603	1603.69	
293.15	.1869	1602.88	
298.15	0	1587.09	
298.15	.0186	1586.34	
298.15	.0221	1586.21	
298.15	.0358	1585.66	
298.15	.0433	1585.42	
298.15	.0632	1584.63	
298.15	.0727	1584.35	
298.15	.0952	1583.56	
298.15	.1142	1582.86	
298.15	.137	1582.15	
298.15	.1603	1581.65	
298.15	.1869	1581.03	
303.15	0	1568.67	
303.15	.0186	1568.11	
303.15	.0221	1568.03	
303.15	.0358	1567.6	
303.15	.0433	1567.43	
303.15	.0632	1566.83	
303.15	.0727	1566.58	
303.15	.0952	1566.02	
303.15	.1142	1565.52	
303.15	.137	1564.94	
303.15	.1603	1564.45	
303.15	.1869	1564.01	

System: thiophene + 1-hexyl-3-methylimidazolium bromide; phases: Liquid
Fixed: Pressure, kPa = 86.5
Property: Refractive index (Na D-line) (Liquid); method: Standard Abbe refractometry
Temperature, K	Molality, mol/kg of thiophene	Refractive index (Na D-line)	uncertainty
288.15	0	1.5282	
288.15	.0186	1.5277	
288.15	.0221	1.5276	
288.15	.0358	1.5273	
288.15	.0433	1.5271	
288.15	.0632	1.5266	
288.15	.0727	1.5264	
288.15	.0952	1.5259	
288.15	.1142	1.5255	
288.15	.137	1.5251	
288.15	.1603	1.5247	
288.15	.1869	1.5242	
293.15	0	1.5268	
293.15	.0186	1.5261	
293.15	.0221	1.526	
293.15	.0358	1.5257	
293.15	.0433	1.5255	
293.15	.0632	1.5251	
293.15	.0727	1.5249	
293.15	.0952	1.5244	
293.15	.1142	1.524	
293.15	.137	1.5234	
293.15	.1603	1.5228	
293.15	.1869	1.5223	
298.15	0	1.5254	
298.15	.0186	1.5247	
298.15	.0221	1.5246	
298.15	.0358	1.5242	
298.15	.0433	1.5239	
298.15	.0632	1.5233	
298.15	.0727	1.523	
298.15	.0952	1.5224	
298.15	.1142	1.5219	
298.15	.137	1.5213	
298.15	.1603	1.5208	
298.15	.1869	1.5201	
303.15	0	1.5237	
303.15	.0186	1.5227	
303.15	.0221	1.5226	
303.15	.0358	1.5223	
303.15	.0433	1.5221	
303.15	.0632	1.5217	
303.15	.0727	1.5215	
303.15	.0952	1.5211	
303.15	.1142	1.5207	
303.15	.137	1.5202	
303.15	.1603	1.5197	
303.15	.1869	1.5191	

System: thiophene + 1-octyl-3-methylimidazolium bromide; phases: Liquid
Fixed: Pressure, kPa = 86.5
Property: Mass density, kg/m3 (Liquid); method: Vibrating tube method
Temperature, K	Molality, mol/kg of thiophene	Mass density, kg/m3	uncertainty
288.15	0	1179.372	
288.15	.0087	1179.174	
288.15	.022	1178.88	
288.15	.032	1178.661	
288.15	.0435	1178.427	
288.15	.0556	1178.18	
288.15	.0663	1177.971	
288.15	.0821	1177.678	
288.15	.0923	1177.486	
288.15	.107	1177.217	
288.15	.1464	1176.571	
288.15	.1765	1176.081	
293.15	0	1176.168	
293.15	.0087	1175.97	
293.15	.022	1175.676	
293.15	.032	1175.464	
293.15	.0435	1175.226	
293.15	.0556	1174.975	
293.15	.0663	1174.751	
293.15	.0821	1174.469	
293.15	.0923	1174.268	
293.15	.107	1174.008	
293.15	.1464	1173.343	
293.15	.1765	1172.852	
298.15	0	1172.983	
298.15	.0087	1172.781	
298.15	.022	1172.483	
298.15	.032	1172.266	
298.15	.0435	1172.024	
298.15	.0556	1171.777	
298.15	.0663	1171.565	
298.15	.0821	1171.259	
298.15	.0923	1171.073	
298.15	.107	1170.801	
298.15	.1464	1170.162	
298.15	.1765	1169.697	
303.15	0	1169.857	
303.15	.0087	1169.651	
303.15	.022	1169.349	
303.15	.032	1169.13	
303.15	.0435	1168.885	
303.15	.0556	1168.636	
303.15	.0663	1168.419	
303.15	.0821	1168.125	
303.15	.0923	1167.935	
303.15	.107	1167.673	
303.15	.1464	1167.046	
303.15	.1765	1166.587	

System: thiophene + 1-octyl-3-methylimidazolium bromide; phases: Liquid
Fixed: Pressure, kPa = 86.5
Fixed: Frequency, MHz = 3
Property: Speed of sound, m/s (Liquid); method: Sing-around technique in a fixed-path interferometer
Temperature, K	Molality, mol/kg of thiophene	Speed of sound, m/s	uncertainty
288.15	0	1605.17	
288.15	.0087	1603.67	
288.15	.022	1601.52	
288.15	.032	1599.93	
288.15	.0435	1598.29	
288.15	.0556	1596.83	
288.15	.0663	1595.74	
288.15	.0821	1594.26	
288.15	.0923	1593.41	
288.15	.107	1592.29	
288.15	.1464	1590.19	
288.15	.1765	1588.78	
293.15	0	1581.92	
293.15	.0087	1580.96	
293.15	.022	1579.52	
293.15	.032	1578.57	
293.15	.0435	1577.61	
293.15	.0556	1576.55	
293.15	.0663	1575.67	
293.15	.0821	1574.6	
293.15	.0923	1573.85	
293.15	.107	1572.93	
293.15	.1464	1571.08	
293.15	.1765	1570.15	
298.15	0	1561.93	
298.15	.0087	1561.31	
298.15	.022	1560.32	
298.15	.032	1559.72	
298.15	.0435	1558.87	
298.15	.0556	1558.16	
298.15	.0663	1557.5	
298.15	.0821	1556.52	
298.15	.0923	1555.89	
298.15	.107	1555.12	
298.15	.1464	1553.46	
298.15	.1765	1552.35	
303.15	0	1542.75	
303.15	.0087	1542.27	
303.15	.022	1541.61	
303.15	.032	1541.12	
303.15	.0435	1540.65	
303.15	.0556	1540.08	
303.15	.0663	1539.64	
303.15	.0821	1539.06	
303.15	.0923	1538.53	
303.15	.107	1537.97	
303.15	.1464	1536.64	
303.15	.1765	1535.65	

System: thiophene + 1-octyl-3-methylimidazolium bromide; phases: Liquid
Fixed: Pressure, kPa = 86.5
Property: Refractive index (Na D-line) (Liquid); method: Standard Abbe refractometry
Temperature, K	Molality, mol/kg of thiophene	Refractive index (Na D-line)	uncertainty
288.15	0	1.525	
288.15	.0087	1.5248	
288.15	.022	1.5245	
288.15	.032	1.5242	
288.15	.0435	1.524	
288.15	.0556	1.5238	
288.15	.0663	1.5235	
288.15	.0821	1.5232	
288.15	.0923	1.5229	
288.15	.107	1.5226	
288.15	.1464	1.5221	
288.15	.1765	1.5216	
293.15	0	1.5236	
293.15	.0087	1.5233	
293.15	.022	1.5231	
293.15	.032	1.5228	
293.15	.0435	1.5226	
293.15	.0556	1.5223	
293.15	.0663	1.522	
293.15	.0821	1.5217	
293.15	.0923	1.5214	
293.15	.107	1.5211	
293.15	.1464	1.5205	
293.15	.1765	1.52	
298.15	0	1.5221	
298.15	.0087	1.5219	
298.15	.022	1.5216	
298.15	.032	1.5213	
298.15	.0435	1.521	
298.15	.0556	1.5207	
298.15	.0663	1.5203	
298.15	.0821	1.52	
298.15	.0923	1.5197	
298.15	.107	1.5193	
298.15	.1464	1.5187	
298.15	.1765	1.5181	
303.15	0	1.5206	
303.15	.0087	1.5205	
303.15	.022	1.5202	
303.15	.032	1.5199	
303.15	.0435	1.5196	
303.15	.0556	1.5192	
303.15	.0663	1.5189	
303.15	.0821	1.5185	
303.15	.0923	1.5182	
303.15	.107	1.5179	
303.15	.1464	1.5171	
303.15	.1765	1.5166	
