Measured thermophysical data. Determination and modelling of osmotic coefficients and vapour pressures of binary systems 1- and 2-propanol with CnMimNTf2 ionic liquids  (n = 2, 3, and 4) at T = 323.15 K
Source: J. Chem. Thermodyn., 2011, 10.1016/j.jct.2011.03.012
Compound 1: propan-1-ol, C3H8O, purity 99.9%
Compound 2: 2-propanol, C3H8O, purity 99.8%
Compound 3: [C2mim][NTf2], C8H11F6N3O4S2, purity 99%
Compound 4: 1-methyl-3-propylimidazolium bis[(trifluoromethyl)sulfonyl]imide, C9H13F6N3O4S2, purity 99%
Compound 5: [C4mim] [NTf2], C10H15F6N3O4S2, purity 99%

System: propan-1-ol + [C2mim][NTf2]; phases: Liquid
Fixed: Pressure, kPa = 101
Fixed: Temperature, K = 323.15
Property: Osmotic coefficient (Liquid); method: Vapor Pressure Osmometry
Molality, mol/kg of propan-1-ol	Osmotic coefficient	uncertainty
.0529	.796	.006
.0898	.729	.006
.1111	.661	.006
.2139	.565	.006
.3138	.498	.006
.4249	.455	.006
.5092	.416	.006
.8316	.305	.006
1.1402	.27	.006
1.446	.243	.006
1.7762	.212	.006
2.2391	.18	.006
2.8405	.158	.006
3.3477	.146	.006

System: propan-1-ol + [C2mim][NTf2]; phases: Liquid
Fixed: Pressure, kPa = 101
Fixed: Temperature, K = 323.15
Property: (Relative) activity of propan-1-ol (Liquid); method: Calculated from Osmotic Coefficients
Molality, mol/kg of propan-1-ol	(Relative) activity of propan-1-ol	uncertainty
.0529	.995	.02
.0898	.992	.02
.1111	.991	.02
.2139	.986	.02
.3138	.981	.02
.4249	.977	.02
.5092	.975	.02
.8316	.97	.02
1.1402	.964	.02
1.446	.959	.02
1.7762	.956	.02
2.2391	.953	.02
2.8405	.947	.02
3.3477	.943	.02

System: 2-propanol + [C2mim][NTf2]; phases: Liquid
Fixed: Pressure, kPa = 101
Fixed: Temperature, K = 323.15
Property: Osmotic coefficient (Liquid); method: Vapor Pressure Osmometry
Molality, mol/kg of 2-propanol	Osmotic coefficient	uncertainty
.0478	.916	.006
.079	.87	.006
.1062	.795	.006
.2026	.625	.006
.3179	.538	.006
.4042	.473	.006
.5098	.432	.006
.7125	.365	.006
1.1236	.306	.006
1.5285	.264	.006
2.3258	.198	.006
2.7282	.18	.006
3.2505	.162	.006

System: 2-propanol + [C2mim][NTf2]; phases: Liquid
Fixed: Pressure, kPa = 101
Fixed: Temperature, K = 323.15
Property: (Relative) activity of 2-propanol (Liquid); method: Calculated from Osmotic Coefficients
Molality, mol/kg of 2-propanol	(Relative) activity of 2-propanol	uncertainty
.0478	.995	.02
.079	.992	.02
.1062	.99	.02
.2026	.985	.02
.3179	.98	.02
.4042	.977	.02
.5098	.974	.02
.7125	.969	.02
1.1236	.96	.02
1.5285	.953	.02
2.3258	.946	.02
2.7282	.943	.02
3.2505	.939	.02

System: propan-1-ol + 1-methyl-3-propylimidazolium bis[(trifluoromethyl)sulfonyl]imide; phases: Liquid
Fixed: Pressure, kPa = 101
Fixed: Temperature, K = 323.15
Property: Osmotic coefficient (Liquid); method: Vapor Pressure Osmometry
Molality, mol/kg of propan-1-ol	Osmotic coefficient	uncertainty
.0413	.894	.006
.0766	.765	.006
.1061	.691	.006
.195	.608	.006
.2877	.55	.006
.3832	.474	.006
.4893	.434	.006
.8347	.354	.006
1.1397	.305	.006
1.7162	.238	.006
2.159	.222	.006
2.7101	.2	.006
3.2526	.182	.006

System: propan-1-ol + 1-methyl-3-propylimidazolium bis[(trifluoromethyl)sulfonyl]imide; phases: Liquid
Fixed: Pressure, kPa = 101
Fixed: Temperature, K = 323.15
Property: (Relative) activity of propan-1-ol (Liquid); method: Calculated from Osmotic Coefficients
Molality, mol/kg of propan-1-ol	(Relative) activity of propan-1-ol	uncertainty
.0413	.996	.02
.0766	.993	.02
.1061	.991	.02
.195	.986	.02
.2877	.981	.02
.3832	.978	.02
.4893	.975	.02
.8347	.965	.02
1.1397	.959	.02
1.7162	.952	.02
2.159	.944	.02
2.7101	.937	.02
3.2526	.931	.02

System: 2-propanol + 1-methyl-3-propylimidazolium bis[(trifluoromethyl)sulfonyl]imide; phases: Liquid
Fixed: Pressure, kPa = 101
Fixed: Temperature, K = 323.15
Property: Osmotic coefficient (Liquid); method: Vapor Pressure Osmometry
Molality, mol/kg of 2-propanol	Osmotic coefficient	uncertainty
.0333	.999	.006
.0805	.802	.006
.1091	.735	.006
.2054	.6	.006
.3026	.524	.006
.4107	.487	.006
.5143	.45	.006
.7376	.386	.006
1.0392	.342	.006
1.3493	.304	.006
1.7508	.287	.006
2.1673	.254	.006
2.5362	.231	.006
2.9257	.224	.006
3.3403	.212	.006

System: 2-propanol + 1-methyl-3-propylimidazolium bis[(trifluoromethyl)sulfonyl]imide; phases: Liquid
Fixed: Pressure, kPa = 101
Fixed: Temperature, K = 323.15
Property: (Relative) activity of 2-propanol (Liquid); method: Calculated from Osmotic Coefficients
Molality, mol/kg of 2-propanol	(Relative) activity of 2-propanol	uncertainty
.0333	.996	.02
.0805	.992	.02
.1091	.99	.02
.2054	.985	.02
.3026	.981	.02
.4107	.976	.02
.5143	.973	.02
.7376	.966	.02
1.0392	.958	.02
1.3493	.952	.02
1.7508	.941	.02
2.1673	.936	.02
2.5362	.932	.02
2.9257	.924	.02
3.3403	.919	.02

System: propan-1-ol + [C4mim] [NTf2]; phases: Liquid
Fixed: Pressure, kPa = 101
Fixed: Temperature, K = 323.15
Property: Osmotic coefficient (Liquid); method: Vapor Pressure Osmometry
Molality, mol/kg of propan-1-ol	Osmotic coefficient	uncertainty
.0502	.851	.006
.0793	.793	.006
.1009	.733	.006
.207	.567	.006
.3194	.487	.006
.4156	.452	.006
.5077	.421	.006
.8288	.362	.006
1.1119	.313	.006
1.4473	.281	.006
1.7618	.257	.006
2.216	.232	.006
2.7233	.211	.006
3.2177	.198	.006
3.701	.188	.006

System: propan-1-ol + [C4mim] [NTf2]; phases: Liquid
Fixed: Pressure, kPa = 101
Fixed: Temperature, K = 323.15
Property: (Relative) activity of propan-1-ol (Liquid); method: Calculated from Osmotic Coefficients
Molality, mol/kg of propan-1-ol	(Relative) activity of propan-1-ol	uncertainty
.0502	.995	.02
.0793	.992	.02
.1009	.991	.02
.207	.986	.02
.3194	.981	.02
.4156	.978	.02
.5077	.975	.02
.8288	.965	.02
1.1119	.959	.02
1.4473	.952	.02
1.7618	.947	.02
2.216	.94	.02
2.7233	.933	.02
3.2177	.926	.02
3.701	.92	.02

System: 2-propanol + [C4mim] [NTf2]; phases: Liquid
Fixed: Pressure, kPa = 101
Fixed: Temperature, K = 323.15
Property: Osmotic coefficient (Liquid); method: Vapor Pressure Osmometry
Molality, mol/kg of 2-propanol	Osmotic coefficient	uncertainty
.0558	.964	.006
.0779	.916	.006
.1062	.844	.006
.2094	.688	.006
.3024	.589	.006
.4066	.535	.006
.5073	.495	.006
.7195	.417	.006
1.0227	.358	.006
1.3388	.32	.006
1.743	.299	.006
2.1241	.273	.006
2.5057	.254	.006
2.9474	.243	.006
3.3002	.226	.006

System: 2-propanol + [C4mim] [NTf2]; phases: Liquid
Fixed: Pressure, kPa = 101
Fixed: Temperature, K = 323.15
Property: (Relative) activity of 2-propanol (Liquid); method: Calculated from Osmotic Coefficients
Molality, mol/kg of 2-propanol	(Relative) activity of 2-propanol	uncertainty
.0558	.994	.02
.0779	.991	.02
.1062	.989	.02
.2094	.983	.02
.3024	.979	.02
.4066	.974	.02
.5073	.97	.02
.7195	.965	.02
1.0227	.957	.02
1.3388	.95	.02
1.743	.939	.02
2.1241	.933	.02
2.5057	.926	.02
2.9474	.917	.02
3.3002	.914	.02
