Measured thermophysical data. Phase equilibria of the systems of CsCl + ErCl3 + H2O and CsCl + ErCl3 + HCl (~10.7%, ~14.4%) + H2O at T = 298.15 K and the standard molar enthalpies of formation of solid phase compounds
Source: J. Chem. Thermodyn., 2014, 10.1016/j.jct.2013.09.016
Compound 1: cesium chloride, ClCs, purity 99.5%
Compound 2: erbium trichloride, Cl3Er, purity 99.99%
Compound 3: hydrogen chloride, ClH, purity 97%
Compound 4: water, H2O, purity 99.8%
Compound 5: 3CsCl*ErCl3*6H2O, Cl6Cs3ErH12O6
Compound 6: 3CsCl*2ErCl3*14H2O, Cl9Cs3Er2H28O14
Compound 7: chlorine, Cl2
Compound 8: hydrogen, H2
Compound 9: oxygen, O2
Compound 10: cesium, Cs
Compound 11: erbium, Er

System: cesium chloride + water; phases: Liquid, Crystal
Fixed: Pressure, kPa = 100
Property: Mass fraction of cesium chloride (Liquid); method: Titration method
Temperature, K	Mass fraction of cesium chloride	uncertainty
298.15	.6647	.003

System: water + erbium trichloride; phases: Liquid, Crystal of intercomponent compound 1
Fixed: Pressure, kPa = 100
Property: Mass fraction of erbium trichloride (Liquid); method: Titration method
Temperature, K	Mass fraction of erbium trichloride	uncertainty
298.15	.5104	.0015

System: cesium chloride + water + erbium trichloride; phases: Liquid, Crystal
Fixed: Pressure, kPa = 100
Fixed: Temperature, K = 298.15
Property: Mass fraction of cesium chloride (Liquid); method: Titration method
Mass fraction of erbium trichloride	Mass fraction of cesium chloride	uncertainty
.0776	.5818	.003
.1255	.5301	.003
.1875	.4755	.003
.2267	.4434	.003
.2627	.4232	.003

System: cesium chloride + water + erbium trichloride; phases: Liquid, Crystal of intercomponent compound 2
Fixed: Pressure, kPa = 100
Fixed: Temperature, K = 298.15
Property: Mass fraction of cesium chloride (Liquid); method: Titration method
Mass fraction of erbium trichloride	Mass fraction of cesium chloride	uncertainty
.2801	.4092	.003
.2959	.3875	.003
.3259	.3411	.003
.3395	.3282	.003

System: cesium chloride + water + erbium trichloride; phases: Liquid, Crystal of intercomponent compound 3
Fixed: Pressure, kPa = 100
Fixed: Temperature, K = 298.15
Property: Mass fraction of cesium chloride (Liquid); method: Titration method
Mass fraction of erbium trichloride	Mass fraction of cesium chloride	uncertainty
.3709	.2721	.003
.3981	.2268	.003
.4299	.1853	.003

System: cesium chloride + water + erbium trichloride; phases: Liquid, Crystal of intercomponent compound 1
Fixed: Pressure, kPa = 100
Fixed: Temperature, K = 298.15
Property: Mass fraction of cesium chloride (Liquid); method: Titration method
Mass fraction of erbium trichloride	Mass fraction of cesium chloride	uncertainty
.4366	.1647	.003
.4712	.0874	.003

System: cesium chloride + water + erbium trichloride; phases: Liquid, Crystal of intercomponent compound 2, Crystal
Fixed: Pressure, kPa = 100
Property: Mass fraction of cesium chloride (Liquid); method: Titration method
Temperature, K	Mass fraction of cesium chloride	uncertainty
298.15	.4223	.003

System: cesium chloride + water + erbium trichloride; phases: Liquid, Crystal of intercomponent compound 3, Crystal of intercomponent compound 2
Fixed: Pressure, kPa = 100
Property: Mass fraction of cesium chloride (Liquid); method: Titration method
Temperature, K	Mass fraction of cesium chloride	uncertainty
298.15	.3062	.003

System: cesium chloride + water + erbium trichloride; phases: Liquid, Crystal of intercomponent compound 1, Crystal of intercomponent compound 3
Fixed: Pressure, kPa = 100
Property: Mass fraction of cesium chloride (Liquid); method: Titration method
Temperature, K	Mass fraction of cesium chloride	uncertainty
298.15	.1741	.003

System: cesium chloride + water + erbium trichloride; phases: Liquid, Crystal of intercomponent compound 2, Crystal
Fixed: Pressure, kPa = 100
Property: Mass fraction of erbium trichloride (Liquid); method: Titration method
Temperature, K	Mass fraction of erbium trichloride	uncertainty
298.15	.2725	.0015

System: cesium chloride + water + erbium trichloride; phases: Liquid, Crystal of intercomponent compound 3, Crystal of intercomponent compound 2
Fixed: Pressure, kPa = 100
Property: Mass fraction of erbium trichloride (Liquid); method: Titration method
Temperature, K	Mass fraction of erbium trichloride	uncertainty
298.15	.3522	.0015

System: cesium chloride + water + erbium trichloride; phases: Liquid, Crystal of intercomponent compound 1, Crystal of intercomponent compound 3
Fixed: Pressure, kPa = 100
Property: Mass fraction of erbium trichloride (Liquid); method: Titration method
Temperature, K	Mass fraction of erbium trichloride	uncertainty
298.15	.435	.0015

System: hydrogen chloride + cesium chloride + water; phases: Liquid, Crystal
Fixed: Pressure, kPa = 100
Fixed: Temperature, K = 298.15
Property: Mass fraction of cesium chloride (Liquid); method: Titration method
Mass fraction of hydrogen chloride	Mass fraction of cesium chloride	uncertainty
.1175	.4766	.003
.1411	.4682	.003

System: hydrogen chloride + water + erbium trichloride; phases: Liquid, Crystal of intercomponent compound 1
Fixed: Pressure, kPa = 100
Fixed: Temperature, K = 298.15
Property: Mass fraction of erbium trichloride (Liquid); method: Titration method
Mass fraction of hydrogen chloride	Mass fraction of erbium trichloride	uncertainty
.109	.3164	.0015
.1407	.2645	.0015

Reaction: 1 3CsCl*ErCl3*6H2O + -3 cesium + -1 erbium + -3 chlorine + -6 hydrogen + -3 oxygen
Property: Molar enthalpy of reaction, kJ/mol
-4222.8

Reaction: 1 3CsCl*2ErCl3*14H2O + -3 cesium + -2 erbium + -4.5 chlorine + -14 hydrogen + -7 oxygen
Property: Molar enthalpy of reaction, kJ/mol
-7679.3
