Measured thermophysical data. Measurement and prediction of (solid + liquid) equilibrium for sulfur compounds with aliphatic hydrocarbons
Source: J. Chem. Thermodyn., 2010, 10.1016/j.jct.2010.05.003
Compound 1: thiophene, C4H4S, purity 99.6%
Compound 2: dodecane, C12H26, purity 99.6%
Compound 3: 3-thiapentane, C4H10S, purity 99.6%
Compound 4: octane, C8H18, purity 99.6%
Compound 5: heptane, C7H16, purity 99.6%

System: thiophene; phases: Crystal, Liquid, Gas
Property: Molar enthalpy of transition or fusion, kJ/mol (Crystal); method: Adiabatic calorimetry
Molar enthalpy of transition or fusion, kJ/mol	uncertainty
5.0864	

System: dodecane; phases: Crystal, Liquid, Gas
Property: Molar enthalpy of transition or fusion, kJ/mol (Crystal); method: Adiabatic calorimetry
Molar enthalpy of transition or fusion, kJ/mol	uncertainty
34.2939	

System: 3-thiapentane; phases: Crystal, Liquid, Gas
Property: Molar enthalpy of transition or fusion, kJ/mol (Crystal); method: Adiabatic calorimetry
Molar enthalpy of transition or fusion, kJ/mol	uncertainty
11.9042	

System: octane; phases: Crystal, Liquid, Gas
Property: Molar enthalpy of transition or fusion, kJ/mol (Crystal); method: Adiabatic calorimetry
Molar enthalpy of transition or fusion, kJ/mol	uncertainty
20.7421	

System: heptane; phases: Crystal, Liquid, Gas
Property: Molar enthalpy of transition or fusion, kJ/mol (Crystal); method: Adiabatic calorimetry
Molar enthalpy of transition or fusion, kJ/mol	uncertainty
14.0379	

System: thiophene + heptane; phases: Crystal, Crystal, Liquid, Air at 1 atmosphere
Fixed: Pressure, kPa = 101.325
Property: Eutectic composition: mole fraction of thiophene (Crystal); method: Derived from phase diagram analysis
Eutectic composition: mole fraction of thiophene	uncertainty
.08	.001

System: thiophene + heptane; phases: Crystal, Crystal, Liquid, Air at 1 atmosphere
Fixed: Pressure, kPa = 101.325
Property: Eutectic temperature, K (Crystal); method: Derived from phase diagram analysis
Eutectic temperature, K	uncertainty
181.9	.1

System: thiophene + heptane; phases: Liquid, Crystal
Fixed: Pressure, kPa = 101
Property: Solid-liquid equilibrium temperature, K (Liquid); method: DSC/DTA
Mole fraction of thiophene	Solid-liquid equilibrium temperature, K	uncertainty
0	182.55	.05

System: thiophene + heptane; phases: Liquid, Crystal
Fixed: Pressure, kPa = 101
Property: Solid-liquid equilibrium temperature, K (Liquid); method: DSC/DTA
Mole fraction of thiophene	Solid-liquid equilibrium temperature, K	uncertainty
.089	189.4	.05
.174	195.43	.05
.222	199.61	.05
.361	210.5	.05
.486	215.87	.05
.614	220.85	.05
.774	225.27	.05
.853	226.36	.05
.92	229.68	.05
.995	233.75	.05
1	234.9	.05

System: thiophene + octane; phases: Crystal, Crystal, Liquid, Air at 1 atmosphere
Fixed: Pressure, kPa = 101.325
Property: Eutectic composition: mole fraction of thiophene (Crystal); method: Derived from phase diagram analysis
Eutectic composition: mole fraction of thiophene	uncertainty
.382	.001

System: thiophene + octane; phases: Crystal, Crystal, Liquid, Air at 1 atmosphere
Fixed: Pressure, kPa = 101.325
Property: Eutectic temperature, K (Crystal); method: Derived from phase diagram analysis
Eutectic temperature, K	uncertainty
208	.1

System: thiophene + octane; phases: Liquid, Crystal
Fixed: Pressure, kPa = 101
Property: Solid-liquid equilibrium temperature, K (Liquid); method: DSC/DTA
Mole fraction of thiophene	Solid-liquid equilibrium temperature, K	uncertainty
0	216.37	.05
.112	214.77	.05
.223	211.59	.05
.334	211.07	.05
.371	211.03	.05

System: thiophene + octane; phases: Liquid, Crystal
Fixed: Pressure, kPa = 101
Property: Solid-liquid equilibrium temperature, K (Liquid); method: DSC/DTA
Mole fraction of thiophene	Solid-liquid equilibrium temperature, K	uncertainty
.391	213.45	.05
.402	214.75	.05
.471	217.58	.05
.599	221.06	.05
.683	223.29	.05
.804	226.46	.05
.904	229.18	.05
1	234.9	.05

System: thiophene + dodecane; phases: Crystal, Crystal, Liquid, Air at 1 atmosphere
Fixed: Pressure, kPa = 101.325
Property: Eutectic composition: mole fraction of thiophene (Crystal); method: Derived from phase diagram analysis
Eutectic composition: mole fraction of thiophene	uncertainty
.952	.001

System: thiophene + dodecane; phases: Crystal, Crystal, Liquid, Air at 1 atmosphere
Fixed: Pressure, kPa = 101.325
Property: Eutectic temperature, K (Crystal); method: Derived from phase diagram analysis
Eutectic temperature, K	uncertainty
233.1	.1

System: thiophene + dodecane; phases: Liquid, Crystal
Fixed: Pressure, kPa = 101
Property: Solid-liquid equilibrium temperature, K (Liquid); method: DSC/DTA
Mole fraction of thiophene	Solid-liquid equilibrium temperature, K	uncertainty
0	263.45	.05
.201	260.13	.05
.39	255.92	.05
.437	254.86	.05
.524	252.15	.05
.603	250.49	.05
.748	245.22	.05
.952	233.86	.05

System: thiophene + dodecane; phases: Liquid, Crystal
Fixed: Pressure, kPa = 101
Property: Solid-liquid equilibrium temperature, K (Liquid); method: DSC/DTA
Mole fraction of thiophene	Solid-liquid equilibrium temperature, K	uncertainty
1	234.87	.05

System: octane + 3-thiapentane; phases: Crystal, Crystal, Liquid, Air at 1 atmosphere
Fixed: Pressure, kPa = 101.325
Property: Eutectic composition: mole fraction of 3-thiapentane (Crystal); method: Derived from phase diagram analysis
Eutectic composition: mole fraction of 3-thiapentane	uncertainty
.978	.001

System: octane + 3-thiapentane; phases: Crystal, Crystal, Liquid, Air at 1 atmosphere
Fixed: Pressure, kPa = 101.325
Property: Eutectic temperature, K (Crystal); method: Derived from phase diagram analysis
Eutectic temperature, K	uncertainty
172.6	.1

System: octane + 3-thiapentane; phases: Liquid, Crystal
Fixed: Pressure, kPa = 101
Property: Solid-liquid equilibrium temperature, K (Liquid); method: DSC/DTA
Mole fraction of 3-thiapentane	Solid-liquid equilibrium temperature, K	uncertainty
0	216.37	.05
.152	215.15	.05
.165	214.43	.05
.279	212.86	.05
.353	212.1	.05
.411	210.82	.05
.574	207.72	.05
.648	203.81	.05
.737	199.69	.05
.782	198.04	.05

System: octane + 3-thiapentane; phases: Liquid, Crystal
Fixed: Pressure, kPa = 101
Property: Solid-liquid equilibrium temperature, K (Liquid); method: DSC/DTA
Mole fraction of 3-thiapentane	Solid-liquid equilibrium temperature, K	uncertainty
1	175	.05

System: dodecane + 3-thiapentane; phases: Crystal, Crystal, Liquid, Air at 1 atmosphere
Fixed: Pressure, kPa = 101.325
Property: Eutectic composition: mole fraction of 3-thiapentane (Crystal); method: Derived from phase diagram analysis
Eutectic composition: mole fraction of 3-thiapentane	uncertainty
.983	.001

System: dodecane + 3-thiapentane; phases: Crystal, Crystal, Liquid, Air at 1 atmosphere
Fixed: Pressure, kPa = 101.325
Property: Eutectic temperature, K (Crystal); method: Derived from phase diagram analysis
Eutectic temperature, K	uncertainty
168.4	.1

System: dodecane + 3-thiapentane; phases: Liquid, Crystal
Fixed: Pressure, kPa = 101
Property: Solid-liquid equilibrium temperature, K (Liquid); method: DSC/DTA
Mole fraction of 3-thiapentane	Solid-liquid equilibrium temperature, K	uncertainty
0	263.45	.05
.065	262.21	.05
.227	259.73	.05
.416	257.18	.05
.443	256.2	.05
.588	253.07	.05
.611	252.32	.05
.735	248.87	.05
.819	246.22	.05
.92	236.48	.05
.947	232.17	.05

System: dodecane + 3-thiapentane; phases: Liquid, Crystal
Fixed: Pressure, kPa = 101
Property: Solid-liquid equilibrium temperature, K (Liquid); method: DSC/DTA
Mole fraction of 3-thiapentane	Solid-liquid equilibrium temperature, K	uncertainty
1	175	.05
