Measured thermophysical data. Energetic insights on two dye key molecules: N-methylphenothiazine and N-methylphenoxazine
Source: J. Chem. Thermodyn., 2016, 10.1016/j.jct.2015.10.013
Compound 1: 10-methylphenothiazine, C13H11NS, purity 98.8%
Compound 2: sulfuric acid, H2O4S
Compound 3: carbon dioxide, CO2
Compound 4: nitrogen, N2
Compound 5: water, H2O
Compound 6: oxygen, O2

System: 10-methylphenothiazine; phases: Crystal, Gas
Property: Molar enthalpy of vaporization or sublimation, kJ/mol (Crystal); method: Static calorimetry
Temperature, K	Molar enthalpy of vaporization or sublimation, kJ/mol	uncertainty
298.15	103.6	2.3

System: 10-methylphenothiazine; phases: Crystal, Gas
Property: Vapor or sublimation pressure, kPa (Crystal); method: Knudsen effusion method
Temperature, K	Vapor or sublimation pressure, kPa	uncertainty
337.16	.000099	.00003
339.27	.000128	.00003
341.16	.000152	.00003
343.16	.000188	.00003
345.25	.000246	.00003
347.15	.000286	.00003
349.16	.000361	.00003
351.26	.00046	.00003
353.16	.000539	.00003
355.16	.000671	.00003
357.26	.000853	.00003
359.15	.001002	.00003
337.16	.000098	.00003
339.27	.000127	.00003
341.16	.000156	.00003
343.16	.000187	.00003
345.25	.000242	.00003
347.15	.000294	.00003
349.16	.000354	.00003
351.26	.000456	.00003
353.16	.000551	.00003
355.16	.000655	.00003
357.26	.00084	.00003
359.15	.001018	.00003
337.16	.000097	.00003
339.27	.000124	.00003
341.16	.000156	.00003
343.16	.000186	.00003
345.25	.000237	.00003
347.15	.000295	.00003
349.16	.000353	.00003
351.26	.000445	.00003
353.16	.000553	.00003
355.16	.000655	.00003
357.26	.000822	.00003
359.15	.00102	.00003

Reaction: -1 10-methylphenothiazine + 1 sulfuric acid + 13 carbon dioxide + 0.5 nitrogen + 4.5 water + -17.25 oxygen
Property: Specific internal energy of reaction at constant volume, J/g
-34905.88
