Measured thermophysical data. Phase behavior and heat capacities of the 1-benzyl-3-methylimidazolium ionic liquids
Source: J. Chem. Thermodyn., 2016, 10.1016/j.jct.2016.04.009
Compound 1: 1-benzyl-3-methyl-1H-imidazolium chloride, C11H13ClN2, purity 99.6%
Compound 2: 1-benzyl-3-methylimidazolium tetrafluoroborate, C11H13BF4N2, purity 99.9%
Compound 3: 1-benzyl-3-methylimidazolium hexafluorophosphate, C11H13F6N2P, purity 99.6%
Compound 4: 1-benzyl-3-methylimidazolium 1,1,2,2-tetrafluoroethanesulfonate, C13H14F4N2O3S, purity 99.9%
Compound 5: 1-benzyl-3-methyl-1H-imidazol-3-ium bis((trifluoromethyl)sulfonyl)amide, C13H13F6N3O4S2, purity 99.9%

System: 1-benzyl-3-methyl-1H-imidazolium chloride; phases: Glass, Liquid, Air at 1 atmosphere
Property: Triple point temperature, K (Glass); method: DSC
Triple point temperature, K	uncertainty
264.7	.6

System: 1-benzyl-3-methyl-1H-imidazolium chloride; phases: Liquid
Fixed: Pressure, kPa = 101.325
Property: Molar heat capacity at constant pressure, J/K/mol (Liquid); method: Drop calorimetry
Temperature, K	Molar heat capacity at constant pressure, J/K/mol	uncertainty
298.15	338.42787007	.2086871

System: 1-benzyl-3-methyl-1H-imidazolium chloride; phases: Crystal
Fixed: Pressure, kPa = 101.325
Property: Molar heat capacity at constant pressure, J/K/mol (Crystal); method: Small sample (50 mg) scanning calorimetry
Temperature, K	Molar heat capacity at constant pressure, J/K/mol	uncertainty
261.06	238.97	
265	243.67	
270	252.99	
275	261.15	
280	269.17	
285	278.83	
289.14	288.47	

System: 1-benzyl-3-methyl-1H-imidazolium chloride; phases: Liquid
Fixed: Pressure, kPa = 101.325
Property: Molar heat capacity at constant pressure, J/K/mol (Liquid); method: Small sample (50 mg) scanning calorimetry
Temperature, K	Molar heat capacity at constant pressure, J/K/mol	uncertainty
277.11	329.64	
280	330.72	
285	332.88	
290	335.29	
295	338	
300	340.37	
305	342.49	
310	344.71	
315	346.85	
320	348.98	
325	351.32	
330	353.53	
335	355.73	
340	358	
345	360.85	
350	363.87	
355	367.01	

System: 1-benzyl-3-methylimidazolium tetrafluoroborate; phases: Glass, Liquid, Air at 1 atmosphere
Property: Triple point temperature, K (Glass); method: DSC
Triple point temperature, K	uncertainty
235.3	1.2

System: 1-benzyl-3-methylimidazolium tetrafluoroborate; phases: Metastable crystal, Liquid, Air at 1 atmosphere
Property: Triple point temperature, K (Metastable crystal); method: DSC
Triple point temperature, K	uncertainty
336.5	.3

System: 1-benzyl-3-methylimidazolium tetrafluoroborate; phases: Crystal, Liquid, Air at 1 atmosphere
Property: Triple point temperature, K (Crystal); method: DSC
Triple point temperature, K	uncertainty
346.2	.3

System: 1-benzyl-3-methylimidazolium tetrafluoroborate; phases: Metastable crystal, Liquid, Air at 1 atmosphere
Property: Molar enthalpy of transition or fusion, kJ/mol (Metastable crystal); method: DSC
Molar enthalpy of transition or fusion, kJ/mol	uncertainty
16.6	1.7

System: 1-benzyl-3-methylimidazolium tetrafluoroborate; phases: Crystal, Liquid, Air at 1 atmosphere
Property: Molar enthalpy of transition or fusion, kJ/mol (Crystal); method: DSC
Molar enthalpy of transition or fusion, kJ/mol	uncertainty
19.1	1.9

System: 1-benzyl-3-methylimidazolium tetrafluoroborate; phases: Metastable crystal
Fixed: Pressure, kPa = 101.325
Property: Molar heat capacity at constant pressure, J/K/mol (Metastable crystal); method: Drop calorimetry
Temperature, K	Molar heat capacity at constant pressure, J/K/mol	uncertainty
298.15	304.60969959392	.28604291408

System: 1-benzyl-3-methylimidazolium tetrafluoroborate; phases: Crystal
Fixed: Pressure, kPa = 101.325
Property: Molar heat capacity at constant pressure, J/K/mol (Crystal); method: Drop calorimetry
Temperature, K	Molar heat capacity at constant pressure, J/K/mol	uncertainty
298.15	325.85488693968	.70210533456

System: 1-benzyl-3-methylimidazolium tetrafluoroborate; phases: Metastable crystal
Fixed: Pressure, kPa = 101.325
Property: Molar heat capacity at constant pressure, J/K/mol (Metastable crystal); method: Small sample (50 mg) scanning calorimetry
Temperature, K	Molar heat capacity at constant pressure, J/K/mol	uncertainty
275.65	283.68	
280	287.35	
285	292.48	
290	298.09	
295	303.57	
300	307.82	
305	312.26	
310	316.56	
315	320.92	
318.98	324.78	

System: 1-benzyl-3-methylimidazolium tetrafluoroborate; phases: Crystal
Fixed: Pressure, kPa = 101.325
Property: Molar heat capacity at constant pressure, J/K/mol (Crystal); method: Small sample (50 mg) scanning calorimetry
Temperature, K	Molar heat capacity at constant pressure, J/K/mol	uncertainty
261.7	292.62	
265	295.4	
270	299.6	
275	304.74	
280	309.29	
285	313.98	
290	319.04	
295	324.16	
300	329.01	
305	333.82	
310	338.5	
315	343.23	
320	348.35	
325	353.67	
328.42	356.83	

System: 1-benzyl-3-methylimidazolium tetrafluoroborate; phases: Liquid
Fixed: Pressure, kPa = 101.325
Property: Molar heat capacity at constant pressure, J/K/mol (Liquid); method: Small sample (50 mg) scanning calorimetry
Temperature, K	Molar heat capacity at constant pressure, J/K/mol	uncertainty
345.5	417.35	
350	420.2	
355	423.44	
357.55	424.91	

System: 1-benzyl-3-methylimidazolium hexafluorophosphate; phases: Glass, Liquid, Air at 1 atmosphere
Property: Triple point temperature, K (Glass); method: DSC
Triple point temperature, K	uncertainty
244.8	.8

System: 1-benzyl-3-methylimidazolium hexafluorophosphate; phases: Crystal, Liquid, Air at 1 atmosphere
Property: Triple point temperature, K (Crystal); method: DSC
Triple point temperature, K	uncertainty
399.7	.4

System: 1-benzyl-3-methylimidazolium hexafluorophosphate; phases: Crystal, Liquid, Air at 1 atmosphere
Property: Molar enthalpy of transition or fusion, kJ/mol (Crystal); method: DSC
Molar enthalpy of transition or fusion, kJ/mol	uncertainty
24.9	2.5

System: 1-benzyl-3-methylimidazolium hexafluorophosphate; phases: Crystal
Fixed: Pressure, kPa = 101.325
Property: Molar heat capacity at constant pressure, J/K/mol (Crystal); method: Drop calorimetry
Temperature, K	Molar heat capacity at constant pressure, J/K/mol	uncertainty
298.15	360.42353179254	.60457730238

System: 1-benzyl-3-methylimidazolium hexafluorophosphate; phases: Crystal
Fixed: Pressure, kPa = 101.325
Property: Molar heat capacity at constant pressure, J/K/mol (Crystal); method: Small sample (50 mg) scanning calorimetry
Temperature, K	Molar heat capacity at constant pressure, J/K/mol	uncertainty
258.09	321.38	
263.2	325.69	
268.3	330.39	
273.41	335.64	
278.51	339.82	
283.62	344.42	
288.72	348.47	
293.83	352.84	
298.93	357.16	
304.04	361.74	
309.14	366.16	
314.25	371.17	
319.35	376.2	
324.46	380.3	
329.56	384.8	
334.67	389.73	
339.77	394.64	
344.88	399.86	
349.98	404.92	
355.09	410.63	

System: 1-benzyl-3-methylimidazolium 1,1,2,2-tetrafluoroethanesulfonate; phases: Glass, Liquid, Air at 1 atmosphere
Property: Triple point temperature, K (Glass); method: DSC
Triple point temperature, K	uncertainty
229.1	.5

System: 1-benzyl-3-methylimidazolium 1,1,2,2-tetrafluoroethanesulfonate; phases: Crystal, Liquid, Air at 1 atmosphere
Property: Triple point temperature, K (Crystal); method: DSC
Triple point temperature, K	uncertainty
315.4	.3

System: 1-benzyl-3-methylimidazolium 1,1,2,2-tetrafluoroethanesulfonate; phases: Crystal, Liquid, Air at 1 atmosphere
Property: Molar enthalpy of transition or fusion, kJ/mol (Crystal); method: DSC
Molar enthalpy of transition or fusion, kJ/mol	uncertainty
23.6	2.4

System: 1-benzyl-3-methylimidazolium 1,1,2,2-tetrafluoroethanesulfonate; phases: Crystal
Fixed: Pressure, kPa = 101.325
Property: Molar heat capacity at constant pressure, J/K/mol (Crystal); method: Drop calorimetry
Temperature, K	Molar heat capacity at constant pressure, J/K/mol	uncertainty
298.15	434.7525452856	.67321095032

System: 1-benzyl-3-methylimidazolium 1,1,2,2-tetrafluoroethanesulfonate; phases: Liquid
Fixed: Pressure, kPa = 101.325
Property: Molar heat capacity at constant pressure, J/K/mol (Liquid); method: Drop calorimetry
Temperature, K	Molar heat capacity at constant pressure, J/K/mol	uncertainty
298.15	509.5143929264	.42518586336

System: 1-benzyl-3-methylimidazolium 1,1,2,2-tetrafluoroethanesulfonate; phases: Crystal
Fixed: Pressure, kPa = 101.325
Property: Molar heat capacity at constant pressure, J/K/mol (Crystal); method: Small sample (50 mg) scanning calorimetry
Temperature, K	Molar heat capacity at constant pressure, J/K/mol	uncertainty
278.51	393.57	
283.62	402.07	
288.72	411.24	
293.83	423.44	

System: 1-benzyl-3-methylimidazolium 1,1,2,2-tetrafluoroethanesulfonate; phases: Liquid
Fixed: Pressure, kPa = 101.325
Property: Molar heat capacity at constant pressure, J/K/mol (Liquid); method: Small sample (50 mg) scanning calorimetry
Temperature, K	Molar heat capacity at constant pressure, J/K/mol	uncertainty
334.67	527.08	
339.77	530.26	
344.88	533.48	
349.98	537.12	
355.09	540.53	

System: 1-benzyl-3-methyl-1H-imidazol-3-ium bis((trifluoromethyl)sulfonyl)amide; phases: Glass, Liquid, Air at 1 atmosphere
Property: Triple point temperature, K (Glass); method: DSC
Triple point temperature, K	uncertainty
216.7	1.4

System: 1-benzyl-3-methyl-1H-imidazol-3-ium bis((trifluoromethyl)sulfonyl)amide; phases: Liquid
Fixed: Pressure, kPa = 101.325
Property: Molar heat capacity at constant pressure, J/K/mol (Liquid); method: Drop calorimetry
Temperature, K	Molar heat capacity at constant pressure, J/K/mol	uncertainty
298.15	598.96369895912	.58939732696

System: 1-benzyl-3-methyl-1H-imidazol-3-ium bis((trifluoromethyl)sulfonyl)amide; phases: Liquid
Fixed: Pressure, kPa = 101.325
Property: Molar heat capacity at constant pressure, J/K/mol (Liquid); method: Small sample (50 mg) scanning calorimetry
Temperature, K	Molar heat capacity at constant pressure, J/K/mol	uncertainty
258.09	588.22	
263.2	589.8	
268.3	592.39	
273.38	596.83	
278.51	597.13	
283.61	599.43	
288.72	601.59	
293.82	603.91	
298.93	606.63	
304.03	609.41	
309.14	611.94	
314.24	615.52	
319.35	618.97	
324.45	621.42	
329.41	624.07	
334.67	626.99	
339.78	630.16	
344.88	633.62	
349.99	636.94	
355.08	640.33	
