Measured thermophysical data. A volumetric and viscosity study for the binary mixtures of 1-hexyl-3-methylimidazolium tetrafluoroborate with some molecular solvents
Source: J. Chem. Thermodyn., 2011, 10.1016/j.jct.2010.12.027
Compound 1: 1-hexyl-3-methylimidazolium tetrafluoroborate, C10H19BF4N2, purity 98%
Compound 2: ethyl methyl ketone, C4H8O, purity 99.5%
Compound 3: butylamine, C4H11N, purity 99.5%
Compound 4: ethyl ethanoate, C4H8O2, purity 99.5%
Compound 5: tetramethylene oxide, C4H8O, purity 99.5%

System: 1-hexyl-3-methylimidazolium tetrafluoroborate; phases: Liquid
Property: Mass density, kg/m3 (Liquid); method: Vibrating tube method
Temperature, K	Pressure, kPa	Mass density, kg/m3	uncertainty
298.15	101	1146.7	.015

System: 1-hexyl-3-methylimidazolium tetrafluoroborate; phases: Liquid
Property: Viscosity, Pa*s (Liquid); method: Capillary tube (Ostwald; Ubbelohde) method
Temperature, K	Pressure, kPa	Viscosity, Pa*s	uncertainty
298.15	101	.195367	.00195367

System: ethyl methyl ketone; phases: Liquid
Property: Mass density, kg/m3 (Liquid); method: Vibrating tube method
Temperature, K	Pressure, kPa	Mass density, kg/m3	uncertainty
298.15	101	799.87	.015

System: ethyl methyl ketone; phases: Liquid
Property: Viscosity, Pa*s (Liquid); method: Capillary tube (Ostwald; Ubbelohde) method
Temperature, K	Pressure, kPa	Viscosity, Pa*s	uncertainty
298.15	101	.000388	.00000388

System: butylamine; phases: Liquid
Property: Mass density, kg/m3 (Liquid); method: Vibrating tube method
Temperature, K	Pressure, kPa	Mass density, kg/m3	uncertainty
298.15	101	732.88	.015

System: butylamine; phases: Liquid
Property: Viscosity, Pa*s (Liquid); method: Capillary tube (Ostwald; Ubbelohde) method
Temperature, K	Pressure, kPa	Viscosity, Pa*s	uncertainty
298.15	101	.000476	.00000476

System: ethyl ethanoate; phases: Liquid
Property: Mass density, kg/m3 (Liquid); method: Vibrating tube method
Temperature, K	Pressure, kPa	Mass density, kg/m3	uncertainty
298.15	101	894.48	.015

System: ethyl ethanoate; phases: Liquid
Property: Viscosity, Pa*s (Liquid); method: Capillary tube (Ostwald; Ubbelohde) method
Temperature, K	Pressure, kPa	Viscosity, Pa*s	uncertainty
298.15	101	.000437	.00000437

System: tetramethylene oxide; phases: Liquid
Property: Mass density, kg/m3 (Liquid); method: Vibrating tube method
Temperature, K	Pressure, kPa	Mass density, kg/m3	uncertainty
298.15	101	882.13	.015

System: tetramethylene oxide; phases: Liquid
Property: Viscosity, Pa*s (Liquid); method: Capillary tube (Ostwald; Ubbelohde) method
Temperature, K	Pressure, kPa	Viscosity, Pa*s	uncertainty
298.15	101	.000475	.00000475

System: ethyl methyl ketone + 1-hexyl-3-methylimidazolium tetrafluoroborate; phases: Liquid
Fixed: Temperature, K = 298.15
Fixed: Pressure, kPa = 101
Property: Mass density, kg/m3 (Liquid); method: Vibrating tube method
Mole fraction of 1-hexyl-3-methylimidazolium tetrafluoroborate	Mass density, kg/m3	uncertainty
0	799.87	.015
.0492	845.71	.015
.0988	889.12	.015
.2011	946.15	.015
.2989	991.57	.015
.3482	1010.53	.015
.3972	1027.28	.015
.4605	1046.8	.015
.4981	1057.05	.015
.55	1070.3	.015
.6057	1082.75	.015
.7054	1102.84	.015
.7955	1119.38	.015
.8931	1132.37	.015
1	1146.7	.015

System: ethyl methyl ketone + 1-hexyl-3-methylimidazolium tetrafluoroborate; phases: Liquid
Fixed: Temperature, K = 298.15
Fixed: Pressure, kPa = 101
Property: Excess molar volume, m3/mol (Liquid); method: Calculated with densities of this investigation
Mole fraction of 1-hexyl-3-methylimidazolium tetrafluoroborate	Excess molar volume, m3/mol	uncertainty
0	0	0
.0492	-.00000077	-.00000000385
.0988	-.000001121	-.000000005605
.2011	-.00000169	-.00000000845
.2989	-.000001858	-.00000000929
.3482	-.000001853	-.000000009265
.3972	-.0000018	-.000000009
.4605	-.000001736	-.00000000868
.4981	-.000001649	-.000000008245
.55	-.000001551	-.000000007755
.6057	-.000001361	-.000000006805
.7054	-.00000108	-.0000000054
.7955	-.000000692	-.00000000346
.8931	-.000000326	-.00000000163
1	0	0

System: ethyl methyl ketone + 1-hexyl-3-methylimidazolium tetrafluoroborate; phases: Liquid
Fixed: Temperature, K = 298.15
Fixed: Pressure, kPa = 101
Property: Viscosity, Pa*s (Liquid); method: Capillary tube (Ostwald; Ubbelohde) method
Mole fraction of 1-hexyl-3-methylimidazolium tetrafluoroborate	Viscosity, Pa*s	uncertainty
0	.000388	.00000388
.0492	.0006	.000006
.0988	.000914	.00000914
.2011	.002059	.00002059
.2989	.004063	.00004063
.3482	.005578	.00005578
.3972	.007507	.00007507
.4605	.01108	.0001108
.4981	.013673	.00013673
.55	.01857	.0001857
.6057	.024459	.00024459
.7054	.043382	.00043382
.7955	.069399	.00069399
.8931	.110337	.00110337
1	.195367	.00195367

System: butylamine + 1-hexyl-3-methylimidazolium tetrafluoroborate; phases: Liquid
Fixed: Temperature, K = 298.15
Fixed: Pressure, kPa = 101
Property: Mass density, kg/m3 (Liquid); method: Vibrating tube method
Mole fraction of 1-hexyl-3-methylimidazolium tetrafluoroborate	Mass density, kg/m3	uncertainty
0	732.88	.015
.0492	778.02	.015
.0994	809.01	.015
.1997	888.25	.015
.3002	943.91	.015
.3525	968.66	.015
.4013	989.49	.015
.4492	1008.25	.015
.5037	1027.64	.015
.5524	1043.6	.015
.6009	1058.22	.015
.7036	1085.8	.015
.7873	1105.23	.015
.8787	1124.35	.015
1	1146.7	.015

System: butylamine + 1-hexyl-3-methylimidazolium tetrafluoroborate; phases: Liquid
Fixed: Temperature, K = 298.15
Fixed: Pressure, kPa = 101
Property: Excess molar volume, m3/mol (Liquid); method: Calculated with densities of this investigation
Mole fraction of 1-hexyl-3-methylimidazolium tetrafluoroborate	Excess molar volume, m3/mol	uncertainty
0	0	0
.0492	-.000000341	-.000000001705
.0994	-.000000641	-.000000003205
.1997	-.000001096	-.00000000548
.3002	-.000001324	-.00000000662
.3525	-.000001374	-.00000000687
.4013	-.000001368	-.00000000684
.4492	-.000001346	-.00000000673
.5037	-.000001277	-.000000006385
.5524	-.000001209	-.000000006045
.6009	-.000001114	-.00000000557
.7036	-.000000871	-.000000004355
.7873	-.000000607	-.000000003035
.8787	-.000000345	-.000000001725
1	0	0

System: butylamine + 1-hexyl-3-methylimidazolium tetrafluoroborate; phases: Liquid
Fixed: Temperature, K = 298.15
Fixed: Pressure, kPa = 101
Property: Viscosity, Pa*s (Liquid); method: Capillary tube (Ostwald; Ubbelohde) method
Mole fraction of 1-hexyl-3-methylimidazolium tetrafluoroborate	Viscosity, Pa*s	uncertainty
0	.000476	.00000476
.0492	.000889	.00000889
.0994	.001433	.00001433
.1997	.003137	.00003137
.3002	.006183	.00006183
.3525	.008532	.00008532
.4013	.011163	.00011163
.4492	.014676	.00014676
.5037	.01956	.0001956
.5524	.025392	.00025392
.6009	.032054	.00032054
.7036	.053628	.00053628
.7873	.076615	.00076615
.8787	.117479	.00117479
1	.195367	.00195367

System: ethyl ethanoate + 1-hexyl-3-methylimidazolium tetrafluoroborate; phases: Liquid
Fixed: Temperature, K = 298.15
Fixed: Pressure, kPa = 101
Property: Mass density, kg/m3 (Liquid); method: Vibrating tube method
Mole fraction of 1-hexyl-3-methylimidazolium tetrafluoroborate	Mass density, kg/m3	uncertainty
0	894.48	.015
.0498	925.56	.015
.1	952.69	.015
.2027	997.78	.015
.302	1031.52	.015
.3475	1044.35	.015
.3983	1057.37	.015
.4488	1068.89	.015
.501	1079.8	.015
.5487	1088.62	.015
.6022	1097.8	.015
.7075	1113.73	.015
.8066	1126.46	.015
.8908	1135.69	.015
1	1146.7	.015

System: ethyl ethanoate + 1-hexyl-3-methylimidazolium tetrafluoroborate; phases: Liquid
Fixed: Temperature, K = 298.15
Fixed: Pressure, kPa = 101
Property: Excess molar volume, m3/mol (Liquid); method: Calculated with densities of this investigation
Mole fraction of 1-hexyl-3-methylimidazolium tetrafluoroborate	Excess molar volume, m3/mol	uncertainty
0	0	0
.0498	-.000000505	-.000000002525
.1	-.000000905	-.000000004525
.2027	-.000001428	-.00000000714
.302	-.000001663	-.000000008315
.3475	-.000001678	-.00000000839
.3983	-.000001675	-.000000008375
.4488	-.00000162	-.0000000081
.501	-.000001559	-.000000007795
.5487	-.000001467	-.000000007335
.6022	-.000001345	-.000000006725
.7075	-.000001033	-.000000005165
.8066	-.000000713	-.000000003565
.8908	-.000000371	-.000000001855
1	0	0

System: ethyl ethanoate + 1-hexyl-3-methylimidazolium tetrafluoroborate; phases: Liquid
Fixed: Temperature, K = 298.15
Fixed: Pressure, kPa = 101
Property: Viscosity, Pa*s (Liquid); method: Capillary tube (Ostwald; Ubbelohde) method
Mole fraction of 1-hexyl-3-methylimidazolium tetrafluoroborate	Viscosity, Pa*s	uncertainty
0	.000437	.00000437
.0498	.000738	.00000738
.1	.001188	.00001188
.2027	.002674	.00002674
.302	.005221	.00005221
.3475	.006846	.00006846
.3983	.009328	.00009328
.4488	.012307	.00012307
.501	.016471	.00016471
.5487	.021492	.00021492
.6022	.028479	.00028479
.7075	.048111	.00048111
.8066	.080426	.00080426
.8908	.119875	.00119875
1	.195367	.00195367

System: tetramethylene oxide + 1-hexyl-3-methylimidazolium tetrafluoroborate; phases: Liquid
Fixed: Temperature, K = 298.15
Fixed: Pressure, kPa = 101
Property: Mass density, kg/m3 (Liquid); method: Vibrating tube method
Mole fraction of 1-hexyl-3-methylimidazolium tetrafluoroborate	Mass density, kg/m3	uncertainty
0	882.13	.015
.0498	922.89	.015
.1008	956.61	.015
.203	1007.44	.015
.2976	1041.06	.015
.3461	1054.83	.015
.3965	1067.37	.015
.4457	1078.09	.015
.5003	1088.63	.015
.5548	1097.81	.015
.6083	1106.02	.015
.7025	1118.37	.015
.7992	1129	.015
.8925	1137.77	.015
1	1146.7	.015

System: tetramethylene oxide + 1-hexyl-3-methylimidazolium tetrafluoroborate; phases: Liquid
Fixed: Temperature, K = 298.15
Fixed: Pressure, kPa = 101
Property: Excess molar volume, m3/mol (Liquid); method: Calculated with densities of this investigation
Mole fraction of 1-hexyl-3-methylimidazolium tetrafluoroborate	Excess molar volume, m3/mol	uncertainty
0	0	0
.0498	-.000000704	-.00000000352
.1008	-.000001285	-.000000006425
.203	-.000001886	-.00000000943
.2976	-.000002075	-.000000010375
.3461	-.000002072	-.00000001036
.3965	-.000002032	-.00000001016
.4457	-.000001952	-.00000000976
.5003	-.000001836	-.00000000918
.5548	-.000001682	-.00000000841
.6083	-.000001525	-.000000007625
.7025	-.000001195	-.000000005975
.7992	-.000000813	-.000000004065
.8925	-.000000423	-.000000002115
1	0	0

System: tetramethylene oxide + 1-hexyl-3-methylimidazolium tetrafluoroborate; phases: Liquid
Fixed: Temperature, K = 298.15
Fixed: Pressure, kPa = 101
Property: Viscosity, Pa*s (Liquid); method: Capillary tube (Ostwald; Ubbelohde) method
Mole fraction of 1-hexyl-3-methylimidazolium tetrafluoroborate	Viscosity, Pa*s	uncertainty
0	.000475	.00000475
.0498	.000891	.00000891
.1008	.001564	.00001564
.203	.003869	.00003869
.2976	.007658	.00007658
.3461	.010437	.00010437
.3965	.013933	.00013933
.4457	.018372	.00018372
.5003	.024898	.00024898
.5548	.033168	.00033168
.6083	.04268	.0004268
.7025	.065773	.00065773
.7992	.09779	.0009779
.8925	.141638	.00141638
1	.195367	.00195367
