Measured thermophysical data. Thermodynamics and selectivity of separation based on activity coefficients at infinite dilution of various solutes in 1-allyl-3-methylimidazolium bis{(trifluoromethyl)sulfonyl}imide ionic liquid
Source: J. Chem. Thermodyn., 2016, 10.1016/j.jct.2016.06.028
Compound 1: 1-allyl-3-methyl-1H-imidazolium bis((trifluoromethyl)sulfonyl)amide, C9H11F6N3O4S2, purity 99%
Compound 2: hexane, C6H14, purity 99%
Compound 3: 3-methylpentane, C6H14, purity 99%
Compound 4: 2,2-dimethylbutane, C6H14, purity 99%
Compound 5: heptane, C7H16, purity 99.5%
Compound 6: octane, C8H18, purity 99%
Compound 7: 2,2,4-trimethylpentane, C8H18, purity 99%
Compound 8: nonane, C9H20, purity 99%
Compound 9: decane, C10H22, purity 99%
Compound 10: cyclopentane, C5H10, purity 99%
Compound 11: cyclohexane, C6H12, purity 99%
Compound 12: methylcyclohexane, C7H14, purity 99%
Compound 13: cycloheptane, C7H14, purity 98%
Compound 14: cyclooctane, C8H16, purity 99%
Compound 15: 1-pentene, C5H10, purity 98.5%
Compound 16: 1-hexene, C6H12, purity 99%
Compound 17: cyclohexene, C6H10, purity 99%
Compound 18: 1-heptene, C7H14, purity 99%
Compound 19: 1-octene, C8H16, purity 98%
Compound 20: 1-decene, C10H20, purity 97%
Compound 21: 1-pentyne, C5H8, purity 99%
Compound 22: 1-hexyne, C6H10, purity 97%
Compound 23: 1-heptyne, C7H12, purity 98%
Compound 24: 1-octyne, C8H14, purity 97%
Compound 25: benzene, C6H6, purity 99.8%
Compound 26: toluene, C7H8, purity 99.8%
Compound 27: ethylbenzene, C8H10, purity 99.8%
Compound 28: 1,2-dimethylbenzene, C8H10, purity 99%
Compound 29: 1,3-dimethylbenzene, C8H10, purity 99%
Compound 30: 1,4-dimethylbenzene, C8H10, purity 99%
Compound 31: propylbenzene, C9H12, purity 98%
Compound 32: isopropylbenzene, C9H12, purity 99%
Compound 33: styrene, C8H8, purity 99.9%
Compound 34: (1-methylethenyl)benzene, C9H10, purity 99%
Compound 35: thiophene, C4H4S, purity 99%
Compound 36: pyridine, C5H5N, purity 99.8%
Compound 37: methanol, CH4O, purity 99.9%
Compound 38: ethanol, C2H6O, purity 99.8%
Compound 39: propan-1-ol, C3H8O, purity 99.9%
Compound 40: propan-2-ol, C3H8O, purity 99.9%
Compound 41: butan-1-ol, C4H10O, purity 99.8%
Compound 42: butan-2-ol, C4H10O, purity 99.5%
Compound 43: 2-methyl-1-propanol, C4H10O, purity 99.8%
Compound 44: 2-methyl-2-propanol, C4H10O, purity 99.7%
Compound 45: 1-pentanol, C5H12O, purity 99.8%
Compound 46: water, H2O
Compound 47: methyl ethanoate, C3H6O2, purity 99.8%
Compound 48: methyl propanoate, C4H8O2, purity 99%
Compound 49: methyl butanoate, C5H10O2, purity 99%
Compound 50: ethyl ethanoate, C4H8O2, purity 99.8%
Compound 51: tetrahydrofuran, C4H8O, purity 99.9%
Compound 52: 1,4-dioxane, C4H8O2, purity 99.8%
Compound 53: methyl tert-butyl ether, C5H12O, purity 99.8%
Compound 54: tert-butyl ethyl ether, C6H14O, purity 99%
Compound 55: methyl tert-amyl ether, C6H14O, purity 97%
Compound 56: diethyl ether, C4H10O, purity 99.9%
Compound 57: dipropyl ether, C6H14O, purity 99%
Compound 58: diisopropyl ether, C6H14O, purity 99%
Compound 59: dibutyl ether, C8H18O, purity 99.3%
Compound 60: acetone, C3H6O, purity 99.9%
Compound 61: 2-pentanone, C5H10O, purity 99%
Compound 62: 3-pentanone, C5H10O, purity 99%
Compound 63: butanal, C4H8O, purity 99%
Compound 64: acetonitrile, C2H3N, purity 99.9%
Compound 65: 1-nitropropane, C3H7NO2, purity 98.5%

System: 1-allyl-3-methyl-1H-imidazolium bis((trifluoromethyl)sulfonyl)amide; phases: Liquid
Fixed: Pressure, kPa = 101.325
Property: Mass density, kg/m3 (Liquid); method: Vibrating tube method
Temperature, K	Mass density, kg/m3	uncertainty
298.15	1498.95	
303.15	1493.78	
308.15	1487.81	
313.15	1482.53	
318.15	1477.35	
323.15	1471.53	
328.15	1466.49	
333.15	1460.12	
338.15	1455.11	
343.15	1448.87	
348.15	1442.69	
353.15	1437.79	
358.15	1432.23	
363.15	1426.61	
368.15	1421.03	

System: 1-allyl-3-methyl-1H-imidazolium bis((trifluoromethyl)sulfonyl)amide; phases: Liquid
Fixed: Pressure, kPa = 101.325
Property: Viscosity, Pa*s (Liquid); method: Falling or rolling sphere viscometry
Temperature, K	Viscosity, Pa*s	uncertainty
298.15	.0319	
308.15	.0224	
318.15	.0166	
328.15	.0127	
338.15	.00996	
348.15	.00801	
358.15	.00649	
368.15	.0055	

System: hexane + 1-allyl-3-methyl-1H-imidazolium bis((trifluoromethyl)sulfonyl)amide; phases: Liquid
Fixed: Mole fraction of hexane = 0
Fixed: Pressure, kPa = 101.325
Property: Activity coefficient of hexane (Liquid); method: Other
Temperature, K	Activity coefficient of hexane	uncertainty
318.15	21.8	
328.15	20.8	
338.15	19.8	
348.15	19.0	
358.15	18.2	
368.15	17.5	

System: 3-methylpentane + 1-allyl-3-methyl-1H-imidazolium bis((trifluoromethyl)sulfonyl)amide; phases: Liquid
Fixed: Mole fraction of 3-methylpentane = 0
Fixed: Pressure, kPa = 101.325
Property: Activity coefficient of 3-methylpentane (Liquid); method: Other
Temperature, K	Activity coefficient of 3-methylpentane	uncertainty
318.15	18.4	
328.15	17.6	
338.15	17.0	
348.15	16.4	
358.15	15.8	
368.15	15.3	

System: 2,2-dimethylbutane + 1-allyl-3-methyl-1H-imidazolium bis((trifluoromethyl)sulfonyl)amide; phases: Liquid
Fixed: Mole fraction of 2,2-dimethylbutane = 0
Fixed: Pressure, kPa = 101.325
Property: Activity coefficient of 2,2-dimethylbutane (Liquid); method: Other
Temperature, K	Activity coefficient of 2,2-dimethylbutane	uncertainty
318.15	16.6	
328.15	16.0	
338.15	15.5	
348.15	15.1	
358.15	14.7	
368.15	14.3	

System: heptane + 1-allyl-3-methyl-1H-imidazolium bis((trifluoromethyl)sulfonyl)amide; phases: Liquid
Fixed: Mole fraction of heptane = 0
Fixed: Pressure, kPa = 101.325
Property: Activity coefficient of heptane (Liquid); method: Other
Temperature, K	Activity coefficient of heptane	uncertainty
318.15	32.4	
328.15	30.4	
338.15	28.7	
348.15	27.1	
358.15	25.7	
368.15	24.5	

System: octane + 1-allyl-3-methyl-1H-imidazolium bis((trifluoromethyl)sulfonyl)amide; phases: Liquid
Fixed: Mole fraction of octane = 0
Fixed: Pressure, kPa = 101.325
Property: Activity coefficient of octane (Liquid); method: Other
Temperature, K	Activity coefficient of octane	uncertainty
318.15	48.7	
328.15	45.1	
338.15	42.0	
348.15	39.2	
358.15	36.9	
368.15	34.8	

System: 2,2,4-trimethylpentane + 1-allyl-3-methyl-1H-imidazolium bis((trifluoromethyl)sulfonyl)amide; phases: Liquid
Fixed: Mole fraction of 2,2,4-trimethylpentane = 0
Fixed: Pressure, kPa = 101.325
Property: Activity coefficient of 2,2,4-trimethylpentane (Liquid); method: Other
Temperature, K	Activity coefficient of 2,2,4-trimethylpentane	uncertainty
318.15	30.9	
328.15	29.3	
338.15	27.9	
348.15	26.6	
358.15	25.5	
368.15	24.4	

System: nonane + 1-allyl-3-methyl-1H-imidazolium bis((trifluoromethyl)sulfonyl)amide; phases: Liquid
Fixed: Mole fraction of nonane = 0
Fixed: Pressure, kPa = 101.325
Property: Activity coefficient of nonane (Liquid); method: Other
Temperature, K	Activity coefficient of nonane	uncertainty
318.15	72.2	
328.15	66.0	
338.15	60.7	
348.15	56.2	
358.15	52.0	
368.15	48.4	

System: decane + 1-allyl-3-methyl-1H-imidazolium bis((trifluoromethyl)sulfonyl)amide; phases: Liquid
Fixed: Mole fraction of decane = 0
Fixed: Pressure, kPa = 101.325
Property: Activity coefficient of decane (Liquid); method: Other
Temperature, K	Activity coefficient of decane	uncertainty
318.15	108	
328.15	97.2	
338.15	88.5	
348.15	80.7	
358.15	74.1	
368.15	68.2	

System: cyclopentane + 1-allyl-3-methyl-1H-imidazolium bis((trifluoromethyl)sulfonyl)amide; phases: Liquid
Fixed: Mole fraction of cyclopentane = 0
Fixed: Pressure, kPa = 101.325
Property: Activity coefficient of cyclopentane (Liquid); method: Other
Temperature, K	Activity coefficient of cyclopentane	uncertainty
318.15	8.48	
328.15	8.11	
338.15	7.80	
348.15	7.51	
358.15	7.24	
368.15	6.99	

System: cyclohexane + 1-allyl-3-methyl-1H-imidazolium bis((trifluoromethyl)sulfonyl)amide; phases: Liquid
Fixed: Mole fraction of cyclohexane = 0
Fixed: Pressure, kPa = 101.325
Property: Activity coefficient of cyclohexane (Liquid); method: Other
Temperature, K	Activity coefficient of cyclohexane	uncertainty
318.15	12.4	
328.15	11.8	
338.15	11.3	
348.15	10.8	
358.15	10.4	
368.15	10.0	

System: methylcyclohexane + 1-allyl-3-methyl-1H-imidazolium bis((trifluoromethyl)sulfonyl)amide; phases: Liquid
Fixed: Mole fraction of methylcyclohexane = 0
Fixed: Pressure, kPa = 101.325
Property: Activity coefficient of methylcyclohexane (Liquid); method: Other
Temperature, K	Activity coefficient of methylcyclohexane	uncertainty
318.15	17.5	
328.15	16.5	
338.15	15.6	
348.15	14.9	
358.15	14.2	
368.15	13.6	

System: cycloheptane + 1-allyl-3-methyl-1H-imidazolium bis((trifluoromethyl)sulfonyl)amide; phases: Liquid
Fixed: Mole fraction of cycloheptane = 0
Fixed: Pressure, kPa = 101.325
Property: Activity coefficient of cycloheptane (Liquid); method: Other
Temperature, K	Activity coefficient of cycloheptane	uncertainty
318.15	17.2	
328.15	16.1	
338.15	15.3	
348.15	14.5	
358.15	13.8	
368.15	13.2	

System: cyclooctane + 1-allyl-3-methyl-1H-imidazolium bis((trifluoromethyl)sulfonyl)amide; phases: Liquid
Fixed: Mole fraction of cyclooctane = 0
Fixed: Pressure, kPa = 101.325
Property: Activity coefficient of cyclooctane (Liquid); method: Other
Temperature, K	Activity coefficient of cyclooctane	uncertainty
318.15	23.6	
328.15	22.0	
338.15	20.6	
348.15	19.4	
358.15	18.3	
368.15	17.3	

System: 1-pentene + 1-allyl-3-methyl-1H-imidazolium bis((trifluoromethyl)sulfonyl)amide; phases: Liquid
Fixed: Mole fraction of 1-pentene = 0
Fixed: Pressure, kPa = 101.325
Property: Activity coefficient of 1-pentene (Liquid); method: Other
Temperature, K	Activity coefficient of 1-pentene	uncertainty
318.15	7.23	
328.15	7.17	
338.15	7.12	
348.15	7.08	
358.15	7.05	
368.15	7.00	

System: 1-hexene + 1-allyl-3-methyl-1H-imidazolium bis((trifluoromethyl)sulfonyl)amide; phases: Liquid
Fixed: Mole fraction of 1-hexene = 0
Fixed: Pressure, kPa = 101.325
Property: Activity coefficient of 1-hexene (Liquid); method: Other
Temperature, K	Activity coefficient of 1-hexene	uncertainty
318.15	11.1	
328.15	10.7	
338.15	10.4	
348.15	10.1	
358.15	9.87	
368.15	9.62	

System: cyclohexene + 1-allyl-3-methyl-1H-imidazolium bis((trifluoromethyl)sulfonyl)amide; phases: Liquid
Fixed: Mole fraction of cyclohexene = 0
Fixed: Pressure, kPa = 101.325
Property: Activity coefficient of cyclohexene (Liquid); method: Other
Temperature, K	Activity coefficient of cyclohexene	uncertainty
318.15	6.77	
328.15	6.60	
338.15	6.45	
348.15	6.32	
358.15	6.19	
368.15	6.08	

System: 1-heptene + 1-allyl-3-methyl-1H-imidazolium bis((trifluoromethyl)sulfonyl)amide; phases: Liquid
Fixed: Mole fraction of 1-heptene = 0
Fixed: Pressure, kPa = 101.325
Property: Activity coefficient of 1-heptene (Liquid); method: Other
Temperature, K	Activity coefficient of 1-heptene	uncertainty
318.15	16.3	
328.15	15.7	
338.15	15.2	
348.15	14.7	
358.15	14.2	
368.15	13.8	

System: 1-octene + 1-allyl-3-methyl-1H-imidazolium bis((trifluoromethyl)sulfonyl)amide; phases: Liquid
Fixed: Mole fraction of 1-octene = 0
Fixed: Pressure, kPa = 101.325
Property: Activity coefficient of 1-octene (Liquid); method: Other
Temperature, K	Activity coefficient of 1-octene	uncertainty
318.15	24.1	
328.15	23.0	
338.15	22.2	
348.15	21.2	
358.15	20.5	
368.15	19.7	

System: 1-decene + 1-allyl-3-methyl-1H-imidazolium bis((trifluoromethyl)sulfonyl)amide; phases: Liquid
Fixed: Mole fraction of 1-decene = 0
Fixed: Pressure, kPa = 101.325
Property: Activity coefficient of 1-decene (Liquid); method: Other
Temperature, K	Activity coefficient of 1-decene	uncertainty
318.15	52.1	
328.15	48.8	
338.15	46.0	
348.15	43.6	
358.15	41.3	
368.15	39.3	

System: 1-pentyne + 1-allyl-3-methyl-1H-imidazolium bis((trifluoromethyl)sulfonyl)amide; phases: Liquid
Fixed: Mole fraction of 1-pentyne = 0
Fixed: Pressure, kPa = 101.325
Property: Activity coefficient of 1-pentyne (Liquid); method: Other
Temperature, K	Activity coefficient of 1-pentyne	uncertainty
318.15	2.54	
328.15	2.60	
338.15	2.67	
348.15	2.73	
358.15	2.79	
368.15	2.84	

System: 1-hexyne + 1-allyl-3-methyl-1H-imidazolium bis((trifluoromethyl)sulfonyl)amide; phases: Liquid
Fixed: Mole fraction of 1-hexyne = 0
Fixed: Pressure, kPa = 101.325
Property: Activity coefficient of 1-hexyne (Liquid); method: Other
Temperature, K	Activity coefficient of 1-hexyne	uncertainty
318.15	3.67	
328.15	3.75	
338.15	3.83	
348.15	3.91	
358.15	3.98	
368.15	4.06	

System: 1-heptyne + 1-allyl-3-methyl-1H-imidazolium bis((trifluoromethyl)sulfonyl)amide; phases: Liquid
Fixed: Mole fraction of 1-heptyne = 0
Fixed: Pressure, kPa = 101.325
Property: Activity coefficient of 1-heptyne (Liquid); method: Other
Temperature, K	Activity coefficient of 1-heptyne	uncertainty
318.15	5.38	
328.15	5.44	
338.15	5.49	
348.15	5.54	
358.15	5.58	
368.15	5.63	

System: 1-octyne + 1-allyl-3-methyl-1H-imidazolium bis((trifluoromethyl)sulfonyl)amide; phases: Liquid
Fixed: Mole fraction of 1-octyne = 0
Fixed: Pressure, kPa = 101.325
Property: Activity coefficient of 1-octyne (Liquid); method: Other
Temperature, K	Activity coefficient of 1-octyne	uncertainty
318.15	7.92	
328.15	7.93	
338.15	7.94	
348.15	7.94	
358.15	7.97	
368.15	7.96	

System: benzene + 1-allyl-3-methyl-1H-imidazolium bis((trifluoromethyl)sulfonyl)amide; phases: Liquid
Fixed: Mole fraction of benzene = 0
Fixed: Pressure, kPa = 101.325
Property: Activity coefficient of benzene (Liquid); method: Other
Temperature, K	Activity coefficient of benzene	uncertainty
318.15	1.16	
328.15	1.22	
338.15	1.27	
348.15	1.33	
358.15	1.38	
368.15	1.43	

System: toluene + 1-allyl-3-methyl-1H-imidazolium bis((trifluoromethyl)sulfonyl)amide; phases: Liquid
Fixed: Mole fraction of toluene = 0
Fixed: Pressure, kPa = 101.325
Property: Activity coefficient of toluene (Liquid); method: Other
Temperature, K	Activity coefficient of toluene	uncertainty
318.15	1.72	
328.15	1.80	
338.15	1.88	
348.15	1.95	
358.15	2.03	
368.15	2.11	

System: ethylbenzene + 1-allyl-3-methyl-1H-imidazolium bis((trifluoromethyl)sulfonyl)amide; phases: Liquid
Fixed: Mole fraction of ethylbenzene = 0
Fixed: Pressure, kPa = 101.325
Property: Activity coefficient of ethylbenzene (Liquid); method: Other
Temperature, K	Activity coefficient of ethylbenzene	uncertainty
318.15	2.71	
328.15	2.79	
338.15	2.87	
348.15	2.95	
358.15	3.03	
368.15	3.11	

System: 1,2-dimethylbenzene + 1-allyl-3-methyl-1H-imidazolium bis((trifluoromethyl)sulfonyl)amide; phases: Liquid
Fixed: Mole fraction of 1,2-dimethylbenzene = 0
Fixed: Pressure, kPa = 101.325
Property: Activity coefficient of 1,2-dimethylbenzene (Liquid); method: Other
Temperature, K	Activity coefficient of 1,2-dimethylbenzene	uncertainty
318.15	2.30	
328.15	2.39	
338.15	2.48	
348.15	2.57	
358.15	2.67	
368.15	2.75	

System: 1,3-dimethylbenzene + 1-allyl-3-methyl-1H-imidazolium bis((trifluoromethyl)sulfonyl)amide; phases: Liquid
Fixed: Mole fraction of 1,3-dimethylbenzene = 0
Fixed: Pressure, kPa = 101.325
Property: Activity coefficient of 1,3-dimethylbenzene (Liquid); method: Other
Temperature, K	Activity coefficient of 1,3-dimethylbenzene	uncertainty
318.15	2.63	
328.15	2.74	
338.15	2.84	
348.15	2.94	
358.15	3.04	
368.15	3.14	

System: 1,4-dimethylbenzene + 1-allyl-3-methyl-1H-imidazolium bis((trifluoromethyl)sulfonyl)amide; phases: Liquid
Fixed: Mole fraction of 1,4-dimethylbenzene = 0
Fixed: Pressure, kPa = 101.325
Property: Activity coefficient of 1,4-dimethylbenzene (Liquid); method: Other
Temperature, K	Activity coefficient of 1,4-dimethylbenzene	uncertainty
318.15	2.60	
328.15	2.72	
338.15	2.83	
348.15	2.94	
358.15	3.04	
368.15	3.15	

System: propylbenzene + 1-allyl-3-methyl-1H-imidazolium bis((trifluoromethyl)sulfonyl)amide; phases: Liquid
Fixed: Mole fraction of propylbenzene = 0
Fixed: Pressure, kPa = 101.325
Property: Activity coefficient of propylbenzene (Liquid); method: Other
Temperature, K	Activity coefficient of propylbenzene	uncertainty
318.15	4.03	
328.15	4.14	
338.15	4.24	
348.15	4.34	
358.15	4.44	
368.15	4.53	

System: isopropylbenzene + 1-allyl-3-methyl-1H-imidazolium bis((trifluoromethyl)sulfonyl)amide; phases: Liquid
Fixed: Mole fraction of isopropylbenzene = 0
Fixed: Pressure, kPa = 101.325
Property: Activity coefficient of isopropylbenzene (Liquid); method: Other
Temperature, K	Activity coefficient of isopropylbenzene	uncertainty
318.15	3.93	
328.15	4.03	
338.15	4.13	
348.15	4.23	
358.15	4.32	
368.15	4.40	

System: styrene + 1-allyl-3-methyl-1H-imidazolium bis((trifluoromethyl)sulfonyl)amide; phases: Liquid
Fixed: Mole fraction of styrene = 0
Fixed: Pressure, kPa = 101.325
Property: Activity coefficient of styrene (Liquid); method: Other
Temperature, K	Activity coefficient of styrene	uncertainty
318.15	1.51	
328.15	1.59	
338.15	1.67	
348.15	1.75	
358.15	1.83	
368.15	1.92	

System: (1-methylethenyl)benzene + 1-allyl-3-methyl-1H-imidazolium bis((trifluoromethyl)sulfonyl)amide; phases: Liquid
Fixed: Mole fraction of (1-methylethenyl)benzene = 0
Fixed: Pressure, kPa = 101.325
Property: Activity coefficient of (1-methylethenyl)benzene (Liquid); method: Other
Temperature, K	Activity coefficient of (1-methylethenyl)benzene	uncertainty
318.15	2.29	
328.15	2.43	
338.15	2.58	
348.15	2.72	
358.15	2.87	
368.15	3.02	

System: thiophene + 1-allyl-3-methyl-1H-imidazolium bis((trifluoromethyl)sulfonyl)amide; phases: Liquid
Fixed: Mole fraction of thiophene = 0
Fixed: Pressure, kPa = 101.325
Property: Activity coefficient of thiophene (Liquid); method: Other
Temperature, K	Activity coefficient of thiophene	uncertainty
318.15	1.04	
328.15	1.09	
338.15	1.13	
348.15	1.17	
358.15	1.22	
368.15	1.26	

System: pyridine + 1-allyl-3-methyl-1H-imidazolium bis((trifluoromethyl)sulfonyl)amide; phases: Liquid
Fixed: Mole fraction of pyridine = 0
Fixed: Pressure, kPa = 101.325
Property: Activity coefficient of pyridine (Liquid); method: Other
Temperature, K	Activity coefficient of pyridine	uncertainty
318.15	0.575	
328.15	0.606	
338.15	0.636	
348.15	0.665	
358.15	0.695	
368.15	0.725	

System: methanol + 1-allyl-3-methyl-1H-imidazolium bis((trifluoromethyl)sulfonyl)amide; phases: Liquid
Fixed: Mole fraction of methanol = 0
Fixed: Pressure, kPa = 101.325
Property: Activity coefficient of methanol (Liquid); method: Other
Temperature, K	Activity coefficient of methanol	uncertainty
318.15	1.34	
328.15	1.28	
338.15	1.23	
348.15	1.18	
358.15	1.13	
368.15	1.09	

System: ethanol + 1-allyl-3-methyl-1H-imidazolium bis((trifluoromethyl)sulfonyl)amide; phases: Liquid
Fixed: Mole fraction of ethanol = 0
Fixed: Pressure, kPa = 101.325
Property: Activity coefficient of ethanol (Liquid); method: Other
Temperature, K	Activity coefficient of ethanol	uncertainty
318.15	1.73	
328.15	1.64	
338.15	1.56	
348.15	1.49	
358.15	1.42	
368.15	1.37	

System: propan-1-ol + 1-allyl-3-methyl-1H-imidazolium bis((trifluoromethyl)sulfonyl)amide; phases: Liquid
Fixed: Mole fraction of propan-1-ol = 0
Fixed: Pressure, kPa = 101.325
Property: Activity coefficient of propan-1-ol (Liquid); method: Other
Temperature, K	Activity coefficient of propan-1-ol	uncertainty
318.15	2.18	
328.15	2.07	
338.15	1.96	
348.15	1.87	
358.15	1.79	
368.15	1.71	

System: propan-2-ol + 1-allyl-3-methyl-1H-imidazolium bis((trifluoromethyl)sulfonyl)amide; phases: Liquid
Fixed: Mole fraction of propan-2-ol = 0
Fixed: Pressure, kPa = 101.325
Property: Activity coefficient of propan-2-ol (Liquid); method: Other
Temperature, K	Activity coefficient of propan-2-ol	uncertainty
318.15	1.98	
328.15	1.87	
338.15	1.77	
348.15	1.68	
358.15	1.60	
368.15	1.53	

System: butan-1-ol + 1-allyl-3-methyl-1H-imidazolium bis((trifluoromethyl)sulfonyl)amide; phases: Liquid
Fixed: Mole fraction of butan-1-ol = 0
Fixed: Pressure, kPa = 101.325
Property: Activity coefficient of butan-1-ol (Liquid); method: Other
Temperature, K	Activity coefficient of butan-1-ol	uncertainty
318.15	2.88	
328.15	2.70	
338.15	2.54	
348.15	2.40	
358.15	2.28	
368.15	2.16	

System: butan-2-ol + 1-allyl-3-methyl-1H-imidazolium bis((trifluoromethyl)sulfonyl)amide; phases: Liquid
Fixed: Mole fraction of butan-2-ol = 0
Fixed: Pressure, kPa = 101.325
Property: Activity coefficient of butan-2-ol (Liquid); method: Other
Temperature, K	Activity coefficient of butan-2-ol	uncertainty
318.15	2.40	
328.15	2.26	
338.15	2.14	
348.15	2.05	
358.15	1.95	
368.15	1.87	

System: 2-methyl-1-propanol + 1-allyl-3-methyl-1H-imidazolium bis((trifluoromethyl)sulfonyl)amide; phases: Liquid
Fixed: Mole fraction of 2-methyl-1-propanol = 0
Fixed: Pressure, kPa = 101.325
Property: Activity coefficient of 2-methyl-1-propanol (Liquid); method: Other
Temperature, K	Activity coefficient of 2-methyl-1-propanol	uncertainty
318.15	2.75	
328.15	2.56	
338.15	2.39	
348.15	2.25	
358.15	2.12	
368.15	2.01	

System: 2-methyl-2-propanol + 1-allyl-3-methyl-1H-imidazolium bis((trifluoromethyl)sulfonyl)amide; phases: Liquid
Fixed: Mole fraction of 2-methyl-2-propanol = 0
Fixed: Pressure, kPa = 101.325
Property: Activity coefficient of 2-methyl-2-propanol (Liquid); method: Other
Temperature, K	Activity coefficient of 2-methyl-2-propanol	uncertainty
318.15	1.95	
328.15	1.87	
338.15	1.80	
348.15	1.74	
358.15	1.68	
368.15	1.62	

System: 1-pentanol + 1-allyl-3-methyl-1H-imidazolium bis((trifluoromethyl)sulfonyl)amide; phases: Liquid
Fixed: Mole fraction of 1-pentanol = 0
Fixed: Pressure, kPa = 101.325
Property: Activity coefficient of 1-pentanol (Liquid); method: Other
Temperature, K	Activity coefficient of 1-pentanol	uncertainty
318.15	3.52	
328.15	3.31	
338.15	3.13	
348.15	2.97	
358.15	2.83	
368.15	2.69	

System: water + 1-allyl-3-methyl-1H-imidazolium bis((trifluoromethyl)sulfonyl)amide; phases: Liquid
Fixed: Mole fraction of water = 0
Fixed: Pressure, kPa = 101.325
Property: Activity coefficient of water (Liquid); method: Other
Temperature, K	Activity coefficient of water	uncertainty
318.15	3.65	
328.15	3.06	
338.15	2.60	
348.15	2.24	
358.15	1.94	
368.15	1.70	

System: methyl ethanoate + 1-allyl-3-methyl-1H-imidazolium bis((trifluoromethyl)sulfonyl)amide; phases: Liquid
Fixed: Mole fraction of methyl ethanoate = 0
Fixed: Pressure, kPa = 101.325
Property: Activity coefficient of methyl ethanoate (Liquid); method: Other
Temperature, K	Activity coefficient of methyl ethanoate	uncertainty
318.15	0.653	
328.15	0.695	
338.15	0.737	
348.15	0.78	
358.15	0.822	
368.15	0.862	

System: methyl propanoate + 1-allyl-3-methyl-1H-imidazolium bis((trifluoromethyl)sulfonyl)amide; phases: Liquid
Fixed: Mole fraction of methyl propanoate = 0
Fixed: Pressure, kPa = 101.325
Property: Activity coefficient of methyl propanoate (Liquid); method: Other
Temperature, K	Activity coefficient of methyl propanoate	uncertainty
318.15	0.873	
328.15	0.928	
338.15	0.983	
348.15	1.04	
358.15	1.09	
368.15	1.14	

System: methyl butanoate + 1-allyl-3-methyl-1H-imidazolium bis((trifluoromethyl)sulfonyl)amide; phases: Liquid
Fixed: Mole fraction of methyl butanoate = 0
Fixed: Pressure, kPa = 101.325
Property: Activity coefficient of methyl butanoate (Liquid); method: Other
Temperature, K	Activity coefficient of methyl butanoate	uncertainty
318.15	1.25	
328.15	1.31	
338.15	1.38	
348.15	1.44	
358.15	1.51	
368.15	1.58	

System: ethyl ethanoate + 1-allyl-3-methyl-1H-imidazolium bis((trifluoromethyl)sulfonyl)amide; phases: Liquid
Fixed: Mole fraction of ethyl ethanoate = 0
Fixed: Pressure, kPa = 101.325
Property: Activity coefficient of ethyl ethanoate (Liquid); method: Other
Temperature, K	Activity coefficient of ethyl ethanoate	uncertainty
318.15	0.884	
328.15	0.940	
338.15	0.994	
348.15	1.051	
358.15	1.102	
368.15	1.156	

System: tetrahydrofuran + 1-allyl-3-methyl-1H-imidazolium bis((trifluoromethyl)sulfonyl)amide; phases: Liquid
Fixed: Mole fraction of tetrahydrofuran = 0
Fixed: Pressure, kPa = 101.325
Property: Activity coefficient of tetrahydrofuran (Liquid); method: Other
Temperature, K	Activity coefficient of tetrahydrofuran	uncertainty
318.15	0.752	
328.15	0.798	
338.15	0.844	
348.15	0.887	
358.15	0.93	
368.15	0.973	

System: 1,4-dioxane + 1-allyl-3-methyl-1H-imidazolium bis((trifluoromethyl)sulfonyl)amide; phases: Liquid
Fixed: Mole fraction of 1,4-dioxane = 0
Fixed: Pressure, kPa = 101.325
Property: Activity coefficient of 1,4-dioxane (Liquid); method: Other
Temperature, K	Activity coefficient of 1,4-dioxane	uncertainty
318.15	0.569	
328.15	0.616	
338.15	0.66	
348.15	0.707	
358.15	0.755	
368.15	0.801	

System: methyl tert-butyl ether + 1-allyl-3-methyl-1H-imidazolium bis((trifluoromethyl)sulfonyl)amide; phases: Liquid
Fixed: Mole fraction of methyl tert-butyl ether = 0
Fixed: Pressure, kPa = 101.325
Property: Activity coefficient of methyl tert-butyl ether (Liquid); method: Other
Temperature, K	Activity coefficient of methyl tert-butyl ether	uncertainty
318.15	2.49	
328.15	2.62	
338.15	2.76	
348.15	2.89	
358.15	3.02	
368.15	3.15	

System: tert-butyl ethyl ether + 1-allyl-3-methyl-1H-imidazolium bis((trifluoromethyl)sulfonyl)amide; phases: Liquid
Fixed: Mole fraction of tert-butyl ethyl ether = 0
Fixed: Pressure, kPa = 101.325
Property: Activity coefficient of tert-butyl ethyl ether (Liquid); method: Other
Temperature, K	Activity coefficient of tert-butyl ethyl ether	uncertainty
318.15	5.63	
328.15	5.81	
338.15	5.96	
348.15	6.11	
358.15	6.26	
368.15	6.40	

System: methyl tert-amyl ether + 1-allyl-3-methyl-1H-imidazolium bis((trifluoromethyl)sulfonyl)amide; phases: Liquid
Fixed: Mole fraction of methyl tert-amyl ether = 0
Fixed: Pressure, kPa = 101.325
Property: Activity coefficient of methyl tert-amyl ether (Liquid); method: Other
Temperature, K	Activity coefficient of methyl tert-amyl ether	uncertainty
318.15	3.75	
328.15	3.91	
338.15	4.05	
348.15	4.18	
358.15	4.33	
368.15	4.46	

System: diethyl ether + 1-allyl-3-methyl-1H-imidazolium bis((trifluoromethyl)sulfonyl)amide; phases: Liquid
Fixed: Mole fraction of diethyl ether = 0
Fixed: Pressure, kPa = 101.325
Property: Activity coefficient of diethyl ether (Liquid); method: Other
Temperature, K	Activity coefficient of diethyl ether	uncertainty
318.15	2.53	
328.15	2.63	
338.15	2.73	
348.15	2.83	
358.15	2.93	
368.15	3.02	

System: dipropyl ether + 1-allyl-3-methyl-1H-imidazolium bis((trifluoromethyl)sulfonyl)amide; phases: Liquid
Fixed: Mole fraction of dipropyl ether = 0
Fixed: Pressure, kPa = 101.325
Property: Activity coefficient of dipropyl ether (Liquid); method: Other
Temperature, K	Activity coefficient of dipropyl ether	uncertainty
318.15	7.05	
328.15	7.09	
338.15	7.15	
348.15	7.2	
358.15	7.25	
368.15	7.29	

System: diisopropyl ether + 1-allyl-3-methyl-1H-imidazolium bis((trifluoromethyl)sulfonyl)amide; phases: Liquid
Fixed: Mole fraction of diisopropyl ether = 0
Fixed: Pressure, kPa = 101.325
Property: Activity coefficient of diisopropyl ether (Liquid); method: Other
Temperature, K	Activity coefficient of diisopropyl ether	uncertainty
318.15	6.05	
328.15	6.25	
338.15	6.43	
348.15	6.60	
358.15	6.78	
368.15	6.94	

System: dibutyl ether + 1-allyl-3-methyl-1H-imidazolium bis((trifluoromethyl)sulfonyl)amide; phases: Liquid
Fixed: Mole fraction of dibutyl ether = 0
Fixed: Pressure, kPa = 101.325
Property: Activity coefficient of dibutyl ether (Liquid); method: Other
Temperature, K	Activity coefficient of dibutyl ether	uncertainty
318.15	15.9	
328.15	15.5	
338.15	15.2	
348.15	15.0	
358.15	14.7	
368.15	14.5	

System: acetone + 1-allyl-3-methyl-1H-imidazolium bis((trifluoromethyl)sulfonyl)amide; phases: Liquid
Fixed: Mole fraction of acetone = 0
Fixed: Pressure, kPa = 101.325
Property: Activity coefficient of acetone (Liquid); method: Other
Temperature, K	Activity coefficient of acetone	uncertainty
318.15	0.424	
328.15	0.452	
338.15	0.48	
348.15	0.508	
358.15	0.537	
368.15	0.563	

System: 2-pentanone + 1-allyl-3-methyl-1H-imidazolium bis((trifluoromethyl)sulfonyl)amide; phases: Liquid
Fixed: Mole fraction of 2-pentanone = 0
Fixed: Pressure, kPa = 101.325
Property: Activity coefficient of 2-pentanone (Liquid); method: Other
Temperature, K	Activity coefficient of 2-pentanone	uncertainty
318.15	0.779	
328.15	0.826	
338.15	0.873	
348.15	0.918	
358.15	0.966	
368.15	1.01	

System: 3-pentanone + 1-allyl-3-methyl-1H-imidazolium bis((trifluoromethyl)sulfonyl)amide; phases: Liquid
Fixed: Mole fraction of 3-pentanone = 0
Fixed: Pressure, kPa = 101.325
Property: Activity coefficient of 3-pentanone (Liquid); method: Other
Temperature, K	Activity coefficient of 3-pentanone	uncertainty
318.15	0.798	
328.15	0.848	
338.15	0.898	
348.15	0.949	
358.15	1.00	
368.15	1.05	

System: butanal + 1-allyl-3-methyl-1H-imidazolium bis((trifluoromethyl)sulfonyl)amide; phases: Liquid
Fixed: Mole fraction of butanal = 0
Fixed: Pressure, kPa = 101.325
Property: Activity coefficient of butanal (Liquid); method: Other
Temperature, K	Activity coefficient of butanal	uncertainty
318.15	0.782	
328.15	0.827	
338.15	0.872	
348.15	0.918	
358.15	0.964	
368.15	1.01	

System: acetonitrile + 1-allyl-3-methyl-1H-imidazolium bis((trifluoromethyl)sulfonyl)amide; phases: Liquid
Fixed: Mole fraction of acetonitrile = 0
Fixed: Pressure, kPa = 101.325
Property: Activity coefficient of acetonitrile (Liquid); method: Other
Temperature, K	Activity coefficient of acetonitrile	uncertainty
318.15	0.461	
328.15	0.480	
338.15	0.499	
348.15	0.520	
358.15	0.538	
368.15	0.557	

System: 1-nitropropane + 1-allyl-3-methyl-1H-imidazolium bis((trifluoromethyl)sulfonyl)amide; phases: Liquid
Fixed: Mole fraction of 1-nitropropane = 0
Fixed: Pressure, kPa = 101.325
Property: Activity coefficient of 1-nitropropane (Liquid); method: Other
Temperature, K	Activity coefficient of 1-nitropropane	uncertainty
318.15	0.753	
328.15	0.782	
338.15	0.812	
348.15	0.841	
358.15	0.871	
368.15	0.898	
