Measured thermophysical data. Study of solute solute and solute solvent interactions of l-methionine in  aqueous-sucrose solutions at different temperatures
Source: J. Chem. Thermodyn., 2013, 10.1016/j.jct.2012.11.001
Compound 1: .gamma.-methylthio-.alpha.-aminobutyric acid, C5H11NO2S
Compound 2: D-sucrose, C12H22O11, purity 99.8%
Compound 3: water, H2O

System: D-sucrose + .gamma.-methylthio-.alpha.-aminobutyric acid + water; phases: Liquid
Fixed: Pressure, kPa = 101
Property: Mass density, kg/m3 (Liquid); method: Pycnometric method
Temperature, K	Solvent: Mass fraction of D-sucrose	Molality, mol/kg of .gamma.-methylthio-.alpha.-aminobutyric acid	Mass density, kg/m3	uncertainty
293.15	.05	0	1018.91	.02
293.15	.05	.025	1019.9	.02
293.15	.05	.0499	1020.86	.02
293.15	.05	.0749	1021.8	.02
293.15	.05	.1	1022.74	.02
293.15	.05	.1249	1023.64	.02
293.15	.05	.15	1024.53	.02
293.15	.05	.175	1025.4	.02
293.15	.05	.2	1026.25	.02
298.15	.05	0	1017.19	.02
298.15	.05	.025	1018.17	.02
298.15	.05	.0499	1019.13	.02
298.15	.05	.0749	1020.08	.02
298.15	.05	.1	1021.01	.02
298.15	.05	.1249	1021.91	.02
298.15	.05	.15	1022.81	.02
298.15	.05	.175	1023.68	.02
298.15	.05	.2	1024.53	.02
303.15	.05	0	1015.46	.02
303.15	.05	.025	1016.44	.02
303.15	.05	.0499	1017.39	.02
303.15	.05	.0749	1018.34	.02
303.15	.05	.1	1019.26	.02
303.15	.05	.1249	1020.17	.02
303.15	.05	.15	1021.06	.02
303.15	.05	.175	1021.93	.02
303.15	.05	.2	1022.78	.02
308.15	.05	0	1013.72	.02
308.15	.05	.025	1014.69	.02
308.15	.05	.0499	1015.64	.02
308.15	.05	.0749	1016.58	.02
308.15	.05	.1	1017.51	.02
308.15	.05	.1249	1018.41	.02
308.15	.05	.15	1019.3	.02
308.15	.05	.175	1020.17	.02
308.15	.05	.2	1021.03	.02
313.15	.05	0	1011.98	.02
313.15	.05	.025	1012.95	.02
313.15	.05	.0499	1013.9	.02
313.15	.05	.0749	1014.83	.02
313.15	.05	.1	1015.76	.02
313.15	.05	.1249	1016.66	.02
313.15	.05	.15	1017.55	.02
313.15	.05	.175	1018.42	.02
313.15	.05	.2	1019.27	.02
318.15	.05	0	1010.23	.02
318.15	.05	.025	1011.2	.02
318.15	.05	.0499	1012.14	.02
318.15	.05	.0749	1013.08	.02
318.15	.05	.1	1014	.02
318.15	.05	.1249	1014.9	.02
318.15	.05	.15	1015.79	.02
318.15	.05	.175	1016.66	.02
318.15	.05	.2	1017.52	.02
293.15	.1	0	1039.28	.02
293.15	.1	.025	1040.15	.02
293.15	.1	.0499	1041	.02
293.15	.1	.0749	1041.84	.02
293.15	.1	.1	1042.66	.02
293.15	.1	.1249	1043.46	.02
293.15	.1	.15	1044.24	.02
293.15	.1	.175	1045.01	.02
293.15	.1	.2	1045.76	.02
298.15	.1	0	1037.45	.02
298.15	.1	.025	1038.32	.02
298.15	.1	.0499	1039.17	.02
298.15	.1	.0749	1040	.02
298.15	.1	.1	1040.82	.02
298.15	.1	.1249	1041.61	.02
298.15	.1	.15	1042.4	.02
298.15	.1	.175	1043.16	.02
298.15	.1	.2	1043.91	.02
303.15	.1	0	1035.61	.02
303.15	.1	.025	1036.47	.02
303.15	.1	.0499	1037.32	.02
303.15	.1	.0749	1038.15	.02
303.15	.1	.1	1038.96	.02
303.15	.1	.1249	1039.76	.02
303.15	.1	.15	1040.54	.02
303.15	.1	.175	1041.31	.02
303.15	.1	.2	1042.06	.02
308.15	.1	0	1033.76	.02
308.15	.1	.025	1034.62	.02
308.15	.1	.0499	1035.46	.02
308.15	.1	.0749	1036.29	.02
308.15	.1	.1	1037.1	.02
308.15	.1	.1249	1037.9	.02
308.15	.1	.15	1038.68	.02
308.15	.1	.175	1039.45	.02
308.15	.1	.2	1040.21	.02
313.15	.1	0	1031.93	.02
313.15	.1	.025	1032.78	.02
313.15	.1	.0499	1033.62	.02
313.15	.1	.0749	1034.45	.02
313.15	.1	.1	1035.26	.02
313.15	.1	.1249	1036.05	.02
313.15	.1	.15	1036.84	.02
313.15	.1	.175	1037.61	.02
313.15	.1	.2	1038.36	.02
318.15	.1	0	1030.09	.02
318.15	.1	.025	1030.94	.02
318.15	.1	.0499	1031.78	.02
318.15	.1	.0749	1032.59	.02
318.15	.1	.1	1033.4	.02
318.15	.1	.1249	1034.19	.02
318.15	.1	.15	1034.97	.02
318.15	.1	.175	1035.74	.02
318.15	.1	.2	1036.49	.02
293.15	.15	0	1060.31	.02
293.15	.15	.025	1061.08	.02
293.15	.15	.0499	1061.82	.02
293.15	.15	.0749	1062.56	.02
293.15	.15	.1	1063.27	.02
293.15	.15	.1249	1063.96	.02
293.15	.15	.15	1064.65	.02
293.15	.15	.175	1065.31	.02
293.15	.15	.2	1065.96	.02
298.15	.15	0	1058.49	.02
298.15	.15	.025	1059.25	.02
298.15	.15	.0499	1060	.02
298.15	.15	.0749	1060.72	.02
298.15	.15	.1	1061.43	.02
298.15	.15	.1249	1062.13	.02
298.15	.15	.15	1062.81	.02
298.15	.15	.175	1063.48	.02
298.15	.15	.2	1064.13	.02
303.15	.15	0	1056.67	.02
303.15	.15	.025	1057.43	.02
303.15	.15	.0499	1058.17	.02
303.15	.15	.0749	1058.89	.02
303.15	.15	.1	1059.6	.02
303.15	.15	.1249	1060.29	.02
303.15	.15	.15	1060.97	.02
303.15	.15	.175	1061.63	.02
303.15	.15	.2	1062.28	.02
308.15	.15	0	1054.84	.02
308.15	.15	.025	1055.59	.02
308.15	.15	.0499	1056.33	.02
308.15	.15	.0749	1057.04	.02
308.15	.15	.1	1057.75	.02
308.15	.15	.1249	1058.43	.02
308.15	.15	.15	1059.11	.02
308.15	.15	.175	1059.76	.02
308.15	.15	.2	1060.41	.02
313.15	.15	0	1053.01	.02
313.15	.15	.025	1053.76	.02
313.15	.15	.0499	1054.49	.02
313.15	.15	.0749	1055.2	.02
313.15	.15	.1	1055.89	.02
313.15	.15	.1249	1056.58	.02
313.15	.15	.15	1057.25	.02
313.15	.15	.175	1057.89	.02
313.15	.15	.2	1058.53	.02
318.15	.15	0	1051.2	.02
318.15	.15	.025	1051.94	.02
318.15	.15	.0499	1052.67	.02
318.15	.15	.0749	1053.37	.02
318.15	.15	.1	1054.06	.02
318.15	.15	.1249	1054.74	.02
318.15	.15	.15	1055.4	.02
318.15	.15	.175	1056.04	.02
318.15	.15	.2	1056.67	.02
293.15	.2	0	1082.73	.02
293.15	.2	.025	1083.4	.02
293.15	.2	.0499	1084.04	.02
293.15	.2	.0749	1084.67	.02
293.15	.2	.1	1085.29	.02
293.15	.2	.1249	1085.88	.02
293.15	.2	.15	1086.46	.02
293.15	.2	.175	1087.03	.02
293.15	.2	.2	1087.57	.02
298.15	.2	0	1080.77	.02
298.15	.2	.025	1081.43	.02
298.15	.2	.0499	1082.08	.02
298.15	.2	.0749	1082.7	.02
298.15	.2	.1	1083.32	.02
298.15	.2	.1249	1083.91	.02
298.15	.2	.15	1084.49	.02
298.15	.2	.175	1085.05	.02
298.15	.2	.2	1085.59	.02
303.15	.2	0	1078.8	.02
303.15	.2	.025	1079.46	.02
303.15	.2	.0499	1080.1	.02
303.15	.2	.0749	1080.72	.02
303.15	.2	.1	1081.33	.02
303.15	.2	.1249	1081.92	.02
303.15	.2	.15	1082.49	.02
303.15	.2	.175	1083.05	.02
303.15	.2	.2	1083.6	.02
308.15	.2	0	1076.84	.02
308.15	.2	.025	1077.49	.02
308.15	.2	.0499	1078.13	.02
308.15	.2	.0749	1078.75	.02
308.15	.2	.1	1079.35	.02
308.15	.2	.1249	1079.94	.02
308.15	.2	.15	1080.51	.02
308.15	.2	.175	1081.07	.02
308.15	.2	.2	1081.61	.02
313.15	.2	0	1074.88	.02
313.15	.2	.025	1075.53	.02
313.15	.2	.0499	1076.16	.02
313.15	.2	.0749	1076.77	.02
313.15	.2	.1	1077.37	.02
313.15	.2	.1249	1077.96	.02
313.15	.2	.15	1078.53	.02
313.15	.2	.175	1079.08	.02
313.15	.2	.2	1079.62	.02
318.15	.2	0	1072.93	.02
318.15	.2	.025	1073.57	.02
318.15	.2	.0499	1074.2	.02
318.15	.2	.0749	1074.81	.02
318.15	.2	.1	1075.41	.02
318.15	.2	.1249	1075.99	.02
318.15	.2	.15	1076.56	.02
318.15	.2	.175	1077.11	.02
318.15	.2	.2	1077.64	.02

System: D-sucrose + .gamma.-methylthio-.alpha.-aminobutyric acid + water; phases: Liquid
Fixed: Pressure, kPa = 101
Property: Speed of sound, m/s (Liquid); method: Linear variable-path acoustic interferometer
Temperature, K	Solvent: Mass fraction of D-sucrose	Molality, mol/kg of .gamma.-methylthio-.alpha.-aminobutyric acid	Speed of sound, m/s	uncertainty
293.15	.05	0	1501.4	.3
293.15	.05	.025	1502.3	.3
293.15	.05	.0499	1503.5	.3
293.15	.05	.0749	1505	.3
293.15	.05	.1	1506.7	.3
293.15	.05	.1249	1508.8	.3
293.15	.05	.15	1511.1	.3
293.15	.05	.175	1513.6	.3
293.15	.05	.2	1516.4	.3
298.15	.05	0	1516.5	.3
298.15	.05	.025	1517.4	.3
298.15	.05	.0499	1518.5	.3
298.15	.05	.0749	1519.9	.3
298.15	.05	.1	1521.6	.3
298.15	.05	.1249	1523.6	.3
298.15	.05	.15	1525.9	.3
298.15	.05	.175	1528.4	.3
298.15	.05	.2	1531.2	.3
303.15	.05	0	1526.6	.3
303.15	.05	.025	1527.4	.3
303.15	.05	.0499	1528.4	.3
303.15	.05	.0749	1529.7	.3
303.15	.05	.1	1531.4	.3
303.15	.05	.1249	1533.3	.3
303.15	.05	.15	1535.5	.3
303.15	.05	.175	1537.9	.3
303.15	.05	.2	1540.7	.3
308.15	.05	0	1537.8	.3
308.15	.05	.025	1538.4	.3
308.15	.05	.0499	1539.4	.3
308.15	.05	.0749	1540.7	.3
308.15	.05	.1	1542.2	.3
308.15	.05	.1249	1544.1	.3
308.15	.05	.15	1546.2	.3
308.15	.05	.175	1548.6	.3
308.15	.05	.2	1551.2	.3
313.15	.05	0	1547.7	.3
313.15	.05	.025	1548.3	.3
313.15	.05	.0499	1549.2	.3
313.15	.05	.0749	1550.3	.3
313.15	.05	.1	1551.8	.3
313.15	.05	.1249	1553.6	.3
313.15	.05	.15	1555.7	.3
313.15	.05	.175	1557.9	.3
313.15	.05	.2	1560.5	.3
318.15	.05	0	1557.2	.3
318.15	.05	.025	1557.7	.3
318.15	.05	.0499	1558.5	.3
318.15	.05	.0749	1559.6	.3
318.15	.05	.1	1561	.3
318.15	.05	.1249	1562.7	.3
318.15	.05	.15	1564.7	.3
318.15	.05	.175	1566.9	.3
318.15	.05	.2	1569.4	.3
293.15	.1	0	1522.5	.3
293.15	.1	.025	1523.5	.3
293.15	.1	.0499	1524.7	.3
293.15	.1	.0749	1526.1	.3
293.15	.1	.1	1527.7	.3
293.15	.1	.1249	1529.5	.3
293.15	.1	.15	1531.6	.3
293.15	.1	.175	1533.9	.3
293.15	.1	.2	1536.4	.3
298.15	.1	0	1531.8	.3
298.15	.1	.025	1532.7	.3
298.15	.1	.0499	1533.9	.3
298.15	.1	.0749	1535.2	.3
298.15	.1	.1	1536.8	.3
298.15	.1	.1249	1538.5	.3
298.15	.1	.15	1540.5	.3
298.15	.1	.175	1542.7	.3
298.15	.1	.2	1545	.3
303.15	.1	0	1541.8	.3
303.15	.1	.025	1542.6	.3
303.15	.1	.0499	1543.7	.3
303.15	.1	.0749	1544.9	.3
303.15	.1	.1	1546.5	.3
303.15	.1	.1249	1548.2	.3
303.15	.1	.15	1550.1	.3
303.15	.1	.175	1552.2	.3
303.15	.1	.2	1554.5	.3
308.15	.1	0	1551.6	.3
308.15	.1	.025	1552.4	.3
308.15	.1	.0499	1553.3	.3
308.15	.1	.0749	1554.5	.3
308.15	.1	.1	1555.9	.3
308.15	.1	.1249	1557.5	.3
308.15	.1	.15	1559.3	.3
308.15	.1	.175	1561.4	.3
308.15	.1	.2	1563.6	.3
313.15	.1	0	1561.8	.3
313.15	.1	.025	1562.5	.3
313.15	.1	.0499	1563.4	.3
313.15	.1	.0749	1564.5	.3
313.15	.1	.1	1565.8	.3
313.15	.1	.1249	1567.3	.3
313.15	.1	.15	1569.1	.3
313.15	.1	.175	1571.1	.3
313.15	.1	.2	1573.3	.3
318.15	.1	0	1570.9	.3
318.15	.1	.025	1571.5	.3
318.15	.1	.0499	1572.3	.3
318.15	.1	.0749	1573.3	.3
318.15	.1	.1	1574.6	.3
318.15	.1	.1249	1576	.3
318.15	.1	.15	1577.7	.3
318.15	.1	.175	1579.6	.3
318.15	.1	.2	1581.7	.3
293.15	.15	0	1533.4	.3
293.15	.15	.025	1534.4	.3
293.15	.15	.0499	1535.6	.3
293.15	.15	.0749	1536.9	.3
293.15	.15	.1	1538.4	.3
293.15	.15	.1249	1540.1	.3
293.15	.15	.15	1541.9	.3
293.15	.15	.175	1543.9	.3
293.15	.15	.2	1546	.3
298.15	.15	0	1543.6	.3
298.15	.15	.025	1544.5	.3
298.15	.15	.0499	1545.6	.3
298.15	.15	.0749	1546.9	.3
298.15	.15	.1	1548.3	.3
298.15	.15	.1249	1549.9	.3
298.15	.15	.15	1551.7	.3
298.15	.15	.175	1553.6	.3
298.15	.15	.2	1555.7	.3
303.15	.15	0	1553	.3
303.15	.15	.025	1553.9	.3
303.15	.15	.0499	1554.9	.3
303.15	.15	.0749	1556.1	.3
303.15	.15	.1	1557.4	.3
303.15	.15	.1249	1559	.3
303.15	.15	.15	1560.7	.3
303.15	.15	.175	1562.6	.3
303.15	.15	.2	1564.6	.3
308.15	.15	0	1562	.3
308.15	.15	.025	1562.8	.3
308.15	.15	.0499	1563.8	.3
308.15	.15	.0749	1564.9	.3
308.15	.15	.1	1566.2	.3
308.15	.15	.1249	1567.7	.3
308.15	.15	.15	1569.4	.3
308.15	.15	.175	1571.2	.3
308.15	.15	.2	1573.2	.3
313.15	.15	0	1570.8	.3
313.15	.15	.025	1571.5	.3
313.15	.15	.0499	1572.4	.3
313.15	.15	.0749	1573.5	.3
313.15	.15	.1	1574.7	.3
313.15	.15	.1249	1576.2	.3
313.15	.15	.15	1577.8	.3
313.15	.15	.175	1579.6	.3
313.15	.15	.2	1581.5	.3
318.15	.15	0	1579.2	.3
318.15	.15	.025	1579.9	.3
318.15	.15	.0499	1580.7	.3
318.15	.15	.0749	1581.7	.3
318.15	.15	.1	1582.9	.3
318.15	.15	.1249	1584.3	.3
318.15	.15	.15	1585.8	.3
318.15	.15	.175	1587.5	.3
318.15	.15	.2	1589.4	.3
293.15	.2	0	1545.2	.3
293.15	.2	.025	1546.2	.3
293.15	.2	.0499	1547.3	.3
293.15	.2	.0749	1548.6	.3
293.15	.2	.1	1549.9	.3
293.15	.2	.1249	1551.4	.3
293.15	.2	.15	1553	.3
293.15	.2	.175	1554.7	.3
293.15	.2	.2	1556.5	.3
298.15	.2	0	1555.3	.3
298.15	.2	.025	1556.2	.3
298.15	.2	.0499	1557.3	.3
298.15	.2	.0749	1558.5	.3
298.15	.2	.1	1559.8	.3
298.15	.2	.1249	1561.2	.3
298.15	.2	.15	1562.8	.3
298.15	.2	.175	1564.4	.3
298.15	.2	.2	1566.2	.3
303.15	.2	0	1564.6	.3
303.15	.2	.025	1565.5	.3
303.15	.2	.0499	1566.5	.3
303.15	.2	.0749	1567.7	.3
303.15	.2	.1	1568.9	.3
303.15	.2	.1249	1570.3	.3
303.15	.2	.15	1571.8	.3
303.15	.2	.175	1573.4	.3
303.15	.2	.2	1575.1	.3
308.15	.2	0	1575.2	.3
308.15	.2	.025	1576	.3
308.15	.2	.0499	1577	.3
308.15	.2	.0749	1578.1	.3
308.15	.2	.1	1579.3	.3
308.15	.2	.1249	1580.7	.3
308.15	.2	.15	1582.1	.3
308.15	.2	.175	1583.7	.3
308.15	.2	.2	1585.4	.3
313.15	.2	0	1583.9	.3
313.15	.2	.025	1584.7	.3
313.15	.2	.0499	1585.6	.3
313.15	.2	.0749	1586.7	.3
313.15	.2	.1	1587.8	.3
313.15	.2	.1249	1589.1	.3
313.15	.2	.15	1590.6	.3
313.15	.2	.175	1592.1	.3
313.15	.2	.2	1593.7	.3
318.15	.2	0	1592.8	.3
318.15	.2	.025	1593.6	.3
318.15	.2	.0499	1594.5	.3
318.15	.2	.0749	1595.5	.3
318.15	.2	.1	1596.6	.3
318.15	.2	.1249	1597.8	.3
318.15	.2	.15	1599.2	.3
318.15	.2	.175	1600.7	.3
318.15	.2	.2	1602.3	.3

System: D-sucrose + .gamma.-methylthio-.alpha.-aminobutyric acid + water; phases: Liquid
Fixed: Pressure, kPa = 101
Property: Viscosity, Pa*s (Liquid); method: Capillary tube (Ostwald; Ubbelohde) method
Temperature, K	Solvent: Mass fraction of D-sucrose	Molality, mol/kg of .gamma.-methylthio-.alpha.-aminobutyric acid	Viscosity, Pa*s	uncertainty
293.15	.05	0	1.2137	.000001
293.15	.05	.025	1.2276	.000001
293.15	.05	.0499	1.2381	.000001
293.15	.05	.0749	1.2481	.000001
293.15	.05	.1	1.2578	.000001
293.15	.05	.1249	1.2675	.000001
293.15	.05	.15	1.277	.000001
293.15	.05	.175	1.2871	.000001
293.15	.05	.2	1.2966	.000001
298.15	.05	0	1.011	.000001
298.15	.05	.025	1.0232	.000001
298.15	.05	.0499	1.0325	.000001
298.15	.05	.0749	1.0417	.000001
298.15	.05	.1	1.0505	.000001
298.15	.05	.1249	1.0595	.000001
298.15	.05	.15	1.0685	.000001
298.15	.05	.175	1.0771	.000001
298.15	.05	.2	1.086	.000001
303.15	.05	0	.9129	.000001
303.15	.05	.025	.9246	.000001
303.15	.05	.0499	.9339	.000001
303.15	.05	.0749	.9431	.000001
303.15	.05	.1	.952	.000001
303.15	.05	.1249	.9607	.000001
303.15	.05	.15	.9692	.000001
303.15	.05	.175	.9779	.000001
303.15	.05	.2	.9863	.000001
308.15	.05	0	.8285	.000001
308.15	.05	.025	.8397	.000001
308.15	.05	.0499	.8488	.000001
308.15	.05	.0749	.8577	.000001
308.15	.05	.1	.8664	.000001
308.15	.05	.1249	.8747	.000001
308.15	.05	.15	.8833	.000001
308.15	.05	.175	.8916	.000001
308.15	.05	.2	.9	.000001
313.15	.05	0	.7457	.000001
313.15	.05	.025	.7563	.000001
313.15	.05	.0499	.7651	.000001
313.15	.05	.0749	.7736	.000001
313.15	.05	.1	.782	.000001
313.15	.05	.1249	.7901	.000001
313.15	.05	.15	.7983	.000001
313.15	.05	.175	.8065	.000001
313.15	.05	.2	.8146	.000001
318.15	.05	0	.6946	.000001
318.15	.05	.025	.7049	.000001
318.15	.05	.0499	.7137	.000001
318.15	.05	.0749	.722	.000001
318.15	.05	.1	.7304	.000001
318.15	.05	.1249	.7384	.000001
318.15	.05	.15	.7466	.000001
318.15	.05	.175	.7548	.000001
318.15	.05	.2	.7628	.000001
293.15	.1	0	1.3765	.000001
293.15	.1	.025	1.393	.000001
293.15	.1	.0499	1.4058	.000001
293.15	.1	.0749	1.4182	.000001
293.15	.1	.1	1.4303	.000001
293.15	.1	.1249	1.4425	.000001
293.15	.1	.15	1.4546	.000001
293.15	.1	.175	1.4665	.000001
293.15	.1	.2	1.4788	.000001
298.15	.1	0	1.1832	.000001
298.15	.1	.025	1.1981	.000001
298.15	.1	.0499	1.21	.000001
298.15	.1	.0749	1.2214	.000001
298.15	.1	.1	1.2327	.000001
298.15	.1	.1249	1.2438	.000001
298.15	.1	.15	1.2551	.000001
298.15	.1	.175	1.2663	.000001
298.15	.1	.2	1.2775	.000001
303.15	.1	0	1.0606	.000001
303.15	.1	.025	1.0746	.000001
303.15	.1	.0499	1.0859	.000001
303.15	.1	.0749	1.0969	.000001
303.15	.1	.1	1.1077	.000001
303.15	.1	.1249	1.1183	.000001
303.15	.1	.15	1.1291	.000001
303.15	.1	.175	1.14	.000001
303.15	.1	.2	1.1505	.000001
308.15	.1	0	.9614	.000001
308.15	.1	.025	.9746	.000001
308.15	.1	.0499	.9855	.000001
308.15	.1	.0749	.9959	.000001
308.15	.1	.1	1.0063	.000001
308.15	.1	.1249	1.0166	.000001
308.15	.1	.15	1.027	.000001
308.15	.1	.175	1.0373	.000001
308.15	.1	.2	1.0475	.000001
313.15	.1	0	.8804	.000001
313.15	.1	.025	.8929	.000001
313.15	.1	.0499	.9034	.000001
313.15	.1	.0749	.9135	.000001
313.15	.1	.1	.9236	.000001
313.15	.1	.1249	.9335	.000001
313.15	.1	.15	.9436	.000001
313.15	.1	.175	.9535	.000001
313.15	.1	.2	.9636	.000001
318.15	.1	0	.8179	.000001
318.15	.1	.025	.8298	.000001
318.15	.1	.0499	.8401	.000001
318.15	.1	.0749	.85	.000001
318.15	.1	.1	.8598	.000001
318.15	.1	.1249	.8695	.000001
318.15	.1	.15	.8795	.000001
318.15	.1	.175	.8892	.000001
318.15	.1	.2	.8988	.000001
293.15	.15	0	1.6088	.000001
293.15	.15	.025	1.6289	.000001
293.15	.15	.0499	1.6447	.000001
293.15	.15	.0749	1.66	.000001
293.15	.15	.1	1.6749	.000001
293.15	.15	.1249	1.6897	.000001
293.15	.15	.15	1.7047	.000001
293.15	.15	.175	1.7198	.000001
293.15	.15	.2	1.7345	.000001
298.15	.15	0	1.4184	.000001
298.15	.15	.025	1.4369	.000001
298.15	.15	.0499	1.4518	.000001
298.15	.15	.0749	1.4661	.000001
298.15	.15	.1	1.4803	.000001
298.15	.15	.1249	1.4943	.000001
298.15	.15	.15	1.5085	.000001
298.15	.15	.175	1.5225	.000001
298.15	.15	.2	1.5368	.000001
303.15	.15	0	1.2523	.000001
303.15	.15	.025	1.2694	.000001
303.15	.15	.0499	1.2834	.000001
303.15	.15	.0749	1.297	.000001
303.15	.15	.1	1.3106	.000001
303.15	.15	.1249	1.3236	.000001
303.15	.15	.15	1.3367	.000001
303.15	.15	.175	1.3498	.000001
303.15	.15	.2	1.3629	.000001
308.15	.15	0	1.1291	.000001
308.15	.15	.025	1.1452	.000001
308.15	.15	.0499	1.1585	.000001
308.15	.15	.0749	1.1716	.000001
308.15	.15	.1	1.1842	.000001
308.15	.15	.1249	1.1968	.000001
308.15	.15	.15	1.2091	.000001
308.15	.15	.175	1.2215	.000001
308.15	.15	.2	1.2341	.000001
313.15	.15	0	1.025	.000001
313.15	.15	.025	1.0402	.000001
313.15	.15	.0499	1.0528	.000001
313.15	.15	.0749	1.0654	.000001
313.15	.15	.1	1.0776	.000001
313.15	.15	.1249	1.0895	.000001
313.15	.15	.15	1.1014	.000001
313.15	.15	.175	1.1133	.000001
313.15	.15	.2	1.1251	.000001
318.15	.15	0	.9402	.000001
318.15	.15	.025	.9546	.000001
318.15	.15	.0499	.9668	.000001
318.15	.15	.0749	.9788	.000001
318.15	.15	.1	.9903	.000001
318.15	.15	.1249	1.002	.000001
318.15	.15	.15	1.0137	.000001
318.15	.15	.175	1.0251	.000001
318.15	.15	.2	1.0368	.000001
293.15	.2	0	1.9318	.000001
293.15	.2	.025	1.9569	.000001
293.15	.2	.0499	1.9767	.000001
293.15	.2	.0749	1.9962	.000001
293.15	.2	.1	2.0154	.000001
293.15	.2	.1249	2.0341	.000001
293.15	.2	.15	2.0528	.000001
293.15	.2	.175	2.0709	.000001
293.15	.2	.2	2.089	.000001
298.15	.2	0	1.7558	.000001
298.15	.2	.025	1.7795	.000001
298.15	.2	.0499	1.7986	.000001
298.15	.2	.0749	1.8174	.000001
298.15	.2	.1	1.8356	.000001
298.15	.2	.1249	1.8537	.000001
298.15	.2	.15	1.8717	.000001
298.15	.2	.175	1.8898	.000001
298.15	.2	.2	1.9074	.000001
303.15	.2	0	1.5489	.000001
303.15	.2	.025	1.5705	.000001
303.15	.2	.0499	1.5887	.000001
303.15	.2	.0749	1.6061	.000001
303.15	.2	.1	1.6233	.000001
303.15	.2	.1249	1.64	.000001
303.15	.2	.15	1.6566	.000001
303.15	.2	.175	1.6735	.000001
303.15	.2	.2	1.6897	.000001
308.15	.2	0	1.3963	.000001
308.15	.2	.025	1.4166	.000001
308.15	.2	.0499	1.4337	.000001
308.15	.2	.0749	1.4502	.000001
308.15	.2	.1	1.4663	.000001
308.15	.2	.1249	1.4822	.000001
308.15	.2	.15	1.498	.000001
308.15	.2	.175	1.5138	.000001
308.15	.2	.2	1.5292	.000001
313.15	.2	0	1.2495	.000001
313.15	.2	.025	1.2683	.000001
313.15	.2	.0499	1.2845	.000001
313.15	.2	.0749	1.3002	.000001
313.15	.2	.1	1.3156	.000001
313.15	.2	.1249	1.3304	.000001
313.15	.2	.15	1.3454	.000001
313.15	.2	.175	1.3598	.000001
313.15	.2	.2	1.3741	.000001
318.15	.2	0	1.15	.000001
318.15	.2	.025	1.1679	.000001
318.15	.2	.0499	1.1835	.000001
318.15	.2	.0749	1.1983	.000001
318.15	.2	.1	1.213	.000001
318.15	.2	.1249	1.2275	.000001
318.15	.2	.15	1.2418	.000001
318.15	.2	.175	1.2562	.000001
318.15	.2	.2	1.2702	.000001

System: D-sucrose + water; phases: Liquid
Property: Mass density, kg/m3 (Liquid); method: Pycnometric method
Temperature, K	Mass fraction of D-sucrose	Pressure, kPa	Mass density, kg/m3	uncertainty
293.15	.05	101	1018.91	.02
298.15	.05	101	1017.19	.02
303.15	.05	101	1015.46	.02
308.15	.05	101	1013.72	.02
313.15	.05	101	1011.98	.02
318.15	.05	101	1010.23	.02
293.15	.1	101	1039.28	.02
298.15	.1	101	1037.45	.02
303.15	.1	101	1035.61	.02
308.15	.1	101	1033.76	.02
313.15	.1	101	1031.93	.02
318.15	.1	101	1030.09	.02
293.15	.15	101	1060.31	.02
298.15	.15	101	1058.49	.02
303.15	.15	101	1056.67	.02
308.15	.15	101	1054.84	.02
313.15	.15	101	1053.01	.02
318.15	.15	101	1051.2	.02
293.15	.2	101	1082.73	.02
298.15	.2	101	1080.77	.02
303.15	.2	101	1078.8	.02
308.15	.2	101	1076.84	.02
313.15	.2	101	1074.88	.02
318.15	.2	101	1072.93	.02

System: D-sucrose + water; phases: Liquid
Property: Speed of sound, m/s (Liquid); method: Linear variable-path acoustic interferometer
Temperature, K	Mass fraction of D-sucrose	Pressure, kPa	Speed of sound, m/s	uncertainty
293.15	.05	101	1501.4	.3
298.15	.05	101	1516.5	.3
303.15	.05	101	1526.6	.3
308.15	.05	101	1537.8	.3
313.15	.05	101	1547.7	.3
318.15	.05	101	1557.2	.3
293.15	.1	101	1522.5	.3
298.15	.1	101	1531.8	.3
303.15	.1	101	1541.8	.3
308.15	.1	101	1551.6	.3
313.15	.1	101	1561.8	.3
318.15	.1	101	1570.9	.3
293.15	.15	101	1533.4	.3
298.15	.15	101	1543.6	.3
303.15	.15	101	1553	.3
308.15	.15	101	1562	.3
313.15	.15	101	1570.8	.3
318.15	.15	101	1579.2	.3
293.15	.2	101	1545.2	.3
298.15	.2	101	1555.3	.3
303.15	.2	101	1564.6	.3
308.15	.2	101	1575.2	.3
313.15	.2	101	1583.9	.3
318.15	.2	101	1592.8	.3

System: D-sucrose + water; phases: Liquid
Property: Viscosity, Pa*s (Liquid); method: Capillary tube (Ostwald; Ubbelohde) method
Temperature, K	Mass fraction of D-sucrose	Pressure, kPa	Viscosity, Pa*s	uncertainty
293.15	.05	101	1.2137	.000001
298.15	.05	101	1.011	.000001
303.15	.05	101	.9129	.000001
308.15	.05	101	.8285	.000001
313.15	.05	101	.7457	.000001
318.15	.05	101	.6946	.000001
293.15	.1	101	1.3765	.000001
298.15	.1	101	1.1832	.000001
303.15	.1	101	1.0606	.000001
308.15	.1	101	.9614	.000001
313.15	.1	101	.8804	.000001
318.15	.1	101	.8179	.000001
293.15	.15	101	1.6088	.000001
298.15	.15	101	1.4184	.000001
303.15	.15	101	1.2523	.000001
308.15	.15	101	1.1291	.000001
313.15	.15	101	1.025	.000001
318.15	.15	101	.9402	.000001
293.15	.2	101	1.9318	.000001
298.15	.2	101	1.7558	.000001
303.15	.2	101	1.5489	.000001
308.15	.2	101	1.3963	.000001
313.15	.2	101	1.2495	.000001
318.15	.2	101	1.15	.000001
