Measured thermophysical data. Apparent molar volumes and expansibilities of H2O and D2O in N,N-dimethylformamide and N,N-dimethylacetamide in the range of T = (278.15 to 318.15) K at p = 0.1 MPa: A comparative analysis
Source: J. Chem. Thermodyn., 2012, 10.1016/j.jct.2012.04.007
Compound 1: N,N-dimethylformamide, C3H7NO, purity 99.5%
Compound 2: acetamide, N,N-dimethyl-, C4H9NO, purity 99.5%
Compound 3: water, H2O, purity 99.9%
Compound 4: deuterium oxide (18O), D2O, purity 99.9%

System: N,N-dimethylformamide; phases: Liquid
Fixed: Pressure, kPa = 101.325
Property: Mass density, kg/m3 (Liquid); method: Vibrating tube method
Temperature, K	Mass density, kg/m3	uncertainty
278.15	962.9011	.02
288.15	953.398	.02
298.15	943.869	.02
308.15	934.298	.02
318.15	924.683	.02

System: acetamide, N,N-dimethyl-; phases: Liquid
Fixed: Pressure, kPa = 101.325
Property: Mass density, kg/m3 (Liquid); method: Vibrating tube method
Temperature, K	Mass density, kg/m3	uncertainty
278.15	954.78	.02
288.15	945.591	.02
298.15	936.382	.02
308.15	927.142	.02
318.15	917.863	.02

System: N,N-dimethylformamide + water; phases: Liquid
Fixed: Pressure, kPa = 101
Property: Mass density, kg/m3 (Liquid); method: Vibrating tube method
Temperature, K	Mole fraction of water	Mass density, kg/m3	uncertainty
278.15	.0002028	962.91	.02
278.15	.0008875	962.94	.02
278.15	.001707	962.98	.02
278.15	.002654	963.03	.02
278.15	.003456	963.06	.02
278.15	.00465	963.12	.02
278.15	.006106	963.19	.02
278.15	.007804	963.28	.02
278.15	.009189	963.34	.02
278.15	.01051	963.4	.02
278.15	.01182	963.47	.02
288.15	.0002028	953.41	.02
288.15	.0008875	953.44	.02
288.15	.001707	953.48	.02
288.15	.002654	953.53	.02
288.15	.003456	953.57	.02
288.15	.00465	953.62	.02
288.15	.006106	953.69	.02
288.15	.007804	953.77	.02
288.15	.009189	953.84	.02
288.15	.01051	953.9	.02
288.15	.01182	953.97	.02
298.15	.0002028	943.88	.02
298.15	.0008875	943.91	.02
298.15	.001707	943.95	.02
298.15	.002654	944	.02
298.15	.003456	944.03	.02
298.15	.00465	944.09	.02
298.15	.006106	944.16	.02
298.15	.007804	944.24	.02
298.15	.009189	944.3	.02
298.15	.01051	944.37	.02
298.15	.01182	944.43	.02
308.15	.0002028	934.31	.02
308.15	.0008875	934.34	.02
308.15	.001707	934.38	.02
308.15	.002654	934.42	.02
308.15	.003456	934.46	.02
308.15	.00465	934.52	.02
308.15	.006106	934.58	.02
308.15	.007804	934.66	.02
308.15	.009189	934.73	.02
308.15	.01051	934.79	.02
308.15	.01182	934.85	.02
318.15	.0002028	924.69	.02
318.15	.0008875	924.72	.02
318.15	.001707	924.76	.02
318.15	.002654	924.8	.02
318.15	.003456	924.84	.02
318.15	.00465	924.89	.02
318.15	.006106	924.96	.02
318.15	.007804	925.04	.02
318.15	.009189	925.1	.02
318.15	.01051	925.16	.02
318.15	.01182	925.22	.02

System: N,N-dimethylformamide + deuterium oxide (18O); phases: Liquid
Fixed: Pressure, kPa = 101
Property: Mass density, kg/m3 (Liquid); method: Vibrating tube method
Temperature, K	Mole fraction of deuterium oxide (18O)	Mass density, kg/m3	uncertainty
278.15	.0002028	962.92	.02
278.15	.0009641	962.98	.02
278.15	.00191	963.05	.02
278.15	.002862	963.12	.02
278.15	.003812	963.19	.02
278.15	.004846	963.27	.02
278.15	.005839	963.35	.02
278.15	.006984	963.44	.02
278.15	.008587	963.56	.02
278.15	.01049	963.71	.02
278.15	.012	963.83	.02
288.15	.0002028	953.41	.02
288.15	.0009641	953.47	.02
288.15	.00191	953.54	.02
288.15	.002862	953.61	.02
288.15	.003812	953.68	.02
288.15	.004846	953.76	.02
288.15	.005839	953.84	.02
288.15	.006984	953.92	.02
288.15	.008587	954.05	.02
288.15	.01049	954.19	.02
288.15	.012	954.31	.02
298.15	.0002028	943.88	.02
298.15	.0009641	943.94	.02
298.15	.00191	944.01	.02
298.15	.002862	944.08	.02
298.15	.003812	944.15	.02
298.15	.004846	944.23	.02
298.15	.005839	944.3	.02
298.15	.006984	944.39	.02
298.15	.008587	944.51	.02
298.15	.01049	944.65	.02
298.15	.012	944.77	.02
308.15	.0002028	934.31	.02
308.15	.0009641	934.37	.02
308.15	.00191	934.44	.02
308.15	.002862	934.5	.02
308.15	.003812	934.57	.02
308.15	.004846	934.65	.02
308.15	.005839	934.72	.02
308.15	.006984	934.81	.02
308.15	.008587	934.93	.02
308.15	.01049	935.07	.02
308.15	.012	935.18	.02
318.15	.0002028	924.7	.02
318.15	.0009641	924.75	.02
318.15	.00191	924.82	.02
318.15	.002862	924.89	.02
318.15	.003812	924.96	.02
318.15	.004846	925.03	.02
318.15	.005839	925.1	.02
318.15	.006984	925.19	.02
318.15	.008587	925.31	.02
318.15	.01049	925.44	.02
318.15	.012	925.55	.02

System: acetamide, N,N-dimethyl- + water; phases: Liquid
Fixed: Pressure, kPa = 101
Property: Mass density, kg/m3 (Liquid); method: Vibrating tube method
Temperature, K	Mole fraction of water	Mass density, kg/m3	uncertainty
278.15	.0002901	954.8	.02
278.15	.001042	954.84	.02
278.15	.001656	954.87	.02
278.15	.002777	954.93	.02
278.15	.003783	954.99	.02
278.15	.004833	955.05	.02
278.15	.005867	955.1	.02
278.15	.007593	955.19	.02
278.15	.008945	955.27	.02
278.15	.01063	955.36	.02
278.15	.01192	955.43	.02
288.15	.0002901	945.61	.02
288.15	.001042	945.65	.02
288.15	.001656	945.68	.02
288.15	.002777	945.74	.02
288.15	.003783	945.8	.02
288.15	.004833	945.85	.02
288.15	.005867	945.91	.02
288.15	.007593	946	.02
288.15	.008945	946.07	.02
288.15	.01063	946.16	.02
288.15	.01192	946.23	.02
298.15	.0002901	936.4	.02
298.15	.001042	936.44	.02
298.15	.001656	936.47	.02
298.15	.002777	936.53	.02
298.15	.003783	936.58	.02
298.15	.004833	936.64	.02
298.15	.005867	936.69	.02
298.15	.007593	936.78	.02
298.15	.008945	936.85	.02
298.15	.01063	936.94	.02
298.15	.01192	937.01	.02
308.15	.0002901	927.16	.02
308.15	.001042	927.2	.02
308.15	.001656	927.23	.02
308.15	.002777	927.28	.02
308.15	.003783	927.34	.02
308.15	.004833	927.39	.02
308.15	.005867	927.44	.02
308.15	.007593	927.53	.02
308.15	.008945	927.6	.02
308.15	.01063	927.69	.02
308.15	.01192	927.75	.02
318.15	.0002901	917.88	.02
318.15	.001042	917.92	.02
318.15	.001656	917.95	.02
318.15	.002777	918	.02
318.15	.003783	918.05	.02
318.15	.004833	918.1	.02
318.15	.005867	918.16	.02
318.15	.007593	918.24	.02
318.15	.008945	918.31	.02
318.15	.01063	918.39	.02
318.15	.01192	918.46	.02

System: acetamide, N,N-dimethyl- + deuterium oxide (18O); phases: Liquid
Fixed: Pressure, kPa = 101
Property: Mass density, kg/m3 (Liquid); method: Vibrating tube method
Temperature, K	Mole fraction of deuterium oxide (18O)	Mass density, kg/m3	uncertainty
278.15	.0002901	954.8	.02
278.15	.0009284	954.85	.02
278.15	.00199	954.93	.02
278.15	.002684	954.98	.02
278.15	.003434	955.05	.02
278.15	.004789	955.15	.02
278.15	.005915	955.24	.02
278.15	.007384	955.36	.02
278.15	.008715	955.46	.02
278.15	.01024	955.59	.02
278.15	.01198	955.72	.02
288.15	.0002901	945.61	.02
288.15	.0009284	945.66	.02
288.15	.00199	945.74	.02
288.15	.002684	945.79	.02
288.15	.003434	945.85	.02
288.15	.004789	945.96	.02
288.15	.005915	946.05	.02
288.15	.007384	946.16	.02
288.15	.008715	946.26	.02
288.15	.01024	946.38	.02
288.15	.01198	946.52	.02
298.15	.0002901	936.4	.02
298.15	.0009284	936.45	.02
298.15	.00199	936.53	.02
298.15	.002684	936.58	.02
298.15	.003434	936.64	.02
298.15	.004789	936.74	.02
298.15	.005915	936.83	.02
298.15	.007384	936.94	.02
298.15	.008715	937.04	.02
298.15	.01024	937.16	.02
298.15	.01198	937.29	.02
308.15	.0002901	927.16	.02
308.15	.0009284	927.21	.02
308.15	.00199	927.29	.02
308.15	.002684	927.34	.02
308.15	.003434	927.39	.02
308.15	.004789	927.49	.02
308.15	.005915	927.58	.02
308.15	.007384	927.69	.02
308.15	.008715	927.79	.02
308.15	.01024	927.9	.02
308.15	.01198	928.03	.02
318.15	.0002901	917.88	.02
318.15	.0009284	917.93	.02
318.15	.00199	918	.02
318.15	.002684	918.05	.02
318.15	.003434	918.11	.02
318.15	.004789	918.21	.02
318.15	.005915	918.28	.02
318.15	.007384	918.39	.02
318.15	.008715	918.49	.02
318.15	.01024	918.6	.02
318.15	.01198	918.73	.02
