Measured thermophysical data. Thermophysical characterization of 1-ethylpyridinium triflate and comparison with similar ionic liquids
Source: J. Chem. Thermodyn., 2016, 10.1016/j.jct.2016.08.038
Compound 1: 1-ethylpyridinium triflate, C8H10F3NO3S, purity 99%

System: 1-ethylpyridinium triflate; phases: Crystal 1, Liquid, Air at 1 atmosphere
Property: Normal melting temperature, K (Crystal 1); method: DSC/DTA
Normal melting temperature, K	uncertainty
289	.5

System: 1-ethylpyridinium triflate; phases: Crystal 1, Liquid, Air at 1 atmosphere
Property: Molar enthalpy of transition or fusion, kJ/mol (Crystal 1); method: DSC
Molar enthalpy of transition or fusion, kJ/mol	uncertainty
11.5	.0345

System: 1-ethylpyridinium triflate; phases: Crystal 2, Crystal 1, Air at 1 atmosphere
Property: Triple point temperature, K (Crystal 2); method: DSC
Triple point temperature, K	uncertainty
260.4	.5

System: 1-ethylpyridinium triflate; phases: Crystal 2, Crystal 1, Air at 1 atmosphere
Property: Molar enthalpy of transition or fusion, kJ/mol (Crystal 2); method: DSC
Molar enthalpy of transition or fusion, kJ/mol	uncertainty
.7	.042

System: 1-ethylpyridinium triflate; phases: Liquid
Fixed: Pressure, kPa = 101.325
Property: Mass density, kg/m3 (Liquid); method: Vibrating tube method
Temperature, K	Mass density, kg/m3	uncertainty
293.15	1409.09	
295.65	1407.09	
298.15	1405.03	
300.65	1402.96	
303.15	1400.9	
305.65	1398.85	
308.15	1396.8	
310.65	1394.77	
313.15	1392.77	
315.65	1390.68	
318.15	1388.63	
320.65	1386.59	
323.15	1384.6	
325.65	1382.5	
328.15	1380.47	
330.65	1378.45	
333.15	1376.42	
335.65	1374.41	
338.15	1372.35	

System: 1-ethylpyridinium triflate; phases: Liquid
Fixed: Pressure, kPa = 101.325
Property: Refractive index (Na D-line) (Liquid); method: Standard Abbe refractometry
Temperature, K	Refractive index (Na D-line)	uncertainty
293.15	1.460392	
295.65	1.459692	
298.15	1.45898	
300.65	1.4583	
303.15	1.457594	
305.65	1.456892	
308.15	1.456194	
310.65	1.455502	
313.15	1.45484	
315.65	1.454146	
318.15	1.453451	
320.65	1.452758	
323.15	1.452061	
325.65	1.451335	
328.15	1.45064	
330.65	1.449947	
333.15	1.449266	
335.65	1.44859	
338.15	1.447894	

System: 1-ethylpyridinium triflate; phases: Liquid, Air at 1 atmosphere
Property: Surface tension liquid-gas, N/m (Liquid); method: Drop volume
Temperature, K	Surface tension liquid-gas, N/m	uncertainty
293.15	.04248	
295.65	.04236	
298.15	.04226	
300.65	.04215	
303.15	.04208	
305.65	.04202	
308.15	.04193	
310.65	.04183	
313.15	.04171	
315.65	.04165	
318.15	.04155	
320.65	.04143	
323.15	.04131	
325.65	.04122	
328.15	.04116	
330.65	.04107	
333.15	.04095	
335.65	.04088	
338.15	.04076	

System: 1-ethylpyridinium triflate; phases: Liquid
Fixed: Pressure, kPa = 101.325
Property: Molar heat capacity at constant pressure, J/K/mol (Liquid); method: Small sample (50 mg) scanning calorimetry
Temperature, K	Molar heat capacity at constant pressure, J/K/mol	uncertainty
293.15	348.4	
295.65	350.2	
298.15	351.8	
300.65	353.6	
303.15	355.3	
305.65	357.1	
308.15	358.7	
310.65	360.5	
313.15	362.1	
315.65	363.8	
318.15	365.4	
320.65	367	
323.15	368.7	
325.65	370.3	
328.15	371.8	
330.65	373.5	
333.15	375.2	
335.65	376.9	
338.15	378.6	

System: 1-ethylpyridinium triflate; phases: Liquid
Fixed: Pressure, kPa = 101.325
Property: Kinematic viscosity, m2/s (Liquid); method: Other
Temperature, K	Kinematic viscosity, m2/s	uncertainty
293.15	.000068896	
295.65	.000061351	
298.15	.000054721	
300.65	.000049478	
303.15	.000044504	
305.65	.000040158	
308.15	.000036339	
310.65	.00003302	
313.15	.000030074	
315.65	.000027456	
318.15	.000025192	
320.65	.000023127	
323.15	.00002134	
325.65	.000019579	
328.15	.000018169	
330.65	.000016864	
333.15	.000015692	
335.65	.000014632	
338.15	.00001364	

System: 1-ethylpyridinium triflate; phases: Liquid
Property: Mass density, kg/m3 (Liquid); method: Vibrating tube method
Temperature, K	Pressure, kPa	Mass density, kg/m3	uncertainty
303.15	100	1400.91	
303.15	5000	1403.53	
303.15	10000	1406.14	
303.15	15000	1408.69	
303.15	20000	1411.17	
303.15	25000	1413.58	
303.15	30000	1415.93	
303.15	35000	1418.22	
303.15	40000	1420.44	

System: 1-ethylpyridinium triflate; phases: Liquid
Fixed: Frequency, MHz = 3
Property: Speed of sound, m/s (Liquid); method: Sing-around technique in a fixed-path interferometer
Pressure, kPa	Temperature, K	Speed of sound, m/s	uncertainty
100	293.15	1500.43	
100	295.65	1494.98	
100	298.15	1489.1	
100	300.65	1483.41	
100	303.15	1477.65	
100	305.65	1471.91	
100	308.15	1466.32	
100	310.65	1461.06	
100	313.15	1455	
100	315.65	1450	
100	318.15	1443.98	
100	320.65	1438.18	
100	323.15	1433.25	
100	325.65	1427.43	
100	328.15	1421.87	
100	330.65	1416.06	
100	333.15	1410.62	
100	335.65	1405.12	
100	338.15	1399.65	

System: 1-ethylpyridinium triflate; phases: Liquid
Property: Electrical conductivity, S/m (Liquid); method: Alternating current cell with electrodes
Pressure, kPa	Temperature, K	Electrical conductivity, S/m	uncertainty
100	293.15	.407	
100	295.65	.456	
100	298.15	.502	
100	300.65	.556	
100	303.15	.613	
100	305.65	.676	
100	308.15	.744	
100	310.65	.808	
100	313.15	.872	
100	315.65	.953	
100	318.15	1.025	
100	320.65	1.126	
100	323.15	1.21	
100	325.65	1.303	
100	328.15	1.391	
100	330.65	1.469	
100	333.15	1.59	
100	335.65	1.675	
100	338.15	1.784	
