Measured thermophysical data. Volumetric properties of binary liquid mixtures: Application of the  Prigogine Flory Patterson theory to excess molar volumes of dichloromethane  with benzene or toluene
Source: J. Chem. Thermodyn., 2009, 10.1016/j.jct.2009.05.003
Compound 1: dichloromethane, CH2Cl2
Compound 2: benzene, C6H6
Compound 3: toluene, C7H8

System: dichloromethane; phases: Liquid crystal of unknown type
Fixed: Pressure, kPa = 101.325
Property: Mass density, kg/m3 (Liquid crystal of unknown type); method: Vibrating tube method
Temperature, K	Mass density, kg/m3	uncertainty
288.15	1334.08	.02
293.15	1325.79	.02
298.15	1316.75	.02
303.15	1307.51	.02

System: benzene; phases: Liquid crystal of unknown type
Fixed: Pressure, kPa = 101.325
Property: Mass density, kg/m3 (Liquid crystal of unknown type); method: Vibrating tube method
Temperature, K	Mass density, kg/m3	uncertainty
288.15	883.9	.02
293.15	876.85	.02
298.15	873.36	.02
303.15	868.71	.02

System: toluene; phases: Liquid crystal of unknown type
Fixed: Pressure, kPa = 101.325
Property: Mass density, kg/m3 (Liquid crystal of unknown type); method: Vibrating tube method
Temperature, K	Mass density, kg/m3	uncertainty
288.15	871.44	.02
293.15	866.92	.02
298.15	861.81	.02
303.15	857.5	.02

System: benzene + dichloromethane; phases: Liquid
Fixed: Pressure, kPa = 101
Property: Mass density, kg/m3 (Liquid); method: Vibrating tube method
Temperature, K	Mole fraction of dichloromethane	Mass density, kg/m3	uncertainty
288.15	.02	889.94	.02
288.15	.0513	899.72	.02
288.15	.1044	916.64	.02
288.15	.2131	953.62	.02
288.15	.3031	986.31	.02
288.15	.3524	1005.06	.02
288.15	.4026	1024.96	.02
288.15	.4491	1043.89	.02
288.15	.504	1067.28	.02
288.15	.5505	1087.81	.02
288.15	.6466	1132.61	.02
288.15	.6873	1152.87	.02
288.15	.7494	1184.83	.02
288.15	.7851	1204.13	.02
288.15	.8533	1242.63	.02
288.15	.9002	1270.51	.02
288.15	.9497	1301.1	.02
288.15	.9791	1320.29	.02
293.15	.02	882.89	.02
293.15	.0513	892.67	.02
293.15	.1044	909.62	.02
293.15	.2131	946.68	.02
293.15	.3031	979.53	.02
293.15	.3524	998.46	.02
293.15	.4026	1018.41	.02
293.15	.4491	1037.4	.02
293.15	.504	1060.86	.02
293.15	.5505	1081.45	.02
293.15	.6466	1126.25	.02
293.15	.6873	1146.32	.02
293.15	.7494	1178.27	.02
293.15	.7851	1197.44	.02
293.15	.8533	1235.48	.02
293.15	.9002	1262.93	.02
293.15	.9497	1293.21	.02
293.15	.9791	1312.15	.02
298.15	.02	879.5	.02
298.15	.0513	889.37	.02
298.15	.1044	906.38	.02
298.15	.2131	943.14	.02
298.15	.3031	975.81	.02
298.15	.3524	994.6	.02
298.15	.4026	1014.35	.02
298.15	.4491	1033.4	.02
298.15	.504	1056.74	.02
298.15	.5505	1077.19	.02
298.15	.6466	1121.8	.02
298.15	.6873	1141.74	.02
298.15	.7494	1173.15	.02
298.15	.7851	1191.93	.02
298.15	.8533	1228.96	.02
298.15	.9002	1255.94	.02
298.15	.9497	1285.57	.02
298.15	.9791	1303.63	.02
303.15	.02	874.89	.02
303.15	.0513	884.69	.02
303.15	.1044	901.72	.02
303.15	.2131	938.58	.02
303.15	.3031	971.12	.02
303.15	.3524	989.89	.02
303.15	.4026	1009.59	.02
303.15	.4491	1028.47	.02
303.15	.504	1051.58	.02
303.15	.5505	1071.86	.02
303.15	.6466	1115.95	.02
303.15	.6873	1135.54	.02
303.15	.7494	1166.53	.02
303.15	.7851	1185.03	.02
303.15	.8533	1221.63	.02
303.15	.9002	1248.01	.02
303.15	.9497	1276.83	.02
303.15	.9791	1294.56	.02

System: dichloromethane + toluene; phases: Liquid
Fixed: Pressure, kPa = 101
Property: Mass density, kg/m3 (Liquid); method: Vibrating tube method
Temperature, K	Mole fraction of dichloromethane	Mass density, kg/m3	uncertainty
288.15	.0271	879.09	.02
288.15	.1555	917.4	.02
288.15	.2003	931.64	.02
288.15	.2513	948.51	.02
288.15	.2998	965.22	.02
288.15	.3489	982.93	.02
288.15	.4005	1002.49	.02
288.15	.4481	1021.37	.02
288.15	.4996	1042.87	.02
288.15	.5522	1066.09	.02
288.15	.594	1085.51	.02
288.15	.6469	1111.44	.02
288.15	.7002	1139.2	.02
288.15	.7486	1166	.02
288.15	.7956	1193.51	.02
288.15	.8502	1227.59	.02
288.15	.9493	1295.7	.02
288.15	.98	1318.61	.02
293.15	.0271	874.59	.02
293.15	.1555	912.71	.02
293.15	.2003	926.83	.02
293.15	.2513	943.54	.02
293.15	.2998	960.11	.02
293.15	.3489	977.63	.02
293.15	.4005	996.96	.02
293.15	.4481	1015.66	.02
293.15	.4996	1036.92	.02
293.15	.5522	1059.92	.02
293.15	.594	1079.14	.02
293.15	.6469	1104.82	.02
293.15	.7002	1132.37	.02
293.15	.7486	1158.95	.02
293.15	.7956	1186.29	.02
293.15	.8502	1220.09	.02
293.15	.9493	1287.73	.02
293.15	.98	1310.49	.02
298.15	.0271	869.5	.02
298.15	.1555	907.51	.02
298.15	.2003	921.52	.02
298.15	.2513	938.06	.02
298.15	.2998	954.44	.02
298.15	.3489	971.74	.02
298.15	.4005	990.84	.02
298.15	.4481	1009.3	.02
298.15	.4996	1030.32	.02
298.15	.5522	1053.04	.02
298.15	.594	1072.11	.02
298.15	.6469	1097.55	.02
298.15	.7002	1124.86	.02
298.15	.7486	1151.23	.02
298.15	.7956	1178.38	.02
298.15	.8502	1211.97	.02
298.15	.9493	1279.01	.02
298.15	.98	1301.5	.02
303.15	.0271	865.2	.02
303.15	.1555	903.09	.02
303.15	.2003	917	.02
303.15	.2513	933.27	.02
303.15	.2998	949.45	.02
303.15	.3489	966.55	.02
303.15	.4005	985.42	.02
303.15	.4481	1003.56	.02
303.15	.4996	1024.32	.02
303.15	.5522	1046.79	.02
303.15	.594	1065.64	.02
303.15	.6469	1090.83	.02
303.15	.7002	1117.85	.02
303.15	.7486	1143.92	.02
303.15	.7956	1170.8	.02
303.15	.8502	1204.01	.02
303.15	.9493	1270.38	.02
303.15	.98	1292.54	.02
