Measured thermophysical data. Vapor pressures and enthalpies of vaporization of a series of .gamma. and .delta.-lactones by correlation gas chromatography
Source: J. Chem. Thermodyn., 2014, 10.1016/j.jct.2014.01.016
Compound 1: .gamma.-caprolactone, C6H10O2, purity 98%
Compound 2: .gamma.-octanolactone, C8H14O2, purity 97%
Compound 3: 2H-pyran-2-one, tetrahydro-6-propyl-, C8H14O2, purity 98%
Compound 4: 2(3H)-furanone, dihydro-5-pentyl-, C9H16O2, purity 98%
Compound 5: .delta.-nonanolactone, C9H16O2, purity 98%
Compound 6: .gamma.-decalactone, C10H18O2, purity 97%
Compound 7: 2H-pyran-2-one, tetrahydro-6-pentyl-, C10H18O2, purity 98%
Compound 8: .gamma.-undecanolactone, C11H20O2, purity 98%
Compound 9: .delta.-undecanolactone, C11H20O2, purity 98%
Compound 10: .gamma.-dodecanolactone, C12H22O2, purity 97%
Compound 11: .delta.-dodecanolactone, C12H22O2, purity 98%

System: .gamma.-caprolactone; phases: Liquid, Gas
Property: Molar enthalpy of vaporization or sublimation, kJ/mol (Liquid); method: Correlation gas chromatography
Temperature, K	Molar enthalpy of vaporization or sublimation, kJ/mol	uncertainty
298.15	57.4	3.7

System: .gamma.-caprolactone; phases: Liquid, Gas
Property: Vapor or sublimation pressure, kPa (Liquid); method: Gas chromatography
Temperature, K	Vapor or sublimation pressure, kPa	uncertainty
298.15	.0225	.0064

System: .gamma.-octanolactone; phases: Liquid, Gas
Property: Molar enthalpy of vaporization or sublimation, kJ/mol (Liquid); method: Correlation gas chromatography
Temperature, K	Molar enthalpy of vaporization or sublimation, kJ/mol	uncertainty
298.15	66	3.9

System: .gamma.-octanolactone; phases: Liquid, Gas
Property: Vapor or sublimation pressure, kPa (Liquid); method: Gas chromatography
Temperature, K	Vapor or sublimation pressure, kPa	uncertainty
298.15	.00278	.0009

System: 2H-pyran-2-one, tetrahydro-6-propyl-; phases: Liquid, Gas
Property: Molar enthalpy of vaporization or sublimation, kJ/mol (Liquid); method: Correlation gas chromatography
Temperature, K	Molar enthalpy of vaporization or sublimation, kJ/mol	uncertainty
298.15	66.6	4

System: 2H-pyran-2-one, tetrahydro-6-propyl-; phases: Liquid, Gas
Property: Vapor or sublimation pressure, kPa (Liquid); method: Gas chromatography
Temperature, K	Vapor or sublimation pressure, kPa	uncertainty
298.15	.00221	.0008

System: 2(3H)-furanone, dihydro-5-pentyl-; phases: Liquid, Gas
Property: Molar enthalpy of vaporization or sublimation, kJ/mol (Liquid); method: Correlation gas chromatography
Temperature, K	Molar enthalpy of vaporization or sublimation, kJ/mol	uncertainty
298.15	70.5	4.1

System: 2(3H)-furanone, dihydro-5-pentyl-; phases: Liquid, Gas
Property: Vapor or sublimation pressure, kPa (Liquid); method: Gas chromatography
Temperature, K	Vapor or sublimation pressure, kPa	uncertainty
298.15	.00097	.0004

System: .delta.-nonanolactone; phases: Liquid, Gas
Property: Molar enthalpy of vaporization or sublimation, kJ/mol (Liquid); method: Correlation gas chromatography
Temperature, K	Molar enthalpy of vaporization or sublimation, kJ/mol	uncertainty
298.15	71.1	4.1

System: .delta.-nonanolactone; phases: Liquid, Gas
Property: Vapor or sublimation pressure, kPa (Liquid); method: Gas chromatography
Temperature, K	Vapor or sublimation pressure, kPa	uncertainty
298.15	.00076	.0003

System: .gamma.-decalactone; phases: Liquid, Gas
Property: Molar enthalpy of vaporization or sublimation, kJ/mol (Liquid); method: Correlation gas chromatography
Temperature, K	Molar enthalpy of vaporization or sublimation, kJ/mol	uncertainty
298.15	75	4.3

System: .gamma.-decalactone; phases: Liquid, Gas
Property: Vapor or sublimation pressure, kPa (Liquid); method: Gas chromatography
Temperature, K	Vapor or sublimation pressure, kPa	uncertainty
298.15	.00033	.0001

System: 2H-pyran-2-one, tetrahydro-6-pentyl-; phases: Liquid, Gas
Property: Molar enthalpy of vaporization or sublimation, kJ/mol (Liquid); method: Correlation gas chromatography
Temperature, K	Molar enthalpy of vaporization or sublimation, kJ/mol	uncertainty
298.15	75.5	4.3

System: 2H-pyran-2-one, tetrahydro-6-pentyl-; phases: Liquid, Gas
Property: Vapor or sublimation pressure, kPa (Liquid); method: Gas chromatography
Temperature, K	Vapor or sublimation pressure, kPa	uncertainty
298.15	.00027	.0001

System: .gamma.-undecanolactone; phases: Liquid, Gas
Property: Molar enthalpy of vaporization or sublimation, kJ/mol (Liquid); method: Correlation gas chromatography
Temperature, K	Molar enthalpy of vaporization or sublimation, kJ/mol	uncertainty
298.15	79.4	4.4

System: .gamma.-undecanolactone; phases: Liquid, Gas
Property: Vapor or sublimation pressure, kPa (Liquid); method: Gas chromatography
Temperature, K	Vapor or sublimation pressure, kPa	uncertainty
298.15	.00012	.00005

System: .delta.-undecanolactone; phases: Liquid, Gas
Property: Molar enthalpy of vaporization or sublimation, kJ/mol (Liquid); method: Correlation gas chromatography
Temperature, K	Molar enthalpy of vaporization or sublimation, kJ/mol	uncertainty
298.15	80.1	4.5

System: .delta.-undecanolactone; phases: Liquid, Gas
Property: Vapor or sublimation pressure, kPa (Liquid); method: Gas chromatography
Temperature, K	Vapor or sublimation pressure, kPa	uncertainty
298.15	.00009	.00004

System: .gamma.-dodecanolactone; phases: Liquid, Gas
Property: Molar enthalpy of vaporization or sublimation, kJ/mol (Liquid); method: Correlation gas chromatography
Temperature, K	Molar enthalpy of vaporization or sublimation, kJ/mol	uncertainty
298.15	83.9	4.6

System: .gamma.-dodecanolactone; phases: Liquid, Gas
Property: Vapor or sublimation pressure, kPa (Liquid); method: Gas chromatography
Temperature, K	Vapor or sublimation pressure, kPa	uncertainty
298.15	.00004	.00002

System: .delta.-dodecanolactone; phases: Liquid, Gas
Property: Molar enthalpy of vaporization or sublimation, kJ/mol (Liquid); method: Correlation gas chromatography
Temperature, K	Molar enthalpy of vaporization or sublimation, kJ/mol	uncertainty
298.15	84.6	4.7

System: .delta.-dodecanolactone; phases: Liquid, Gas
Property: Vapor or sublimation pressure, kPa (Liquid); method: Gas chromatography
Temperature, K	Vapor or sublimation pressure, kPa	uncertainty
298.15	.00003	.00002
