Measured thermophysical data. Vapor pressure and enthalpy of vaporization of linear aliphatic alkanediamines
Source: J. Chem. Thermodyn., 2011, 10.1016/j.jct.2011.06.008
Compound 1: trimethylenediamine, C3H10N2, purity 99%
Compound 2: 1,4-butanediamine, C4H12N2, purity 99%
Compound 3: 1,5-diaminopentane, C5H14N2, purity 99%
Compound 4: 1,6-diaminohexane, C6H16N2, purity 99%
Compound 5: 1,7-heptanediamine, C7H18N2, purity 99%
Compound 6: 1,8-diaminooctane, C8H20N2, purity 99%
Compound 7: 1,9-diaminononane, C9H22N2, purity 99%
Compound 8: 1,10-diaminodecane, C10H24N2, purity 99%
Compound 9: 1,11-Diaminoundecane, C11H26N2, purity 99%
Compound 10: 1,12-diaminododecane, C12H28N2, purity 99%

System: trimethylenediamine; phases: Liquid, Gas
Property: Vapor or sublimation pressure, kPa (Liquid); method: Transpiration method
Temperature, K	Vapor or sublimation pressure, kPa	uncertainty
278.6	.13338	.0040014
283.7	.18946	.0056838
288.3	.26916	.0080748
293.4	.39151	.0117453
298.6	.5541	.016623
303.2	.75462	.0226386
308.2	1.0451	.031353
313.2	1.4047	.042141
318.2	1.9001	.057003
323.1	2.5148	.075444
328.1	3.4115	.102345
333.1	4.2868	.128604
338.1	5.6093	.168279

System: trimethylenediamine; phases: Liquid, Gas
Property: Molar enthalpy of vaporization or sublimation, kJ/mol (Liquid); method: Derived from vapor pressure measurement
Temperature, K	Molar enthalpy of vaporization or sublimation, kJ/mol	uncertainty
278.6	51.3	2.565
283.7	50.97	2.5485
288.3	50.68	2.534
293.4	50.36	2.518
298.6	50.03	2.5015
303.2	49.74	2.487
308.2	49.42	2.471
313.2	49.1	2.455
318.2	48.79	2.4395
323.1	48.47	2.4235
328.1	48.15	2.4075
333.1	47.84	2.392
338.1	47.52	2.376

System: 1,4-butanediamine; phases: Liquid, Gas
Property: Vapor or sublimation pressure, kPa (Liquid); method: Transpiration method
Temperature, K	Vapor or sublimation pressure, kPa	uncertainty
300.7	.2593	.007779
303.2	.2903	.008709
303.2	.2914	.008742
303.2	.2825	.008475
308.2	.4134	.012402
310.1	.481	.01443
310.1	.4701	.014103
313.1	.5912	.017736
317.2	.7628	.022884
317.2	.753	.02259
318.2	.8093	.024279
323.2	1.1184	.033552
324.2	1.146	.03438
324.2	1.1693	.035079
328.1	1.5263	.045789
331.2	1.8267	.054801
331.2	1.7862	.053586
333.1	2.0289	.060867
338.2	2.7503	.082509
338.2	2.6715	.080145
338.2	2.6231	.078693
345.2	3.7136	.111408

System: 1,4-butanediamine; phases: Liquid, Gas
Property: Molar enthalpy of vaporization or sublimation, kJ/mol (Liquid); method: Derived from vapor pressure measurement
Temperature, K	Molar enthalpy of vaporization or sublimation, kJ/mol	uncertainty
300.7	55.05	2.7525
303.2	54.87	2.7435
303.2	54.87	2.7435
303.2	54.87	2.7435
308.2	54.51	2.7255
310.1	54.37	2.7185
310.1	54.37	2.7185
313.1	54.15	2.7075
317.2	53.86	2.693
317.2	53.86	2.693
318.2	53.79	2.6895
323.2	53.43	2.6715
324.2	53.36	2.668
324.2	53.36	2.668
328.1	53.07	2.6535
331.2	52.85	2.6425
331.2	52.86	2.643
333.1	52.72	2.636
338.2	52.35	2.6175
338.2	52.35	2.6175
338.2	52.35	2.6175
345.2	51.84	2.592

System: 1,5-diaminopentane; phases: Liquid, Gas
Property: Vapor or sublimation pressure, kPa (Liquid); method: Transpiration method
Temperature, K	Vapor or sublimation pressure, kPa	uncertainty
293.2	.04335	.0013005
293.3	.04344	.0013032
293.3	.04368	.0013104
296.9	.05861	.0017583
298.3	.06622	.0019866
300.3	.07435	.0022305
300.4	.07533	.0022599
303.7	.09397	.0028191
307.2	.12498	.0037494
307.3	.12437	.0037311
308.2	.13424	.0040272
308.4	.13069	.0039207
313.1	.18488	.0055464
313.2	.1872	.005616
314.2	.20073	.0060219
318.1	.26362	.0079086
321.2	.31922	.0095766
323.1	.35912	.0107736
323.1	.37836	.0113508
323.2	.3596	.010788
323.2	.37171	.0111513
325.6	.45403	.0136209
328	.53134	.0159402
328.1	.5325	.015975
328.1	.4955	.014865
328.2	.52057	.0156171
328.2	.52371	.0157113
330.6	.6271	.018813
331.2	.60453	.0181359
333.1	.7109	.021327
333.2	.70661	.0211983
333.2	.66921	.0200763
333.2	.68805	.0206415
333.2	.70481	.0211443
335.7	.81587	.0244761
335.7	.81893	.0245679
338.2	.97611	.0292833
338.2	.94667	.0284001
340.7	1.0847	.032541
342.2	1.2279	.036837
342.2	1.2451	.037353
343.2	1.2988	.038964

System: 1,5-diaminopentane; phases: Liquid, Gas
Property: Molar enthalpy of vaporization or sublimation, kJ/mol (Liquid); method: Derived from vapor pressure measurement
Temperature, K	Molar enthalpy of vaporization or sublimation, kJ/mol	uncertainty
293.2	58.67	2.9335
293.3	58.66	2.933
293.3	58.66	2.933
296.9	58.37	2.9185
298.3	58.26	2.913
300.3	58.1	2.905
300.4	58.09	2.9045
303.7	57.83	2.8915
307.2	57.54	2.877
307.3	57.54	2.877
308.2	57.47	2.8735
308.4	57.45	2.8725
313.1	57.07	2.8535
313.2	57.06	2.853
314.2	56.98	2.849
318.1	56.67	2.8335
321.2	56.42	2.821
323.1	56.28	2.814
323.1	56.27	2.8135
323.2	56.27	2.8135
323.2	56.26	2.813
325.6	56.07	2.8035
328	55.88	2.794
328.1	55.87	2.7935
328.1	55.87	2.7935
328.2	55.87	2.7935
328.2	55.86	2.793
330.6	55.67	2.7835
331.2	55.63	2.7815
333.1	55.47	2.7735
333.2	55.46	2.773
333.2	55.47	2.7735
333.2	55.46	2.773
333.2	55.46	2.773
335.7	55.26	2.763
335.7	55.27	2.7635
338.2	55.07	2.7535
338.2	55.07	2.7535
340.7	54.87	2.7435
342.2	54.74	2.737
342.2	54.74	2.737
343.2	54.66	2.733

System: 1,6-diaminohexane; phases: Liquid, Gas
Property: Vapor or sublimation pressure, kPa (Liquid); method: Transpiration method
Temperature, K	Vapor or sublimation pressure, kPa	uncertainty
318.1	.10239	.0030717
318.1	.10113	.0030339
319.3	.11004	.0033012
320.6	.12246	.0036738
321.5	.12995	.0038985
321.8	.12801	.0038403
322.3	.13597	.0040791
323	.14102	.0042306
324.3	.15337	.0046011
325.2	.17067	.0051201
325.6	.16971	.0050913
326.7	.18197	.0054591
328.7	.20878	.0062634
330.5	.23337	.0070011
332.2	.26248	.0078744
333	.27837	.0083511
335.5	.32534	.0097602
335.7	.32483	.0097449
338	.3886	.011658
339.2	.41454	.0124362
340.6	.44923	.0134769
341.4	.48088	.0144264
342.7	.50749	.0152247
343.1	.52432	.0157296
344.5	.58489	.0175467
346.2	.63721	.0191163
348	.72642	.0217926
350	.7841	.023523
353.2	.96399	.0289197
356.6	1.1543	.034629

System: 1,6-diaminohexane; phases: Liquid, Gas
Property: Molar enthalpy of vaporization or sublimation, kJ/mol (Liquid); method: Derived from vapor pressure measurement
Temperature, K	Molar enthalpy of vaporization or sublimation, kJ/mol	uncertainty
318.1	61.38	3.069
318.1	61.38	3.069
319.3	61.28	3.064
320.6	61.16	3.058
321.5	61.08	3.054
321.8	61.06	3.053
322.3	61.01	3.0505
323	60.94	3.047
324.3	60.83	3.0415
325.2	60.75	3.0375
325.6	60.72	3.036
326.7	60.62	3.031
328.7	60.44	3.022
330.5	60.29	3.0145
332.2	60.13	3.0065
333	60.07	3.0035
335.5	59.84	2.992
335.7	59.82	2.991
338	59.62	2.981
339.2	59.51	2.9755
340.6	59.39	2.9695
341.4	59.32	2.966
342.7	59.2	2.96
343.1	59.17	2.9585
344.5	59.05	2.9525
346.2	58.9	2.945
348	58.74	2.937
350	58.56	2.928
353.2	58.28	2.914
356.6	57.97	2.8985

System: 1,7-heptanediamine; phases: Liquid, Gas
Property: Vapor or sublimation pressure, kPa (Liquid); method: Transpiration method
Temperature, K	Vapor or sublimation pressure, kPa	uncertainty
305.8	.01598	.0004794
308.2	.01924	.0005772
308.3	.0189	.000567
313.1	.02902	.0008706
315.2	.03413	.0010239
318	.04153	.0012459
322.2	.05772	.0017316
323	.06202	.0018606
323	.0613	.001839
328	.09104	.0027312
329.2	.09696	.0029088
333	.12698	.0038094
336.2	.15594	.0046782
338	.1724	.005172
339.8	.20061	.0060183
343	.24312	.0072936
343.2	.24641	.0073923
346.8	.31449	.0094347
348	.32486	.0097458
350.2	.38371	.0115113
353	.45734	.0137202
353.6	.47298	.0141894
357.1	.5902	.017706
358	.63409	.0190227

System: 1,7-heptanediamine; phases: Liquid, Gas
Property: Molar enthalpy of vaporization or sublimation, kJ/mol (Liquid); method: Derived from vapor pressure measurement
Temperature, K	Molar enthalpy of vaporization or sublimation, kJ/mol	uncertainty
305.8	66.33	3.3165
308.2	66.1	3.305
308.3	66.09	3.3045
313.1	65.63	3.2815
315.2	65.42	3.271
318	65.15	3.2575
322.2	64.74	3.237
323	64.66	3.233
323	64.66	3.233
328	64.18	3.209
329.2	64.06	3.203
333	63.69	3.1845
336.2	63.38	3.169
338	63.21	3.1605
339.8	63.04	3.152
343	62.73	3.1365
343.2	62.71	3.1355
346.8	62.36	3.118
348	62.24	3.112
350.2	62.03	3.1015
353	61.75	3.0875
353.6	61.69	3.0845
357.1	61.35	3.0675
358	61.27	3.0635

System: 1,8-diaminooctane; phases: Liquid, Gas
Property: Vapor or sublimation pressure, kPa (Liquid); method: Transpiration method
Temperature, K	Vapor or sublimation pressure, kPa	uncertainty
328.2	.03851	.0011553
331.7	.04977	.0014931
333.1	.05855	.0017565
335.2	.06401	.0019203
338.7	.0829	.002487
342.2	.10711	.0032133
343.1	.11834	.0035502
345.7	.134	.00402
348	.16559	.0049677
349.2	.17105	.0051315
349.7	.185	.00555
351.6	.20935	.0062805
352.6	.21035	.0063105
353	.23117	.0069351
353.1	.2224	.006672
356.1	.26614	.0079842
358.1	.29803	.0089409
358.1	.31085	.0093255
359.6	.32029	.0096087
363.1	.40273	.0120819
363.1	.40321	.0120963

System: 1,8-diaminooctane; phases: Liquid, Gas
Property: Molar enthalpy of vaporization or sublimation, kJ/mol (Liquid); method: Derived from vapor pressure measurement
Temperature, K	Molar enthalpy of vaporization or sublimation, kJ/mol	uncertainty
328.2	68.56	3.428
331.7	68.19	3.4095
333.1	68.04	3.402
335.2	67.82	3.391
338.7	67.46	3.373
342.2	67.09	3.3545
343.1	67	3.35
345.7	66.72	3.336
348	66.48	3.324
349.2	66.36	3.318
349.7	66.3	3.315
351.6	66.1	3.305
352.6	65.99	3.2995
353	65.95	3.2975
353.1	65.94	3.297
356.1	65.63	3.2815
358.1	65.42	3.271
358.1	65.42	3.271
359.6	65.26	3.263
363.1	64.89	3.2445
363.1	64.9	3.245

System: 1,9-diaminononane; phases: Liquid, Gas
Property: Vapor or sublimation pressure, kPa (Liquid); method: Transpiration method
Temperature, K	Vapor or sublimation pressure, kPa	uncertainty
318.1	.00696	.0002088
323.1	.01034	.0003102
323.2	.01044	.0003132
323.2	.01045	.0003135
326.7	.01394	.0004182
326.7	.01393	.0004179
327.2	.01447	.0004341
328	.016	.00048
328.2	.01588	.0004764
330.2	.01873	.0005619
330.2	.01874	.0005622
333.1	.02319	.0006957
333.2	.02255	.0006765
333.7	.0246	.000738
333.7	.02457	.0007371
334.1	.02555	.0007665
337.1	.03161	.0009483
337.2	.03215	.0009645
340.7	.04112	.0012336
340.7	.04185	.0012555
341.1	.04284	.0012852
343.2	.05015	.0015045
344.2	.053	.00159
344.2	.05179	.0015537
345.7	.06081	.0018243
347.6	.06841	.0020523
347.6	.06841	.0020523
351.2	.08758	.0026274
353.2	.09647	.0028941
353.2	.09551	.0028653
354.6	.11092	.0033276
355.5	.10883	.0032649
358.2	.1401	.004203
358.2	.14281	.0042843
360.7	.15738	.0047214
361.7	.18175	.0054525
363.2	.17961	.0053883
365.7	.22496	.0067488

System: 1,9-diaminononane; phases: Liquid, Gas
Property: Molar enthalpy of vaporization or sublimation, kJ/mol (Liquid); method: Derived from vapor pressure measurement
Temperature, K	Molar enthalpy of vaporization or sublimation, kJ/mol	uncertainty
318.1	73.26	3.663
323.1	72.69	3.6345
323.2	72.68	3.634
323.2	72.68	3.634
326.7	72.28	3.614
326.7	72.28	3.614
327.2	72.22	3.611
328	72.13	3.6065
328.2	72.11	3.6055
330.2	71.88	3.594
330.2	71.89	3.5945
333.1	71.55	3.5775
333.2	71.54	3.577
333.7	71.48	3.574
333.7	71.48	3.574
334.1	71.43	3.5715
337.1	71.09	3.5545
337.2	71.09	3.5545
340.7	70.69	3.5345
340.7	70.69	3.5345
341.1	70.63	3.5315
343.2	70.39	3.5195
344.2	70.29	3.5145
344.2	70.29	3.5145
345.7	70.11	3.5055
347.6	69.89	3.4945
347.6	69.89	3.4945
351.2	69.49	3.4745
353.2	69.25	3.4625
353.2	69.26	3.463
354.6	69.09	3.4545
355.5	68.99	3.4495
358.2	68.69	3.4345
358.2	68.68	3.434
360.7	68.4	3.42
361.7	68.29	3.4145
363.2	68.12	3.406
365.7	67.83	3.3915

System: 1,10-diaminodecane; phases: Liquid, Gas
Property: Vapor or sublimation pressure, kPa (Liquid); method: Transpiration method
Temperature, K	Vapor or sublimation pressure, kPa	uncertainty
338.1	.01538	.0004614
338.2	.01552	.0004656
339.7	.01739	.0005217
340.7	.01883	.0005649
341.2	.01965	.0005895
342.7	.02189	.0006567
343.2	.02264	.0006792
344.2	.02444	.0007332
345.7	.02763	.0008289
345.7	.02757	.0008271
347.2	.03068	.0009204
348.2	.03283	.0009849
348.7	.03443	.0010329
349.2	.03577	.0010731
350.2	.03809	.0011427
350.7	.03964	.0011892
351.7	.04276	.0012828
352.2	.04424	.0013272
353.1	.04789	.0014367
353.2	.04731	.0014193

System: 1,10-diaminodecane; phases: Liquid, Gas
Property: Molar enthalpy of vaporization or sublimation, kJ/mol (Liquid); method: Derived from vapor pressure measurement
Temperature, K	Molar enthalpy of vaporization or sublimation, kJ/mol	uncertainty
338.1	75.33	3.7665
338.2	75.32	3.766
339.7	75.13	3.7565
340.7	75.01	3.7505
341.2	74.95	3.7475
342.7	74.77	3.7385
343.2	74.71	3.7355
344.2	74.59	3.7295
345.7	74.4	3.72
345.7	74.41	3.7205
347.2	74.22	3.711
348.2	74.1	3.705
348.7	74.04	3.702
349.2	73.98	3.699
350.2	73.86	3.693
350.7	73.8	3.69
351.7	73.67	3.6835
352.2	73.62	3.681
353.1	73.5	3.675
353.2	73.49	3.6745

System: 1,11-Diaminoundecane; phases: Liquid, Gas
Property: Vapor or sublimation pressure, kPa (Liquid); method: Transpiration method
Temperature, K	Vapor or sublimation pressure, kPa	uncertainty
326.2	.00224	.0000672
329.2	.00293	.0000879
332.2	.00386	.0001158
335.2	.00497	.0001491
338.2	.00649	.0001947
339.6	.00708	.0002124
341.1	.00806	.0002418
342.6	.00912	.0002736
344.2	.01027	.0003081
345.6	.01181	.0003543
347.1	.01292	.0003876
350.1	.0167	.000501
353.1	.02121	.0006363

System: 1,11-Diaminoundecane; phases: Liquid, Gas
Property: Molar enthalpy of vaporization or sublimation, kJ/mol (Liquid); method: Derived from vapor pressure measurement
Temperature, K	Molar enthalpy of vaporization or sublimation, kJ/mol	uncertainty
326.2	81.09	4.0545
329.2	80.7	4.035
332.2	80.32	4.016
335.2	79.92	3.996
338.2	79.53	3.9765
339.6	79.35	3.9675
341.1	79.15	3.9575
342.6	78.96	3.948
344.2	78.75	3.9375
345.6	78.57	3.9285
347.1	78.37	3.9185
350.1	77.98	3.899
353.1	77.59	3.8795

System: 1,12-diaminododecane; phases: Liquid, Gas
Property: Vapor or sublimation pressure, kPa (Liquid); method: Transpiration method
Temperature, K	Vapor or sublimation pressure, kPa	uncertainty
345.2	.00556	.0001668
345.2	.00553	.0001659
348.1	.00714	.0002142
348.2	.00712	.0002136
351.1	.00917	.0002751
351.1	.00903	.0002709
354.1	.01181	.0003543
354.2	.01144	.0003432
357.1	.0145	.000435
357.2	.01453	.0004359
360.1	.01865	.0005595
363.1	.0228	.000684
366.1	.02775	.0008325
369	.0345	.001035

System: 1,12-diaminododecane; phases: Liquid, Gas
Property: Molar enthalpy of vaporization or sublimation, kJ/mol (Liquid); method: Derived from vapor pressure measurement
Temperature, K	Molar enthalpy of vaporization or sublimation, kJ/mol	uncertainty
345.2	82.7	4.135
345.2	82.7	4.135
348.1	82.29	4.1145
348.2	82.28	4.114
351.1	81.87	4.0935
351.1	81.87	4.0935
354.1	81.46	4.073
354.2	81.45	4.0725
357.1	81.05	4.0525
357.2	81.04	4.052
360.1	80.63	4.0315
363.1	80.21	4.0105
366.1	79.8	3.99
369	79.4	3.97
