Measured thermophysical data. Thermodynamic properties of bromine fluorene derivatives: An experimental and computational study
Source: J. Chem. Thermodyn., 2015, 10.1016/j.jct.2015.05.001
Compound 1: 2-bromofluorene, C13H9Br, purity 99.9%
Compound 2: 2,7-dibromofluorene, C13H8Br2, purity 99.7%
Compound 3: carbon dioxide, CO2
Compound 4: water, H2O
Compound 5: oxygen, O2
Compound 6: hydrogen bromide, BrH

System: 2-bromofluorene; phases: Crystal, Liquid, Air at 1 atmosphere
Property: Molar enthalpy of transition or fusion, kJ/mol (Crystal); method: DSC
Molar enthalpy of transition or fusion, kJ/mol	uncertainty
17.02	

System: 2-bromofluorene; phases: Crystal, Liquid, Air at 1 atmosphere
Property: Triple point temperature, K (Crystal); method: DSC/DTA
Triple point temperature, K	uncertainty
387.39	

System: 2-bromofluorene; phases: Crystal, Gas
Property: Vapor or sublimation pressure, kPa (Crystal); method: Closed cell (Static) method
Temperature, K	Vapor or sublimation pressure, kPa	uncertainty
350.8	.001323	.0000033075
352.79	.001593	.0000039825
354.74	.001921	.0000048025
356.73	.002274	.000005685
358.7	.002726	.000006815
360.67	.003206	.000008015
362.65	.003848	.00000962
364.63	.00452	.0000113
366.6	.005367	.0000134175
368.56	.006271	.0000156775
370.56	.007492	.00001873
372.53	.008716	.00002179
374.5	.0103	.00002575
376.47	.01202	.00003005
378.44	.01403	.000035075
380.4	.01634	.00004085

System: 2-bromofluorene; phases: Liquid, Gas
Property: Vapor or sublimation pressure, kPa (Liquid); method: Closed cell (Static) method
Temperature, K	Vapor or sublimation pressure, kPa	uncertainty
374.47	.012	.00003
376.47	.01362	.00003405
378.44	.01541	.000038525
380.4	.01749	.000043725
382.39	.01992	.0000498
384.36	.02244	.0000561
386.34	.02529	.000063225
388.31	.02854	.00007135
390.28	.03201	.000080025
392.25	.03602	.00009005
394.21	.04022	.00010055
396.18	.04506	.00011265
398.13	.05046	.00012615
400.11	.05625	.000140625
402.06	.0628	.000157
404.05	.06988	.0001747
405.99	.0774	.0001935
407.97	.08499	.000212475
409.95	.0938	.0002345
411.9	.1045	.00026125
413.88	.1164	.000291
415.84	.1264	.000316
417.81	.1398	.0003495
419.77	.1534	.0003835

System: 2-bromofluorene; phases: Crystal, Gas
Property: Vapor or sublimation pressure, kPa (Crystal); method: Knudsen effusion method
Temperature, K	Vapor or sublimation pressure, kPa	uncertainty
327.17	.000118	.00001
329.13	.000148	.00001
331.09	.000183	.00001
333.16	.000229	.00001
335.14	.000279	.00001
337.11	.000343	.00001
339.16	.000425	.00001
341.14	.000501	.00001
343.1	.000634	.00001
345.16	.000758	.00001
347.09	.000928	.00001
349.09	.00112	.00001
327.17	.000119	.00001
329.13	.00015	.00001
331.09	.000186	.00001
333.16	.000223	.00001
335.14	.00028	.00001
337.11	.000347	.00001
339.16	.000417	.00001
341.14	.000515	.00001
343.1	.000627	.00001
345.16	.000749	.00001
347.09	.000929	.00001
349.09	.001125	.00001
327.17	.000118	.00001
329.13	.000148	.00001
331.09	.000186	.00001
333.16	.000225	.00001
335.14	.000275	.00001
337.11	.000346	.00001
339.16	.000416	.00001
341.14	.000501	.00001
343.1	.000626	.00001
345.16	.000747	.00001
347.09	.000909	.00001
349.09	.001127	.00001

System: 2,7-dibromofluorene; phases: Crystal, Liquid, Air at 1 atmosphere
Property: Molar enthalpy of transition or fusion, kJ/mol (Crystal); method: DSC
Molar enthalpy of transition or fusion, kJ/mol	uncertainty
22.72	

System: 2,7-dibromofluorene; phases: Crystal, Liquid, Air at 1 atmosphere
Property: Triple point temperature, K (Crystal); method: DSC/DTA
Triple point temperature, K	uncertainty
438.79	

System: 2,7-dibromofluorene; phases: Crystal, Gas
Property: Vapor or sublimation pressure, kPa (Crystal); method: Closed cell (Static) method
Temperature, K	Vapor or sublimation pressure, kPa	uncertainty
382.23	.000732	.00000183
384.26	.000874	.000002185
386.08	.001029	.0000025725
388.21	.001254	.000003135
390.11	.001472	.00000368
392.14	.001751	.0000043775
394.16	.002104	.00000526
396.08	.002489	.0000062225
398.07	.002922	.000007305

System: 2,7-dibromofluorene; phases: Crystal, Gas
Property: Vapor or sublimation pressure, kPa (Crystal); method: Knudsen effusion method
Temperature, K	Vapor or sublimation pressure, kPa	uncertainty
361.15	.000095	.00001
363.14	.000119	.00001
365.11	.000144	.00001
367.16	.000179	.00001
369.11	.000215	.00001
371.1	.000261	.00001
373.15	.000319	.00001
375.12	.000382	.00001
377.12	.000463	.00001
379.15	.000563	.00001
381.12	.000678	.00001
383.12	.000809	.00001
361.15	.000097	.00001
363.14	.000119	.00001
365.11	.000147	.00001
367.16	.000177	.00001
369.11	.000218	.00001
371.1	.000267	.00001
373.15	.000318	.00001
375.12	.000392	.00001
377.12	.000472	.00001
379.15	.000556	.00001
381.12	.000687	.00001
383.12	.000827	.00001
361.15	.000096	.00001
363.14	.000118	.00001
365.11	.000148	.00001
367.16	.000177	.00001
369.11	.000214	.00001
371.1	.000267	.00001
373.15	.000315	.00001
375.12	.000388	.00001
377.12	.000478	.00001
379.15	.00056	.00001
381.12	.000674	.00001
383.12	.000832	.00001

Reaction: -1 2-bromofluorene + 1 hydrogen bromide + 13 carbon dioxide + 4 water + -15 oxygen
Property: Specific internal energy of reaction at constant volume, J/g
-26460.12

Reaction: 2 hydrogen bromide + -1 2,7-dibromofluorene + 13 carbon dioxide + 3 water + -14.5 oxygen
Property: Specific internal energy of reaction at constant volume, J/g
-19524.03
