Measured thermophysical data. Measurement of the (pressure, density, temperature) relation  of a (methane + nitrogen) gaseous mixture using an accurate single-sinker  densimeter
Source: J. Chem. Thermodyn., 2013, 10.1016/j.jct.2012.12.018
Compound 1: carbane, CH4, purity 99.995%
Compound 2: nitrogen, N2, purity 99.999%

System: carbane + nitrogen; phases: Gas
Fixed: Mole fraction of carbane = .8977
Property: Mass density, kg/m3 (Gas); method: Buoyancy - hydrostatic balance with magnetic suspension - one sinker
Temperature, K	Pressure, kPa	Mass density, kg/m3	uncertainty
170.586	1287.8	18.0625	.180625
170.587	1037.8	14.0966	.140966
170.591	761.2	10.0103	.100103
170.601	455.1	5.7907	.057907
187.47	1349.6	16.6251	.166251
187.468	1064.8	12.7954	.127954
187.471	722.4	8.4419	.084419
187.475	422.8	4.8286	.048286
217.541	1475.3	15.0994	.150994
217.541	1298.9	13.1778	.131778
217.547	1017.9	10.1853	.101853
217.546	724.1	7.1436	.071436
217.543	441.1	4.2954	.042954
240.481	1594.5	14.5212	.145212
240.481	1256.7	11.3113	.113113
240.482	975.3	8.695	.08695
240.485	715.8	6.3263	.063263
240.489	438.2	3.8367	.038367
260.995	1021.7	8.3427	.083427
260.997	729	5.9093	.059093
261	436.6	3.5148	.035148
261.005	145.7	1.1633	.011633
270.048	1195.4	9.445	.09445
270.048	1025.7	8.0721	.080721
270.049	731.4	5.7195	.057195
270.053	424.6	3.2976	.032976
270.054	133.3	1.0285	.010285
