Measured thermophysical data. Vapour pressures and densities of the mixed-solvent  desiccants (glycols + water + salts)
Source: J. Chem. Thermodyn., 2009, 10.1016/j.jct.2008.12.003
Compound 1: bis(2-hydroxyethyl) ether, C4H10O3, purity 99%
Compound 2: tetraethylene glycol, C8H18O5, purity 99%
Compound 3: Lithium Bromide, BrLi, purity 99%
Compound 4: propanol, oxybis-, C6H14O3, purity 99%
Compound 5: lithium chloride, ClLi, purity 99%
Compound 6: water, H2O

System: bis(2-hydroxyethyl) ether; phases: Liquid
Fixed: Pressure, kPa = 101.325
Property: Mass density, kg/m3 (Liquid); method: Pycnometric method
Temperature, K	Mass density, kg/m3	uncertainty
303.15	1109	.5545
313.15	1103	.5515
323.15	1095	.5475
333.15	1088	.544
343.15	1081	.5405

System: tetraethylene glycol; phases: Liquid
Fixed: Pressure, kPa = 101.325
Property: Mass density, kg/m3 (Liquid); method: Pycnometric method
Temperature, K	Mass density, kg/m3	uncertainty
303.15	1116	.558
313.15	1108	.554
323.15	1100	.55
333.15	1093	.5465
343.15	1086	.543

System: propanol, oxybis-; phases: Liquid
Fixed: Pressure, kPa = 101.325
Property: Mass density, kg/m3 (Liquid); method: Pycnometric method
Temperature, K	Mass density, kg/m3	uncertainty
303.15	1014	.507
313.15	1007	.5035
323.15	999	.4995
333.15	991	.4955
343.15	984	.492

System: bis(2-hydroxyethyl) ether + lithium chloride + water; phases: Liquid
Fixed: Pressure, kPa = 101
Property: Mass density, kg/m3 (Liquid); method: Pycnometric method
Temperature, K	Mass fraction of bis(2-hydroxyethyl) ether	Mass fraction of water	Mass density, kg/m3	uncertainty
303.15	.8	.16	1128	
313.15	.8	.16	1121	
323.15	.8	.16	1113	
333.15	.8	.16	1106	
343.15	.8	.16	1100	
303.15	.7	.21	1152	
313.15	.7	.21	1146	
323.15	.7	.21	1139	
333.15	.7	.21	1133	
343.15	.7	.21	1128	
303.15	.6	.24	1186	
313.15	.6	.24	1180	
323.15	.6	.24	1175	
333.15	.6	.24	1169	
343.15	.6	.24	1164	
303.15	.5	.25	1231	
313.15	.5	.25	1226	
323.15	.5	.25	1222	
333.15	.5	.25	1216	
343.15	.5	.25	1211	

System: bis(2-hydroxyethyl) ether + lithium chloride + water; phases: Liquid, Gas
Property: Vapor or sublimation pressure, kPa (Liquid); method: Closed cell (Static) method
Mass fraction of bis(2-hydroxyethyl) ether	Mass fraction of water	Temperature, K	Vapor or sublimation pressure, kPa	uncertainty
.8	.16	303.15	1.667	
.8	.16	313.15	2.933	
.8	.16	323.15	4.933	
.8	.16	333.15	8.119	
.8	.16	343.15	12.652	
.7	.21	303.15	1.533	
.7	.21	313.15	2.746	
.7	.21	323.15	4.693	
.7	.21	333.15	7.733	
.7	.21	343.15	12.092	
.6	.24	303.15	1.213	
.6	.24	313.15	2.226	
.6	.24	323.15	3.813	
.6	.24	333.15	6.279	
.6	.24	343.15	9.786	
.5	.25	303.15	.613	
.5	.25	313.15	1.16	
.5	.25	323.15	2.027	
.5	.25	333.15	3.44	
.5	.25	343.15	5.4	

System: tetraethylene glycol + lithium chloride + water; phases: Liquid
Fixed: Pressure, kPa = 101
Property: Mass density, kg/m3 (Liquid); method: Pycnometric method
Temperature, K	Mass fraction of tetraethylene glycol	Mass fraction of water	Mass density, kg/m3	uncertainty
303.15	.8	.16	1136	
313.15	.8	.16	1129	
323.15	.8	.16	1121	
333.15	.8	.16	1114	
343.15	.8	.16	1107	
303.15	.7	.21	1161	
313.15	.7	.21	1155	
323.15	.7	.21	1148	
333.15	.7	.21	1141	
343.15	.7	.21	1136	
303.15	.6	.24	1195	
313.15	.6	.24	1190	
323.15	.6	.24	1184	
333.15	.6	.24	1178	
343.15	.6	.24	1172	
303.15	.5	.25	1239	
313.15	.5	.25	1233	
323.15	.5	.25	1230	
333.15	.5	.25	1224	
343.15	.5	.25	1219	

System: tetraethylene glycol + lithium chloride + water; phases: Liquid, Gas
Property: Vapor or sublimation pressure, kPa (Liquid); method: Closed cell (Static) method
Mass fraction of tetraethylene glycol	Mass fraction of water	Temperature, K	Vapor or sublimation pressure, kPa	uncertainty
.8	.16	303.15	1.773	
.8	.16	313.15	3.226	
.8	.16	323.15	5.533	
.8	.16	333.15	9.133	
.8	.16	343.15	14.532	
.7	.21	303.15	1.613	
.7	.21	313.15	2.92	
.7	.21	323.15	4.973	
.7	.21	333.15	8.133	
.7	.21	343.15	12.799	
.6	.24	303.15	1.187	
.6	.24	313.15	2.16	
.6	.24	323.15	3.706	
.6	.24	333.15	6.106	
.6	.24	343.15	9.586	
.5	.25	303.15	.573	
.5	.25	313.15	1.107	
.5	.25	323.15	1.987	
.5	.25	333.15	3.386	
.5	.25	343.15	5.506	

System: lithium chloride + water + propanol, oxybis-; phases: Liquid
Fixed: Pressure, kPa = 101
Property: Mass density, kg/m3 (Liquid); method: Pycnometric method
Temperature, K	Mass fraction of propanol, oxybis-	Mass fraction of water	Mass density, kg/m3	uncertainty
303.15	.8	.16	1052	
313.15	.8	.16	1045	
323.15	.8	.16	1037	
333.15	.8	.16	1030	
343.15	.8	.16	1023	
303.15	.7	.21	1084	
313.15	.7	.21	1077	
323.15	.7	.21	1070	
333.15	.7	.21	1063	
343.15	.7	.21	1057	
303.15	.6	.24	1125	
313.15	.6	.24	1119	
323.15	.6	.24	1113	
333.15	.6	.24	1107	
343.15	.6	.24	1101	
303.15	.5	.25	1178	
313.15	.5	.25	1171	
323.15	.5	.25	1166	
333.15	.5	.25	1160	
343.15	.5	.25	1155	

System: lithium chloride + water + propanol, oxybis-; phases: Liquid, Gas
Property: Vapor or sublimation pressure, kPa (Liquid); method: Closed cell (Static) method
Mass fraction of propanol, oxybis-	Mass fraction of water	Temperature, K	Vapor or sublimation pressure, kPa	uncertainty
.8	.16	303.15	2.373	
.8	.16	313.15	4.093	
.8	.16	323.15	6.773	
.8	.16	333.15	10.892	
.8	.16	343.15	16.999	
.7	.21	303.15	2	
.7	.21	313.15	3.453	
.7	.21	323.15	5.746	
.7	.21	333.15	9.399	
.7	.21	343.15	14.639	
.6	.24	303.15	1.44	
.6	.24	313.15	2.52	
.6	.24	323.15	4.2	
.6	.24	333.15	6.719	
.6	.24	343.15	10.479	
.5	.25	303.15	.693	
.5	.25	313.15	1.253	
.5	.25	323.15	2.12	
.5	.25	333.15	3.52	
.5	.25	343.15	5.626	

System: bis(2-hydroxyethyl) ether + Lithium Bromide + water; phases: Liquid
Fixed: Pressure, kPa = 101
Property: Mass density, kg/m3 (Liquid); method: Pycnometric method
Temperature, K	Mass fraction of bis(2-hydroxyethyl) ether	Mass fraction of water	Mass density, kg/m3	uncertainty
303.15	.8	.16	1134	
313.15	.8	.16	1128	
323.15	.8	.16	1120	
333.15	.8	.16	1113	
343.15	.8	.16	1106	
303.15	.7	.21	1171	
313.15	.7	.21	1164	
323.15	.7	.21	1158	
333.15	.7	.21	1152	
343.15	.7	.21	1145	
303.15	.6	.24	1226	
313.15	.6	.24	1219	
323.15	.6	.24	1213	
333.15	.6	.24	1206	
343.15	.6	.24	1200	
303.15	.5	.25	1307	
313.15	.5	.25	1300	
323.15	.5	.25	1294	
333.15	.5	.25	1288	
343.15	.5	.25	1282	

System: bis(2-hydroxyethyl) ether + Lithium Bromide + water; phases: Liquid, Gas
Property: Vapor or sublimation pressure, kPa (Liquid); method: Closed cell (Static) method
Mass fraction of bis(2-hydroxyethyl) ether	Mass fraction of water	Temperature, K	Vapor or sublimation pressure, kPa	uncertainty
.8	.16	303.15	1.867	
.8	.16	313.15	3.32	
.8	.16	323.15	5.666	
.8	.16	333.15	9.306	
.8	.16	343.15	14.639	
.7	.21	303.15	2.066	
.7	.21	313.15	3.693	
.7	.21	323.15	6.239	
.7	.21	333.15	10.186	
.7	.21	343.15	15.892	
.6	.24	303.15	2.16	
.6	.24	313.15	3.786	
.6	.24	323.15	6.346	
.6	.24	333.15	10.239	
.6	.24	343.15	15.919	
.5	.25	303.15	1.787	
.5	.25	313.15	3.133	
.5	.25	323.15	5.266	
.5	.25	333.15	8.573	
.5	.25	343.15	13.279	

System: tetraethylene glycol + Lithium Bromide + water; phases: Liquid
Fixed: Pressure, kPa = 101
Property: Mass density, kg/m3 (Liquid); method: Pycnometric method
Temperature, K	Mass fraction of tetraethylene glycol	Mass fraction of water	Mass density, kg/m3	uncertainty
303.15	.8	.16	1143	
313.15	.8	.16	1136	
323.15	.8	.16	1127	
333.15	.8	.16	1120	
343.15	.8	.16	1112	
303.15	.7	.21	1181	
313.15	.7	.21	1173	
323.15	.7	.21	1165	
333.15	.7	.21	1158	
343.15	.7	.21	1152	
303.15	.6	.24	1236	
313.15	.6	.24	1229	
323.15	.6	.24	1222	
333.15	.6	.24	1215	
343.15	.6	.24	1208	
303.15	.5	.25	1315	
313.15	.5	.25	1308	
323.15	.5	.25	1302	
333.15	.5	.25	1295	
343.15	.5	.25	1289	

System: tetraethylene glycol + Lithium Bromide + water; phases: Liquid, Gas
Property: Vapor or sublimation pressure, kPa (Liquid); method: Closed cell (Static) method
Mass fraction of tetraethylene glycol	Mass fraction of water	Temperature, K	Vapor or sublimation pressure, kPa	uncertainty
.8	.16	303.15	2.293	
.8	.16	313.15	3.96	
.8	.16	323.15	6.626	
.8	.16	333.15	10.772	
.8	.16	343.15	16.759	
.7	.21	303.15	2.373	
.7	.21	313.15	4.106	
.7	.21	323.15	6.866	
.7	.21	333.15	11.119	
.7	.21	343.15	17.465	
.6	.24	303.15	2.266	
.6	.24	313.15	3.986	
.6	.24	323.15	6.639	
.6	.24	333.15	10.772	
.6	.24	343.15	16.905	
.5	.25	303.15	1.867	
.5	.25	313.15	3.293	
.5	.25	323.15	5.493	
.5	.25	333.15	8.893	
.5	.25	343.15	13.746	

System: Lithium Bromide + water + propanol, oxybis-; phases: Liquid
Fixed: Pressure, kPa = 101
Property: Mass density, kg/m3 (Liquid); method: Pycnometric method
Temperature, K	Mass fraction of propanol, oxybis-	Mass fraction of water	Mass density, kg/m3	uncertainty
303.15	.8	.16	1059	
313.15	.8	.16	1051	
323.15	.8	.16	1043	
333.15	.8	.16	1036	
343.15	.8	.16	1001	
303.15	.7	.21	1102	
313.15	.7	.21	1094	
323.15	.7	.21	1086	
333.15	.7	.21	1079	
343.15	.7	.21	1072	
303.15	.6	.24	1162	
313.15	.6	.24	1155	
323.15	.6	.24	1148	
333.15	.6	.24	1140	
343.15	.6	.24	1133	
303.15	.5	.25	1249	
313.15	.5	.25	1241	
323.15	.5	.25	1235	
333.15	.5	.25	1227	
343.15	.5	.25	1210	

System: Lithium Bromide + water + propanol, oxybis-; phases: Liquid, Gas
Property: Vapor or sublimation pressure, kPa (Liquid); method: Closed cell (Static) method
Mass fraction of propanol, oxybis-	Mass fraction of water	Temperature, K	Vapor or sublimation pressure, kPa	uncertainty
.8	.16	303.15	2.413	
.8	.16	313.15	4.293	
.8	.16	323.15	7.319	
.8	.16	333.15	11.946	
.8	.16	343.15	18.732	
.7	.21	303.15	2.493	
.7	.21	313.15	4.413	
.7	.21	323.15	7.479	
.7	.21	333.15	12.239	
.7	.21	343.15	19.118	
.6	.24	303.15	2.4	
.6	.24	313.15	4.24	
.6	.24	323.15	7.106	
.6	.24	333.15	11.506	
.6	.24	343.15	17.825	
.5	.25	303.15	1.827	
.5	.25	313.15	3.28	
.5	.25	323.15	5.493	
.5	.25	333.15	8.959	
.5	.25	343.15	13.919	
