Measured thermophysical data. 1-Alkyl-3-methylimidazolium bis(trifluoromethylsulfonyl)imide ionic liquids as solvents in the separation of azeotropic mixtures
Source: J. Chem. Thermodyn., 2012, 10.1016/j.jct.2012.04.026
Compound 1: heptane, C7H16, purity 99%
Compound 2: ethyl alcohol, C2H6O, purity 99%
Compound 3: 1-ethyl-3-methylimidazolium 1,1,1-trifluoro-N-[(trifluoromethyl)sulfonyl]methanesulfonamide, C8H11F6N3O4S2, purity 99%
Compound 4: 1-methyl-3-propylimidazolium 1,1,1-trifluoro-N-[(trifluoromethyl)sulfonyl]methanesulfonamide, C9H13F6N3O4S2, purity 99%
Compound 5: 1-butyl-3-methylimidazolium 1,1,1-trifluoro-N-[(trifluoromethyl)sulfonyl]methanesulfonamide, C10H15F6N3O4S2, purity 99%
Compound 6: 1-hexyl-3-methylimidazolium bis[(trifluoromethyl)sulfonyl]imide, C12H19F6N3O4S2, purity 99%

System: heptane; phases: Liquid
Fixed: Pressure, kPa = 101.325
Property: Mass density, kg/m3 (Liquid); method: Vibrating tube method
Temperature, K	Mass density, kg/m3	uncertainty
298.15	679.57	.03

System: heptane; phases: Liquid
Fixed: Pressure, kPa = 101.325
Property: Refractive index (Na D-line) (Liquid); method: Standard Abbe refractometry
Temperature, K	Refractive index (Na D-line)	uncertainty
298.15	1.38529	.00004

System: ethyl alcohol; phases: Liquid
Fixed: Pressure, kPa = 101.325
Property: Mass density, kg/m3 (Liquid); method: Vibrating tube method
Temperature, K	Mass density, kg/m3	uncertainty
298.15	785.2	.03

System: ethyl alcohol; phases: Liquid
Fixed: Pressure, kPa = 101.325
Property: Refractive index (Na D-line) (Liquid); method: Standard Abbe refractometry
Temperature, K	Refractive index (Na D-line)	uncertainty
298.15	1.38529	.00004

System: ethyl alcohol; phases: Liquid
Property: Mass density, kg/m3 (Liquid); method: Vibrating tube method
Temperature, K	Pressure, kPa	Mass density, kg/m3	uncertainty
313.15	101.325	773.03	.03
313.15	101.325	773.03	.03
313.15	101.325	773.03	.03
313.15	101.325	773.03	.03

System: ethyl alcohol; phases: Liquid
Fixed: Pressure, kPa = 101.325
Property: Refractive index (Na D-line) (Liquid); method: Standard Abbe refractometry
Temperature, K	Refractive index (Na D-line)	uncertainty
313.15	1.35353	.00004

System: ethyl alcohol; phases: Liquid
Property: Mass density, kg/m3 (Liquid); method: Vibrating tube method
Temperature, K	Pressure, kPa	Mass density, kg/m3	uncertainty
313.15	101	773.03	.03

System: 1-ethyl-3-methylimidazolium 1,1,1-trifluoro-N-[(trifluoromethyl)sulfonyl]methanesulfonamide; phases: Liquid
Fixed: Pressure, kPa = 101.325
Property: Mass density, kg/m3 (Liquid); method: Vibrating tube method
Temperature, K	Mass density, kg/m3	uncertainty
298.15	1518.74	.03

System: 1-ethyl-3-methylimidazolium 1,1,1-trifluoro-N-[(trifluoromethyl)sulfonyl]methanesulfonamide; phases: Liquid
Fixed: Pressure, kPa = 101.325
Property: Refractive index (Na D-line) (Liquid); method: Standard Abbe refractometry
Temperature, K	Refractive index (Na D-line)	uncertainty
298.15	1.42307	.00004

System: 1-ethyl-3-methylimidazolium 1,1,1-trifluoro-N-[(trifluoromethyl)sulfonyl]methanesulfonamide; phases: Liquid
Property: Mass density, kg/m3 (Liquid); method: Vibrating tube method
Temperature, K	Pressure, kPa	Mass density, kg/m3	uncertainty
313.15	101.325	1502.2	.03

System: 1-ethyl-3-methylimidazolium 1,1,1-trifluoro-N-[(trifluoromethyl)sulfonyl]methanesulfonamide; phases: Liquid
Fixed: Pressure, kPa = 101.325
Property: Refractive index (Na D-line) (Liquid); method: Standard Abbe refractometry
Temperature, K	Refractive index (Na D-line)	uncertainty
313.15	1.41695	.00004

System: 1-ethyl-3-methylimidazolium 1,1,1-trifluoro-N-[(trifluoromethyl)sulfonyl]methanesulfonamide; phases: Liquid
Property: Mass density, kg/m3 (Liquid); method: Vibrating tube method
Temperature, K	Pressure, kPa	Mass density, kg/m3	uncertainty
313.15	101	1502.2	.03

System: 1-methyl-3-propylimidazolium 1,1,1-trifluoro-N-[(trifluoromethyl)sulfonyl]methanesulfonamide; phases: Liquid
Fixed: Pressure, kPa = 101.325
Property: Mass density, kg/m3 (Liquid); method: Vibrating tube method
Temperature, K	Mass density, kg/m3	uncertainty
298.15	1473.97	.03

System: 1-methyl-3-propylimidazolium 1,1,1-trifluoro-N-[(trifluoromethyl)sulfonyl]methanesulfonamide; phases: Liquid
Fixed: Pressure, kPa = 101.325
Property: Refractive index (Na D-line) (Liquid); method: Standard Abbe refractometry
Temperature, K	Refractive index (Na D-line)	uncertainty
298.15	1.42525	.00004

System: 1-methyl-3-propylimidazolium 1,1,1-trifluoro-N-[(trifluoromethyl)sulfonyl]methanesulfonamide; phases: Liquid
Property: Mass density, kg/m3 (Liquid); method: Vibrating tube method
Temperature, K	Pressure, kPa	Mass density, kg/m3	uncertainty
313.15	101.325	1458.33	.03

System: 1-methyl-3-propylimidazolium 1,1,1-trifluoro-N-[(trifluoromethyl)sulfonyl]methanesulfonamide; phases: Liquid
Fixed: Pressure, kPa = 101.325
Property: Refractive index (Na D-line) (Liquid); method: Standard Abbe refractometry
Temperature, K	Refractive index (Na D-line)	uncertainty
313.15	1.42016	.00004

System: 1-methyl-3-propylimidazolium 1,1,1-trifluoro-N-[(trifluoromethyl)sulfonyl]methanesulfonamide; phases: Liquid
Property: Mass density, kg/m3 (Liquid); method: Vibrating tube method
Temperature, K	Pressure, kPa	Mass density, kg/m3	uncertainty
313.15	101	1458.33	.03

System: 1-butyl-3-methylimidazolium 1,1,1-trifluoro-N-[(trifluoromethyl)sulfonyl]methanesulfonamide; phases: Liquid
Fixed: Pressure, kPa = 101.325
Property: Mass density, kg/m3 (Liquid); method: Vibrating tube method
Temperature, K	Mass density, kg/m3	uncertainty
298.15	1436.1	.03

System: 1-butyl-3-methylimidazolium 1,1,1-trifluoro-N-[(trifluoromethyl)sulfonyl]methanesulfonamide; phases: Liquid
Fixed: Pressure, kPa = 101.325
Property: Refractive index (Na D-line) (Liquid); method: Standard Abbe refractometry
Temperature, K	Refractive index (Na D-line)	uncertainty
298.15	1.42672	.00004

System: 1-butyl-3-methylimidazolium 1,1,1-trifluoro-N-[(trifluoromethyl)sulfonyl]methanesulfonamide; phases: Liquid
Property: Mass density, kg/m3 (Liquid); method: Vibrating tube method
Temperature, K	Pressure, kPa	Mass density, kg/m3	uncertainty
313.15	101.325	1420.7	.03

System: 1-butyl-3-methylimidazolium 1,1,1-trifluoro-N-[(trifluoromethyl)sulfonyl]methanesulfonamide; phases: Liquid
Fixed: Pressure, kPa = 101.325
Property: Refractive index (Na D-line) (Liquid); method: Standard Abbe refractometry
Temperature, K	Refractive index (Na D-line)	uncertainty
313.15	1.42437	.00004

System: 1-butyl-3-methylimidazolium 1,1,1-trifluoro-N-[(trifluoromethyl)sulfonyl]methanesulfonamide; phases: Liquid
Property: Mass density, kg/m3 (Liquid); method: Vibrating tube method
Temperature, K	Pressure, kPa	Mass density, kg/m3	uncertainty
313.15	101	1420.7	.03

System: 1-hexyl-3-methylimidazolium bis[(trifluoromethyl)sulfonyl]imide; phases: Liquid
Fixed: Pressure, kPa = 101.325
Property: Mass density, kg/m3 (Liquid); method: Vibrating tube method
Temperature, K	Mass density, kg/m3	uncertainty
298.15	1371.99	.03

System: 1-hexyl-3-methylimidazolium bis[(trifluoromethyl)sulfonyl]imide; phases: Liquid
Fixed: Pressure, kPa = 101.325
Property: Refractive index (Na D-line) (Liquid); method: Standard Abbe refractometry
Temperature, K	Refractive index (Na D-line)	uncertainty
298.15	1.43016	.00004

System: 1-hexyl-3-methylimidazolium bis[(trifluoromethyl)sulfonyl]imide; phases: Liquid
Property: Mass density, kg/m3 (Liquid); method: Vibrating tube method
Temperature, K	Pressure, kPa	Mass density, kg/m3	uncertainty
313.15	101.325	1356.95	.03

System: 1-hexyl-3-methylimidazolium bis[(trifluoromethyl)sulfonyl]imide; phases: Liquid
Fixed: Pressure, kPa = 101.325
Property: Refractive index (Na D-line) (Liquid); method: Standard Abbe refractometry
Temperature, K	Refractive index (Na D-line)	uncertainty
313.15	1.42542	.00004

System: 1-hexyl-3-methylimidazolium bis[(trifluoromethyl)sulfonyl]imide; phases: Liquid
Property: Mass density, kg/m3 (Liquid); method: Vibrating tube method
Temperature, K	Pressure, kPa	Mass density, kg/m3	uncertainty
313.15	101	1356.95	.03

System: ethyl alcohol + heptane + 1-ethyl-3-methylimidazolium 1,1,1-trifluoro-N-[(trifluoromethyl)sulfonyl]methanesulfonamide; phases: Liquid mixture 2, Liquid mixture 1
Property: Mole fraction of ethyl alcohol (Liquid mixture 2); method: Chromatography
Property: Mole fraction of ethyl alcohol (Liquid mixture 1); method: Chromatography
Property: Mole fraction of heptane (Liquid mixture 1); method: Chromatography
Temperature, K	Pressure, kPa	Mole fraction of heptane	Mole fraction of ethyl alcohol	uncertainty	Mole fraction of ethyl alcohol	uncertainty	Mole fraction of heptane	uncertainty
298.15	101.325	0	.038	.007	1	.007	0	.007
298.15	101.325	.25	.032	.007	.984	.007	.016	.007
298.15	101.325	.421	.042	.007	.946	.007	.054	.007
298.15	101.325	.48	.045	.007	.909	.007	.091	.007
298.15	101.325	.533	.048	.007	.843	.007	.157	.007
298.15	101.325	.581	.053	.007	.754	.007	.246	.007
298.15	101.325	.618	.058	.007	.691	.007	.309	.007
298.15	101.325	.644	.062	.007	.644	.007	.356	.007

System: ethyl alcohol + heptane + 1-ethyl-3-methylimidazolium 1,1,1-trifluoro-N-[(trifluoromethyl)sulfonyl]methanesulfonamide; phases: Liquid
Fixed: Temperature, K = 313.15
Fixed: Pressure, kPa = 101
Property: Mass density, kg/m3 (Liquid); method: Vibrating tube method
Mass fraction of heptane	Mass fraction of ethyl alcohol	Mass density, kg/m3	uncertainty
0	0	1502.2	.03
0	.014	1481.64	.03
0	.034	1456.07	.03
0	.072	1409.69	.03
0	.126	1347.49	.03
0	.278	1195.34	.03
0	.324	1155.44	.03
0	.635	943.07	.03
0	1	773.03	.03
.013	.101	1360.18	.03
.014	.199	1255.07	.03
.016	.397	1082.48	.03
.028	.584	950.97	.03
.03	.291	1153.6	.03
.032	.39	1072.82	.03
.054	.664	890.14	.03
.055	.568	939.76	.03
.082	.551	929.35	.03
.098	.633	876.12	.03
.11	.843	775.8	.03
.111	.534	918.02	.03
.148	.598	860.77	.03
.153	.676	822.26	.03
.158	.759	783.69	.03
.164	.792	767.67	.03
.198	.563	846.72	.03
.205	.635	810.08	.03
.211	.711	774.61	.03
.219	.74	759.65	.03
.254	.595	799.8	.03
.265	.662	766.29	.03
.271	.691	752.3	.03
.313	.619	757.83	.03
.321	.644	745.12	.03
.367	.57	749.67	.03
.373	.594	738.12	.03
.418	.524	742.1	.03
.475	.498	724.99	.03
.525	.45	718.97	.03

System: ethyl alcohol + heptane + 1-ethyl-3-methylimidazolium 1,1,1-trifluoro-N-[(trifluoromethyl)sulfonyl]methanesulfonamide; phases: Liquid
Fixed: Temperature, K = 313.15
Fixed: Pressure, kPa = 101
Property: Refractive index (Na D-line) (Liquid); method: Standard Abbe refractometry
Mass fraction of heptane	Mass fraction of ethyl alcohol	Refractive index (Na D-line)	uncertainty
0	0	1.41695	.00004
0	.014	1.41547	.00004
0	.034	1.41333	.00004
0	.072	1.40945	.00004
0	.126	1.40425	.00004
0	.278	1.3915	.00004
0	.324	1.38812	.00004
0	.635	1.36939	.00004
0	1	1.35353	.00004
.013	.101	1.40667	.00004
.014	.199	1.39759	.00004
.016	.397	1.38274	.00004
.028	.584	1.37132	.00004
.03	.291	1.38949	.00004
.032	.39	1.38243	.00004
.054	.664	1.3665	.00004
.055	.568	1.37125	.00004
.082	.551	1.37127	.00004
.098	.633	1.36681	.00004
.11	.843	1.35685	.00004
.111	.534	1.37127	.00004
.148	.598	1.36711	.00004
.153	.676	1.36336	.00004
.158	.759	1.35961	.00004
.164	.792	1.35793	.00004
.198	.563	1.36751	.00004
.205	.635	1.364	.00004
.211	.711	1.36048	.00004
.219	.74	1.35901	.00004
.254	.595	1.36466	.00004
.265	.662	1.36146	.00004
.271	.691	1.36005	.00004
.313	.619	1.36241	.00004
.321	.644	1.36107	.00004
.367	.57	1.36336	.00004
.373	.594	1.36213	.00004
.418	.524	1.36437	.00004
.475	.498	1.36433	.00004
.525	.45	1.36536	.00004

System: ethyl alcohol + heptane + 1-methyl-3-propylimidazolium 1,1,1-trifluoro-N-[(trifluoromethyl)sulfonyl]methanesulfonamide; phases: Liquid mixture 2, Liquid mixture 1
Property: Mole fraction of ethyl alcohol (Liquid mixture 2); method: Chromatography
Property: Mole fraction of ethyl alcohol (Liquid mixture 1); method: Chromatography
Property: Mole fraction of heptane (Liquid mixture 1); method: Chromatography
Temperature, K	Pressure, kPa	Mole fraction of heptane	Mole fraction of ethyl alcohol	uncertainty	Mole fraction of ethyl alcohol	uncertainty	Mole fraction of heptane	uncertainty
298.15	101.325	0	.044	.007	1	.007	0	.007
298.15	101.325	.233	.043	.007	.987	.007	.013	.007
298.15	101.325	.257	.045	.007	.982	.007	.018	.007
298.15	101.325	.355	.047	.007	.972	.007	.028	.007
298.15	101.325	.431	.053	.007	.955	.007	.045	.007
298.15	101.325	.496	.056	.007	.919	.007	.081	.007
298.15	101.325	.535	.058	.007	.888	.007	.112	.007
298.15	101.325	.573	.06	.007	.847	.007	.153	.007

System: ethyl alcohol + heptane + 1-methyl-3-propylimidazolium 1,1,1-trifluoro-N-[(trifluoromethyl)sulfonyl]methanesulfonamide; phases: Liquid
Fixed: Temperature, K = 313.15
Fixed: Pressure, kPa = 101
Property: Mass density, kg/m3 (Liquid); method: Vibrating tube method
Mass fraction of heptane	Mass fraction of ethyl alcohol	Mass density, kg/m3	uncertainty
0	0	1458.33	.03
0	.019	1433.96	.03
0	.035	1414.83	.03
0	.082	1362.5	.03
0	.133	1309.15	.03
0	.186	1256.95	.03
0	.267	1183.97	.03
0	.55	983.52	.03
0	1	773.03	.03
.025	.29	1140.67	.03
.037	.193	1209.53	.03
.046	.569	938.65	.03
.05	.666	886.33	.03
.052	.739	851.16	.03
.055	.864	796.4	.03
.056	.281	1117.7	.03
.094	.541	919.7	.03
.1	.631	870.8	.03
.101	.701	839.18	.03
.108	.815	787.18	.03
.134	.435	948.33	.03
.141	.513	902.02	.03
.158	.73	794.62	.03
.161	.767	778.45	.03
.191	.483	884.65	.03
.199	.561	843.02	.03
.205	.62	813.31	.03
.208	.687	785.41	.03
.214	.718	769.61	.03
.255	.581	802.13	.03
.26	.642	775.77	.03
.263	.674	762.16	.03
.306	.541	791.5	.03
.311	.598	765.94	.03
.315	.627	753.71	.03
.367	.579	746.48	.03
.413	.537	740.01	.03
.413	.509	749.45	.03
.518	.44	724.92	.03

System: ethyl alcohol + heptane + 1-methyl-3-propylimidazolium 1,1,1-trifluoro-N-[(trifluoromethyl)sulfonyl]methanesulfonamide; phases: Liquid
Fixed: Temperature, K = 313.15
Fixed: Pressure, kPa = 101
Property: Refractive index (Na D-line) (Liquid); method: Standard Abbe refractometry
Mass fraction of heptane	Mass fraction of ethyl alcohol	Refractive index (Na D-line)	uncertainty
0	0	1.42016	.00004
0	.019	1.41801	.00004
0	.035	1.4161	.00004
0	.082	1.41105	.00004
0	.133	1.40604	.00004
0	.186	1.40101	.00004
0	.267	1.39403	.00004
0	.55	1.37499	.00004
0	1	1.35353	.00004
.025	.29	1.39133	.00004
.037	.193	1.39873	.00004
.046	.569	1.37234	.00004
.05	.666	1.36712	.00004
.052	.739	1.36346	.00004
.055	.864	1.35754	.00004
.056	.281	1.39039	.00004
.094	.541	1.3723	.00004
.1	.631	1.36742	.00004
.101	.701	1.36399	.00004
.108	.815	1.35838	.00004
.134	.435	1.37665	.00004
.141	.513	1.37225	.00004
.158	.73	1.36103	.00004
.161	.767	1.35929	.00004
.191	.483	1.3723	.00004
.199	.561	1.36804	.00004
.205	.62	1.36511	.00004
.208	.687	1.36183	.00004
.214	.718	1.36021	.00004
.255	.581	1.36573	.00004
.26	.642	1.36266	.00004
.263	.674	1.36111	.00004
.306	.541	1.36633	.00004
.311	.598	1.36366	.00004
.315	.627	1.36209	.00004
.367	.579	1.36312	.00004
.413	.537	1.36399	.00004
.413	.509	1.36539	.00004
.518	.44	1.36608	.00004

System: ethyl alcohol + heptane + 1-butyl-3-methylimidazolium 1,1,1-trifluoro-N-[(trifluoromethyl)sulfonyl]methanesulfonamide; phases: Liquid mixture 2, Liquid mixture 1
Property: Mole fraction of ethyl alcohol (Liquid mixture 2); method: Chromatography
Property: Mole fraction of ethyl alcohol (Liquid mixture 1); method: Chromatography
Property: Mole fraction of heptane (Liquid mixture 1); method: Chromatography
Temperature, K	Pressure, kPa	Mole fraction of heptane	Mole fraction of ethyl alcohol	uncertainty	Mole fraction of ethyl alcohol	uncertainty	Mole fraction of heptane	uncertainty
298.15	101.325	0	.061	.007	1	.007	0	.007
298.15	101.325	.268	.059	.007	.986	.007	.014	.007
298.15	101.325	.38	.065	.007	.972	.007	.028	.007
298.15	101.325	.434	.067	.007	.962	.007	.038	.007
298.15	101.325	.498	.07	.007	.925	.007	.075	.007
298.15	101.325	.559	.069	.007	.888	.007	.112	.007
298.15	101.325	.596	.072	.007	.849	.007	.151	.007
298.15	101.325	.633	.074	.007	.802	.007	.198	.007
298.15	101.325	.695	.084	.007	.77	.007	.23	.007

System: ethyl alcohol + heptane + 1-butyl-3-methylimidazolium 1,1,1-trifluoro-N-[(trifluoromethyl)sulfonyl]methanesulfonamide; phases: Liquid
Fixed: Temperature, K = 313.15
Fixed: Pressure, kPa = 101
Property: Mass density, kg/m3 (Liquid); method: Vibrating tube method
Mass fraction of heptane	Mass fraction of ethyl alcohol	Mass density, kg/m3	uncertainty
0	0	1420.7	.03
0	.008	1411.58	.03
0	.015	1403.51	.03
0	.032	1384.48	.03
0	.084	1329.16	.03
0	.156	1259.12	.03
0	.202	1218.21	.03
0	.385	1077.75	.03
0	.48	1016.97	.03
0	1	773.03	.03
.015	.198	1207.15	.03
.016	.386	1062.87	.03
.026	.289	1122.75	.03
.033	.38	1053.08	.03
.047	.283	1107.95	.03
.047	.572	930	.03
.048	.668	882.27	.03
.052	.758	840.58	.03
.054	.892	785.06	.03
.098	.634	867.36	.03
.102	.717	828.49	.03
.107	.801	792.82	.03
.108	.841	776.79	.03
.14	.516	895.79	.03
.147	.599	853.45	.03
.153	.677	816.56	.03
.159	.754	784.04	.03
.163	.789	768.55	.03
.187	.488	878.74	.03
.195	.565	839.43	.03
.205	.636	805.46	.03
.21	.708	775.2	.03
.217	.738	760.57	.03
.236	.459	862.63	.03
.248	.528	824.82	.03
.263	.661	766.72	.03
.264	.66	766.74	.03
.27	.688	753.27	.03
.322	.64	745.66	.03
.374	.59	738.53	.03
.421	.519	741.51	.03
.424	.543	732.25	.03
.472	.497	725.87	.03
.516	.434	727.61	.03
.522	.451	719.64	.03
.573	.402	712.86	.03
.618	.36	707.22	.03

System: ethyl alcohol + heptane + 1-butyl-3-methylimidazolium 1,1,1-trifluoro-N-[(trifluoromethyl)sulfonyl]methanesulfonamide; phases: Liquid
Fixed: Temperature, K = 313.15
Fixed: Pressure, kPa = 101
Property: Refractive index (Na D-line) (Liquid); method: Standard Abbe refractometry
Mass fraction of heptane	Mass fraction of ethyl alcohol	Refractive index (Na D-line)	uncertainty
0	0	1.42437	.00004
0	.008	1.42305	.00004
0	.015	1.42222	.00004
0	.032	1.41981	.00004
0	.084	1.41301	.00004
0	.156	1.40517	.00004
0	.202	1.40056	.00004
0	.385	1.38611	.00004
0	.48	1.37983	.00004
0	1	1.35353	.00004
.015	.198	1.40092	.00004
.016	.386	1.38536	.00004
.026	.289	1.39247	.00004
.033	.38	1.3852	.00004
.047	.283	1.39183	.00004
.047	.572	1.37287	.00004
.048	.668	1.36761	.00004
.052	.758	1.36299	.00004
.054	.892	1.35639	.00004
.098	.634	1.3678	.00004
.102	.717	1.3634	.00004
.107	.801	1.35928	.00004
.108	.841	1.3573	.00004
.14	.516	1.37269	.00004
.147	.599	1.36809	.00004
.153	.677	1.36401	.00004
.159	.754	1.36015	.00004
.163	.789	1.35829	.00004
.187	.488	1.37276	.00004
.195	.565	1.36866	.00004
.205	.636	1.36459	.00004
.21	.708	1.36103	.00004
.217	.738	1.35932	.00004
.236	.459	1.37277	.00004
.248	.528	1.36879	.00004
.263	.661	1.36193	.00004
.264	.66	1.36193	.00004
.27	.688	1.36036	.00004
.322	.64	1.36141	.00004
.374	.59	1.36248	.00004
.421	.519	1.36477	.00004
.424	.543	1.36347	.00004
.472	.497	1.36455	.00004
.516	.434	1.36662	.00004
.522	.451	1.36563	.00004
.573	.402	1.36677	.00004
.618	.36	1.3678	.00004

System: ethyl alcohol + heptane + 1-hexyl-3-methylimidazolium bis[(trifluoromethyl)sulfonyl]imide; phases: Liquid mixture 2, Liquid mixture 1
Property: Mole fraction of ethyl alcohol (Liquid mixture 2); method: Chromatography
Property: Mole fraction of ethyl alcohol (Liquid mixture 1); method: Chromatography
Property: Mole fraction of heptane (Liquid mixture 1); method: Chromatography
Temperature, K	Pressure, kPa	Mole fraction of heptane	Mole fraction of ethyl alcohol	uncertainty	Mole fraction of ethyl alcohol	uncertainty	Mole fraction of heptane	uncertainty
298.15	101.325	0	.122	.007	1	.007	0	.007
298.15	101.325	.214	.123	.007	.992	.007	.008	.007
298.15	101.325	.279	.125	.007	.987	.007	.013	.007
298.15	101.325	.395	.129	.007	.971	.007	.029	.007
298.15	101.325	.437	.131	.007	.946	.007	.054	.007
298.15	101.325	.493	.134	.007	.909	.007	.091	.007
298.15	101.325	.542	.142	.007	.88	.007	.12	.007
298.15	101.325	.578	.148	.007	.854	.007	.146	.007

System: ethyl alcohol + heptane + 1-hexyl-3-methylimidazolium bis[(trifluoromethyl)sulfonyl]imide; phases: Liquid
Fixed: Temperature, K = 313.15
Fixed: Pressure, kPa = 101
Property: Mass density, kg/m3 (Liquid); method: Vibrating tube method
Mass fraction of heptane	Mass fraction of ethyl alcohol	Mass density, kg/m3	uncertainty
0	0	1356.95	.03
0	.099	1270.96	.03
0	.231	1161.07	.03
0	.328	1092.32	.03
0	.529	973.37	.03
0	.646	914.93	.03
0	.74	872.96	.03
0	.901	808.24	.03
0	1	773.03	.03
.026	.385	1033.62	.03
.031	.192	1158.92	.03
.032	.091	1238.97	.03
.045	.478	968.28	.03
.046	.189	1146.44	.03
.047	.574	919.02	.03
.055	.897	781.7	.03
.059	.372	1015.79	.03
.06	.663	870.94	.03
.064	.185	1132.52	.03
.091	.455	948.3	.03
.094	.546	902.25	.03
.095	.358	996.39	.03
.099	.635	859.86	.03
.103	.718	823.83	.03
.111	.844	773.03	.03
.137	.432	928.19	.03
.142	.517	885.9	.03
.148	.601	846.29	.03
.155	.677	812.66	.03
.16	.756	780.52	.03
.164	.795	765.47	.03
.189	.406	908.18	.03
.19	.488	870.79	.03
.2	.565	833	.03
.206	.636	801.88	.03
.214	.707	771.67	.03
.218	.743	757.66	.03
.229	.544	824.56	.03
.253	.527	819.11	.03
.258	.594	791.09	.03
.269	.658	763.36	.03
.274	.689	749.95	.03
.288	.429	838.57	.03
.307	.555	781.11	.03
.318	.613	755.6	.03
.33	.636	741.9	.03
.357	.515	771.18	.03
.375	.562	747.03	.03
.38	.589	735.3	.03
.387	.552	744.55	.03
.39	.549	744.23	.03
.408	.474	761.66	.03
.422	.52	740.51	.03
.43	.541	729.72	.03
.481	.493	722.76	.03
.506	.395	742.92	.03
.528	.449	717.86	.03
.579	.4	711.29	.03
.627	.354	705.94	.03
.719	.267	695.27	.03
.763	.225	689.37	.03

System: ethyl alcohol + heptane + 1-hexyl-3-methylimidazolium bis[(trifluoromethyl)sulfonyl]imide; phases: Liquid
Fixed: Temperature, K = 313.15
Fixed: Pressure, kPa = 101
Property: Refractive index (Na D-line) (Liquid); method: Standard Abbe refractometry
Mass fraction of heptane	Mass fraction of ethyl alcohol	Refractive index (Na D-line)	uncertainty
0	0	1.42542	.00004
0	.099	1.41392	.00004
0	.231	1.40128	.00004
0	.328	1.39325	.00004
0	.529	1.37912	.00004
0	.646	1.37165	.00004
0	.74	1.36626	.00004
0	.901	1.35782	.00004
0	1	1.35353	.00004
.026	.385	1.38773	.00004
.031	.192	1.4032	.00004
.032	.091	1.41343	.00004
.045	.478	1.38044	.00004
.046	.189	1.40302	.00004
.047	.574	1.37416	.00004
.055	.897	1.35633	.00004
.059	.372	1.38704	.00004
.06	.663	1.36875	.00004
.064	.185	1.40256	.00004
.091	.455	1.37998	.00004
.094	.546	1.37401	.00004
.095	.358	1.38625	.00004
.099	.635	1.36878	.00004
.103	.718	1.36403	.00004
.111	.844	1.3573	.00004
.137	.432	1.37934	.00004
.142	.517	1.37397	.00004
.148	.601	1.36896	.00004
.155	.677	1.36455	.00004
.16	.756	1.36035	.00004
.164	.795	1.35826	.00004
.189	.406	1.37896	.00004
.19	.488	1.37392	.00004
.2	.565	1.36923	.00004
.206	.636	1.3653	.00004
.214	.707	1.36126	.00004
.218	.743	1.35933	.00004
.229	.544	1.36945	.00004
.253	.527	1.36957	.00004
.258	.594	1.3658	.00004
.269	.658	1.36216	.00004
.274	.689	1.36044	.00004
.288	.429	1.3739	.00004
.307	.555	1.36645	.00004
.318	.613	1.36304	.00004
.33	.636	1.36159	.00004
.357	.515	1.36728	.00004
.375	.562	1.36406	.00004
.38	.589	1.36256	.00004
.387	.552	1.36424	.00004
.39	.549	1.36434	.00004
.408	.474	1.36803	.00004
.422	.52	1.36496	.00004
.43	.541	1.36366	.00004
.481	.493	1.36467	.00004
.506	.395	1.3693	.00004
.528	.449	1.36568	.00004
.579	.4	1.36694	.00004
.627	.354	1.36785	.00004
.719	.267	1.36994	.00004
.763	.225	1.37098	.00004

System: ethyl alcohol + 1-ethyl-3-methylimidazolium 1,1,1-trifluoro-N-[(trifluoromethyl)sulfonyl]methanesulfonamide; phases: Liquid mixture 2, Liquid mixture 1
Property: Mole fraction of ethyl alcohol (Liquid mixture 2); method: Chromatography
Temperature, K	Pressure, kPa	Mole fraction of ethyl alcohol	uncertainty
298.15	101.325	.038	.007

System: ethyl alcohol + 1-ethyl-3-methylimidazolium 1,1,1-trifluoro-N-[(trifluoromethyl)sulfonyl]methanesulfonamide; phases: Liquid
Property: Mass density, kg/m3 (Liquid); method: Vibrating tube method
Mass fraction of ethyl alcohol	Temperature, K	Pressure, kPa	Mass density, kg/m3	uncertainty
.014	313.15	101.325	1481.64	.03
.034	313.15	101.325	1456.07	.03
.072	313.15	101.325	1409.69	.03
.126	313.15	101.325	1347.49	.03
.278	313.15	101.325	1195.34	.03
.324	313.15	101.325	1155.44	.03
.635	313.15	101.325	943.07	.03
.014	313.15	10233.825	1481.64	.03
.034	313.15	10233.825	1456.07	.03
.072	313.15	10233.825	1409.69	.03
.126	313.15	10233.825	1347.49	.03
.278	313.15	10233.825	1195.34	.03
.324	313.15	10233.825	1155.44	.03
.635	313.15	10233.825	943.07	.03

System: ethyl alcohol + 1-ethyl-3-methylimidazolium 1,1,1-trifluoro-N-[(trifluoromethyl)sulfonyl]methanesulfonamide; phases: Liquid
Property: Refractive index (Na D-line) (Liquid); method: Standard Abbe refractometry
Mass fraction of ethyl alcohol	Temperature, K	Pressure, kPa	Refractive index (Na D-line)	uncertainty
.014	313.15	101.325	1.41547	.00004
.034	313.15	101.325	1.41333	.00004
.072	313.15	101.325	1.40945	.00004
.126	313.15	101.325	1.40425	.00004
.278	313.15	101.325	1.3915	.00004
.324	313.15	101.325	1.38812	.00004
.635	313.15	101.325	1.36939	.00004
.014	313.15	10233.825	1.41547	.00004
.034	313.15	10233.825	1.41333	.00004
.072	313.15	10233.825	1.40945	.00004
.126	313.15	10233.825	1.40425	.00004
.278	313.15	10233.825	1.3915	.00004
.324	313.15	10233.825	1.38812	.00004
.635	313.15	10233.825	1.36939	.00004

System: ethyl alcohol + heptane; phases: Liquid mixture 1, Liquid mixture 2
Property: Mole fraction of heptane (Liquid mixture 1); method: Chromatography
Temperature, K	Pressure, kPa	Mole fraction of heptane	uncertainty
298.15	101.325	.016	.007
298.15	101.325	.054	.007
298.15	101.325	.091	.007
298.15	101.325	.157	.007
298.15	101.325	.246	.007
298.15	101.325	.309	.007
298.15	101.325	.356	.007
298.15	101.325	.013	.007
298.15	101.325	.018	.007
298.15	101.325	.028	.007
298.15	101.325	.045	.007
298.15	101.325	.081	.007
298.15	101.325	.112	.007
298.15	101.325	.153	.007
298.15	101.325	.014	.007
298.15	101.325	.038	.007
298.15	101.325	.075	.007
298.15	101.325	.151	.007
298.15	101.325	.198	.007
298.15	101.325	.23	.007
298.15	101.325	.008	.007
298.15	101.325	.029	.007
298.15	101.325	.12	.007
298.15	101.325	.146	.007

System: ethyl alcohol + 1-methyl-3-propylimidazolium 1,1,1-trifluoro-N-[(trifluoromethyl)sulfonyl]methanesulfonamide; phases: Liquid mixture 2, Liquid mixture 1
Property: Mole fraction of ethyl alcohol (Liquid mixture 2); method: Chromatography
Temperature, K	Pressure, kPa	Mole fraction of ethyl alcohol	uncertainty
298.15	101.325	.044	.007

System: ethyl alcohol + 1-methyl-3-propylimidazolium 1,1,1-trifluoro-N-[(trifluoromethyl)sulfonyl]methanesulfonamide; phases: Liquid
Property: Mass density, kg/m3 (Liquid); method: Vibrating tube method
Mass fraction of ethyl alcohol	Temperature, K	Pressure, kPa	Mass density, kg/m3	uncertainty
.019	313.15	101.325	1433.96	.03
.035	313.15	101.325	1414.83	.03
.082	313.15	101.325	1362.5	.03
.133	313.15	101.325	1309.15	.03
.186	313.15	101.325	1256.95	.03
.267	313.15	101.325	1183.97	.03
.55	313.15	101.325	983.52	.03
.019	313.15	10233.825	1433.96	.03
.035	313.15	10233.825	1414.83	.03
.082	313.15	10233.825	1362.5	.03
.133	313.15	10233.825	1309.15	.03
.186	313.15	10233.825	1256.95	.03
.267	313.15	10233.825	1183.97	.03
.55	313.15	10233.825	983.52	.03

System: ethyl alcohol + 1-methyl-3-propylimidazolium 1,1,1-trifluoro-N-[(trifluoromethyl)sulfonyl]methanesulfonamide; phases: Liquid
Property: Refractive index (Na D-line) (Liquid); method: Standard Abbe refractometry
Mass fraction of ethyl alcohol	Temperature, K	Pressure, kPa	Refractive index (Na D-line)	uncertainty
.019	313.15	101.325	1.41801	.00004
.035	313.15	101.325	1.4161	.00004
.082	313.15	101.325	1.41105	.00004
.133	313.15	101.325	1.40604	.00004
.186	313.15	101.325	1.40101	.00004
.267	313.15	101.325	1.39403	.00004
.55	313.15	101.325	1.37499	.00004
.019	313.15	10233.825	1.41801	.00004
.035	313.15	10233.825	1.4161	.00004
.082	313.15	10233.825	1.41105	.00004
.133	313.15	10233.825	1.40604	.00004
.186	313.15	10233.825	1.40101	.00004
.267	313.15	10233.825	1.39403	.00004
.55	313.15	10233.825	1.37499	.00004

System: ethyl alcohol + 1-butyl-3-methylimidazolium 1,1,1-trifluoro-N-[(trifluoromethyl)sulfonyl]methanesulfonamide; phases: Liquid mixture 2, Liquid mixture 1
Property: Mole fraction of ethyl alcohol (Liquid mixture 2); method: Chromatography
Temperature, K	Pressure, kPa	Mole fraction of ethyl alcohol	uncertainty
298.15	101.325	.061	.007

System: ethyl alcohol + 1-butyl-3-methylimidazolium 1,1,1-trifluoro-N-[(trifluoromethyl)sulfonyl]methanesulfonamide; phases: Liquid
Property: Mass density, kg/m3 (Liquid); method: Vibrating tube method
Mass fraction of ethyl alcohol	Temperature, K	Pressure, kPa	Mass density, kg/m3	uncertainty
.008	313.15	101.325	1411.58	.03
.015	313.15	101.325	1403.51	.03
.032	313.15	101.325	1384.48	.03
.084	313.15	101.325	1329.16	.03
.156	313.15	101.325	1259.12	.03
.202	313.15	101.325	1218.21	.03
.385	313.15	101.325	1077.75	.03
.48	313.15	101.325	1016.97	.03
.008	313.15	10233.825	1411.58	.03
.015	313.15	10233.825	1403.51	.03
.032	313.15	10233.825	1384.48	.03
.084	313.15	10233.825	1329.16	.03
.156	313.15	10233.825	1259.12	.03
.202	313.15	10233.825	1218.21	.03
.385	313.15	10233.825	1077.75	.03
.48	313.15	10233.825	1016.97	.03

System: ethyl alcohol + 1-butyl-3-methylimidazolium 1,1,1-trifluoro-N-[(trifluoromethyl)sulfonyl]methanesulfonamide; phases: Liquid
Property: Refractive index (Na D-line) (Liquid); method: Standard Abbe refractometry
Mass fraction of ethyl alcohol	Temperature, K	Pressure, kPa	Refractive index (Na D-line)	uncertainty
.008	313.15	101.325	1.42305	.00004
.015	313.15	101.325	1.42222	.00004
.032	313.15	101.325	1.41981	.00004
.084	313.15	101.325	1.41301	.00004
.156	313.15	101.325	1.40517	.00004
.202	313.15	101.325	1.40056	.00004
.385	313.15	101.325	1.38611	.00004
.48	313.15	101.325	1.37983	.00004
.008	313.15	10233.825	1.42305	.00004
.015	313.15	10233.825	1.42222	.00004
.032	313.15	10233.825	1.41981	.00004
.084	313.15	10233.825	1.41301	.00004
.156	313.15	10233.825	1.40517	.00004
.202	313.15	10233.825	1.40056	.00004
.385	313.15	10233.825	1.38611	.00004
.48	313.15	10233.825	1.37983	.00004

System: ethyl alcohol + 1-hexyl-3-methylimidazolium bis[(trifluoromethyl)sulfonyl]imide; phases: Liquid mixture 2, Liquid mixture 1
Property: Mole fraction of ethyl alcohol (Liquid mixture 2); method: Chromatography
Temperature, K	Pressure, kPa	Mole fraction of ethyl alcohol	uncertainty
298.15	101.325	.122	.007

System: ethyl alcohol + 1-hexyl-3-methylimidazolium bis[(trifluoromethyl)sulfonyl]imide; phases: Liquid
Property: Mass density, kg/m3 (Liquid); method: Vibrating tube method
Mass fraction of ethyl alcohol	Temperature, K	Pressure, kPa	Mass density, kg/m3	uncertainty
.099	313.15	101.325	1270.96	.03
.231	313.15	101.325	1161.07	.03
.328	313.15	101.325	1092.32	.03
.529	313.15	101.325	973.37	.03
.646	313.15	101.325	914.93	.03
.74	313.15	101.325	872.96	.03
.901	313.15	101.325	808.24	.03
.099	313.15	10233.825	1270.96	.03
.231	313.15	10233.825	1161.07	.03
.328	313.15	10233.825	1092.32	.03
.529	313.15	10233.825	973.37	.03
.646	313.15	10233.825	914.93	.03
.74	313.15	10233.825	872.96	.03
.901	313.15	10233.825	808.24	.03

System: ethyl alcohol + 1-hexyl-3-methylimidazolium bis[(trifluoromethyl)sulfonyl]imide; phases: Liquid
Property: Refractive index (Na D-line) (Liquid); method: Standard Abbe refractometry
Mass fraction of ethyl alcohol	Temperature, K	Pressure, kPa	Refractive index (Na D-line)	uncertainty
.099	313.15	101.325	1.41392	.00004
.231	313.15	101.325	1.40128	.00004
.328	313.15	101.325	1.39325	.00004
.529	313.15	101.325	1.37912	.00004
.646	313.15	101.325	1.37165	.00004
.74	313.15	101.325	1.36626	.00004
.901	313.15	101.325	1.35782	.00004
.099	313.15	10233.825	1.41392	.00004
.231	313.15	10233.825	1.40128	.00004
.328	313.15	10233.825	1.39325	.00004
.529	313.15	10233.825	1.37912	.00004
.646	313.15	10233.825	1.37165	.00004
.74	313.15	10233.825	1.36626	.00004
.901	313.15	10233.825	1.35782	.00004
