Measured thermophysical data. Heat capacities and asymmetric criticality of the (liquid + liquid) coexistence curves for {dimethyl carbonate + n-undecane, or n-tridecane}
Source: J. Chem. Thermodyn., 2014, 10.1016/j.jct.2014.02.016
Compound 1: dimethyl carbonate, C3H6O3, purity 99%
Compound 2: n-undecane, C11H24, purity 99%
Compound 3: n-tridecane, C13H28, purity 99%

System: dimethyl carbonate; phases: Liquid
Fixed: Wavelength, nm = 632.8
Property: Refractive index (other wavelength) (Liquid); method: Angle minimization by sell rotation
Temperature, K	Pressure, kPa	Refractive index (other wavelength)	uncertainty
293.161	100	1.3678	.0001
294.286	100	1.3673	.0001
295.276	100	1.3669	.0001
296.278	100	1.3663	.0001
297.281	100	1.3659	.0001
298.302	100	1.3654	.0001
300.3	100	1.3644	.0001
302.298	100	1.3635	.0001
303.396	100	1.363	.0001

System: n-undecane; phases: Liquid
Fixed: Wavelength, nm = 632.8
Property: Refractive index (other wavelength) (Liquid); method: Angle minimization by sell rotation
Temperature, K	Pressure, kPa	Refractive index (other wavelength)	uncertainty
293.402	100	1.4162	.0001
294.301	100	1.4157	.0001
295.27	100	1.4152	.0001
296.264	100	1.4148	.0001
297.246	100	1.4144	.0001
298.27	100	1.4139	.0001
299.336	100	1.4134	.0001
300.314	100	1.413	.0001
301.272	100	1.4126	.0001

System: n-tridecane; phases: Liquid
Fixed: Wavelength, nm = 632.8
Property: Refractive index (other wavelength) (Liquid); method: Angle minimization by sell rotation
Temperature, K	Pressure, kPa	Refractive index (other wavelength)	uncertainty
294.14	100	1.4241	.0001
295.148	100	1.4236	.0001
296.184	100	1.4232	.0001
297.233	100	1.4227	.0001
299.351	100	1.4218	.0001
300.443	100	1.4213	.0001
302.436	100	1.4204	.0001
303.672	100	1.4199	.0001
304.454	100	1.4196	.0001

System: dimethyl carbonate + n-undecane; phases: Liquid mixture 1, Liquid mixture 2
Property: Upper consolute temperature, K (Liquid mixture 1); method: Visual observation
Pressure, kPa	Upper consolute temperature, K	uncertainty
100	292.7	.1

System: dimethyl carbonate + n-undecane; phases: Liquid
Fixed: Pressure, kPa = 100
Fixed: Wavelength, nm = 6328
Property: Refractive index (other wavelength) (Liquid); method: Angle minimization by sell rotation
Temperature, K	Mole fraction of n-undecane	Refractive index (other wavelength)	uncertainty
292.682	.304	1.389	.0001
292.679	.307	1.3892	.0001
292.676	.311	1.3894	.0001
292.672	.314	1.3896	.0001
292.667	.318	1.3898	.0001
292.659	.322	1.39	.0001
292.648	.327	1.3903	.0001
292.636	.331	1.3905	.0001
292.616	.336	1.3908	.0001
292.59	.341	1.3911	.0001
292.557	.349	1.3915	.0001
292.525	.352	1.3917	.0001
292.487	.36	1.3921	.0001
292.444	.365	1.3924	.0001
292.39	.371	1.3927	.0001
292.326	.376	1.393	.0001
292.254	.383	1.3934	.0001
292.167	.391	1.3938	.0001
292.052	.398	1.3942	.0001
291.902	.409	1.3948	.0001
291.711	.418	1.3953	.0001
291.487	.431	1.396	.0001
291.188	.442	1.3966	.0001
290.771	.46	1.3976	.0001
290.193	.475	1.3985	.0001
289.513	.496	1.3997	.0001
288.788	.515	1.4008	.0001
287.727	.539	1.4022	.0001
286.633	.56	1.4035	.0001
285.467	.58	1.4048	.0001
284.228	.602	1.4062	.0001
283.008	.62	1.4074	.0001
292.682	.266	1.3868	.0001
292.679	.263	1.3866	.0001
292.676	.261	1.3865	.0001
292.672	.258	1.3863	.0001
292.667	.255	1.3861	.0001
292.659	.251	1.3859	.0001
292.648	.246	1.3856	.0001
292.636	.243	1.3854	.0001
292.616	.238	1.3851	.0001
292.59	.235	1.3849	.0001
292.557	.228	1.3845	.0001
292.525	.225	1.3843	.0001
292.487	.22	1.384	.0001
292.444	.217	1.3838	.0001
292.39	.212	1.3835	.0001
292.326	.207	1.3832	.0001
292.254	.202	1.3829	.0001
292.167	.198	1.3827	.0001
292.052	.193	1.3824	.0001
291.902	.186	1.382	.0001
291.711	.179	1.3816	.0001
291.487	.173	1.3813	.0001
291.188	.165	1.3809	.0001
290.771	.157	1.3805	.0001
290.193	.147	1.3801	.0001
289.513	.137	1.3797	.0001
288.788	.129	1.3795	.0001
287.727	.118	1.3792	.0001
286.633	.11	1.3791	.0001
285.467	.102	1.3791	.0001
284.228	.094	1.3791	.0001
283.008	.087	1.3791	.0001

System: dimethyl carbonate + n-undecane; phases: Liquid
Fixed: Pressure, kPa = 100
Fixed: Wavelength, nm = 6328
Property: Refractive index (other wavelength) (Liquid); method: Angle minimization by sell rotation
Temperature, K	Mole fraction of n-undecane	Refractive index (other wavelength)	uncertainty
303.3	.102	1.3708	.0001
303.3	.2	1.3776	.0001
303.3	.299	1.3835	.0001
303.3	.388	1.3891	.0001
303.3	.5	1.3932	.0001
303.3	.586	1.3967	.0001
303.3	.701	1.4014	.0001
303.3	.793	1.4041	.0001
303.3	.905	1.4085	.0001

System: dimethyl carbonate + n-undecane; phases: Liquid mixture 1, Liquid mixture 2
Fixed: Pressure, kPa = 100
Property: Mole fraction of n-undecane (Liquid mixture 1); method: Index of refraction calibration data
Temperature, K	Mole fraction of n-undecane	uncertainty
292.682	.304	.001
292.679	.307	.001
292.676	.311	.001
292.672	.314	.001
292.667	.318	.001
292.659	.322	.001
292.648	.327	.001
292.636	.331	.001
292.616	.336	.001
292.59	.341	.001
292.557	.349	.001
292.525	.352	.001
292.487	.36	.001
292.444	.365	.001
292.39	.371	.001
292.326	.376	.001
292.254	.383	.001
292.167	.391	.001
292.052	.398	.001
291.902	.409	.001
291.711	.418	.001
291.487	.431	.001
291.188	.442	.001
290.771	.46	.001
290.193	.475	.001
289.513	.496	.001
288.788	.515	.001
287.727	.539	.001
286.633	.56	.001
285.467	.58	.001
284.228	.602	.001
283.008	.62	.001

System: dimethyl carbonate + n-undecane; phases: Liquid mixture 2, Liquid mixture 1
Fixed: Pressure, kPa = 100
Property: Mole fraction of n-undecane (Liquid mixture 2); method: Index of refraction calibration data
Temperature, K	Mole fraction of n-undecane	uncertainty
292.682	.266	.001
292.679	.263	.001
292.676	.261	.001
292.672	.258	.001
292.667	.255	.001
292.659	.251	.001
292.648	.246	.001
292.636	.243	.001
292.616	.238	.001
292.59	.235	.001
292.557	.228	.001
292.525	.225	.001
292.487	.22	.001
292.444	.217	.001
292.39	.212	.001
292.326	.207	.001
292.254	.202	.001
292.167	.198	.001
292.052	.193	.001
291.902	.186	.001
291.711	.179	.001
291.487	.173	.001
291.188	.165	.001
290.771	.157	.001
290.193	.147	.001
289.513	.137	.001
288.788	.129	.001
287.727	.118	.001
286.633	.11	.001
285.467	.102	.001
284.228	.094	.001
283.008	.087	.001

System: dimethyl carbonate + n-undecane; phases: Liquid
Fixed: Pressure, kPa = 100
Fixed: Mole fraction of n-undecane = .284
Property: Heat capacity at constant pressure per volume, J/K/m3 (Liquid); method: DSC Calorimetry
Temperature, K	Heat capacity at constant pressure per volume, J/K/m3	uncertainty
333.002	1777000	35540
332	1778000	35560
331.005	1778000	35560
330.003	1779000	35580
329.001	1780000	35600
328.006	1780000	35600
327.004	1780000	35600
326.003	1782000	35640
325.001	1782000	35640
324.006	1783000	35660
323.004	1784000	35680
322.003	1785000	35700
321.001	1786000	35720
320.006	1787000	35740
319.005	1787000	35740
318.003	1788000	35760
317.001	1789000	35780
316	1790000	35800
315.005	1792000	35840
314.003	1793000	35860
313.002	1795000	35900
312	1796000	35920
311.004	1797000	35940
310.003	1800000	36000
309.002	1801000	36020
308	1803000	36060
307.005	1805000	36100
306.003	1806000	36120
305.002	1810000	36200
304	1814000	36280
303.005	1818000	36360
302.002	1818000	36360
301.002	1822000	36440
300.003	1824000	36480
299.003	1832000	36640
298	1846000	36920
297	1848000	36960
296.001	1878000	37560
294.503	1897000	37940
294.001	1925000	38500
293.802	1939000	38780
293.601	1953000	39060
293.5	1982000	39640
293.402	2009000	40180
293.301	2050000	41000

System: dimethyl carbonate + n-undecane; phases: Liquid mixture 1, Liquid mixture 2
Property: Upper consolute composition: mole fraction of n-undecane (Liquid mixture 1); method: Visual method
Pressure, kPa	Upper consolute composition: mole fraction of n-undecane	uncertainty
100	.284	.002

System: dimethyl carbonate + n-tridecane; phases: Liquid mixture 1, Liquid mixture 2
Property: Upper consolute temperature, K (Liquid mixture 1); method: Visual observation
Pressure, kPa	Upper consolute temperature, K	uncertainty
100	303	.1

System: dimethyl carbonate + n-tridecane; phases: Liquid
Fixed: Pressure, kPa = 100
Fixed: Wavelength, nm = 6328
Property: Refractive index (other wavelength) (Liquid); method: Angle minimization by sell rotation
Temperature, K	Mole fraction of n-tridecane	Refractive index (other wavelength)	uncertainty
302.945	.275	1.3882	.0001
302.941	.278	1.3884	.0001
302.93	.284	1.3888	.0001
302.922	.289	1.3891	.0001
302.912	.291	1.3893	.0001
302.89	.297	1.3897	.0001
302.864	.303	1.3901	.0001
302.829	.311	1.3906	.0001
302.789	.317	1.391	.0001
302.698	.329	1.3918	.0001
302.633	.335	1.3922	.0001
302.561	.341	1.3926	.0001
302.477	.348	1.3931	.0001
302.364	.356	1.3936	.0001
302.215	.365	1.3942	.0001
301.799	.386	1.3956	.0001
301.501	.398	1.3964	.0001
301.091	.415	1.3975	.0001
300.519	.432	1.3987	.0001
299.842	.452	1.4	.0001
299.115	.467	1.4011	.0001
298.058	.492	1.4028	.0001
296.969	.511	1.4042	.0001
295.804	.532	1.4057	.0001
294.569	.553	1.4072	.0001
293.348	.57	1.4085	.0001
302.945	.226	1.3846	.0001
302.941	.223	1.3844	.0001
302.93	.218	1.384	.0001
302.922	.214	1.3837	.0001
302.912	.211	1.3835	.0001
302.89	.206	1.3831	.0001
302.864	.202	1.3828	.0001
302.829	.195	1.3823	.0001
302.789	.191	1.382	.0001
302.698	.184	1.3814	.0001
302.633	.18	1.3811	.0001
302.561	.176	1.3808	.0001
302.477	.17	1.3804	.0001
302.364	.165	1.38	.0001
302.215	.158	1.3795	.0001
301.799	.147	1.3787	.0001
301.501	.141	1.3783	.0001
301.091	.132	1.3777	.0001
300.519	.124	1.3772	.0001
299.842	.115	1.3767	.0001
299.115	.108	1.3764	.0001
298.058	.099	1.376	.0001
296.969	.091	1.3757	.0001
295.804	.084	1.3756	.0001
294.569	.078	1.3756	.0001
293.348	.073	1.3756	.0001

System: dimethyl carbonate + n-tridecane; phases: Liquid
Fixed: Pressure, kPa = 100
Fixed: Wavelength, nm = 6328
Property: Refractive index (other wavelength) (Liquid); method: Angle minimization by sell rotation
Temperature, K	Mole fraction of n-tridecane	Refractive index (other wavelength)	uncertainty
304.39	.097	1.3728	.0001
304.39	.196	1.3818	.0001
304.39	.297	1.389	.0001
304.39	.401	1.3953	.0001
304.39	.497	1.4002	.0001
304.39	.583	1.404	.0001
304.39	.71	1.4094	.0001
304.39	.795	1.4126	.0001
304.39	.899	1.4163	.0001

System: dimethyl carbonate + n-tridecane; phases: Liquid
Fixed: Pressure, kPa = 100
Fixed: Mole fraction of n-tridecane = .244
Property: Heat capacity at constant pressure per volume, J/K/m3 (Liquid); method: DSC Calorimetry
Temperature, K	Heat capacity at constant pressure per volume, J/K/m3	uncertainty
342.005	1799000	35980
341.006	1798000	35960
340.004	1799000	35980
339.004	1797000	35940
338.003	1798000	35960
337.003	1801000	36020
336.002	1802000	36040
335.002	1801000	36020
334.002	1802000	36040
333.002	1804000	36080
332.002	1805000	36100
331.001	1805000	36100
330.002	1806000	36120
329.001	1808000	36160
328.001	1809000	36180
327	1809000	36180
326	1810000	36200
325	1812000	36240
324	1813000	36260
323	1816000	36320
322	1815000	36300
321	1817000	36340
320.004	1819000	36380
319.006	1821000	36420
318.005	1824000	36480
317.005	1825000	36500
316.005	1827000	36540
315.004	1830000	36600
313.004	1837000	36740
312.097	1839000	36780
311.002	1843000	36860
310.003	1850000	37000
309	1860000	37200
308.001	1870000	37400
307.002	1874000	37480
306	1891000	37820
305	1910000	38200
304.6	1920000	38400
304.201	1942000	38840
304.001	1946000	38920
303.901	1958000	39160
303.801	1969000	39380
303.701	1992000	39840
303.601	2019000	40380
303.501	2056000	41120

System: dimethyl carbonate + n-tridecane; phases: Liquid mixture 1, Liquid mixture 2
Property: Upper consolute composition: mole fraction of n-tridecane (Liquid mixture 1); method: Visual method
Pressure, kPa	Upper consolute composition: mole fraction of n-tridecane	uncertainty
100	.244	.002

System: dimethyl carbonate + n-tridecane; phases: Liquid mixture 1, Liquid mixture 2
Fixed: Pressure, kPa = 100
Property: Mole fraction of n-tridecane (Liquid mixture 1); method: Index of refraction calibration data
Temperature, K	Mole fraction of n-tridecane	uncertainty
302.945	.275	.001
302.941	.278	.001
302.93	.284	.001
302.922	.289	.001
302.912	.291	.001
302.89	.297	.001
302.864	.303	.001
302.829	.311	.001
302.789	.317	.001
302.698	.329	.001
302.633	.335	.001
302.561	.341	.001
302.477	.348	.001
302.364	.356	.001
302.215	.365	.001
301.799	.386	.001
301.501	.398	.001
301.091	.415	.001
300.519	.432	.001
299.842	.452	.001
299.115	.467	.001
298.058	.492	.001
296.969	.511	.001
295.804	.532	.001
294.569	.553	.001
293.348	.57	.001

System: dimethyl carbonate + n-tridecane; phases: Liquid mixture 2, Liquid mixture 1
Fixed: Pressure, kPa = 100
Property: Mole fraction of n-tridecane (Liquid mixture 2); method: Index of refraction calibration data
Temperature, K	Mole fraction of n-tridecane	uncertainty
302.945	.226	.001
302.941	.223	.001
302.93	.218	.001
302.922	.214	.001
302.912	.211	.001
302.89	.206	.001
302.864	.202	.001
302.829	.195	.001
302.789	.191	.001
302.698	.184	.001
302.633	.18	.001
302.561	.176	.001
302.477	.17	.001
302.364	.165	.001
302.215	.158	.001
301.799	.147	.001
301.501	.141	.001
301.091	.132	.001
300.519	.124	.001
299.842	.115	.001
299.115	.108	.001
298.058	.099	.001
296.969	.091	.001
295.804	.084	.001
294.569	.078	.001
293.348	.073	.001
