Measured thermophysical data. The effect of the alkyl chain length on physicochemical features of (ionic liquids + .gamma.-butyrolactone) binary mixtures
Source: J. Chem. Thermodyn., 2016, 10.1016/j.jct.2016.03.034
Compound 1: 1-hexyl-3-methylimidazolium bis(trifluoromethylsulfonyl)imide, C12H19F6N3O4S2, purity 99%
Compound 2: 1-octyl-3-methylimidazolium bis(trifluoromethylsulfonyl)imide, C14H23F6N3O4S2, purity 99%
Compound 3: 1-ethyl-3-methylimidazolium bis(trifluoromethylsulfonyl)imide, C8H11F6N3O4S2, purity 99%
Compound 4: .gamma.-butyrolactone, C4H6O2, purity 99%

System: 1-hexyl-3-methylimidazolium bis(trifluoromethylsulfonyl)imide; phases: Liquid
Fixed: Pressure, kPa = 101.325
Property: Mass density, kg/m3 (Liquid); method: Vibrating tube method
Temperature, K	Mass density, kg/m3	uncertainty
273.15	1395.429	
278.15	1390.663	
283.15	1386.015	
288.15	1381.436	
293.15	1376.843	
298.15	1371.811	
303.15	1367.68	
308.15	1363.114	
313.15	1357.514	
318.15	1352.623	
323.15	1349.463	

System: 1-hexyl-3-methylimidazolium bis(trifluoromethylsulfonyl)imide; phases: Liquid
Fixed: Pressure, kPa = 101.325
Property: Viscosity, Pa*s (Liquid); method: Capillary tube (Ostwald; Ubbelohde) method
Temperature, K	Viscosity, Pa*s	uncertainty
273.15	.27926	
283.15	.1488	
293.15	.08729	
298.15	.07052	
303.15	.05592	
308.15	.04746	
313.15	.03722	
318.15	.03135	
323.15	.02595	

System: 1-octyl-3-methylimidazolium bis(trifluoromethylsulfonyl)imide; phases: Liquid
Fixed: Pressure, kPa = 101.325
Property: Mass density, kg/m3 (Liquid); method: Vibrating tube method
Temperature, K	Mass density, kg/m3	uncertainty
273.15	1340.419	
283.15	1331.261	
293.15	1324.816	
298.15	1320.473	
303.15	1316.051	
308.15	1311.642	
313.15	1307.243	
318.15	1302.852	
323.15	1298.472	

System: 1-octyl-3-methylimidazolium bis(trifluoromethylsulfonyl)imide; phases: Liquid
Fixed: Pressure, kPa = 101.325
Property: Viscosity, Pa*s (Liquid); method: Capillary tube (Ostwald; Ubbelohde) method
Temperature, K	Viscosity, Pa*s	uncertainty
283.15	.20888	
293.15	.11486	
298.15	.08859	
303.15	.06908	
308.15	.05538	
313.15	.04503	
318.15	.03725	
323.15	.03083	

System: 1-ethyl-3-methylimidazolium bis(trifluoromethylsulfonyl)imide; phases: Liquid
Fixed: Pressure, kPa = 101.325
Property: Mass density, kg/m3 (Liquid); method: Vibrating tube method
Temperature, K	Mass density, kg/m3	uncertainty
293.15	1523.441	
298.15	1518.302	
303.15	1513.112	
308.15	1507.904	
313.15	1502.684	
318.15	1497.483	
323.15	1492.242	

System: 1-ethyl-3-methylimidazolium bis(trifluoromethylsulfonyl)imide; phases: Liquid
Fixed: Pressure, kPa = 101.325
Property: Viscosity, Pa*s (Liquid); method: Capillary tube (Ostwald; Ubbelohde) method
Temperature, K	Viscosity, Pa*s	uncertainty
293.15	.0378	
298.15	.03179	
303.15	.02684	
308.15	.0229	
313.15	.01975	
318.15	.01705	
323.15	.01502	

System: .gamma.-butyrolactone + 1-ethyl-3-methylimidazolium bis(trifluoromethylsulfonyl)imide; phases: Liquid
Fixed: Pressure, kPa = 100
Property: Viscosity, Pa*s (Liquid); method: Capillary tube (Ostwald; Ubbelohde) method
Temperature, K	Mole fraction of 1-ethyl-3-methylimidazolium bis(trifluoromethylsulfonyl)imide	Viscosity, Pa*s	uncertainty
293.15	0	.00186	
293.15	.05	.00257	
293.15	.0995	.00312	
293.15	.1502	.00383	
293.15	.2006	.00463	
293.15	.3	.00664	
293.15	.4	.0092	
293.15	.4899	.01195	
293.15	.6103	.01641	
293.15	.6995	.02033	
293.15	.7927	.02488	
293.15	.8991	.03067	
293.15	.9532	.03426	
293.15	1	.0378	
298.15	0	.00171	
298.15	.05	.00241	
298.15	.0995	.00294	
298.15	.1502	.00361	
298.15	.2006	.00435	
298.15	.3	.00616	
298.15	.4	.00837	
298.15	.4899	.01072	
298.15	.6103	.01447	
298.15	.6995	.01771	
298.15	.7927	.02148	
298.15	.8991	.02632	
298.15	.9532	.02901	
298.15	1	.03179	
303.15	0	.00158	
303.15	.05	.00224	
303.15	.0995	.00271	
303.15	.1502	.0033	
303.15	.2006	.00397	
303.15	.3	.00557	
303.15	.4	.00749	
303.15	.4899	.00949	
303.15	.6103	.01266	
303.15	.6995	.01538	
303.15	.7927	.01853	
303.15	.8991	.02248	
303.15	.9532	.02466	
303.15	1	.02684	
308.15	0	.00147	
308.15	.05	.00207	
308.15	.0995	.00248	
308.15	.1502	.00303	
308.15	.2006	.00366	
308.15	.3	.00509	
308.15	.4	.00672	
308.15	.4899	.00839	
308.15	.6103	.01108	
308.15	.6995	.01334	
308.15	.7927	.01598	
308.15	.8991	.01926	
308.15	.9532	.02115	
308.15	1	.0229	
313.15	0	.00137	
313.15	.05	.00192	
313.15	.0995	.00232	
313.15	.1502	.00281	
313.15	.2006	.00337	
313.15	.3	.00463	
313.15	.4	.00609	
313.15	.4899	.00755	
313.15	.6103	.00984	
313.15	.6995	.01177	
313.15	.7927	.01393	
313.15	.8991	.01667	
313.15	.9532	.01826	
313.15	1	.01975	
318.15	0	.00128	
318.15	.05	.00176	
318.15	.0995	.00212	
318.15	.1502	.00257	
318.15	.2006	.00307	
318.15	.3	.00415	
318.15	.4	.00546	
318.15	.4899	.00665	
318.15	.6103	.0086	
318.15	.6995	.0102	
318.15	.7927	.01207	
318.15	.8991	.01442	
318.15	.9532	.01579	
318.15	1	.01705	
323.15	0	.0012	
323.15	.05	.00166	
323.15	.0995	.00202	
323.15	.1502	.00242	
323.15	.2006	.00289	
323.15	.3	.00389	
323.15	.4	.00497	
323.15	.4899	.00615	
323.15	.6103	.00781	
323.15	.6995	.00919	
323.15	.7927	.01076	
323.15	.8991	.01278	
323.15	.9532	.01393	
323.15	1	.01502	

System: .gamma.-butyrolactone + 1-ethyl-3-methylimidazolium bis(trifluoromethylsulfonyl)imide; phases: Liquid
Fixed: Pressure, kPa = 100
Property: Mass density, kg/m3 (Liquid); method: Vibrating tube method
Temperature, K	Mole fraction of 1-ethyl-3-methylimidazolium bis(trifluoromethylsulfonyl)imide	Mass density, kg/m3	uncertainty
293.15	.05	1189.18	
293.15	.0996	1236.95	
293.15	.1502	1277.22	
293.15	.2006	1310.83	
293.15	.3001	1363.28	
293.15	.4021	1403.82	
293.15	.4992	1434.01	
293.15	.6103	1461.49	
293.15	.6912	1478	
293.15	.7817	1493.78	
293.15	.8991	1510.97	
298.15	.05	1184.22	
298.15	.0996	1231.94	
298.15	.1502	1272.16	
298.15	.2006	1305.75	
298.15	.3001	1358.16	
298.15	.4021	1398.7	
298.15	.4992	1428.88	
298.15	.6103	1456.36	
298.15	.6912	1472.86	
298.15	.7817	1488.64	
298.15	.8991	1505.84	
303.15	.05	1179.23	
303.15	.0996	1226.88	
303.15	.1502	1267.09	
303.15	.2006	1300.66	
303.15	.3001	1353.03	
303.15	.4021	1393.55	
303.15	.4992	1423.73	
303.15	.6103	1451.19	
303.15	.6912	1467.67	
303.15	.7817	1483.46	
303.15	.8991	1500.66	
308.15	.05	1174.26	
308.15	.0996	1221.85	
308.15	.1502	1262.03	
308.15	.2006	1295.56	
308.15	.3001	1347.9	
308.15	.4021	1388.4	
308.15	.4992	1418.56	
308.15	.6103	1446.01	
308.15	.6912	1462.49	
308.15	.7817	1478.28	
308.15	.8991	1495.47	
313.15	.05	1169.29	
313.15	.0996	1216.89	
313.15	.1502	1257.03	
313.15	.2006	1290.56	
313.15	.3001	1342.87	
313.15	.4021	1383.33	
313.15	.4992	1413.46	
313.15	.6103	1440.89	
313.15	.6912	1457.37	
313.15	.7817	1473.14	
313.15	.8991	1490.3	
318.15	.05	1164.33	
318.15	.0996	1211.89	
318.15	.1502	1252	
318.15	.2006	1285.51	
318.15	.3001	1337.8	
318.15	.4021	1378.25	
318.15	.4992	1408.36	
318.15	.6103	1435.77	
318.15	.6912	1452.23	
318.15	.7817	1467.99	
318.15	.8991	1485.13	
323.15	.05	1159.37	
323.15	.0996	1206.9	
323.15	.1502	1247.02	
323.15	.2006	1280.5	
323.15	.3001	1332.77	
323.15	.4021	1373.17	
323.15	.4992	1403.26	
323.15	.6103	1430.64	
323.15	.6912	1447.09	
323.15	.7817	1462.82	
323.15	.8991	1479.92	
293.15	1	1523.441	
298.15	1	1518.302	
303.15	1	1513.112	
308.15	1	1507.904	
313.15	1	1502.684	
318.15	1	1497.483	
323.15	1	1492.242	
293.15	0	1129.493	
298.15	0	1124.588	
303.15	0	1119.684	
308.15	0	1114.782	
313.15	0	1109.874	
318.15	0	1104.965	
323.15	0	1100.053	

System: .gamma.-butyrolactone + 1-hexyl-3-methylimidazolium bis(trifluoromethylsulfonyl)imide; phases: Liquid
Fixed: Pressure, kPa = 100
Property: Viscosity, Pa*s (Liquid); method: Capillary tube (Ostwald; Ubbelohde) method
Temperature, K	Mole fraction of 1-hexyl-3-methylimidazolium bis(trifluoromethylsulfonyl)imide	Viscosity, Pa*s	uncertainty
293.15	0	.00186	
293.15	.0507	.00263	
293.15	.0999	.00368	
293.15	.1544	.00532	
293.15	.1999	.00649	
293.15	.3004	.01057	
293.15	.5044	.02396	
293.15	.7027	.04432	
293.15	.8924	.07024	
293.15	1	.08729	
298.15	0	.00171	
298.15	.0507	.00243	
298.15	.0999	.00332	
298.15	.1544	.00467	
298.15	.1999	.00573	
298.15	.3004	.00916	
298.15	.5044	.01996	
298.15	.7027	.0358	
298.15	.8924	.0554	
298.15	1	.07052	
303.15	0	.00158	
303.15	.0507	.00218	
303.15	.0999	.003	
303.15	.1544	.00408	
303.15	.1999	.00507	
303.15	.3004	.00791	
303.15	.5044	.01688	
303.15	.7027	.02915	
303.15	.8924	.04429	
303.15	1	.05592	
308.15	0	.00147	
308.15	.0507	.00197	
308.15	.0999	.00274	
308.15	.1544	.00369	
308.15	.1999	.00455	
308.15	.3004	.007	
308.15	.5044	.01447	
308.15	.7027	.02557	
308.15	.8924	.03671	
308.15	1	.04746	
313.15	0	.00137	
313.15	.0507	.00184	
313.15	.0999	.00252	
313.15	.1544	.00334	
313.15	.1999	.00411	
313.15	.3004	.00623	
313.15	.5044	.01229	
313.15	.7027	.02049	
313.15	.8924	.0302	
313.15	1	.03722	
318.15	0	.00128	
318.15	.0507	.0017	
318.15	.0999	.00231	
318.15	.1544	.00303	
318.15	.1999	.0037	
318.15	.3004	.00572	
318.15	.5044	.01074	
318.15	.7027	.0175	
318.15	.8924	.02541	
318.15	1	.03135	
323.15	0	.0012	
323.15	.0507	.00158	
323.15	.0999	.00214	
323.15	.1544	.00269	
323.15	.1999	.00338	
323.15	.3004	.00521	
323.15	.5044	.00936	
323.15	.7027	.015	
323.15	.8924	.02139	
323.15	1	.02595	

System: .gamma.-butyrolactone + 1-hexyl-3-methylimidazolium bis(trifluoromethylsulfonyl)imide; phases: Liquid
Fixed: Pressure, kPa = 100
Property: Mass density, kg/m3 (Liquid); method: Vibrating tube method
Temperature, K	Mole fraction of 1-hexyl-3-methylimidazolium bis(trifluoromethylsulfonyl)imide	Mass density, kg/m3	uncertainty
293.15	.0507	1176	
293.15	.0999	1209.89	
293.15	.1544	1238.99	
293.15	.1999	1258.54	
293.15	.3004	1291.11	
293.15	.404	1314.91	
293.15	.5044	1332.2	
293.15	.596	1344.4	
293.15	.7027	1355.85	
293.15	.8182	1365.51	
293.15	.8924	1370.62	
298.15	.0507	1171.09	
298.15	.0999	1204.99	
298.15	.1544	1234.06	
298.15	.1999	1253.61	
298.15	.3004	1286.27	
298.15	.404	1310.08	
298.15	.5044	1327.28	
298.15	.596	1339.47	
298.15	.7027	1350.79	
298.15	.8182	1360.52	
298.15	.8924	1365.62	
303.15	.0507	1166.32	
303.15	.0999	1200.4	
303.15	.1544	1229.53	
303.15	.1999	1249.21	
303.15	.3004	1281.91	
303.15	.404	1305.79	
303.15	.5044	1323.05	
303.15	.596	1335.25	
303.15	.7027	1346.64	
303.15	.8182	1356.39	
303.15	.8924	1361.5	
308.15	.0507	1161.53	
308.15	.0999	1195.65	
308.15	.1544	1224.8	
308.15	.1999	1244.56	
308.15	.3004	1277.26	
308.15	.404	1301.16	
308.15	.5044	1318.46	
308.15	.596	1330.67	
308.15	.7027	1342.09	
308.15	.8182	1351.83	
308.15	.8924	1356.94	
313.15	.0507	1156.54	
313.15	.0999	1190.58	
313.15	.1544	1219.69	
313.15	.1999	1239.41	
313.15	.3004	1272	
313.15	.404	1295.78	
313.15	.5044	1313.05	
313.15	.596	1325.23	
313.15	.7027	1336.62	
313.15	.8182	1346.3	
313.15	.8924	1351.37	
318.15	.0507	1151.65	
318.15	.0999	1185.71	
318.15	.1544	1214.89	
318.15	.1999	1234.59	
318.15	.3004	1267.16	
318.15	.404	1290.94	
318.15	.5044	1308.19	
318.15	.596	1320.36	
318.15	.7027	1331.75	
318.15	.8182	1341.42	
318.15	.8924	1346.5	
323.15	.0507	1147.03	
323.15	.0999	1181.36	
323.15	.1544	1210.78	
323.15	.1999	1230.51	
323.15	.3004	1263.32	
323.15	.404	1287.31	
323.15	.5044	1304.67	
323.15	.596	1316.95	
323.15	.7027	1328.43	
323.15	.8182	1338.19	
323.15	.8924	1343.3	
293.15	1	1376.843	
298.15	1	1371.811	
303.15	1	1367.68	
308.15	1	1363.114	
313.15	1	1357.514	
318.15	1	1352.623	
323.15	1	1349.463	
293.15	0	1129.493	
298.15	0	1124.588	
303.15	0	1119.684	
308.15	0	1114.782	
313.15	0	1109.874	
318.15	0	1104.965	
323.15	0	1100.053	

System: .gamma.-butyrolactone + 1-octyl-3-methylimidazolium bis(trifluoromethylsulfonyl)imide; phases: Liquid
Fixed: Pressure, kPa = 100
Property: Viscosity, Pa*s (Liquid); method: Capillary tube (Ostwald; Ubbelohde) method
Temperature, K	Mole fraction of 1-octyl-3-methylimidazolium bis(trifluoromethylsulfonyl)imide	Viscosity, Pa*s	uncertainty
293.15	0	.00186	
293.15	.0486	.00277	
293.15	.1001	.004	
293.15	.1497	.00549	
293.15	.2006	.00748	
293.15	.3037	.01283	
293.15	.4952	.02929	
293.15	.7007	.05457	
293.15	.9003	.08786	
293.15	1	.11486	
298.15	0	.00171	
298.15	.0486	.00253	
298.15	.1001	.00364	
298.15	.1497	.0049	
298.15	.2006	.00656	
298.15	.3037	.01089	
298.15	.4952	.02362	
298.15	.7007	.04286	
298.15	.9003	.068	
298.15	1	.08859	
303.15	0	.00158	
303.15	.0486	.00231	
303.15	.1001	.00326	
303.15	.1497	.00441	
303.15	.2006	.0058	
303.15	.3037	.00944	
303.15	.4952	.0193	
303.15	.7007	.0347	
303.15	.9003	.05386	
303.15	1	.06908	
308.15	0	.00147	
308.15	.0486	.00212	
308.15	.1001	.00296	
308.15	.1497	.00397	
308.15	.2006	.00515	
308.15	.3037	.00826	
308.15	.4952	.01657	
308.15	.7007	.02887	
308.15	.9003	.04353	
308.15	1	.05643	
313.15	0	.00137	
313.15	.0486	.00196	
313.15	.1001	.00272	
313.15	.1497	.00361	
313.15	.2006	.00462	
313.15	.3037	.00727	
313.15	.4952	.01395	
313.15	.7007	.02379	
313.15	.9003	.03568	
313.15	1	.04503	
318.15	0	.00128	
318.15	.0486	.00182	
318.15	.1001	.00249	
318.15	.1497	.00323	
318.15	.2006	.00417	
318.15	.3037	.00647	
318.15	.4952	.012	
318.15	.7007	.01985	
318.15	.9003	.02979	
318.15	1	.03725	
323.15	0	.0012	
323.15	.0486	.00169	
323.15	.1001	.00229	
323.15	.1497	.00295	
323.15	.2006	.00378	
323.15	.3037	.0058	
323.15	.4952	.0105	
323.15	.7007	.01669	
323.15	.9003	.02543	
323.15	1	.03083	

System: .gamma.-butyrolactone + 1-octyl-3-methylimidazolium bis(trifluoromethylsulfonyl)imide; phases: Liquid
Fixed: Pressure, kPa = 100
Property: Mass density, kg/m3 (Liquid); method: Vibrating tube method
Temperature, K	Mole fraction of 1-octyl-3-methylimidazolium bis(trifluoromethylsulfonyl)imide	Mass density, kg/m3	uncertainty
293.15	.0486	1168.04	
293.15	.1001	1197.81	
293.15	.1497	1219.5	
293.15	.2006	1237.06	
293.15	.3037	1262.89	
293.15	.394	1278.72	
293.15	.4952	1292.01	
293.15	.586	1300.99	
293.15	.7007	1309.94	
293.15	.8081	1316.42	
293.15	.9003	1321	
298.15	.0486	1163.25	
298.15	.1001	1193.1	
298.15	.1497	1214.96	
298.15	.2006	1232.47	
298.15	.3037	1258.37	
298.15	.394	1274.26	
298.15	.4952	1287.58	
298.15	.586	1296.61	
298.15	.7007	1305.54	
298.15	.8081	1312.07	
298.15	.9003	1316.57	
303.15	.0486	1158.47	
303.15	.1001	1188.35	
303.15	.1497	1210.25	
303.15	.2006	1227.82	
303.15	.3037	1253.81	
303.15	.394	1269.73	
303.15	.4952	1283.09	
303.15	.586	1292.14	
303.15	.7007	1301.1	
303.15	.8081	1307.63	
303.15	.9003	1312.16	
308.15	.0486	1153.69	
308.15	.1001	1183.64	
308.15	.1497	1205.57	
308.15	.2006	1223.18	
308.15	.3037	1249.22	
308.15	.394	1265.2	
308.15	.4952	1278.6	
308.15	.586	1287.67	
308.15	.7007	1296.66	
308.15	.8081	1303.22	
308.15	.9003	1307.76	
313.15	.0486	1148.89	
313.15	.1001	1178.93	
313.15	.1497	1200.87	
313.15	.2006	1218.54	
313.15	.3037	1244.66	
313.15	.394	1260.67	
313.15	.4952	1274.11	
313.15	.586	1283.2	
313.15	.7007	1292.22	
313.15	.8081	1298.8	
313.15	.9003	1303.36	
318.15	.0486	1144.1	
318.15	.1001	1174.21	
318.15	.1497	1196.2	
318.15	.2006	1213.93	
318.15	.3037	1240.09	
318.15	.394	1256.15	
318.15	.4952	1269.61	
318.15	.586	1278.74	
318.15	.7007	1287.82	
318.15	.8081	1294.4	
318.15	.9003	1298.97	
323.15	.0486	1139.34	
323.15	.1001	1169.52	
323.15	.1497	1191.56	
323.15	.2006	1209.34	
323.15	.3037	1235.56	
323.15	.394	1251.63	
323.15	.4952	1265.15	
323.15	.586	1274.3	
323.15	.7007	1283.4	
323.15	.8081	1290.01	
323.15	.9003	1294.6	
293.15	1	1324.816	
298.15	1	1320.473	
303.15	1	1316.051	
308.15	1	1311.642	
313.15	1	1307.243	
318.15	1	1302.852	
323.15	1	1298.472	
293.15	0	1129.493	
298.15	0	1124.588	
303.15	0	1119.684	
308.15	0	1114.782	
313.15	0	1109.874	
318.15	0	1104.965	
323.15	0	1100.053	
