Measured thermophysical data. Properties of pure 1-methylimidazolium acetate ionic liquid and its binary mixtures with alcohols
Source: J. Chem. Thermodyn., 2012, 10.1016/j.jct.2012.01.013
Compound 1: methanol, CH4O, purity 99.5%
Compound 2: ethanol, C2H6O, purity 99.5%
Compound 3: propyl alcohol, C3H8O, purity 99.5%
Compound 4: n-butyl alcohol, C4H10O, purity 99.5%
Compound 5: 1-methylimidazolium acetate, C8H10N2O2, purity 99%
Compound 6: water, H2O, purity 99.9%

System: methanol; phases: Liquid
Fixed: Pressure, kPa = 101.325
Property: Mass density, kg/m3 (Liquid); method: Vibrating tube method
Temperature, K	Mass density, kg/m3	uncertainty
293.15	791.22	.05
298.15	786.52	.05
303.15	781.81	.05
308.15	777.06	.05
313.15	772.27	.05

System: methanol; phases: Liquid
Fixed: Pressure, kPa = 101.325
Property: Viscosity, Pa*s (Liquid); method: Falling or rolling sphere viscometry
Temperature, K	Viscosity, Pa*s	uncertainty
293.15	.000588	.00003
298.15	.000551	.00003
303.15	.000517	.00003
308.15	.000486	.00003
313.15	.00046	.00003

System: ethanol; phases: Liquid
Fixed: Pressure, kPa = 101.325
Property: Mass density, kg/m3 (Liquid); method: Vibrating tube method
Temperature, K	Mass density, kg/m3	uncertainty
293.15	789.48	.05
298.15	785.41	.05
303.15	780.65	.05
308.15	776.31	.05
313.15	772.08	.05

System: ethanol; phases: Liquid
Fixed: Pressure, kPa = 101.325
Property: Viscosity, Pa*s (Liquid); method: Falling or rolling sphere viscometry
Temperature, K	Viscosity, Pa*s	uncertainty

System: propyl alcohol; phases: Liquid
Fixed: Pressure, kPa = 101.325
Property: Mass density, kg/m3 (Liquid); method: Vibrating tube method
Temperature, K	Mass density, kg/m3	uncertainty
293.15	803.58	.05
298.15	799.61	.05
303.15	795.6	.05
308.15	791.51	.05
313.15	787.39	.05

System: propyl alcohol; phases: Liquid
Fixed: Pressure, kPa = 101.325
Property: Viscosity, Pa*s (Liquid); method: Falling or rolling sphere viscometry
Temperature, K	Viscosity, Pa*s	uncertainty
293.15	.002206	.00003
298.15	.001976	.00003
303.15	.001737	.00003
308.15	.001548	.00003
313.15	.001383	.00003

System: n-butyl alcohol; phases: Liquid
Fixed: Pressure, kPa = 101.325
Property: Mass density, kg/m3 (Liquid); method: Vibrating tube method
Temperature, K	Mass density, kg/m3	uncertainty
293.15	809.77	.05
298.15	805.98	.05
303.15	802.08	.05
308.15	798.19	.05
313.15	794.36	.05

System: n-butyl alcohol; phases: Liquid
Fixed: Pressure, kPa = 101.325
Property: Viscosity, Pa*s (Liquid); method: Falling or rolling sphere viscometry
Temperature, K	Viscosity, Pa*s	uncertainty
293.15	.002941	.00003
298.15	.002573	.00003
303.15	.002264	.00003
308.15	.002002	.00003
313.15	.001788	.00003

System: 1-methylimidazolium acetate; phases: Liquid
Fixed: Pressure, kPa = 101.325
Property: Viscosity, Pa*s (Liquid); method: Falling or rolling sphere viscometry
Temperature, K	Viscosity, Pa*s	uncertainty
293.15	.008196	.00003
298.15	.006926	.00003
303.15	.005913	.00003
308.15	.005069	.00003
313.15	.004395	.00003

System: 1-methylimidazolium acetate; phases: Liquid
Fixed: Pressure, kPa = 101.325
Property: Mass density, kg/m3 (Liquid); method: Vibrating tube method
Temperature, K	Mass density, kg/m3	uncertainty
293.15	1079.75	.05
298.15	1075.33	.05
303.15	1070.89	.05
308.15	1066.45	.05
313.15	1062	.05

System: water; phases: Liquid
Fixed: Pressure, kPa = 101.325
Property: Mass density, kg/m3 (Liquid); method: Vibrating tube method
Temperature, K	Mass density, kg/m3	uncertainty
293.15	998.22	.05
298.15	997.06	.05
303.15	995.66	.05
308.15	994.04	.05
313.15	992.22	.05

System: water; phases: Liquid
Fixed: Pressure, kPa = 101.325
Property: Viscosity, Pa*s (Liquid); method: Falling or rolling sphere viscometry
Temperature, K	Viscosity, Pa*s	uncertainty
293.15	.001002	.00003
298.15	.000891	.00003
303.15	.000798	.00003
308.15	.000718	.00003
313.15	.000652	.00003

System: water + 1-methylimidazolium acetate; phases: Liquid
Fixed: Pressure, kPa = 101
Property: Mass density, kg/m3 (Liquid); method: Vibrating tube method
Temperature, K	Mole fraction of 1-methylimidazolium acetate	Mass density, kg/m3	uncertainty
293.15	.0496	1050.26	.05
293.15	.0999	1080.12	.05
293.15	.2007	1099.43	.05
293.15	.2985	1099.75	.05
293.15	.3986	1096.26	.05
293.15	.496	1092.17	.05
293.15	.6467	1087.46	.05
293.15	.7954	1083.49	.05
293.15	.8987	1081.48	.05
298.15	.0496	1047.88	.05
298.15	.0999	1076.77	.05
298.15	.2007	1095.11	.05
298.15	.2985	1095.2	.05
298.15	.3986	1091.68	.05
298.15	.496	1087.6	.05
298.15	.6467	1082.93	.05
298.15	.7954	1079.01	.05
298.15	.8987	1077.03	.05
303.15	.0496	1045.35	.05
303.15	.0999	1073.32	.05
303.15	.2007	1090.72	.05
303.15	.2985	1090.61	.05
303.15	.3986	1087.07	.05
303.15	.496	1083	.05
303.15	.6467	1078.39	.05
303.15	.7954	1074.5	.05
303.15	.8987	1072.55	.05
308.15	.0496	1042.68	.05
308.15	.0999	1069.76	.05
308.15	.2007	1086.27	.05
308.15	.2985	1085.97	.05
308.15	.3986	1082.42	.05
308.15	.496	1078.38	.05
308.15	.6467	1073.83	.05
308.15	.7954	1069.99	.05
308.15	.8987	1068.08	.05
313.15	.0496	1039.87	.05
313.15	.0999	1066.09	.05
313.15	.2007	1081.75	.05
313.15	.2985	1081.29	.05
313.15	.3986	1077.74	.05
313.15	.496	1073.73	.05
313.15	.6467	1069.26	.05
313.15	.7954	1065.48	.05
313.15	.8987	1063.6	.05

System: water + 1-methylimidazolium acetate; phases: Liquid
Fixed: Pressure, kPa = 101
Property: Viscosity, Pa*s (Liquid); method: Falling or rolling sphere viscometry
Temperature, K	Mole fraction of 1-methylimidazolium acetate	Viscosity, Pa*s	uncertainty
293.15	.0496	.002361	.00003
293.15	.0999	.004352	.00003
293.15	.2007	.008567	.00003
293.15	.2985	.011171	.00003
293.15	.3986	.011615	.00003
293.15	.496	.011274	.00003
293.15	.6467	.010439	.00003
293.15	.7954	.009391	.00003
293.15	.8987	.008655	.00003
298.15	.0496	.00205	.00003
298.15	.0999	.003682	.00003
298.15	.2007	.007087	.00003
298.15	.2985	.009095	.00003
298.15	.3986	.009434	.00003
298.15	.496	.009212	.00003
298.15	.6467	.008538	.00003
298.15	.7954	.007858	.00003
298.15	.8987	.007299	.00003
303.15	.0496	.001797	.00003
303.15	.0999	.003154	.00003
303.15	.2007	.005755	.00003
303.15	.2985	.007498	.00003
303.15	.3986	.007776	.00003
303.15	.496	.007655	.00003
303.15	.6467	.007137	.00003
303.15	.7954	.006641	.00003
303.15	.8987	.006193	.00003
308.15	.0496	.00159	.00003
308.15	.0999	.00273	.00003
308.15	.2007	.004731	.00003
308.15	.2985	.006239	.00003
308.15	.3986	.006521	.00003
308.15	.496	.006419	.00003
308.15	.6467	.006085	.00003
308.15	.7954	.005663	.00003
308.15	.8987	.005304	.00003
313.15	.0496	.001419	.00003
313.15	.0999	.002363	.00003
313.15	.2007	.004082	.00003
313.15	.2985	.005265	.00003
313.15	.3986	.005535	.00003
313.15	.496	.005459	.00003
313.15	.6467	.005234	.00003
313.15	.7954	.004895	.00003
313.15	.8987	.004584	.00003

System: water + 1-methylimidazolium acetate; phases: Liquid
Fixed: Pressure, kPa = 101
Property: Excess molar volume, m3/mol (Liquid); method: Calculated with densities of this investigation
Temperature, K	Mole fraction of 1-methylimidazolium acetate	Excess molar volume, m3/mol	uncertainty
293.15	.0496	-.0000006658	-.000000003329
293.15	.0999	-.0000012354	-.000000006177
293.15	.2007	-.0000018	-.000000009
293.15	.2985	-.0000018824	-.000000009412
293.15	.3986	-.0000017602	-.000000008801
293.15	.496	-.0000015243	-.0000000076215
293.15	.6467	-.0000011262	-.000000005631
293.15	.7954	-.0000006519	-.0000000032595
293.15	.8987	-.0000003299	-.0000000016495
298.15	.0496	-.0000006601	-.0000000033005
298.15	.0999	-.0000012207	-.0000000061035
298.15	.2007	-.0000017712	-.000000008856
298.15	.2985	-.0000018508	-.000000009254
298.15	.3986	-.0000017303	-.0000000086515
298.15	.496	-.0000014971	-.0000000074855
298.15	.6467	-.0000011058	-.000000005529
298.15	.7954	-.0000006387	-.0000000031935
298.15	.8987	-.0000003226	-.000000001613
303.15	.0496	-.0000006558	-.000000003279
303.15	.0999	-.0000012073	-.0000000060365
303.15	.2007	-.0000017436	-.000000008718
303.15	.2985	-.0000018203	-.0000000091015
303.15	.3986	-.0000017013	-.0000000085065
303.15	.496	-.0000014707	-.0000000073535
303.15	.6467	-.0000010868	-.000000005434
303.15	.7954	-.0000006262	-.000000003131
303.15	.8987	-.0000003161	-.0000000015805
308.15	.0496	-.000000652	-.00000000326
308.15	.0999	-.0000011948	-.000000005974
308.15	.2007	-.0000017168	-.000000008584
308.15	.2985	-.0000017903	-.0000000089515
308.15	.3986	-.000001673	-.000000008365
308.15	.496	-.0000014451	-.0000000072255
308.15	.6467	-.000001068	-.00000000534
308.15	.7954	-.0000006142	-.000000003071
308.15	.8987	-.0000003097	-.0000000015485
313.15	.0496	-.0000006487	-.0000000032435
313.15	.0999	-.0000011826	-.000000005913
313.15	.2007	-.0000016904	-.000000008452
313.15	.2985	-.0000017609	-.0000000088045
313.15	.3986	-.000001645	-.000000008225
313.15	.496	-.0000014196	-.000000007098
313.15	.6467	-.0000010496	-.000000005248
313.15	.7954	-.0000006027	-.0000000030135
313.15	.8987	-.0000003039	-.0000000015195

System: methanol + 1-methylimidazolium acetate; phases: Liquid
Fixed: Pressure, kPa = 101
Property: Mass density, kg/m3 (Liquid); method: Vibrating tube method
Temperature, K	Mole fraction of 1-methylimidazolium acetate	Mass density, kg/m3	uncertainty
293.15	.05	841.99	.05
293.15	.1008	880.4	.05
293.15	.1994	936.43	.05
293.15	.2997	974.67	.05
293.15	.4	1002.67	.05
293.15	.4979	1023.14	.05
293.15	.651	1046.77	.05
293.15	.8011	1063.57	.05
293.15	.9012	1072.29	.05
298.15	.05	837.15	.05
298.15	.1008	875.53	.05
298.15	.1994	931.59	.05
298.15	.2997	969.87	.05
298.15	.4	997.94	.05
298.15	.4979	1018.47	.05
298.15	.651	1042.19	.05
298.15	.8011	1059.06	.05
298.15	.9012	1067.83	.05
303.15	.05	832.29	.05
303.15	.1008	870.63	.05
303.15	.1994	926.72	.05
303.15	.2997	965.05	.05
303.15	.4	993.18	.05
303.15	.4979	1013.77	.05
303.15	.651	1037.58	.05
303.15	.8011	1054.54	.05
308.15	.05	827.39	.05
308.15	.1008	865.7	.05
308.15	.1994	921.83	.05
308.15	.2997	960.22	.05
308.15	.4	988.42	.05
308.15	.4979	1009.07	.05
308.15	.651	1032.97	.05
308.15	.8011	1050	.05
308.15	.9012	1058.86	.05
313.15	.05	822.47	.05
313.15	.1008	860.74	.05
313.15	.1994	916.92	.05
313.15	.2997	955.37	.05
313.15	.4	983.63	.05
313.15	.4979	1004.35	.05
313.15	.651	1028.34	.05
313.15	.8011	1045.45	.05
313.15	.9012	1054.36	.05

System: methanol + 1-methylimidazolium acetate; phases: Liquid
Fixed: Pressure, kPa = 101
Property: Viscosity, Pa*s (Liquid); method: Falling or rolling sphere viscometry
Temperature, K	Mole fraction of 1-methylimidazolium acetate	Viscosity, Pa*s	uncertainty
293.15	.05	.000818	.00003
293.15	.1008	.001049	.00003
293.15	.1994	.001568	.00003
293.15	.2997	.002134	.00003
293.15	.4	.002806	.00003
293.15	.4979	.003486	.00003
293.15	.651	.004706	.00003
293.15	.8011	.006119	.00003
293.15	.9012	.007161	.00003
298.15	.05	.000758	.00003
298.15	.1008	.000964	.00003
298.15	.1994	.001424	.00003
298.15	.2997	.001936	.00003
298.15	.4	.002428	.00003
298.15	.4979	.002986	.00003
298.15	.651	.004006	.00003
298.15	.8011	.005207	.00003
298.15	.9012	.006065	.00003
303.15	.05	.000704	.00003
303.15	.1008	.000889	.00003
303.15	.1994	.001317	.00003
303.15	.2997	.001747	.00003
303.15	.4	.002193	.00003
303.15	.4979	.002672	.00003
303.15	.651	.003541	.00003
303.15	.8011	.004509	.00003
303.15	.9012	.0052	.00003
308.15	.05	.000657	.00003
308.15	.1008	.000822	.00003
308.15	.1994	.001189	.00003
308.15	.2997	.001585	.00003
308.15	.4	.001991	.00003
308.15	.4979	.002399	.00003
308.15	.651	.003133	.00003
308.15	.8011	.003927	.00003
308.15	.9012	.004485	.00003
313.15	.05	.000615	.00003
313.15	.1008	.000763	.00003
313.15	.1994	.001093	.00003
313.15	.2997	.001445	.00003
313.15	.4	.001822	.00003
313.15	.4979	.002195	.00003
313.15	.651	.00281	.00003
313.15	.8011	.003454	.00003
313.15	.9012	.003912	.00003

System: methanol + 1-methylimidazolium acetate; phases: Liquid
Fixed: Pressure, kPa = 101
Property: Excess molar volume, m3/mol (Liquid); method: Calculated with densities of this investigation
Temperature, K	Mole fraction of 1-methylimidazolium acetate	Excess molar volume, m3/mol	uncertainty
293.15	.05	-.0000004571	-.0000000022855
293.15	.1008	-.0000006796	-.000000003398
293.15	.1994	-.0000010036	-.000000005018
293.15	.2997	-.0000010776	-.000000005388
293.15	.4	-.0000010692	-.000000005346
293.15	.4979	-.0000009755	-.0000000048775
293.15	.651	-.0000007453	-.0000000037265
293.15	.8011	-.0000004548	-.000000002274
293.15	.9012	-.0000002224	-.000000001112
298.15	.05	-.0000004554	-.000000002277
298.15	.1008	-.000000678	-.00000000339
298.15	.1994	-.0000010046	-.000000005023
298.15	.2997	-.0000010782	-.000000005391
298.15	.4	-.0000010702	-.000000005351
298.15	.4979	-.0000009761	-.0000000048805
298.15	.651	-.000000746	-.00000000373
298.15	.8011	-.0000004552	-.000000002276
298.15	.9012	-.0000002218	-.000000001109
303.15	.05	-.0000004549	-.0000000022745
303.15	.1008	-.0000006777	-.0000000033885
303.15	.1994	-.0000010068	-.000000005034
303.15	.2997	-.0000010806	-.000000005403
303.15	.4	-.0000010726	-.000000005363
303.15	.4979	-.0000009778	-.000000004889
303.15	.651	-.0000007468	-.000000003734
303.15	.8011	-.0000004556	-.000000002278
303.15	.9012	-.0000002217	-.0000000011085
308.15	.05	-.0000004542	-.000000002271
308.15	.1008	-.0000006771	-.0000000033855
308.15	.1994	-.0000010091	-.0000000050455
308.15	.2997	-.000001083	-.000000005415
308.15	.4	-.0000010749	-.0000000053745
308.15	.4979	-.0000009796	-.000000004898
308.15	.651	-.0000007479	-.0000000037395
308.15	.8011	-.0000004558	-.000000002279
308.15	.9012	-.0000002213	-.0000000011065
313.15	.05	-.0000004536	-.000000002268
313.15	.1008	-.0000006767	-.0000000033835
313.15	.1994	-.0000010114	-.000000005057
313.15	.2997	-.0000010855	-.0000000054275
313.15	.4	-.0000010775	-.0000000053875
313.15	.4979	-.0000009817	-.0000000049085
313.15	.651	-.0000007489	-.0000000037445
313.15	.8011	-.0000004562	-.000000002281
313.15	.9012	-.0000002211	-.0000000011055

System: ethanol + 1-methylimidazolium acetate; phases: Liquid
Fixed: Pressure, kPa = 101
Property: Mass density, kg/m3 (Liquid); method: Vibrating tube method
Temperature, K	Mole fraction of 1-methylimidazolium acetate	Mass density, kg/m3	uncertainty
293.15	.0495	823.45	.05
293.15	.0964	851.37	.05
293.15	.2004	902.14	.05
293.15	.2986	940.21	.05
293.15	.401	972.28	.05
293.15	.4973	997.47	.05
293.15	.6499	1029.38	.05
293.15	.8003	1053.98	.05
293.15	.8941	1066.93	.05
298.15	.0495	819.02	.05
298.15	.0964	846.85	.05
298.15	.2004	897.55	.05
298.15	.2986	935.59	.05
298.15	.401	967.67	.05
298.15	.4973	992.88	.05
298.15	.6499	1024.83	.05
298.15	.8003	1049.49	.05
298.15	.8941	1062.47	.05
303.15	.0495	814.55	.05
303.15	.0964	842.29	.05
303.15	.2004	892.91	.05
303.15	.2986	930.94	.05
303.15	.401	963.03	.05
303.15	.4973	988.27	.05
303.15	.6499	1020.26	.05
303.15	.8003	1044.97	.05
303.15	.8941	1057.99	.05
308.15	.0495	810.04	.05
308.15	.0964	837.69	.05
308.15	.2004	888.25	.05
308.15	.2986	926.27	.05
308.15	.401	958.37	.05
308.15	.4973	983.64	.05
308.15	.6499	1015.69	.05
308.15	.8003	1040.45	.05
308.15	.8941	1053.51	.05
313.15	.0495	805.49	.05
313.15	.0964	833.06	.05
313.15	.2004	883.55	.05
313.15	.2986	921.57	.05
313.15	.401	953.69	.05
313.15	.4973	978.99	.05
313.15	.6499	1011.1	.05
313.15	.8003	1035.92	.05
313.15	.8941	1049.01	.05

System: ethanol + 1-methylimidazolium acetate; phases: Liquid
Fixed: Pressure, kPa = 101
Property: Viscosity, Pa*s (Liquid); method: Falling or rolling sphere viscometry
Temperature, K	Mole fraction of 1-methylimidazolium acetate	Viscosity, Pa*s	uncertainty
293.15	.0495	.001366	.00003
293.15	.0964	.001578	.00003
293.15	.2004	.001995	.00003
293.15	.2986	.002485	.00003
293.15	.401	.003048	.00003
293.15	.4973	.003642	.00003
293.15	.6499	.004686	.00003
293.15	.8003	.00585	.00003
293.15	.8941	.006855	.00003
298.15	.0495	.001236	.00003
298.15	.0964	.001421	.00003
298.15	.2004	.001789	.00003
298.15	.2986	.002212	.00003
298.15	.401	.002695	.00003
298.15	.4973	.003199	.00003
298.15	.6499	.004061	.00003
298.15	.8003	.005024	.00003
298.15	.8941	.005847	.00003
303.15	.0495	.001123	.00003
303.15	.0964	.001268	.00003
303.15	.2004	.001612	.00003
303.15	.2986	.001981	.00003
303.15	.401	.002399	.00003
303.15	.4973	.002833	.00003
303.15	.6499	.003576	.00003
303.15	.8003	.004363	.00003
303.15	.8941	.00504	.00003
308.15	.0495	.001024	.00003
308.15	.0964	.001153	.00003
308.15	.2004	.001458	.00003
308.15	.2986	.001784	.00003
308.15	.401	.002148	.00003
308.15	.4973	.002524	.00003
308.15	.6499	.003146	.00003
308.15	.8003	.003826	.00003
308.15	.8941	.004357	.00003
313.15	.0495	.000938	.00003
313.15	.0964	.001052	.00003
313.15	.2004	.001325	.00003
313.15	.2986	.001614	.00003
313.15	.401	.001935	.00003
313.15	.4973	.002264	.00003
313.15	.6499	.002798	.00003
313.15	.8003	.003384	.00003
313.15	.8941	.003829	.00003

System: ethanol + 1-methylimidazolium acetate; phases: Liquid
Fixed: Pressure, kPa = 101
Property: Excess molar volume, m3/mol (Liquid); method: Calculated with densities of this investigation
Temperature, K	Mole fraction of 1-methylimidazolium acetate	Excess molar volume, m3/mol	uncertainty
293.15	.0495	-.00000026	-.0000000013
293.15	.0964	-.0000004282	-.000000002141
293.15	.2004	-.0000006326	-.000000003163
293.15	.2986	-.0000007273	-.0000000036365
293.15	.401	-.0000007363	-.0000000036815
293.15	.4973	-.0000007152	-.000000003576
293.15	.6499	-.0000005744	-.000000002872
293.15	.8003	-.0000003488	-.000000001744
293.15	.8941	-.0000001925	-.0000000009625
298.15	.0495	-.0000002432	-.000000001216
298.15	.0964	-.0000004092	-.000000002046
298.15	.2004	-.0000006149	-.0000000030745
298.15	.2986	-.0000007109	-.0000000035545
298.15	.401	-.0000007214	-.000000003607
298.15	.4973	-.0000007029	-.0000000035145
298.15	.6499	-.0000005648	-.000000002824
298.15	.8003	-.0000003429	-.0000000017145
298.15	.8941	-.0000001892	-.000000000946
303.15	.0495	-.0000002653	-.0000000013265
303.15	.0964	-.0000004273	-.0000000021365
303.15	.2004	-.0000006295	-.0000000031475
303.15	.2986	-.0000007234	-.000000003617
303.15	.401	-.0000007316	-.000000003658
303.15	.4973	-.0000007118	-.000000003559
303.15	.6499	-.0000005708	-.000000002854
303.15	.8003	-.0000003458	-.000000001729
303.15	.8941	-.0000001906	-.000000000953
308.15	.0495	-.0000002592	-.000000001296
308.15	.0964	-.0000004183	-.0000000020915
308.15	.2004	-.00000062	-.0000000031
308.15	.2986	-.000000715	-.000000003575
308.15	.401	-.0000007241	-.0000000036205
308.15	.4973	-.0000007059	-.0000000035295
308.15	.6499	-.0000005664	-.000000002832
308.15	.8003	-.0000003427	-.0000000017135
308.15	.8941	-.0000001888	-.000000000944
313.15	.0495	-.0000002423	-.0000000012115
313.15	.0964	-.0000003991	-.0000000019955
313.15	.2004	-.0000006014	-.000000003007
313.15	.2986	-.0000006989	-.0000000034945
313.15	.401	-.00000071	-.00000000355
313.15	.4973	-.0000006946	-.000000003473
313.15	.6499	-.0000005585	-.0000000027925
313.15	.8003	-.0000003379	-.0000000016895
313.15	.8941	-.000000186	-.00000000093

System: propyl alcohol + 1-methylimidazolium acetate; phases: Liquid
Fixed: Pressure, kPa = 101
Property: Mass density, kg/m3 (Liquid); method: Vibrating tube method
Temperature, K	Mole fraction of 1-methylimidazolium acetate	Mass density, kg/m3	uncertainty
293.15	.0504	827.73	.05
293.15	.0999	850.08	.05
293.15	.2005	891.09	.05
293.15	.3005	926.35	.05
293.15	.4013	957.27	.05
293.15	.5014	984.26	.05
293.15	.6501	1018.37	.05
293.15	.7946	1046.51	.05
293.15	.8952	1063.47	.05
298.15	.0504	823.56	.05
298.15	.0999	845.8	.05
298.15	.2005	886.69	.05
298.15	.3005	921.89	.05
298.15	.4013	952.8	.05
298.15	.5014	979.77	.05
298.15	.6501	1013.89	.05
298.15	.7946	1042.04	.05
298.15	.8952	1059.02	.05
303.15	.0504	819.35	.05
303.15	.0999	841.47	.05
303.15	.2005	882.25	.05
303.15	.3005	917.41	.05
303.15	.4013	948.29	.05
303.15	.5014	975.25	.05
303.15	.6501	1009.37	.05
303.15	.7946	1037.55	.05
303.15	.8952	1054.56	.05
308.15	.0504	815.11	.05
308.15	.0999	837.11	.05
308.15	.2005	877.78	.05
308.15	.3005	912.89	.05
308.15	.4013	943.76	.05
308.15	.5014	970.72	.05
308.15	.6501	1004.85	.05
308.15	.7946	1033.05	.05
308.15	.8952	1050.08	.05
313.15	.0504	810.83	.05
313.15	.0999	832.72	.05
313.15	.2005	873.27	.05
313.15	.3005	908.35	.05
313.15	.4013	939.2	.05
313.15	.5014	966.17	.05
313.15	.6501	1000.32	.05
313.15	.7946	1028.55	.05
313.15	.8952	1045.6	.05

System: propyl alcohol + 1-methylimidazolium acetate; phases: Liquid
Fixed: Pressure, kPa = 101
Property: Viscosity, Pa*s (Liquid); method: Falling or rolling sphere viscometry
Temperature, K	Mole fraction of 1-methylimidazolium acetate	Viscosity, Pa*s	uncertainty
293.15	.0504	.00222	.00003
293.15	.0999	.002359	.00003
293.15	.2005	.002757	.00003
293.15	.3005	.003202	.00003
293.15	.4013	.003698	.00003
293.15	.5014	.004234	.00003
293.15	.6501	.005113	.00003
293.15	.7946	.006141	.00003
293.15	.8952	.007087	.00003
298.15	.0504	.001974	.00003
298.15	.0999	.002088	.00003
298.15	.2005	.002429	.00003
298.15	.3005	.002795	.00003
298.15	.4013	.003231	.00003
298.15	.5014	.003682	.00003
298.15	.6501	.004402	.00003
298.15	.7946	.005212	.00003
298.15	.8952	.006009	.00003
303.15	.0504	.001753	.00003
303.15	.0999	.001855	.00003
303.15	.2005	.002152	.00003
303.15	.3005	.002481	.00003
303.15	.4013	.002851	.00003
303.15	.5014	.003228	.00003
303.15	.6501	.003835	.00003
303.15	.7946	.004517	.00003
303.15	.8952	.005148	.00003
308.15	.0504	.001566	.00003
308.15	.0999	.001656	.00003
308.15	.2005	.001918	.00003
308.15	.3005	.002206	.00003
308.15	.4013	.002517	.00003
308.15	.5014	.002852	.00003
308.15	.6501	.003363	.00003
308.15	.7946	.003947	.00003
308.15	.8952	.004447	.00003
313.15	.0504	.001402	.00003
313.15	.0999	.001485	.00003
313.15	.2005	.001718	.00003
313.15	.3005	.001973	.00003
313.15	.4013	.00225	.00003
313.15	.5014	.002536	.00003
313.15	.6501	.002975	.00003
313.15	.7946	.003482	.00003
313.15	.8952	.003905	.00003

System: propyl alcohol + 1-methylimidazolium acetate; phases: Liquid
Fixed: Pressure, kPa = 101
Property: Excess molar volume, m3/mol (Liquid); method: Calculated with densities of this investigation
Temperature, K	Mole fraction of 1-methylimidazolium acetate	Excess molar volume, m3/mol	uncertainty
293.15	.0504	-.0000000497	-.0000000002485
293.15	.0999	-.000000127	-.000000000635
293.15	.2005	-.0000002758	-.000000001379
293.15	.3005	-.000000373	-.000000001865
293.15	.4013	-.0000004201	-.0000000021005
293.15	.5014	-.0000004336	-.000000002168
293.15	.6501	-.0000003532	-.000000001766
293.15	.7946	-.0000002376	-.000000001188
293.15	.8952	-.0000001093	-.0000000005465
298.15	.0504	-.0000000375	-.0000000001875
298.15	.0999	-.0000001086	-.000000000543
298.15	.2005	-.000000255	-.000000001275
298.15	.3005	-.0000003533	-.0000000017665
298.15	.4013	-.0000004032	-.000000002016
298.15	.5014	-.0000004186	-.000000002093
298.15	.6501	-.0000003416	-.000000001708
298.15	.7946	-.0000002301	-.0000000011505
298.15	.8952	-.0000001049	-.0000000005245
303.15	.0504	-.000000023	-.000000000115
303.15	.0999	-.0000000883	-.0000000004415
303.15	.2005	-.0000002321	-.0000000011605
303.15	.3005	-.0000003322	-.000000001661
303.15	.4013	-.0000003844	-.000000001922
303.15	.5014	-.0000004026	-.000000002013
303.15	.6501	-.0000003297	-.0000000016485
303.15	.7946	-.0000002231	-.0000000011155
303.15	.8952	-.0000001008	-.000000000504
308.15	.0504	-.000000015	-.000000000075
308.15	.0999	-.0000000733	-.0000000003665
308.15	.2005	-.0000002141	-.0000000010705
308.15	.3005	-.0000003152	-.000000001576
308.15	.4013	-.0000003698	-.000000001849
308.15	.5014	-.0000003899	-.0000000019495
308.15	.6501	-.0000003206	-.000000001603
308.15	.7946	-.000000217	-.000000001085
308.15	.8952	-.0000000973	-.0000000004865
313.15	.0504	-.0000000046	-.000000000023
313.15	.0999	-.0000000563	-.0000000002815
313.15	.2005	-.000000194	-.00000000097
313.15	.3005	-.0000002969	-.0000000014845
313.15	.4013	-.0000003539	-.0000000017695
313.15	.5014	-.0000003769	-.0000000018845
313.15	.6501	-.0000003109	-.0000000015545
313.15	.7946	-.0000002112	-.000000001056
313.15	.8952	-.000000094	-.00000000047

System: n-butyl alcohol + 1-methylimidazolium acetate; phases: Liquid
Fixed: Pressure, kPa = 101
Property: Mass density, kg/m3 (Liquid); method: Vibrating tube method
Temperature, K	Mole fraction of 1-methylimidazolium acetate	Mass density, kg/m3	uncertainty
293.15	.0506	828.66	.05
293.15	.1008	847.12	.05
293.15	.1979	880.83	.05
293.15	.2995	913.82	.05
293.15	.4002	943.73	.05
293.15	.4999	970.97	.05
293.15	.6505	1008.21	.05
293.15	.7977	1040.65	.05
293.15	.9013	1061.34	.05
298.15	.0506	824.7	.05
298.15	.1008	843.04	.05
298.15	.1979	876.62	.05
298.15	.2995	909.53	.05
298.15	.4002	939.37	.05
298.15	.4999	966.57	.05
298.15	.6505	1003.78	.05
298.15	.7977	1036.22	.05
298.15	.9013	1056.91	.05
303.15	.0506	820.7	.05
303.15	.1008	838.93	.05
303.15	.1979	872.36	.05
303.15	.2995	905.18	.05
303.15	.4002	934.99	.05
303.15	.4999	962.15	.05
303.15	.6505	999.34	.05
303.15	.7977	1031.77	.05
303.15	.9013	1052.46	.05
308.15	.0506	816.68	.05
308.15	.1008	834.78	.05
308.15	.1979	868.1	.05
308.15	.2995	900.8	.05
308.15	.4002	930.59	.05
308.15	.4999	957.72	.05
308.15	.6505	994.88	.05
308.15	.7977	1027.33	.05
308.15	.9013	1048.01	.05
313.15	.0506	812.62	.05
313.15	.1008	830.61	.05
313.15	.1979	863.78	.05
313.15	.2995	896.49	.05
313.15	.4002	926.17	.05
313.15	.4999	953.27	.05
313.15	.6505	990.41	.05
313.15	.7977	1022.9	.05
313.15	.9013	1043.57	.05

System: n-butyl alcohol + 1-methylimidazolium acetate; phases: Liquid
Fixed: Pressure, kPa = 101
Property: Viscosity, Pa*s (Liquid); method: Falling or rolling sphere viscometry
Temperature, K	Mole fraction of 1-methylimidazolium acetate	Viscosity, Pa*s	uncertainty
293.15	.1008	.002905	.00003
293.15	.1979	.003194	.00003
293.15	.2995	.003551	.00003
293.15	.4002	.003934	.00003
293.15	.4999	.004413	.00003
293.15	.6505	.005321	.00003
293.15	.7977	.00649	.00003
293.15	.9013	.007367	.00003
298.15	.0506	.002579	.00003
298.15	.1008	.002607	.00003
298.15	.1979	.002829	.00003
298.15	.2995	.003124	.00003
298.15	.4002	.003431	.00003
298.15	.4999	.003813	.00003
298.15	.6505	.004556	.00003
298.15	.7977	.005533	.00003
298.15	.9013	.006225	.00003
303.15	.0506	.002208	.00003
303.15	.1008	.002251	.00003
303.15	.1979	.002462	.00003
303.15	.2995	.002731	.00003
303.15	.4002	.003011	.00003
303.15	.4999	.003334	.00003
303.15	.6505	.003936	.00003
303.15	.7977	.004739	.00003
303.15	.9013	.005314	.00003
308.15	.0506	.001956	.00003
308.15	.1008	.001997	.00003
308.15	.1979	.002182	.00003
308.15	.2995	.002419	.00003
308.15	.4002	.002661	.00003
308.15	.4999	.002922	.00003
308.15	.6505	.003447	.00003
308.15	.7977	.004068	.00003
308.15	.9013	.004553	.00003
313.15	.0506	.001741	.00003
313.15	.1008	.001781	.00003
313.15	.1979	.001944	.00003
313.15	.2995	.00215	.00003
313.15	.4002	.002367	.00003
313.15	.4999	.002606	.00003
313.15	.6505	.003056	.00003
313.15	.7977	.003538	.00003
313.15	.9013	.003944	.00003

System: n-butyl alcohol + 1-methylimidazolium acetate; phases: Liquid
Fixed: Pressure, kPa = 101
Property: Excess molar volume, m3/mol (Liquid); method: Calculated with densities of this investigation
Temperature, K	Mole fraction of 1-methylimidazolium acetate	Excess molar volume, m3/mol	uncertainty
293.15	.0506	.0000000366	.000000000183
293.15	.1008	.0000000143	.0000000000715
293.15	.1979	-.0000000408	-.000000000204
293.15	.2995	-.0000001437	-.0000000007185
293.15	.4002	-.0000001994	-.000000000997
293.15	.4999	-.0000002274	-.000000001137
293.15	.6505	-.0000002187	-.0000000010935
293.15	.7977	-.0000001621	-.0000000008105
293.15	.9013	-.0000000828	-.000000000414
298.15	.0506	.0000000465	.0000000002325
298.15	.1008	.000000032	.00000000016
298.15	.1979	-.0000000177	-.0000000000885
298.15	.2995	-.0000001216	-.000000000608
298.15	.4002	-.0000001785	-.0000000008925
298.15	.4999	-.0000002081	-.0000000010405
298.15	.6505	-.0000002045	-.0000000010225
298.15	.7977	-.0000001538	-.000000000769
298.15	.9013	-.0000000786	-.000000000393
303.15	.0506	.0000000596	.000000000298
303.15	.1008	.0000000533	.0000000002665
303.15	.1979	.0000000087	.0000000000435
303.15	.2995	-.0000000947	-.0000000004735
303.15	.4002	-.0000001555	-.0000000007775
303.15	.4999	-.0000001879	-.0000000009395
303.15	.6505	-.00000019	-.00000000095
303.15	.7977	-.0000001458	-.000000000729
303.15	.9013	-.0000000742	-.000000000371
308.15	.0506	.0000000663	.0000000003315
308.15	.1008	.0000000683	.0000000003415
308.15	.1979	.0000000286	.000000000143
308.15	.2995	-.0000000705	-.0000000003525
308.15	.4002	-.0000001364	-.000000000682
308.15	.4999	-.0000001713	-.0000000008565
308.15	.6505	-.0000001779	-.0000000008895
308.15	.7977	-.0000001398	-.000000000699
308.15	.9013	-.0000000701	-.0000000003505
313.15	.0506	.0000000915	.0000000004575
313.15	.1008	.0000001013	.0000000005065
313.15	.1979	.0000000665	.0000000003325
313.15	.2995	-.0000000437	-.0000000002185
313.15	.4002	-.0000001061	-.0000000005305
313.15	.4999	-.0000001449	-.0000000007245
313.15	.6505	-.0000001594	-.000000000797
313.15	.7977	-.0000001345	-.0000000006725
313.15	.9013	-.000000068	-.00000000034
