Measured thermophysical data. Vapor pressure measurements over supercooled water in the temperature range from -10^1 C to +10^(-2) degC
Source: J. Chem. Thermodyn., 2017, 10.1016/j.jct.2016.10.003
Compound 1: water, H2O

System: water; phases: Liquid, Gas
Property: Vapor or sublimation pressure, kPa (Liquid); method: Closed cell (Static) method
Temperature, K	Vapor or sublimation pressure, kPa	uncertainty
261.255	.2462	
262.254	.2667	
263.251	.2886	
264.246	.3122	
265.25	.3376	
266.248	.3647	
267.24	.3937	
268.242	.4247	
269.242	.458	
270.25	.4939	
271.248	.5318	
272.248	.5724	
273.251	.6158	
