Measured thermophysical data. Phase-boundary potential in the two-liquid-phase (AgI + NaCl) system
Source: J. Chem. Thermodyn., 2015, 10.1016/j.jct.2015.06.015
Compound 1: sodium chloride, ClNa, purity 99.5%
Compound 2: silver iodide, AgI, purity 99%

System: sodium chloride; phases: Crystal, Liquid, Air at 1 atmosphere
Property: Triple point temperature, K (Crystal); method: DSC/DTA
Triple point temperature, K	uncertainty
1074	.5

System: silver iodide; phases: Crystal, Liquid, Air at 1 atmosphere
Property: Triple point temperature, K (Crystal); method: DSC/DTA
Triple point temperature, K	uncertainty
832	.5

System: sodium chloride + silver iodide; phases: Liquid mixture 1, Liquid mixture 2, Crystal, Air at 1 atmosphere
Fixed: Pressure, kPa = 101.325
Property: Monotectic temperature, K (Liquid mixture 1); method: From e.m.f. measurements
Monotectic temperature, K	uncertainty
1020	1

System: sodium chloride + silver iodide; phases: Liquid mixture 1, Liquid mixture 2
Fixed: Pressure, kPa = 98.7
Property: Liquid-liquid equilibrium temperature, K (Liquid mixture 1); method: From e.m.f. measurements
Mole fraction of sodium chloride	Liquid-liquid equilibrium temperature, K	uncertainty
.5	1067	1
