Measured thermophysical data. Thermodynamic study of sublimation, melting and vaporization of scandium(III) dipivaloylmethanate derivatives
Source: J. Chem. Thermodyn., 2016, 10.1016/j.jct.2016.05.020
Compound 1: tris(2,2,6,6-tetramethyl-4-fluoro-3,5-heptanedionato)scandium, C33H54F3O6Sc
Compound 2: tris(1,1,1-trifluoro-5,5-dimethyl-2,4-hexanedionato)scandium, C24H30F9O6Sc

System: tris(2,2,6,6-tetramethyl-4-fluoro-3,5-heptanedionato)scandium; phases: Crystal, Liquid, Air at 1 atmosphere
Property: Normal melting temperature, K (Crystal); method: DSC/DTA
Normal melting temperature, K	uncertainty
423	.3

System: tris(2,2,6,6-tetramethyl-4-fluoro-3,5-heptanedionato)scandium; phases: Crystal, Liquid, Air at 1 atmosphere
Property: Molar enthalpy of transition or fusion, kJ/mol (Crystal); method: DSC
Molar enthalpy of transition or fusion, kJ/mol	uncertainty
21.6	1.3

System: tris(2,2,6,6-tetramethyl-4-fluoro-3,5-heptanedionato)scandium; phases: Crystal, Liquid, Air at 1 atmosphere
Property: Normal melting temperature, K (Crystal); method: Visual observation
Normal melting temperature, K	uncertainty
424	

System: tris(2,2,6,6-tetramethyl-4-fluoro-3,5-heptanedionato)scandium; phases: Crystal, Gas
Property: Vapor or sublimation pressure, kPa (Crystal); method: Manometric method
Temperature, K	Vapor or sublimation pressure, kPa	uncertainty
408.5	.028911	
417.9	.11015	
384.7	.0064299	
414.4	.12751	
374.1	.0089778	
390.1	.028731	
404.9	.023173	
420.8	.057591	
414.2	.025698	
395.9	.036817	
407.1	.054056	
417.4	.088633	

System: tris(2,2,6,6-tetramethyl-4-fluoro-3,5-heptanedionato)scandium; phases: Liquid, Gas
Property: Vapor or sublimation pressure, kPa (Liquid); method: Manometric method
Temperature, K	Vapor or sublimation pressure, kPa	uncertainty
428.7	.1054	
436.6	.2707	
449.4	.4119	
460.4	.5772	
470.8	.8411	
468	.8064	
480.2	1.2103	
491.5	1.7768	
501.7	2.5646	
511.9	3.7069	
427.1	.1447	
439.9	.2298	
449.2	.4086	
461.3	.6185	
472.2	.8541	
481.1	1.2148	
427.4	.1635	
437.7	.236	
443.7	.2704	
448.8	.3201	
454.2	.4148	
458.1	.5434	
469.2	.8067	
476.6	1.0698	
485.4	1.4959	
498.2	2.287	
499.1	2.3363	
498.8	2.2928	

System: tris(1,1,1-trifluoro-5,5-dimethyl-2,4-hexanedionato)scandium; phases: Crystal, Liquid, Air at 1 atmosphere
Property: Normal melting temperature, K (Crystal); method: DSC/DTA
Normal melting temperature, K	uncertainty
331.6	.5

System: tris(1,1,1-trifluoro-5,5-dimethyl-2,4-hexanedionato)scandium; phases: Crystal, Liquid, Air at 1 atmosphere
Property: Molar enthalpy of transition or fusion, kJ/mol (Crystal); method: DSC
Molar enthalpy of transition or fusion, kJ/mol	uncertainty
25.2	.7

System: tris(1,1,1-trifluoro-5,5-dimethyl-2,4-hexanedionato)scandium; phases: Crystal, Liquid, Air at 1 atmosphere
Property: Normal melting temperature, K (Crystal); method: Visual observation
Normal melting temperature, K	uncertainty
332	

System: tris(1,1,1-trifluoro-5,5-dimethyl-2,4-hexanedionato)scandium; phases: Liquid, Gas
Property: Vapor or sublimation pressure, kPa (Liquid); method: Manometric method
Temperature, K	Vapor or sublimation pressure, kPa	uncertainty
382.5	.1184	
389.9	.1715	
393.3	.0559	
393.1	.0572	
396.6	.1503	
400.2	.1809	
410.3	.2421	
417.5	.4123	
422.4	.5041	
427.6	.7182	
436.2	.927	
438.4	.9842	
444.7	1.3061	
453.7	1.9937	
388.4	.0971	
398.7	.2141	
407.6	.2633	
418.5	.4349	
427	.6677	
431.8	.8312	
433.1	.8525	
441	1.1465	
446.7	1.459	
452	1.7862	
