Measured thermophysical data. Measurement and correlation of phase equilibrium data of the mixtures consisting of butyric acid, water, cyclohexanone at different temperatures
Source: J. Chem. Thermodyn., 2012, 10.1016/j.jct.2011.11.001
Compound 1: butanoic acid, C4H8O2, purity 99%
Compound 2: cyclohexanone, C6H10O, purity 99.5%
Compound 3: water, H2O, purity 99.8%

System: butanoic acid + cyclohexanone + water; phases: Liquid mixture 1, Liquid mixture 2
Fixed: Pressure, kPa = 101.3
Property: Mass fraction of butanoic acid (Liquid mixture 1); method: Titration method
Temperature, K	Mass fraction of water	Mass fraction of butanoic acid	uncertainty
298.2	.051	0	.001
298.2	.068	.09	.001
298.2	.093	.17	.001
298.2	.096	.191	.001
298.2	.122	.277	.001
298.2	.157	.358	.001
298.2	.18	.412	.001
298.2	.23	.497	.001
298.2	.295	.536	.001
298.2	.39	.511	.001
298.2	.504	.435	.001
298.2	.61	.333	.001
298.2	.689	.247	.001
298.2	.804	.128	.001
298.2	.896	.034	.001
298.2	.921	0	.001
308.2	.056	0	.001
308.2	.069	.069	.001
308.2	.082	.129	.001
308.2	.101	.191	.001
308.2	.12	.251	.001
308.2	.14	.309	.001
308.2	.162	.365	.001
308.2	.182	.418	.001
308.2	.216	.463	.001
308.2	.253	.501	.001
308.2	.317	.512	.001
308.2	.422	.481	.001
308.2	.555	.371	.001
308.2	.651	.279	.001
308.2	.794	.138	.001
308.2	.921	0	.001
318.2	.068	0	.001
318.2	.082	.063	.001
318.2	.101	.127	.001
318.2	.12	.187	.001
318.2	.14	.245	.001
318.2	.159	.302	.001
318.2	.182	.356	.001
318.2	.204	.408	.001
318.2	.238	.45	.001
318.2	.285	.479	.001
318.2	.361	.48	.001
318.2	.53	.39	.001
318.2	.638	.289	.001
318.2	.723	.206	.001
318.2	.825	.103	.001
318.2	.926	0	.001

System: butanoic acid + cyclohexanone + water; phases: Liquid mixture 2, Liquid mixture 1
Fixed: Pressure, kPa = 101.3
Property: Mass fraction of water (Liquid mixture 2); method: Titration method
Property: Mass fraction of butanoic acid (Liquid mixture 1); method: Titration method
Property: Mass fraction of water (Liquid mixture 1); method: Titration method
Temperature, K	Mass fraction of butanoic acid	Mass fraction of water	uncertainty	Mass fraction of butanoic acid	uncertainty	Mass fraction of water	uncertainty
298.2	.009	.913	.001	.108	.001	.074	.001
298.2	.019	.902	.001	.162	.001	.089	.001
298.2	.028	.894	.001	.205	.001	.099	.001
298.2	.035	.888	.001	.236	.001	.108	.001
298.2	.047	.88	.001	.276	.001	.123	.001
308.2	.01	.912	.001	.128	.001	.084	.001
308.2	.016	.906	.001	.158	.001	.093	.001
308.2	.025	.896	.001	.199	.001	.104	.001
308.2	.035	.889	.001	.236	.001	.116	.001
308.2	.045	.879	.001	.27	.001	.129	.001
318.2	.01	.918	.001	.102	.001	.095	.001
318.2	.017	.911	.001	.145	.001	.106	.001
318.2	.022	.904	.001	.186	.001	.119	.001
318.2	.029	.897	.001	.225	.001	.133	.001
318.2	.038	.89	.001	.266	.001	.148	.001
