Measured thermophysical data. Experimental standard molar enthalpies of formation of some methylbenzenediol isomers
Source: J. Chem. Thermodyn., 2009, 10.1016/j.jct.2009.04.015
Compound 1: 2-methylresorcinol, C7H8O2
Compound 2: resorcinol, 4-methyl-, C7H8O2
Compound 3: resorcinol, 5-methyl-, C7H8O2
Compound 4: hydroquinone, methyl-, C7H8O2
Compound 5: carbon dioxide, CO2
Compound 6: water, H2O
Compound 7: oxygen, O2

System: 2-methylresorcinol; phases: Crystal, Gas
Property: Vapor or sublimation pressure, kPa (Crystal); method: Knudsen effusion method
Temperature, K	Vapor or sublimation pressure, kPa	uncertainty
309.22	.000109	
311.2	.000141	
313.12	.000176	
315.21	.000227	
317.12	.000287	
319.2	.000358	
321.19	.000456	
323.12	.000578	
325.21	.000724	
327.17	.000896	
329.11	.001115	
309.22	.000107	
311.2	.000136	
313.12	.000172	
315.21	.000224	
317.12	.00028	
319.2	.00035	
321.19	.000446	
323.12	.000559	
325.21	.000694	
327.17	.000883	
329.11	.001099	
309.22	.000103	
311.2	.000132	
313.12	.000171	
315.21	.000217	
317.12	.000276	
319.2	.000341	
321.19	.000437	
323.12	.000553	
325.21	.000673	
327.17	.000851	
329.11	.001081	

System: resorcinol, 4-methyl-; phases: Crystal, Gas
Property: Vapor or sublimation pressure, kPa (Crystal); method: Knudsen effusion method
Temperature, K	Vapor or sublimation pressure, kPa	uncertainty
317.2	.000134	
319.22	.000175	
321.11	.00022	
323.21	.000282	
325.23	.000361	
327.13	.000451	
329.21	.000572	
331.21	.000742	
333.12	.000933	
317.2	.000129	
319.22	.00017	
321.11	.000215	
323.21	.000266	
325.23	.000344	
327.13	.000438	
329.21	.000562	
331.21	.000724	
333.12	.000916	
317.2	.000128	
319.22	.000166	
321.11	.000211	
323.21	.000262	
325.23	.000336	
327.13	.000432	
329.21	.000561	
331.21	.000719	
333.12	.000886	

System: resorcinol, 5-methyl-; phases: Crystal, Gas
Property: Vapor or sublimation pressure, kPa (Crystal); method: Knudsen effusion method
Temperature, K	Vapor or sublimation pressure, kPa	uncertainty
322.2	.000157	
324.16	.000199	
328.2	.000311	
330.14	.000394	
332.1	.000499	
334.19	.000607	
336.13	.000766	
338.1	.000974	
322.2	.000153	
324.16	.000196	
326.1	.000246	
328.2	.000303	
330.14	.000383	
332.1	.000485	
334.19	.000596	
336.13	.000754	
338.1	.000935	
322.2	.000153	
324.16	.000193	
326.1	.000245	
328.2	.000304	
330.14	.000378	
332.1	.000482	
334.19	.000591	
336.13	.000734	
338.1	.000932	

System: hydroquinone, methyl-; phases: Crystal, Gas
Property: Vapor or sublimation pressure, kPa (Crystal); method: Knudsen effusion method
Temperature, K	Vapor or sublimation pressure, kPa	uncertainty
325.21	.000147	
327.15	.000189	
329.11	.000239	
331.19	.000298	
333.14	.000375	
335.11	.000481	
337.2	.00061	
339.14	.000751	
341.12	.000957	
325.21	.000144	
327.15	.000182	
329.11	.000229	
331.19	.000292	
333.14	.000361	
335.11	.000462	
337.2	.000607	
339.14	.000731	
341.12	.000916	
325.21	.000138	
327.15	.000173	
329.11	.000226	
331.19	.000277	
333.14	.000348	
335.11	.000448	
337.2	.000569	
339.14	.000704	
341.12	.00089	

Reaction: -1 hydroquinone, methyl- + 7 carbon dioxide + 4 water + -8 oxygen
Property: Specific internal energy of reaction at constant volume, J/g
-28135.7

Reaction: -1 2-methylresorcinol + 7 carbon dioxide + 4 water + -8 oxygen
Property: Specific internal energy of reaction at constant volume, J/g
-28188.7

Reaction: -1 resorcinol, 4-methyl- + 7 carbon dioxide + 4 water + -8 oxygen
Property: Specific internal energy of reaction at constant volume, J/g
-28124.7

Reaction: -1 resorcinol, 5-methyl- + 7 carbon dioxide + 4 water + -8 oxygen
Property: Specific internal energy of reaction at constant volume, J/g
-28125
