Measured thermophysical data. Thermal properties of [Cr(NH3)6](BF4)3 studied by adiabatic and relaxation calorimetry
Source: J. Chem. Thermodyn., 2015, 10.1016/j.jct.2015.05.012
Compound 1: hexaamminechromium(III) tetrafluoroborate, B3CrF12H18N6

System: hexaamminechromium(III) tetrafluoroborate; phases: Crystal 2, Crystal 1, Gas
Property: Triple point temperature, K (Crystal 2); method: Adiabatic calorimetry
Triple point temperature, K	uncertainty
240.7	.5

System: hexaamminechromium(III) tetrafluoroborate; phases: Crystal 3, Crystal 2, Gas
Property: Triple point temperature, K (Crystal 3); method: Adiabatic calorimetry
Triple point temperature, K	uncertainty
108	.5

System: hexaamminechromium(III) tetrafluoroborate; phases: Crystal 4, Crystal 3, Gas
Property: Triple point temperature, K (Crystal 4); method: Adiabatic calorimetry
Triple point temperature, K	uncertainty
61.3	.5

System: hexaamminechromium(III) tetrafluoroborate; phases: Crystal 2, Crystal 1, Gas
Property: Molar enthalpy of transition or fusion, kJ/mol (Crystal 2); method: Adiabatic calorimetry
Molar enthalpy of transition or fusion, kJ/mol	uncertainty
1.52	.001

System: hexaamminechromium(III) tetrafluoroborate; phases: Crystal 3, Crystal 2, Gas
Property: Molar enthalpy of transition or fusion, kJ/mol (Crystal 3); method: Adiabatic calorimetry
Molar enthalpy of transition or fusion, kJ/mol	uncertainty
.596	.001

System: hexaamminechromium(III) tetrafluoroborate; phases: Crystal 4, Crystal 3, Gas
Property: Molar enthalpy of transition or fusion, kJ/mol (Crystal 4); method: Adiabatic calorimetry
Molar enthalpy of transition or fusion, kJ/mol	uncertainty
.094	.001

System: hexaamminechromium(III) tetrafluoroborate; phases: Metastable crystal, Crystal 2, Gas
Property: Triple point temperature, K (Metastable crystal); method: Adiabatic calorimetry
Triple point temperature, K	uncertainty
91.9	.5

System: hexaamminechromium(III) tetrafluoroborate; phases: Metastable crystal, Crystal 2, Gas
Property: Molar enthalpy of transition or fusion, kJ/mol (Metastable crystal); method: Adiabatic calorimetry
Molar enthalpy of transition or fusion, kJ/mol	uncertainty
0	.001

System: hexaamminechromium(III) tetrafluoroborate; phases: Crystal 4
Fixed: Pressure, kPa = 101.325
Property: Molar heat capacity at constant pressure, J/K/mol (Crystal 4); method: Relaxation calorimetry
Temperature, K	Molar heat capacity at constant pressure, J/K/mol	uncertainty
.371	2.236	.06708
.39	2.077	.06231
.409	1.924	.05772
.431	1.769	.05307
.452	1.642	.04926
.476	1.514	.04542
.5	1.4	.042
.526	1.287	.03861
.554	1.178	.03534
.582	1.08	.0324
.613	.98	.0294
.644	.894	.02682
.679	.812	.02436
.714	.738	.02214
.751	.672	.02016
.791	.612	.01836
.832	.559	.01677
.875	.508	.01524
.922	.466	.01398
.97	.425	.01275
1.02	.386	.01158
1.074	.353	.01059
1.131	.322	.00966
1.191	.298	.00894
1.253	.27	.0081
1.32	.25	.0075
1.391	.228	.00684
1.463	.212	.00636
1.541	.198	.00594
1.622	.185	.00555
1.708	.171	.00513
1.797	.162	.00486
1.892	.155	.00465
1.992	.149	.00447
2.097	.142	.00426
2.205	.141	.00423
2.32	.14	.0042
2.453	.142	.00426
2.583	.144	.00432
2.72	.152	.00456
2.864	.162	.00486
3.015	.173	.00519
3.176	.187	.00561
3.343	.21	.0063
3.52	.232	.00696
3.711	.259	.00777
3.907	.293	.00879
4.112	.338	.01014
4.328	.39	.0117
4.554	.456	.01368
4.792	.535	.01605
5.043	.626	.01878
5.308	.751	.02253
5.585	.886	.02658
5.878	1.042	.03126
6.182	1.243	.03729
6.507	1.465	.04395
6.839	1.724	.05172
7.216	2.08	.0624
7.607	2.477	.07431
8.005	2.904	.08712
8.432	3.407	.10221
8.876	3.983	.11949
9.344	4.675	.14025
9.835	5.479	.16437
10.357	6.375	.19125
10.904	7.443	.22329
11.478	8.568	.25704
12.084	9.913	.29739
12.723	11.498	.34494
13.393	13.032	.39096
14.099	14.648	.43944
14.838	17.238	.51714
15.62	19.973	.59919
16.444	22.302	.66906
17.313	25.01	.7503
18.223	28.378	.85134
19.181	31.352	.94056
20.245	35.774	1.07322

System: hexaamminechromium(III) tetrafluoroborate; phases: Crystal 2
Fixed: Pressure, kPa = 101.325
Property: Molar heat capacity at constant pressure, J/K/mol (Crystal 2); method: Small (less than 1 g) adiabatic calorimetry
Temperature, K	Molar heat capacity at constant pressure, J/K/mol	uncertainty
109.706	302.05	.90615
110.078	303.43	.91029
111.785	303.51	.91053
114.816	308.66	.92598
117.824	313.05	.93915
120.81	318.08	.95424
123.777	323.38	.97014
126.729	324.01	.97203
129.667	333.39	1.00017
132.591	336.69	1.01007
135.507	340.86	1.02258
138.415	345.42	1.03626
141.317	350.18	1.05054
144.214	354.42	1.06326
109.794	300.98	.90294
111.808	304.2	.9126
113.829	308	.924
115.857	311.26	.93378
117.893	314.86	.94458
119.938	317.7	.9531
121.992	321.34	.96402
124.054	324.27	.97281
126.126	327.67	.98301
128.207	330.81	.99243
130.298	334.17	1.00251
132.399	337.49	1.01247
134.51	340.62	1.02186
136.631	344.05	1.03215
138.764	347.36	1.04208
140.907	350.46	1.05138
143.061	353.94	1.06182
145.227	357.22	1.07166
147.403	360.3	1.0809
149.592	363.81	1.09143
151.792	367.16	1.10148
154.004	370	1.11
156.228	373.6	1.1208
158.464	376.95	1.13085
160.712	379.97	1.13991
162.972	383.27	1.14981
165.244	386.74	1.16022
167.529	390.07	1.17021
169.827	393.38	1.18014
172.138	397.03	1.19109
174.461	400.02	1.20006
176.797	403.74	1.21122
179.147	407.58	1.22274
181.509	410.11	1.23033
183.884	414	1.242
186.272	417.37	1.25211
188.674	421.14	1.26342
191.089	423.98	1.27194
193.517	427.46	1.28238
195.96	431.29	1.29387
198.414	437	1.311
200.882	440.54	1.32162
203.516	444.85	1.33455
206.32	449.28	1.34784
209.141	454.36	1.36308
211.978	459.19	1.37757
214.864	463.83	1.39149
217.801	469.17	1.40751
220.761	476.18	1.42854
223.093	481.18	1.44354
223.651	482.13	1.44639
223.744	482.88	1.44864
224.207	483.77	1.45131
224.763	483.38	1.45014
225.319	485.71	1.45713
225.873	486.96	1.46088
226.428	490.75	1.47225
226.75	491.22	1.47366
226.981	490.81	1.47243
227.535	491.01	1.47303
228.088	493.26	1.47978
228.64	497.26	1.49178
229.191	498.98	1.49694
229.742	499.94	1.49982
229.776	503.31	1.50993
230.292	503.85	1.51155
230.842	504.51	1.51353
231.391	506.15	1.51845
231.94	510.14	1.53042
232.488	514.5	1.5435
232.822	519.51	1.55853
233.035	517.55	1.55265
233.581	521.24	1.56372
234.127	525.67	1.57701
234.672	531.53	1.59459
235.216	537.46	1.61238
235.759	544.75	1.63425
235.882	554.94	1.66482
109.751	302.43	.90729
110.337	300.87	.90261
110.92	302.26	.90678
111.5	303.03	.90909
112.079	304.74	.91422
114.06	307.35	.92205
117.437	312.9	.9387
120.796	318.24	.95472
124.141	325.75	.97725
127.48	330.67	.99201
130.807	334.16	1.00248
134.13	338.73	1.01619
137.45	344.45	1.03335
140.771	349.38	1.04814
144.092	354.41	1.06323
147.418	359.13	1.07739
150.747	364.42	1.09326
154.082	369.25	1.10775
157.423	374.19	1.12257
160.774	379.01	1.13703
164.132	384.2	1.1526
167.5	389.19	1.16757
170.879	393.98	1.18194
174.269	398.97	1.19691
177.672	404.16	1.21248
181.087	408.84	1.22652
184.516	413.95	1.24185
187.959	418.74	1.25622
191.416	423.73	1.27119
194.888	428.48	1.28544
198.375	435.91	1.30773
201.876	440.99	1.32297
205.393	446.96	1.34088
208.926	453.02	1.35906
212.474	459.04	1.37712
216.039	464.94	1.39482
219.619	472.3	1.4169
223.215	480.79	1.44237
226.826	491.19	1.47357
230.451	504.65	1.51395
234.085	530.76	1.59228
91.919	279.18	.83754
93.511	282.07	.84621
93.894	282.26	.84678
95.872	283.99	.85197
97.853	283.06	.84918
99.835	284.92	.85476
101.821	288.3	.8649
103.809	292.97	.87891
105.802	300.79	.90237

System: hexaamminechromium(III) tetrafluoroborate; phases: Crystal 1
Fixed: Pressure, kPa = 101.325
Property: Molar heat capacity at constant pressure, J/K/mol (Crystal 1); method: Small (less than 1 g) adiabatic calorimetry
Temperature, K	Molar heat capacity at constant pressure, J/K/mol	uncertainty
241.656	486.96	1.46088
242.2	486.44	1.45932
242.743	486.52	1.45956
243.286	486.63	1.45989
243.829	486.5	1.4595
244.371	487.1	1.4613
244.913	487.08	1.46124
245.186	488.1	1.4643
245.455	488.28	1.46484
245.996	487.98	1.46394
246.537	487.26	1.46178
247.077	489.54	1.46862
247.618	489.89	1.46967
248.157	489.62	1.46886
248.374	490.23	1.47069
248.697	491.92	1.47576
249.236	491.34	1.47402
249.775	491.07	1.47321
250.313	492.44	1.47732
250.851	493	1.479
251.388	493.05	1.47915
251.586	493.11	1.47933
251.926	493.13	1.47939
252.462	494.23	1.48269
252.999	493.94	1.48182
253.535	492.95	1.47885
254.071	490.82	1.47246
254.607	495.6	1.4868
254.823	496.17	1.48851
255.142	496.56	1.48968
255.677	497.7	1.4931
256.212	496.14	1.48842
256.746	496.39	1.48917
258.084	499.37	1.49811
261.37	502.95	1.50885
264.679	506.15	1.51845
268.013	510.09	1.53027
271.369	514.47	1.54341
274.75	516.77	1.55031
278.155	520.43	1.56129
281.582	523.67	1.57101
285.033	527.55	1.58265
288.506	532.96	1.59888
292	536.6	1.6098
295.517	538.43	1.61529
299.055	541.84	1.62552
241.55	490.36	1.47108
241.945	487.45	1.46235
243.821	492	1.476
247.19	488.32	1.46496
250.584	491.61	1.47483
254.002	494.57	1.48371
257.442	497.3	1.4919
260.905	501.79	1.50537
264.391	505.05	1.51515
267.9	509.35	1.52805
271.43	513.88	1.54164
274.985	515.69	1.54707
278.562	519.84	1.55952
282.162	523.54	1.57062
285.785	527.68	1.58304
289.429	532.55	1.59765
293.096	535.51	1.60653
296.785	538.62	1.61586
300.497	541.76	1.62528

System: hexaamminechromium(III) tetrafluoroborate; phases: Crystal 4
Fixed: Pressure, kPa = 101.325
Property: Molar heat capacity at constant pressure, J/K/mol (Crystal 4); method: Small (less than 1 g) adiabatic calorimetry
Temperature, K	Molar heat capacity at constant pressure, J/K/mol	uncertainty
15.829	20.84	.06252
17.607	26.93	.08079
19.207	32.76	.09828
20.618	38.28	.11484
22.093	44.34	.13302
23.513	50.06	.15018
24.887	55.55	.16665
26.31	61.13	.18339
27.746	68.27	.20481
29.178	75.06	.22518
30.595	81.2	.2436
31.95	86.64	.25992
33.307	91.95	.27585
34.773	98.52	.29556
36.324	105.02	.31506
37.933	111.53	.33459
39.58	117.78	.35334
41.252	124.16	.37248
42.939	130.76	.39228
44.474	136.42	.40926
45.775	141.05	.42315
46.968	145.57	.43671
48.103	150.02	.45006
49.187	154.36	.46308
50.227	158.18	.47454
51.228	161.91	.48573
52.193	165.11	.49533
53.127	168.67	.50601
54.032	171.82	.51546
54.911	174.63	.52389
55.686	177.75	.53325
56.362	180.28	.54084
57.023	182.43	.54729
57.671	186.1	.5583
58.307	189.24	.56772
58.931	192.88	.57864
59.542	197.86	.59358
60.141	203.18	.60954
16.592	23.42	.07026
18.38	29.73	.08919
19.943	35.56	.10668
21.513	41.91	.12573
23.055	48.26	.14478
24.556	54.32	.16296
26.013	60.01	.18003
27.448	66.96	.20088
29.017	74.68	.22404
30.692	81.96	.24588
32.32	88.43	.26529
33.905	95.18	.28554
35.451	101.81	.30543
36.964	108	.324
38.448	113.83	.34149
39.906	119.39	.35817
41.343	124.98	.37494
42.76	130.36	.39108
44.161	135.55	.40665
45.546	140.93	.42279
46.917	145.87	.43761
48.277	151.12	.45336
49.626	156.12	.46836
50.965	160.94	.48282
52.206	165.08	.49524
53.379	169.15	.50745
54.602	173.45	.52035
55.87	178.26	.53478
57.177	183.93	.55179
58.517	191.42	.57426
59.886	201.96	.60588

System: hexaamminechromium(III) tetrafluoroborate; phases: Crystal 3
Fixed: Pressure, kPa = 101.325
Property: Molar heat capacity at constant pressure, J/K/mol (Crystal 3); method: Small (less than 1 g) adiabatic calorimetry
Temperature, K	Molar heat capacity at constant pressure, J/K/mol	uncertainty
61.876	196.73	.59019
62.446	196.9	.5907
63.008	199.55	.59865
65.26	203.86	.61158
69.082	214.13	.64239
72.686	223.93	.67179
76.122	232.8	.6984
79.425	241.49	.72447
82.619	249.52	.74856
85.726	257.13	.77139
88.759	264.15	.79245
91.732	270.61	.81183
94.652	276.57	.82971
97.529	281.21	.84363
100.37	286.88	.86064
103.177	294.69	.88407
62.7	197.53	.59259
64.16	201.81	.60543
65.601	205.09	.61527
66.975	209.45	.62835
68.357	212.31	.63693
69.809	216.7	.6501
71.31	220.94	.66282
72.856	224.88	.67464
74.443	229.17	.68751
76.069	233.54	.70062
77.732	237.92	.71376
79.429	242.3	.7269
81.16	246.67	.74001
82.922	251.19	.75357
84.713	255.64	.76692
86.534	259.98	.77994
88.384	263.98	.79194
90.26	268.35	.80505
91.548	270.91	.81273
92.23	273.4	.8202
92.909	274.08	.82224
93.583	275.78	.82734
94.252	276.32	.82896
94.918	277.63	.83289
95.579	278.89	.83667
96.237	279.35	.83805
96.89	279.57	.83871
97.539	280.75	.84225
98.184	282.49	.84747
98.825	282.49	.84747
99.462	284.28	.85284
100.096	285.5	.8565
100.727	286.59	.85977
101.354	287.77	.86331
101.977	289.71	.86913
102.598	289.29	.86787
103.215	291.67	.87501
103.829	293.52	.88056
104.441	295.34	.88602
105.049	296.61	.88983
105.654	298.29	.89487
106.256	300.89	.90267
106.852	305.42	.91626
107.444	310.22	.93066

System: hexaamminechromium(III) tetrafluoroborate; phases: Metastable crystal
Fixed: Pressure, kPa = 101.325
Property: Molar heat capacity at constant pressure, J/K/mol (Metastable crystal); method: Small (less than 1 g) adiabatic calorimetry
Temperature, K	Molar heat capacity at constant pressure, J/K/mol	uncertainty
8.904	4.444	.013332
9.855	5.964	.017892
10.701	7.53	.02259
11.515	9.223	.027669
12.345	11.11	.03333
13.183	13.19	.03957
14.055	15.62	.04686
15.174	18.87	.05661
16.686	23.94	.07182
18.306	29.86	.08958
19.885	35.9	.1077
21.404	42.29	.12687
22.929	48.87	.14661
24.508	55.49	.16647
26.154	62.43	.18729
27.863	71.34	.21402
29.586	80.03	.24009
31.302	87.81	.26343
33.001	94.66	.28398
34.678	101.89	.30567
36.332	108.45	.32535
37.963	114.81	.34443
39.572	120.76	.36228
41.162	126.77	.38031
42.734	132.53	.39759
44.29	138.18	.41454
45.831	143.96	.43188
47.36	149.66	.44898
48.775	154.94	.46482
50.105	159.56	.47868
51.479	164.09	.49227
53.133	169.43	.50829
54.958	174.9	.5247
56.63	179.8	.5394
58.278	185.19	.55557
59.997	191.07	.57321
61.778	196.78	.59034
63.614	202.53	.60759
65.5	207.94	.62382
67.432	213.65	.64095
69.404	218.93	.65679
71.414	224.42	.67326
73.459	230.56	.69168
75.511	236.29	.70887
77.546	242.08	.72624
79.567	247.44	.74232
80.038	249.72	.74916
81.576	253.05	.75915
82.029	251.32	.75396
83.576	258.54	.77562
84.015	260.21	.78063
85.569	264.05	.79215
85.995	265.45	.79635
87.557	269.23	.80769
87.971	270.48	.81144
89.541	274.44	.82332
89.945	275.35	.82605
91.525	279.04	.83712
