Measured thermophysical data. Solvation consequences of polymer PVP with biological buffers MES, MOPS, and MOPSO in aqueous solutions
Source: J. Chem. Thermodyn., 2015, 10.1016/j.jct.2015.07.022
Compound 1: 2-morpholinoethane-1-sulfonic acid, C6H13NO4S, purity 99%
Compound 2: 3-(N-morpholino)propanesulfonic acid, C7H15NO4S, purity 99%
Compound 3: 2-hydroxy-3-morpholinopropane-1-sulfonic acid, C7H15NO5S, purity 99%
Compound 4: water, H2O

System: water; phases: Liquid
Property: Mass density, kg/m3 (Liquid); method: Vibrating tube method
Temperature, K	Pressure, kPa	Mass density, kg/m3	uncertainty
298.15	101.3	997.07	.5
308.15	101.3	994.04	.5
318.15	101.3	990.21	.5

System: water; phases: Liquid
Property: Viscosity, Pa*s (Liquid); method: Falling or rolling sphere viscometry
Temperature, K	Pressure, kPa	Viscosity, Pa*s	uncertainty
298.15	101.3	.000876	.00001752
308.15	101.3	.000708	.00001416
318.15	101.3	.000589	.00001178

System: 2-morpholinoethane-1-sulfonic acid + water; phases: Liquid
Fixed: Pressure, kPa = 101.3
Property: Mass density, kg/m3 (Liquid); method: Vibrating tube method
Temperature, K	Molality, mol/kg of 2-morpholinoethane-1-sulfonic acid	Mass density, kg/m3	uncertainty
298.15	0	997.07	.5
298.15	.204	1009.81	.5
298.15	.4082	1022.11	.5
298.15	.6032	1032.73	.5
298.15	.7977	1043.38	.5
298.15	.9987	1054.02	.5
308.15	0	994.04	.5
308.15	.204	1006.58	.5
308.15	.4082	1018.7	.5
308.15	.6032	1029.17	.5
308.15	.7977	1039.67	.5
308.15	.9987	1050.18	.5
318.15	0	990.2	.5
318.15	.204	1002.61	.5
318.15	.4082	1014.59	.5
318.15	.6032	1024.89	.5
318.15	.7977	1035.34	.5
318.15	.9987	1045.73	.5
298.15	.5375	1029.23	.5
308.15	.5375	1025.71	.5
318.15	.5375	1021.53	.5

System: 2-morpholinoethane-1-sulfonic acid + water; phases: Liquid
Fixed: Pressure, kPa = 101.3
Property: Viscosity, Pa*s (Liquid); method: Falling or rolling sphere viscometry
Temperature, K	Molality, mol/kg of 2-morpholinoethane-1-sulfonic acid	Viscosity, Pa*s	uncertainty
298.15	0	.000876	.00001752
298.15	.204	.000918	.00001836
298.15	.4082	.00098	.0000196
298.15	.6032	.001035	.0000207
298.15	.7977	.001101	.00002202
298.15	.9987	.001153	.00002306
308.15	0	.000708	.00001416
308.15	.204	.000743	.00001486
308.15	.4082	.000792	.00001584
308.15	.6032	.000836	.00001672
308.15	.7977	.000893	.00001786
308.15	.9987	.000932	.00001864
318.15	0	.000589	.00001178
318.15	.204	.000616	.00001232
318.15	.4082	.000657	.00001314
318.15	.6032	.000693	.00001386
318.15	.7977	.000737	.00001474
318.15	.9987	.000772	.00001544
298.15	.5375	.001006	.00002012
308.15	.5375	.000814	.00001628
318.15	.5375	.000676	.00001352

System: 3-(N-morpholino)propanesulfonic acid + water; phases: Liquid
Fixed: Pressure, kPa = 101.3
Property: Mass density, kg/m3 (Liquid); method: Vibrating tube method
Temperature, K	Molality, mol/kg of 3-(N-morpholino)propanesulfonic acid	Mass density, kg/m3	uncertainty
298.15	.2066	1010.07	.5
298.15	.4057	1021.96	.5
298.15	.6078	1033.5	.5
298.15	.8103	1044.18	.5
298.15	1.0115	1054.32	.5
308.15	.2066	1006.86	.5
308.15	.4057	1018.59	.5
308.15	.6078	1029.96	.5
308.15	.8103	1040.52	.5
308.15	1.0115	1050.53	.5
318.15	.2066	1002.89	.5
318.15	.4057	1014.51	.5
318.15	.6078	1025.78	.5
318.15	.8103	1036.24	.5
318.15	1.0115	1046.17	.5
298.15	.5428	1029.71	.5
308.15	.5428	1026.23	.5
318.15	.5428	1022.1	.5
298.15	0	997.07	.5
308.15	0	994.04	.5
318.15	0	990.2	.5

System: 3-(N-morpholino)propanesulfonic acid + water; phases: Liquid
Fixed: Pressure, kPa = 101.3
Property: Viscosity, Pa*s (Liquid); method: Falling or rolling sphere viscometry
Temperature, K	Molality, mol/kg of 3-(N-morpholino)propanesulfonic acid	Viscosity, Pa*s	uncertainty
298.15	.2066	.000947	.00001894
298.15	.4057	.001027	.00002054
298.15	.6078	.001098	.00002196
298.15	.8103	.001189	.00002378
298.15	1.0115	.001276	.00002552
308.15	.2066	.000765	.0000153
308.15	.4057	.000826	.00001652
308.15	.6078	.000886	.00001772
308.15	.8103	.000963	.00001926
308.15	1.0115	.00103	.0000206
318.15	.2066	.000634	.00001268
318.15	.4057	.000684	.00001368
318.15	.6078	.000733	.00001466
318.15	.8103	.000797	.00001594
318.15	1.0115	.000851	.00001702
298.15	.5428	.00107	.0000214
308.15	.5428	.000863	.00001726
318.15	.5428	.000711	.00001422
298.15	0	.000876	.00001752
308.15	0	.000708	.00001416
318.15	0	.000589	.00001178

System: water + 2-hydroxy-3-morpholinopropane-1-sulfonic acid; phases: Liquid
Fixed: Pressure, kPa = 101.3
Property: Mass density, kg/m3 (Liquid); method: Vibrating tube method
Temperature, K	Molality, mol/kg of 2-hydroxy-3-morpholinopropane-1-sulfonic acid	Mass density, kg/m3	uncertainty
298.15	.2067	1012.75	.5
298.15	.4026	1027.46	.5
298.15	.6057	1041.42	.5
298.15	.7901	1053.72	.5
298.15	1.0085	1066.99	.5
308.15	.2067	1009.49	.5
308.15	.4026	1023.99	.5
308.15	.6057	1037.76	.5
308.15	.7901	1049.91	.5
308.15	1.0085	1063	.5
318.15	.2067	1005.48	.5
318.15	.4026	1019.84	.5
318.15	.6057	1033.47	.5
318.15	.7901	1045.49	.5
318.15	1.0085	1058.47	.5
298.15	0	997.07	.5
308.15	0	994.04	.5
318.15	0	990.2	.5
298.15	.5415	1037.41	.5
308.15	.5415	1034.06	.5
318.15	.5415	1029.22	.5

System: water + 2-hydroxy-3-morpholinopropane-1-sulfonic acid; phases: Liquid
Fixed: Pressure, kPa = 101.3
Property: Viscosity, Pa*s (Liquid); method: Falling or rolling sphere viscometry
Temperature, K	Molality, mol/kg of 2-hydroxy-3-morpholinopropane-1-sulfonic acid	Viscosity, Pa*s	uncertainty
298.15	.2067	.000942	.00001884
298.15	.4026	.001033	.00002066
298.15	.6057	.001117	.00002234
298.15	.7901	.001197	.00002394
298.15	1.0085	.001303	.00002606
308.15	.2067	.000761	.00001522
308.15	.4026	.000833	.00001666
308.15	.6057	.000901	.00001802
308.15	.7901	.000966	.00001932
308.15	1.0085	.001051	.00002102
318.15	.2067	.000631	.00001262
318.15	.4026	.000691	.00001382
318.15	.6057	.000746	.00001492
318.15	.7901	.000798	.00001596
318.15	1.0085	.000866	.00001732
298.15	0	.000876	.00001752
308.15	0	.000708	.00001416
318.15	0	.000589	.00001178
298.15	.5415	.001078	.00002156
308.15	.5415	.000871	.00001742
318.15	.5415	.000721	.00001442
