Measured thermophysical data. Isothermal (liquid + liquid) equilibrium data at T = 313.15 K and isobaric (vapor + liquid + liquid) equilibrium data at 101.3 kPa for the ternary system (water + 1-butanol + p-xylene)
Source: J. Chem. Thermodyn., 2014, 10.1016/j.jct.2014.07.021
Compound 1: water, H2O, purity 99.8%
Compound 2: 1-butanol, C4H10O, purity 99.5%
Compound 3: p-xylene, C8H10, purity 99%

System: 1-butanol + p-xylene + water; phases: Liquid mixture 1, Liquid mixture 2
Property: Mole fraction of 1-butanol (Liquid mixture 1); method: Chromatography
Property: Mole fraction of water (Liquid mixture 2); method: Chromatography
Property: Mole fraction of 1-butanol (Liquid mixture 2); method: Chromatography
Temperature, K	Pressure, kPa	Mole fraction of water	Mole fraction of 1-butanol	uncertainty	Mole fraction of water	uncertainty	Mole fraction of 1-butanol	uncertainty
313.15	101.3	.003	0	0	1	.02	0	0
313.15	101.3	.472	.508	.01016	.982	.01964	.018	.00036
313.15	101.3	.516	.484	.00968	.981	.01962	.019	.00038
313.15	101.3	.021	.097	.00194	.992	.01984	.008	.00016
313.15	101.3	.099	.327	.00654	.99	.0198	.01	.0002
313.15	101.3	.144	.402	.00804	.988	.01976	.011	.00022
313.15	101.3	.19	.459	.00918	.988	.01976	.012	.00024
313.15	101.3	.226	.491	.00982	.985	.0197	.014	.00028
313.15	101.3	.304	.534	.01068	.987	.01974	.013	.00026
313.15	101.3	.348	.543	.01086	.985	.0197	.015	.0003
313.15	101.3	.427	.529	.01058	.984	.01968	.016	.00032

System: 1-butanol + p-xylene + water; phases: Liquid, Gas
Property: Mole fraction of 1-butanol (Liquid); method: Chromatography
Property: Mole fraction of water (Gas); method: Chromatography
Property: Mole fraction of 1-butanol (Gas); method: Chromatography
Temperature, K	Pressure, kPa	Mole fraction of water	Mole fraction of 1-butanol	uncertainty	Mole fraction of water	uncertainty	Mole fraction of 1-butanol	uncertainty
368.02	101.3	.312	.676	.01352	.737	.01474	.245	.0049
369.39	101.3	.264	.724	.01448	.704	.01408	.279	.00558
369.92	101.3	.253	.735	.0147	.708	.01416	.276	.00552
371.26	101.3	.231	.761	.01522	.684	.01368	.303	.00606
373.42	101.3	.184	.809	.01618	.667	.01334	.322	.00644
375.18	101.3	.152	.843	.01686	.612	.01224	.379	.00758
377.07	101.3	.126	.869	.01738	.56	.0112	.433	.00866
379.28	101.3	.1	.895	.0179	.544	.01088	.45	.009
379.73	101.3	.109	.887	.01774	.476	.00952	.518	.01036
378	101.3	.109	.874	.01748	.524	.01048	.453	.00906
375.83	101.3	.134	.834	.01668	.597	.01194	.366	.00732
372.21	101.3	.178	.777	.01554	.652	.01304	.301	.00602
370.44	101.3	.204	.738	.01476	.659	.01318	.285	.0057
368.14	101.3	.253	.675	.0135	.693	.01386	.237	.00474
366.56	101.3	.286	.629	.01258	.707	.01414	.213	.00426
365.23	101.3	.316	.587	.01174	.703	.01406	.204	.00408
365.05	101.3	.418	.541	.01082	.726	.01452	.217	.00434
365.13	101.3	.443	.527	.01054	.733	.01466	.22	.0044
365.46	101.3	.42	.552	.01104	.734	.01468	.223	.00446
365.86	101.3	.396	.578	.01156	.735	.0147	.229	.00458
366.09	101.3	.381	.593	.01186	.736	.01472	.227	.00454
366.4	101.3	.357	.62	.0124	.737	.01474	.229	.00458
365.75	101.3	.242	.604	.01208	.695	.0139	.192	.00384
364.71	101.3	.274	.557	.01114	.687	.01374	.188	.00376
367.16	101.3	.23	.627	.01254	.685	.0137	.214	.00428
369.18	101.3	.195	.681	.01362	.649	.01298	.256	.00512
371.49	101.3	.172	.724	.01448	.627	.01254	.287	.00574
373.95	101.3	.138	.777	.01554	.604	.01208	.321	.00642
376.87	101.3	.106	.826	.01652	.52	.0104	.413	.00826
378.99	101.3	.092	.857	.01714	.435	.0087	.511	.01022
380.55	101.3	.083	.893	.01786	.399	.00798	.57	.0114
384.65	101.3	.048	.944	.01888	.267	.00534	.72	.0144
384.04	101.3	.048	.921	.01842	.283	.00566	.677	.01354
383.2	101.3	.047	.891	.01782	.295	.0059	.636	.01272
382.13	101.3	.057	.848	.01696	.299	.00598	.605	.0121
381.41	101.3	.053	.806	.01612	.318	.00636	.555	.0111
381.95	101.3	.043	.783	.01566	.301	.00602	.553	.01106
382.2	101.3	.039	.752	.01504	.276	.00552	.557	.01114
382.91	101.3	.037	.715	.0143	.261	.00522	.555	.0111
382.49	101.3	.033	.674	.01348	.255	.0051	.544	.01088
379.96	101.3	.043	.623	.01246	.359	.00718	.445	.0089
378.12	101.3	.054	.573	.01146	.436	.00872	.373	.00746
376.45	101.3	.056	.526	.01052	.468	.00936	.339	.00678
375.26	101.3	.059	.487	.00974	.496	.00992	.312	.00624
374.66	101.3	.055	.446	.00892	.548	.01096	.272	.00544
373.8	101.3	.06	.406	.00812	.574	.01148	.248	.00496
372.87	101.3	.063	.362	.00724	.585	.0117	.235	.0047
371.08	101.3	.058	.331	.00662	.618	.01236	.205	.0041
368.21	101.3	.14	.52	.0104	.655	.0131	.202	.00404
369.19	101.3	.133	.549	.01098	.641	.01282	.217	.00434
371.55	101.3	.107	.601	.01202	.597	.01194	.26	.0052
373.58	101.3	.097	.666	.01332	.545	.0109	.314	.00628
376.41	101.3	.082	.716	.01432	.465	.0093	.395	.0079
377.94	101.3	.081	.75	.015	.448	.00896	.423	.00846

System: 1-butanol + p-xylene + water; phases: Liquid mixture 2, Liquid mixture 1, Gas
Property: Mole fraction of water (Liquid mixture 2); method: Chromatography
Property: Mole fraction of 1-butanol (Liquid mixture 2); method: Chromatography
Property: Mole fraction of water (Liquid mixture 1); method: Chromatography
Property: Mole fraction of 1-butanol (Liquid mixture 1); method: Chromatography
Property: Mole fraction of 1-butanol (Gas); method: Chromatography
Property: Mole fraction of water (Gas); method: Chromatography
Temperature, K	Pressure, kPa	Mole fraction of water	uncertainty	Mole fraction of 1-butanol	uncertainty	Mole fraction of water	uncertainty	Mole fraction of 1-butanol	uncertainty	Mole fraction of 1-butanol	uncertainty	Mole fraction of water	uncertainty
365.4	101.3	1	.02	0	0	.01	.0002	0	0	0	0	.759	.01518
364.82	101.3	.999	.01998	.001	.00002	.012	.00024	.016	.00032	.028	.00056	.721	.01442
364.46	101.3	.998	.01996	.002	.00004	.017	.00034	.033	.00066	.049	.00098	.721	.01442
364.21	101.3	.997	.01994	.003	.00006	.017	.00034	.044	.00088	.062	.00124	.712	.01424
363.83	101.3	.996	.01992	.004	.00008	.019	.00038	.066	.00132	.078	.00156	.707	.01414
363.17	101.3	.994	.01988	.006	.00012	.027	.00054	.121	.00242	.113	.00226	.686	.01372
362.93	101.3	.993	.01986	.007	.00014	.046	.00092	.16	.0032	.117	.00234	.687	.01374
362.75	101.3	.992	.01984	.008	.00016	.05	.001	.194	.00388	.123	.00246	.689	.01378
362.56	101.3	.991	.01982	.009	.00018	.088	.00176	.28	.0056	.137	.00274	.687	.01374
362.42	101.3	.989	.01978	.011	.00022	.127	.00254	.341	.00682	.143	.00286	.688	.01376
362.27	101.3	.988	.01976	.011	.00022	.177	.00354	.426	.00852	.153	.00306	.685	.0137
362.33	101.3	.988	.01976	.012	.00024	.208	.00416	.444	.00888	.157	.00314	.681	.01362
362.36	101.3	.988	.01976	.012	.00024	.211	.00422	.468	.00936	.159	.00318	.683	.01366
362.52	101.3	.988	.01976	.012	.00024	.239	.00478	.485	.0097	.164	.00328	.683	.01366
362.79	101.3	.986	.01972	.014	.00028	.319	.00638	.502	.01004	.172	.00344	.692	.01384
362.86	101.3	.986	.01972	.014	.00028	.342	.00684	.503	.01006	.178	.00356	.688	.01376
363.11	101.3	.985	.0197	.015	.0003	.392	.00784	.499	.00998	.179	.00358	.697	.01394
363.32	101.3	.985	.0197	.015	.0003	.418	.00836	.497	.00994	.187	.00374	.699	.01398
363.93	101.3	.984	.01968	.016	.00032	.476	.00952	.479	.00958	.203	.00406	.714	.01428
364.14	101.3	.983	.01966	.017	.00034	.501	.01002	.464	.00928	.204	.00408	.725	.0145
365.85	101.3	.979	.01958	.021	.00042	.638	.01276	.362	.00724	.246	.00492	.754	.01508

System: 1-butanol + water; phases: Liquid mixture 2, Liquid mixture 1
Property: Mole fraction of 1-butanol (Liquid mixture 2); method: Chromatography
Temperature, K	Pressure, kPa	Mole fraction of 1-butanol	uncertainty
313.15	101.3	.019	.00038
365.85	101.3	.021	.00042

System: 1-butanol + water; phases: Liquid mixture 1, Liquid mixture 2
Property: Mole fraction of 1-butanol (Liquid mixture 1); method: Chromatography
Temperature, K	Pressure, kPa	Mole fraction of 1-butanol	uncertainty
313.15	101.3	.484	.00968
365.85	101.3	.362	.00724

System: 1-butanol + water; phases: Liquid, Gas
Property: Boiling temperature at pressure P, K (Liquid); method: Ebulliometric method (Recirculating still)
Pressure, kPa	Mole fraction of 1-butanol	Boiling temperature at pressure P, K	uncertainty
101.3	.362	365.85	.06
101.3	.021	365.85	.06

System: 1-butanol + water; phases: Gas, Liquid
Property: Mole fraction of 1-butanol (Gas); method: Chromatography
Pressure, kPa	Mole fraction of 1-butanol	Mole fraction of 1-butanol	uncertainty
101.3	.362	.246	.00492
101.3	.021	.246	.00492

System: p-xylene + water; phases: Liquid mixture 1, Liquid mixture 2
Property: Mole fraction of water (Liquid mixture 1); method: Chromatography
Pressure, kPa	Temperature, K	Mole fraction of water	uncertainty
101.3	313.15	.003	.00006
101.3	365.4	.01	.0002

System: p-xylene + water; phases: Liquid, Gas
Property: Boiling temperature at pressure P, K (Liquid); method: Ebulliometric method (Recirculating still)
Pressure, kPa	Mole fraction of water	Boiling temperature at pressure P, K	uncertainty
101.3	.01	365.4	.06

System: p-xylene + water; phases: Gas, Liquid
Property: Mole fraction of water (Gas); method: Chromatography
Pressure, kPa	Mole fraction of water	Mole fraction of water	uncertainty
101.3	.01	.759	.01518
