Measured thermophysical data. Enthalpies of sublimation of ferrocene and nickelocene measured by calorimetry and the method of Langmuir
Source: J. Chem. Thermodyn., 2011, 10.1016/j.jct.2011.06.001
Compound 1: ferrocene, C10H10Fe, purity 98%
Compound 2: nickel, bis(.eta.5-2,4-cyclopentadien-1-yl)-, C10H10Ni, purity 98%

System: ferrocene; phases: Crystal, Liquid, Air at 1 atmosphere
Property: Normal melting temperature, K (Crystal); method: DSC/DTA
Normal melting temperature, K	uncertainty
448	.4

System: ferrocene; phases: Crystal, Liquid, Air at 1 atmosphere
Property: Molar enthalpy of transition or fusion, kJ/mol (Crystal); method: DSC/DTA
Molar enthalpy of transition or fusion, kJ/mol	uncertainty
17.8	.2

System: ferrocene; phases: Crystal, Gas
Property: Molar enthalpy of vaporization or sublimation, kJ/mol (Crystal); method: DSC/DTA
Temperature, K	Molar enthalpy of vaporization or sublimation, kJ/mol	uncertainty
333.15	72.2	1.2

System: ferrocene; phases: Crystal, Gas
Property: Molar enthalpy of vaporization or sublimation, kJ/mol (Crystal); method: Static calorimetry
Temperature, K	Molar enthalpy of vaporization or sublimation, kJ/mol	uncertainty
333.15	73.3	1.2

System: ferrocene; phases: Crystal
Fixed: Pressure, kPa = 101.325
Property: Molar heat capacity at constant pressure, J/K/mol (Crystal); method: Small sample (50 mg) DSC
Temperature, K	Molar heat capacity at constant pressure, J/K/mol	uncertainty
293	186.22	9.311
294	186.78	9.339
295	187.52	9.376
296	188.08	9.404
297	189.01	9.4505
298	189.75	9.4875
298.15	189.75	9.4875
299	190.5	9.525
300	191.24	9.562
301	191.8	9.59
302	192.36	9.618
303	193.1	9.655
304	193.84	9.692
305	194.4	9.72
306	195.15	9.7575
307	195.7	9.785
308	196.45	9.8225
309	197.19	9.8595
310	197.94	9.897
311	198.31	9.9155
312	199.24	9.962
313	199.8	9.99
314	200.54	10.027
315	201.29	10.0645
316	202.03	10.1015
317	202.77	10.1385
318	203.33	10.1665
319	204.08	10.204
320	204.45	10.2225
321	205.38	10.269
322	205.94	10.297
323	207.05	10.3525
324	207.61	10.3805
325	208.35	10.4175
326	209.1	10.455
327	209.66	10.483
328	210.22	10.511
329	210.77	10.5385
330	211.33	10.5665
331	212.26	10.613
332	213.01	10.6505
333	213.75	10.6875
334	214.49	10.7245
335	215.24	10.762
336	215.8	10.79
337	216.54	10.827
338	217.28	10.864
339	218.21	10.9105
340	218.77	10.9385
341	219.7	10.985
342	220.26	11.013
343	221.01	11.0505
344	221.56	11.078
345	222.49	11.1245
346	223.24	11.162
347	223.8	11.19
348	223.98	11.199
349	225.1	11.255
350	226.77	11.3385
351	226.59	11.3295
352	226.96	11.348
353	227.7	11.385

System: ferrocene; phases: Gas
Fixed: Pressure, kPa = 101.325
Property: Molar heat capacity at constant pressure, J/K/mol (Gas); method: Small sample (50 mg) DSC
Temperature, K	Molar heat capacity at constant pressure, J/K/mol	uncertainty
293	163.5	8.175
294	164.13	8.2065
295	164.76	8.238
296	165.39	8.2695
297	166.02	8.301
298	166.65	8.3325
299	167.27	8.3635
300	167.9	8.395
301	168.53	8.4265
302	169.15	8.4575
303	169.78	8.489
304	170.4	8.52
305	171.03	8.5515
306	171.65	8.5825
307	172.27	8.6135
308	172.9	8.645
309	173.52	8.676
310	174.14	8.707
311	174.76	8.738
312	175.38	8.769
313	176	8.8
314	176.61	8.8305
315	177.23	8.8615
316	177.85	8.8925
317	178.46	8.923
318	179.07	8.9535
319	179.69	8.9845
320	180.3	9.015
321	180.91	9.0455
322	181.52	9.076
323	182.13	9.1065
324	182.74	9.137
325	183.35	9.1675
326	183.96	9.198
327	184.56	9.228
328	185.17	9.2585
329	185.77	9.2885
330	186.37	9.3185
331	186.98	9.349
332	187.58	9.379
333	188.18	9.409
334	188.78	9.439
335	189.37	9.4685
336	189.97	9.4985
337	190.57	9.5285
338	191.16	9.558
339	191.76	9.588
340	192.35	9.6175
341	192.94	9.647
342	193.53	9.6765
343	194.12	9.706
344	194.71	9.7355
345	195.3	9.765
346	195.88	9.794
347	196.47	9.8235
348	197.05	9.8525
349	197.64	9.882
350	198.22	9.911
351	198.8	9.94
352	199.38	9.969
353	199.96	9.998

System: nickel, bis(.eta.5-2,4-cyclopentadien-1-yl)-; phases: Crystal, Liquid, Air at 1 atmosphere
Property: Normal melting temperature, K (Crystal); method: DSC/DTA
Normal melting temperature, K	uncertainty
450.8	.4

System: nickel, bis(.eta.5-2,4-cyclopentadien-1-yl)-; phases: Crystal, Liquid, Air at 1 atmosphere
Property: Molar enthalpy of transition or fusion, kJ/mol (Crystal); method: DSC/DTA
Molar enthalpy of transition or fusion, kJ/mol	uncertainty
19	.4

System: nickel, bis(.eta.5-2,4-cyclopentadien-1-yl)-; phases: Crystal, Gas
Property: Molar enthalpy of vaporization or sublimation, kJ/mol (Crystal); method: DSC/DTA
Temperature, K	Molar enthalpy of vaporization or sublimation, kJ/mol	uncertainty
333.15	71.4	1.3

System: nickel, bis(.eta.5-2,4-cyclopentadien-1-yl)-; phases: Crystal, Gas
Property: Molar enthalpy of vaporization or sublimation, kJ/mol (Crystal); method: Static calorimetry
Temperature, K	Molar enthalpy of vaporization or sublimation, kJ/mol	uncertainty
333.15	72	2.2

System: nickel, bis(.eta.5-2,4-cyclopentadien-1-yl)-; phases: Crystal
Fixed: Pressure, kPa = 101.325
Property: Molar heat capacity at constant pressure, J/K/mol (Crystal); method: Small sample (50 mg) DSC
Temperature, K	Molar heat capacity at constant pressure, J/K/mol	uncertainty
293	199.08	9.954
294	199.83	9.9915
295	200.59	10.0295
296	201.35	10.0675
297	202.1	10.105
298	203.05	10.1525
298.15	203.23	10.1615
299	203.8	10.19
300	204.37	10.2185
301	205.31	10.2655
302	206.07	10.3035
303	206.63	10.3315
304	207.2	10.36
305	208.15	10.4075
306	208.9	10.445
307	209.66	10.483
308	210.6	10.53
309	211.36	10.568
310	212.11	10.6055
311	212.68	10.634
312	213.43	10.6715
313	214	10.7
314	214.76	10.738
315	215.51	10.7755
316	216.08	10.804
317	216.83	10.8415
318	217.59	10.8795
319	218.35	10.9175
320	218.91	10.9455
321	219.67	10.9835
322	220.23	11.0115
323	221.37	11.0685
324	222.31	11.1155
325	223.07	11.1535
326	223.82	11.191
327	224.58	11.229
328	225.14	11.257
329	225.71	11.2855
330	226.09	11.3045
331	226.84	11.342
332	227.6	11.38
333	228.17	11.4085
334	228.92	11.446
335	229.49	11.4745
336	230.24	11.512
337	230.62	11.531
338	231.19	11.5595
339	231.76	11.588
340	232.51	11.6255
341	233.08	11.654
342	233.83	11.6915
343	234.21	11.7105
344	234.97	11.7485
345	235.53	11.7765
346	236.1	11.805
347	236.67	11.8335
348	237.23	11.8615
349	237.99	11.8995
350	238.56	11.928
351	238.93	11.9465
352	239.69	11.9845
353	240.07	12.0035

System: nickel, bis(.eta.5-2,4-cyclopentadien-1-yl)-; phases: Gas
Fixed: Pressure, kPa = 101.325
Property: Molar heat capacity at constant pressure, J/K/mol (Gas); method: Small sample (50 mg) DSC
Temperature, K	Molar heat capacity at constant pressure, J/K/mol	uncertainty
293	171.05	8.5525
294	171.62	8.581
295	172.19	8.6095
296	172.76	8.638
297	173.33	8.6665
298	173.9	8.695
299	174.47	8.7235
300	175.04	8.752
301	175.6	8.78
302	176.17	8.8085
303	176.74	8.837
304	177.31	8.8655
305	177.88	8.894
306	178.45	8.9225
307	179.02	8.951
308	179.58	8.979
309	180.15	9.0075
310	180.72	9.036
311	181.29	9.0645
312	181.85	9.0925
313	182.42	9.121
314	182.99	9.1495
315	183.55	9.1775
316	184.12	9.206
317	184.68	9.234
318	185.25	9.2625
319	185.81	9.2905
320	186.37	9.3185
321	186.94	9.347
322	187.5	9.375
323	188.06	9.403
324	188.62	9.431
325	189.19	9.4595
326	189.75	9.4875
327	190.31	9.5155
328	190.87	9.5435
329	191.43	9.5715
330	191.98	9.599
331	192.54	9.627
332	193.1	9.655
333	193.66	9.683
334	194.21	9.7105
335	194.77	9.7385
336	195.32	9.766
337	195.88	9.794
338	196.43	9.8215
339	196.98	9.849
340	197.54	9.877
341	198.09	9.9045
342	198.64	9.932
343	199.19	9.9595
344	199.74	9.987
345	200.29	10.0145
346	200.84	10.042
347	201.38	10.069
348	201.93	10.0965
349	202.48	10.124
350	203.02	10.151
351	203.56	10.178
352	204.11	10.2055
353	204.65	10.2325
