Measured thermophysical data. Structure-property relationships in ionic liquids: Influence of branched and cyclic groups on vaporization enthalpies of imidazolium-based ILs
Source: J. Chem. Thermodyn., 2016, 10.1016/j.jct.2015.09.033
Compound 1: 1-methyl-3-(1-methylethyl)imidazolium bis(trifluoromethylsulfonyl)imide, C9H13F6N3O4S2
Compound 2: 1-isobutyl-3-methylimidazolium bis[(trifluoromethyl)sulfonyl]amide, C10H15F6N3O4S2
Compound 3: 1-(cyclopropylmethyl)-3-methyl-1H-imidazolium bis((trifluoromethyl)sulfonyl)amide, C10H13F6N3O4S2
Compound 4: 1-methyl-3-(1-methylpropyl)imidazolium bis(trifluoromethylsulfonyl)imide, C10H15F6N3O4S2
Compound 5: 1-cyclopentyl-3-methylimidazolium bis(trifluoromethylsulfonyl)imide, C11H15F6N3O4S2
Compound 6: 1-(cyclohexylmethyl)-3-methylimidazolium bis[(trifluoromethane)sulfonyl]amide, C13H19F6N3O4S2

System: 1-methyl-3-(1-methylethyl)imidazolium bis(trifluoromethylsulfonyl)imide; phases: Liquid, Gas
Property: Molar enthalpy of vaporization or sublimation, kJ/mol (Liquid); method: Derived by Second law
Temperature, K	Molar enthalpy of vaporization or sublimation, kJ/mol	uncertainty
366.3	123.3	1

System: 1-isobutyl-3-methylimidazolium bis[(trifluoromethyl)sulfonyl]amide; phases: Liquid, Gas
Property: Molar enthalpy of vaporization or sublimation, kJ/mol (Liquid); method: Derived by Second law
Temperature, K	Molar enthalpy of vaporization or sublimation, kJ/mol	uncertainty
368.7	126	1

System: 1-(cyclopropylmethyl)-3-methyl-1H-imidazolium bis((trifluoromethyl)sulfonyl)amide; phases: Liquid, Gas
Property: Molar enthalpy of vaporization or sublimation, kJ/mol (Liquid); method: Derived by Second law
Temperature, K	Molar enthalpy of vaporization or sublimation, kJ/mol	uncertainty
373.5	126.5	1

System: 1-methyl-3-(1-methylpropyl)imidazolium bis(trifluoromethylsulfonyl)imide; phases: Liquid, Gas
Property: Molar enthalpy of vaporization or sublimation, kJ/mol (Liquid); method: Derived by Second law
Temperature, K	Molar enthalpy of vaporization or sublimation, kJ/mol	uncertainty
368.6	123	1

System: 1-cyclopentyl-3-methylimidazolium bis(trifluoromethylsulfonyl)imide; phases: Liquid, Gas
Property: Molar enthalpy of vaporization or sublimation, kJ/mol (Liquid); method: Derived by Second law
Temperature, K	Molar enthalpy of vaporization or sublimation, kJ/mol	uncertainty
373.7	127.4	1

System: 1-(cyclohexylmethyl)-3-methylimidazolium bis[(trifluoromethane)sulfonyl]amide; phases: Liquid, Gas
Property: Molar enthalpy of vaporization or sublimation, kJ/mol (Liquid); method: Derived by Second law
Temperature, K	Molar enthalpy of vaporization or sublimation, kJ/mol	uncertainty
383.6	134.1	1
