Measured thermophysical data. Vaporization enthalpy and the molar surface Gibbs free energy for ionic liquids [CnDmim][NTF2] (n = 2, 4)
Source: J. Chem. Thermodyn., 2016, 10.1016/j.jct.2016.03.043
Compound 1: 1-ethyl-2,3-dimethylimidazolium bis(trifluoromethylsulfonyl)imide, C9H13F6N3O4S2
Compound 2: 1-butyl-2,3-dimethyl-1H-imidazolium bis(trifluoromethylsulfonyl)amide, C11H17F6N3O4S2

System: 1-ethyl-2,3-dimethylimidazolium bis(trifluoromethylsulfonyl)imide; phases: Liquid, Gas
Property: Molar enthalpy of vaporization or sublimation, kJ/mol (Liquid); method: Derived by Second law
Temperature, K	Molar enthalpy of vaporization or sublimation, kJ/mol	uncertainty
595.65	126.7	

System: 1-butyl-2,3-dimethyl-1H-imidazolium bis(trifluoromethylsulfonyl)amide; phases: Liquid, Gas
Property: Molar enthalpy of vaporization or sublimation, kJ/mol (Liquid); method: Derived by Second law
Temperature, K	Molar enthalpy of vaporization or sublimation, kJ/mol	uncertainty
598.775	130.4	
