Measured thermophysical data. Calorimetric study of 20-methylacetophenone and 40-methylacetophenone
Source: J. Chem. Thermodyn., 2013, 10.1016/j.jct.2012.08.034
Compound 1: 2-methylacetophenone, C9H10O, purity 98%
Compound 2: 4-methylphenyl methyl ketone, C9H10O, purity 95%
Compound 3: carbon dioxide, CO2
Compound 4: water, H2O
Compound 5: oxygen, O2

System: 2-methylacetophenone; phases: Liquid, Gas
Property: Molar enthalpy of vaporization or sublimation, kJ/mol (Liquid); method: Static calorimetry
Temperature, K	Molar enthalpy of vaporization or sublimation, kJ/mol	uncertainty
298.15	58.9	.9

System: 4-methylphenyl methyl ketone; phases: Liquid, Gas
Property: Molar enthalpy of vaporization or sublimation, kJ/mol (Liquid); method: Static calorimetry
Temperature, K	Molar enthalpy of vaporization or sublimation, kJ/mol	uncertainty
298.15	60.7	1

Reaction: -1 2-methylacetophenone + 9 carbon dioxide + 5 water + -11 oxygen
Property: Specific internal energy of reaction at constant volume, J/g
-35707.6

Reaction: -1 4-methylphenyl methyl ketone + 9 carbon dioxide + 5 water + -11 oxygen
Property: Specific internal energy of reaction at constant volume, J/g
-35642.3
