Measured thermophysical data. solITC: A rapid method to determine solubility products and heats of solution of hydrophobic ionic liquids from in situ synthesis in isothermal titration calorimeter
Source: J. Chem. Thermodyn., 2014, 10.1016/j.jct.2014.02.015
Compound 1: tributylmethylammonium bis[(trifluoromethyl)sulfonyl]imide, C15H30F6N2O4S2, purity 97%
Compound 2: tributylmethylammonium tris(pentafluoroethyl)trifluorophosphate, C19H30F18NP, purity 97%
Compound 3: 1-butyl-3-methylimidazolium tris(pentafluoroethyl)trifluorophosphate, C14H15F18N2P, purity 97%
Compound 4: 1-butyl-3-methylimidazolium bis(bis(perfluoroethyl)phosphoryl)imide, C16H15F20N3O2P2, purity 97%
Compound 5: 1-butyl-3-methylimidazolium tridecafluoro-1-hexanesulfonate, C14H15F13N2O3S, purity 97%
Compound 6: 1-butyl-3-methylimidazolium bis[(trifluoromethyl)sulfonyl]imide, C10H15F6N3O4S2, purity 97%
Compound 7: guanidinium bis(bis(perfluoroethyl)phosphoryl)imide, C9H6F20N4O2P2, purity 97%
Compound 8: guanidinium tetraphenylborate, C25H26BN3, purity 97%
Compound 9: guanidinium dodecyl sulfate, C13H31N3O4S, purity 97%
Compound 10: tributylmethylammonium tridecafluoro-1-hexanesulfonate, C19H30F13NO3S, purity 97%
Compound 11: 1-butyl-3-methylimidazolium tetraphenylborate, C32H35BN2, purity 97%
Compound 12: tributylmethylammonium bis(bis(perfluoroethyl)phosphoryl)imide, C21H30F20N2O2P2, purity 97%
Compound 13: tributylmethylammonium tetraphenylborate, C37H50BN, purity 97%
Compound 14: silver chloride, AgCl, purity 97%
Compound 15: potassium tetraphenylborate, C24H20BK, purity 97%
Compound 16: water, H2O

System: water + tributylmethylammonium bis[(trifluoromethyl)sulfonyl]imide; phases: Liquid, Liquid
Fixed: Pressure, kPa = 101
Property: Amount concentration (molarity), mol/dm3 of tributylmethylammonium bis[(trifluoromethyl)sulfonyl]imide (Liquid); method: derived from isothermal titration calorimetry data
Temperature, K	Amount concentration (molarity), mol/dm3 of tributylmethylammonium bis[(trifluoromethyl)sulfonyl]imide	uncertainty
298.15	.0015	.0003

System: water + tributylmethylammonium bis[(trifluoromethyl)sulfonyl]imide; phases: Liquid
Fixed: Pressure, kPa = 101
Fixed: Temperature, K = 298.15
Property: Molar enthalpy of solution, kJ/mol (Liquid); method: Titration calorimetry
Amount concentration (molarity), mol/dm3 of tributylmethylammonium bis[(trifluoromethyl)sulfonyl]imide	Molar enthalpy of solution, kJ/mol	uncertainty
.0015	3.9	.1

System: water + tributylmethylammonium tris(pentafluoroethyl)trifluorophosphate; phases: Liquid
Fixed: Pressure, kPa = 101
Fixed: Temperature, K = 298.15
Property: Molar enthalpy of solution, kJ/mol (Liquid); method: Titration calorimetry
Mole fraction of tributylmethylammonium tris(pentafluoroethyl)trifluorophosphate	Molar enthalpy of solution, kJ/mol	uncertainty
0	21.4	.1

System: water + 1-butyl-3-methylimidazolium tris(pentafluoroethyl)trifluorophosphate; phases: Liquid, Liquid
Fixed: Pressure, kPa = 101
Property: Amount concentration (molarity), mol/dm3 of 1-butyl-3-methylimidazolium tris(pentafluoroethyl)trifluorophosphate (Liquid); method: derived from isothermal titration calorimetry data
Temperature, K	Amount concentration (molarity), mol/dm3 of 1-butyl-3-methylimidazolium tris(pentafluoroethyl)trifluorophosphate	uncertainty
298.15	.00022	.00004

System: water + 1-butyl-3-methylimidazolium tris(pentafluoroethyl)trifluorophosphate; phases: Liquid
Fixed: Pressure, kPa = 101
Fixed: Temperature, K = 298.15
Property: Molar enthalpy of solution, kJ/mol (Liquid); method: Titration calorimetry
Amount concentration (molarity), mol/dm3 of 1-butyl-3-methylimidazolium tris(pentafluoroethyl)trifluorophosphate	Molar enthalpy of solution, kJ/mol	uncertainty
.00022	25.7	.7

System: water + 1-butyl-3-methylimidazolium bis(bis(perfluoroethyl)phosphoryl)imide; phases: Liquid, Liquid
Fixed: Pressure, kPa = 101
Property: Amount concentration (molarity), mol/dm3 of 1-butyl-3-methylimidazolium bis(bis(perfluoroethyl)phosphoryl)imide (Liquid); method: derived from isothermal titration calorimetry data
Temperature, K	Amount concentration (molarity), mol/dm3 of 1-butyl-3-methylimidazolium bis(bis(perfluoroethyl)phosphoryl)imide	uncertainty
298.15	.00064	.00014

System: water + 1-butyl-3-methylimidazolium bis(bis(perfluoroethyl)phosphoryl)imide; phases: Liquid
Fixed: Pressure, kPa = 101
Fixed: Temperature, K = 298.15
Property: Molar enthalpy of solution, kJ/mol (Liquid); method: Titration calorimetry
Amount concentration (molarity), mol/dm3 of 1-butyl-3-methylimidazolium bis(bis(perfluoroethyl)phosphoryl)imide	Molar enthalpy of solution, kJ/mol	uncertainty
.00064	-8.1	.1

System: 1-butyl-3-methylimidazolium tridecafluoro-1-hexanesulfonate + water; phases: Liquid, Liquid
Fixed: Pressure, kPa = 101
Property: Amount concentration (molarity), mol/dm3 of 1-butyl-3-methylimidazolium tridecafluoro-1-hexanesulfonate (Liquid); method: derived from isothermal titration calorimetry data
Temperature, K	Amount concentration (molarity), mol/dm3 of 1-butyl-3-methylimidazolium tridecafluoro-1-hexanesulfonate	uncertainty
298.15	.0055	.0014

System: 1-butyl-3-methylimidazolium tridecafluoro-1-hexanesulfonate + water; phases: Liquid
Fixed: Pressure, kPa = 101
Fixed: Temperature, K = 298.15
Property: Molar enthalpy of solution, kJ/mol (Liquid); method: Titration calorimetry
Amount concentration (molarity), mol/dm3 of 1-butyl-3-methylimidazolium tridecafluoro-1-hexanesulfonate	Molar enthalpy of solution, kJ/mol	uncertainty
.0055	5.7	.1

System: water + 1-butyl-3-methylimidazolium bis[(trifluoromethyl)sulfonyl]imide; phases: Liquid mixture 1, Liquid mixture 2
Fixed: Pressure, kPa = 101
Property: Amount concentration (molarity), mol/dm3 of 1-butyl-3-methylimidazolium bis[(trifluoromethyl)sulfonyl]imide (Liquid mixture 1); method: Derived from isothermal titration calorimetry
Temperature, K	Amount concentration (molarity), mol/dm3 of 1-butyl-3-methylimidazolium bis[(trifluoromethyl)sulfonyl]imide	uncertainty
298.15	.014	.003

System: water + 1-butyl-3-methylimidazolium bis[(trifluoromethyl)sulfonyl]imide; phases: Liquid
Fixed: Pressure, kPa = 101
Fixed: Temperature, K = 298.15
Property: Molar enthalpy of solution, kJ/mol (Liquid); method: Titration calorimetry
Amount concentration (molarity), mol/dm3 of 1-butyl-3-methylimidazolium bis[(trifluoromethyl)sulfonyl]imide	Molar enthalpy of solution, kJ/mol	uncertainty
.014	11.8	.2

System: water + guanidinium bis(bis(perfluoroethyl)phosphoryl)imide; phases: Liquid, Crystal
Fixed: Pressure, kPa = 101
Property: Amount concentration (molarity), mol/dm3 of guanidinium bis(bis(perfluoroethyl)phosphoryl)imide (Liquid); method: derived from isothermal titration calorimetry data
Temperature, K	Amount concentration (molarity), mol/dm3 of guanidinium bis(bis(perfluoroethyl)phosphoryl)imide	uncertainty
298.15	.011	.003

System: water + guanidinium bis(bis(perfluoroethyl)phosphoryl)imide; phases: Liquid
Fixed: Pressure, kPa = 101
Fixed: Temperature, K = 298.15
Property: Molar enthalpy of solution, kJ/mol (Liquid); method: Titration calorimetry
Amount concentration (molarity), mol/dm3 of guanidinium bis(bis(perfluoroethyl)phosphoryl)imide	Molar enthalpy of solution, kJ/mol	uncertainty
.011	-3.9	.2

System: water + guanidinium tetraphenylborate; phases: Liquid, Crystal of intercomponent compound 1
Fixed: Pressure, kPa = 101
Property: Amount concentration (molarity), mol/dm3 of guanidinium tetraphenylborate (Liquid); method: derived from isothermal titration calorimetry data
Temperature, K	Amount concentration (molarity), mol/dm3 of guanidinium tetraphenylborate	uncertainty
298.15	.0081	.0026

System: water + guanidinium tetraphenylborate; phases: Liquid
Fixed: Pressure, kPa = 101
Fixed: Temperature, K = 298.15
Property: Molar enthalpy of solution, kJ/mol (Liquid); method: Titration calorimetry
Amount concentration (molarity), mol/dm3 of guanidinium tetraphenylborate	Molar enthalpy of solution, kJ/mol	uncertainty
.0081	16.1	.2

System: water + guanidinium dodecyl sulfate; phases: Liquid, Crystal
Fixed: Pressure, kPa = 101
Property: Amount concentration (molarity), mol/dm3 of guanidinium dodecyl sulfate (Liquid); method: derived from isothermal titration calorimetry data
Temperature, K	Amount concentration (molarity), mol/dm3 of guanidinium dodecyl sulfate	uncertainty
298.15	.0036	.001

System: water + guanidinium dodecyl sulfate; phases: Liquid
Fixed: Pressure, kPa = 101
Fixed: Temperature, K = 298.15
Property: Molar enthalpy of solution, kJ/mol (Liquid); method: Titration calorimetry
Amount concentration (molarity), mol/dm3 of guanidinium dodecyl sulfate	Molar enthalpy of solution, kJ/mol	uncertainty
.0036	56.8	.2

System: tributylmethylammonium tridecafluoro-1-hexanesulfonate + water; phases: Liquid, Crystal
Fixed: Pressure, kPa = 101
Property: Amount concentration (molarity), mol/dm3 of tributylmethylammonium tridecafluoro-1-hexanesulfonate (Liquid); method: derived from isothermal titration calorimetry data
Temperature, K	Amount concentration (molarity), mol/dm3 of tributylmethylammonium tridecafluoro-1-hexanesulfonate	uncertainty
298.15	.0011	.0003

System: tributylmethylammonium tridecafluoro-1-hexanesulfonate + water; phases: Liquid
Fixed: Pressure, kPa = 101
Fixed: Temperature, K = 298.15
Property: Molar enthalpy of solution, kJ/mol (Liquid); method: Titration calorimetry
Amount concentration (molarity), mol/dm3 of tributylmethylammonium tridecafluoro-1-hexanesulfonate	Molar enthalpy of solution, kJ/mol	uncertainty
.0011	2.8	.2

System: water + 1-butyl-3-methylimidazolium tetraphenylborate; phases: Liquid
Fixed: Pressure, kPa = 101
Fixed: Temperature, K = 298.15
Property: Molar enthalpy of solution, kJ/mol (Liquid); method: Titration calorimetry
Mole fraction of 1-butyl-3-methylimidazolium tetraphenylborate	Molar enthalpy of solution, kJ/mol	uncertainty
0	32.6	.5

System: tributylmethylammonium bis(bis(perfluoroethyl)phosphoryl)imide + water; phases: Liquid
Fixed: Pressure, kPa = 101
Fixed: Temperature, K = 298.15
Property: Molar enthalpy of solution, kJ/mol (Liquid); method: Titration calorimetry
Mole fraction of tributylmethylammonium bis(bis(perfluoroethyl)phosphoryl)imide	Molar enthalpy of solution, kJ/mol	uncertainty
0	-17.6	.3

System: water + tributylmethylammonium tetraphenylborate; phases: Liquid
Fixed: Pressure, kPa = 101
Fixed: Temperature, K = 298.15
Property: Molar enthalpy of solution, kJ/mol (Liquid); method: Titration calorimetry
Mole fraction of tributylmethylammonium tetraphenylborate	Molar enthalpy of solution, kJ/mol	uncertainty
0	20.8	.8

System: water + silver chloride; phases: Liquid
Fixed: Pressure, kPa = 101
Fixed: Temperature, K = 298.15
Property: Molar enthalpy of solution, kJ/mol (Liquid); method: Titration calorimetry
Mole fraction of silver chloride	Molar enthalpy of solution, kJ/mol	uncertainty
0	65.6	.1

System: potassium tetraphenylborate + water; phases: Liquid, Crystal
Fixed: Pressure, kPa = 101
Property: Amount concentration (molarity), mol/dm3 of potassium tetraphenylborate (Liquid); method: Derived from isothermal titration calorimetry data
Temperature, K	Amount concentration (molarity), mol/dm3 of potassium tetraphenylborate	uncertainty
298.15	.00041	.00017

System: potassium tetraphenylborate + water; phases: Liquid
Fixed: Pressure, kPa = 101
Fixed: Temperature, K = 298.15
Property: Molar enthalpy of solution, kJ/mol (Liquid); method: Titration calorimetry
Amount concentration (molarity), mol/dm3 of potassium tetraphenylborate	Molar enthalpy of solution, kJ/mol	uncertainty
.00041	42.2	.5
.00041	43	.4
.00041	39.3	.4
