Measured thermophysical data. The liquid-liquid coexistence curves of {x dimethyl adipate + (1 - x) n-octane} and {x dimethyl adipate + (1 - x) n-nonane} in the critical region
Source: J. Chem. Thermodyn., 2012, 10.1016/j.jct.2012.02.038
Compound 1: dimethyl 1,6-hexanedioate, C8H14O4, purity 99%
Compound 2: n-octane, C8H18, purity 99%
Compound 3: nonane, C9H20, purity 99%

System: dimethyl 1,6-hexanedioate; phases: Liquid
Fixed: Wavelength, nm = 632.8
Property: Refractive index (other wavelength) (Liquid); method: Minimum deviation technique
Pressure, kPa	Temperature, K	Refractive index (other wavelength)	uncertainty
101.325	293.149	1.4275	
101.325	294.143	1.4271	
101.325	299.4	1.4249	
101.325	300.181	1.4246	
101.325	295.19	1.4267	
101.325	296.247	1.4263	
101.325	300.995	1.4243	
101.325	301.842	1.4239	
101.325	298.352	1.4254	
101.325	299.399	1.425	
101.325	302.583	1.4236	
101.325	303.192	1.4234	
101.325	303.878	1.4231	

System: n-octane; phases: Liquid
Fixed: Wavelength, nm = 632.8
Property: Refractive index (other wavelength) (Liquid); method: Minimum deviation technique
Pressure, kPa	Temperature, K	Refractive index (other wavelength)	uncertainty
101.325	293.228	1.3964	
101.325	294.228	1.3959	
101.325	295.29	1.3954	
101.325	296.267	1.3949	
101.325	297.411	1.3944	
101.325	298.477	1.3939	
101.325	299.503	1.3934	

System: nonane; phases: Liquid
Fixed: Wavelength, nm = 632.8
Property: Refractive index (other wavelength) (Liquid); method: Minimum deviation technique
Pressure, kPa	Temperature, K	Refractive index (other wavelength)	uncertainty
101.325	299.255	1.4015	
101.325	300.072	1.4011	
101.325	300.851	1.4007	
101.325	301.853	1.4003	
101.325	302.575	1.3999	
101.325	303.3	1.3995	
101.325	303.832	1.3993	

System: n-octane + dimethyl 1,6-hexanedioate; phases: Liquid mixture 1, Liquid mixture 2
Fixed: Pressure, kPa = 101
Property: Mole fraction of dimethyl 1,6-hexanedioate (Liquid mixture 1); method: Index of refraction calibration data
Temperature, K	Mole fraction of dimethyl 1,6-hexanedioate	uncertainty
299.597	.393	.001
299.593	.39	.001
299.59	.39	.001
299.585	.387	.001
299.578	.38	.001
299.569	.377	.001
299.558	.371	.001
299.537	.367	.001
299.518	.361	.001
299.499	.361	.001
299.481	.357	.001
299.461	.351	.001
299.431	.347	.001
299.405	.344	.001
299.364	.34	.001
299.323	.336	.001
299.27	.329	.001
299.173	.322	.001
299.018	.31	.001
298.843	.301	.001
298.697	.28	.001
298.187	.275	.001
297.778	.262	.001
297.166	.247	.001
296.547	.234	.001
295.759	.218	.001
294.686	.201	.001
293.697	.189	.001
292.707	.18	.001
291.459	.166	.001
290.325	.155	.001

System: n-octane + dimethyl 1,6-hexanedioate; phases: Liquid mixture 1, Liquid mixture 2
Fixed: Temperature, K = 299.79
Property: Refractive index (other wavelength) (Liquid mixture 1); method: Minimum deviation technique
Mole fraction of dimethyl 1,6-hexanedioate	Refractive index (other wavelength)	uncertainty
.099	1.3955	
.2	1.3985	
.302	1.4014	
.4	1.4047	
.5	1.408	
.602	1.4113	
.701	1.4146	
.8	1.418	
.899	1.4214	

System: nonane + dimethyl 1,6-hexanedioate; phases: Liquid mixture 1, Liquid mixture 2
Fixed: Pressure, kPa = 101
Property: Mole fraction of dimethyl 1,6-hexanedioate (Liquid mixture 1); method: Index of refraction calibration data
Temperature, K	Mole fraction of dimethyl 1,6-hexanedioate	uncertainty
305.026	.445	.001
305.024	.437	.001
305.021	.433	.001
305.018	.428	.001
305.014	.424	.001
305.009	.42	.001
305.007	.42	.001
304.996	.416	.001
304.985	.411	.001
304.968	.403	.001
304.949	.398	.001
304.926	.394	.001
304.905	.389	.001
304.888	.389	.001
304.858	.384	.001
304.825	.379	.001
304.785	.374	.001
304.726	.364	.001
304.662	.359	.001
304.581	.353	.001
304.442	.341	.001
304.275	.334	.001
304.114	.326	.001
303.906	.317	.001
303.569	.302	.001
303.176	.289	.001
302.567	.276	.001
302.04	.264	.001
301.227	.246	.001
300.196	.233	.001
299.256	.216	.001
297.986	.195	.001
296.791	.187	.001
295.815	.178	.001

System: nonane + dimethyl 1,6-hexanedioate; phases: Liquid mixture 1, Liquid mixture 2
Fixed: Temperature, K = 305.07
Property: Refractive index (other wavelength) (Liquid mixture 1); method: Minimum deviation technique
Mole fraction of dimethyl 1,6-hexanedioate	Refractive index (other wavelength)	uncertainty
.101	1.4	
.2	1.4017	
.295	1.404	
.39	1.406	
.492	1.4085	
.594	1.411	
.713	1.4143	
.79	1.4163	
.902	1.4197	
