Measured thermophysical data. Aromaticity and stability going in opposite directions: An energetic, structural, magnetic and electronic study of aminopyrimidines
Source: J. Chem. Thermodyn., 2012, 10.1016/j.jct.2012.05.015
Compound 1: 2,4-diaminopyrimidine, C4H6N4, purity 98%
Compound 2: 2,4,6-pyrimidinetriamine, C4H7N5, purity 98%
Compound 3: carbon dioxide, CO2
Compound 4: nitrogen, diatomic, N2
Compound 5: water, H2O
Compound 6: oxygen, O2

System: 2,4-diaminopyrimidine; phases: Crystal, Gas
Property: Molar enthalpy of vaporization or sublimation, kJ/mol (Crystal); method: Derived by Second law
Temperature, K	Molar enthalpy of vaporization or sublimation, kJ/mol	uncertainty
298.15	106.3	.8

System: 2,4-diaminopyrimidine; phases: Liquid, Gas
Property: Vapor or sublimation pressure, kPa (Liquid); method: Knudsen effusion method
Temperature, K	Vapor or sublimation pressure, kPa	uncertainty
335.122	.0000778	
338.178	.000109	
341.169	.00015	
344.115	.000212	
347.174	.000291	
350.169	.000391	
353.118	.000554	
356.175	.00074	
359.161	.000989	
335.122	.0000775	
338.178	.00011	
341.169	.000145	
344.115	.000208	
347.174	.000283	
350.169	.000378	
353.118	.000535	
356.175	.000736	
359.161	.000945	
335.122	.0000772	
338.178	.000105	
341.169	.000141	
344.115	.000202	
347.174	.000274	
353.118	.000532	
356.175	.000697	
359.161	.000904	

System: 2,4,6-pyrimidinetriamine; phases: Crystal, Gas
Property: Molar enthalpy of vaporization or sublimation, kJ/mol (Crystal); method: Derived by Second law
Temperature, K	Molar enthalpy of vaporization or sublimation, kJ/mol	uncertainty
298.15	125.4	1.8

System: 2,4,6-pyrimidinetriamine; phases: Liquid, Gas
Property: Vapor or sublimation pressure, kPa (Liquid); method: Knudsen effusion method
Temperature, K	Vapor or sublimation pressure, kPa	uncertainty
391.145	.0000742	
393.149	.0000948	
395.146	.00011	
397.133	.000141	
399.131	.000167	
401.148	.0002	
403.148	.000247	
405.154	.000292	
407.154	.000345	
409.123	.000393	
411.125	.000484	
413.149	.000593	
391.145	.0000731	
393.149	.0000889	
395.146	.000107	
397.133	.000131	
399.131	.000166	
401.148	.000188	
403.148	.000237	
405.154	.000287	
407.154	.000316	
409.123	.000407	
411.125	.000487	
413.149	.00054	
391.145	.0000714	
393.149	.0000851	
395.146	.0001	
397.133	.000124	
399.131	.000148	
401.148	.000186	
403.148	.000215	
405.154	.000258	
407.154	.000319	
409.123	.000375	
411.125	.000439	
413.149	.000536	

Reaction: -1 2,4-diaminopyrimidine + 4 carbon dioxide + 2 nitrogen, diatomic + 3 water + -5.5 oxygen
Property: Specific internal energy of reaction at constant volume, J/g
-22111.8

Reaction: -1 2,4,6-pyrimidinetriamine + 4 carbon dioxide + 2.5 nitrogen, diatomic + 3.5 water + -5.75 oxygen
Property: Specific internal energy of reaction at constant volume, J/g
-20172.3
