Measured thermophysical data. Thermodynamic study of selected monoterpenes III
Source: J. Chem. Thermodyn., 2014, 10.1016/j.jct.2014.04.022
Compound 1: (-)-trans-pinane, C10H18, purity 99.5%
Compound 2: bicyclo[4.1.0]hept-3-ene, 3,7,7-trimethyl-, (1S,6R)-, C10H16, purity 98.9%
Compound 3: eucalyptol, C10H18O, purity 99.5%
Compound 4: (+)-limonene, C10H16, purity 99.5%
Compound 5: (-)-limonene, C10H16, purity 99.5%

System: (-)-trans-pinane; phases: Liquid, Gas
Property: Vapor or sublimation pressure, kPa (Liquid); method: Closed cell (Static) method
Temperature, K	Vapor or sublimation pressure, kPa	uncertainty
238.15	.002871	.000014355
238.15	.002872	.00001436
238.15	.002872	.00001436
243.15	.004792	.00002396
243.15	.004792	.00002396
243.15	.004794	.00002397
248.15	.007832	.00003916
248.15	.007836	.00003918
248.15	.007837	.000039185
253.15	.0125	.0000625
253.15	.0125	.0000625
253.15	.0125	.0000625
258.15	.01954	.0000977
258.15	.01954	.0000977
258.15	.01954	.0000977
263.15	.02999	.00014995
263.15	.03	.00015
263.15	.03	.00015
268.15	.04518	.0002259
268.15	.0452	.000226
268.15	.0452	.000226
273.15	.06684	.0003342
273.15	.06685	.00033425
273.15	.06686	.0003343
273.65	.06947	.00034735
273.65	.06947	.00034735
273.65	.06947	.00034735
278.15	.09731	.00048655
278.15	.09732	.0004866
278.15	.09732	.0004866
283.15	.13943	.00069715
283.15	.13943	.00069715
283.15	.13944	.0006972
288.15	.19681	.00098405
288.15	.19683	.00098415
288.15	.19683	.00098415
293.15	.27406	.0013703
293.15	.27407	.00137035
293.15	.2741	.0013705
298.15	.37664	.0018832
298.15	.37665	.00188325
298.15	.37666	.0018833
303.15	.51137	.00255685
303.15	.51139	.00255695
303.15	.51142	.0025571
308.15	.68623	.00343115
308.15	.68627	.00343135
308.15	.68634	.0034317

System: (-)-trans-pinane; phases: Liquid
Fixed: Pressure, kPa = 101.325
Property: Molar heat capacity at constant pressure, J/K/mol (Liquid); method: Large sample (1 g) scanning calorimetry
Temperature, K	Molar heat capacity at constant pressure, J/K/mol	uncertainty
258.1	227.56682494	2.2756682494
263.2	230.3105974	2.303105974
268.3	233.38694834	2.3338694834
273.4	236.29701004	2.3629701004
278.5	239.29021636	2.3929021636
283.6	242.28342268	2.4228342268
288.7	245.276629	2.45276629
293.8	248.26983532	2.4826983532
298.9	251.26304164	2.5126304164
304	254.25624796	2.5425624796
309.1	257.41574352	2.5741574352

System: bicyclo[4.1.0]hept-3-ene, 3,7,7-trimethyl-, (1S,6R)-; phases: Liquid, Gas
Property: Vapor or sublimation pressure, kPa (Liquid); method: Closed cell (Static) method
Temperature, K	Vapor or sublimation pressure, kPa	uncertainty
238.2	.00159	.00000795
238.2	.001592	.00000796
238.2	.001594	.00000797
243.2	.002721	.000013605
243.2	.002721	.000013605
243.2	.002723	.000013615
248.15	.004526	.00002263
248.15	.004526	.00002263
248.15	.004529	.000022645
253.15	.007377	.000036885
253.15	.007382	.00003691
253.15	.007383	.000036915
258.15	.01179	.00005895
258.15	.01179	.00005895
258.15	.0118	.000059
263.15	.01845	.00009225
263.15	.01846	.0000923
263.15	.01846	.0000923
268.15	.02832	.0001416
268.15	.02833	.00014165
268.15	.02833	.00014165
273.15	.04266	.0002133
273.15	.04266	.0002133
273.15	.04267	.00021335
273.65	.0444	.000222
273.65	.04442	.0002221
273.65	.04443	.00022215
278.15	.06318	.0003159
278.15	.06319	.00031595
278.15	.06319	.00031595
283.15	.09204	.0004602
283.15	.09204	.0004602
283.15	.09205	.00046025
288.15	.13206	.0006603
288.15	.13209	.00066045
288.15	.13211	.00066055
293.15	.18677	.00093385
293.15	.18678	.0009339
293.15	.18678	.0009339
298.15	.26044	.0013022
298.15	.26045	.00130225
298.15	.26047	.00130235
303.15	.35847	.00179235
303.15	.35847	.00179235
303.15	.3585	.0017925
308.15	.4873	.0024365
308.15	.4873	.0024365
308.15	.48734	.0024367

System: bicyclo[4.1.0]hept-3-ene, 3,7,7-trimethyl-, (1S,6R)-; phases: Liquid
Fixed: Pressure, kPa = 101.325
Property: Molar heat capacity at constant pressure, J/K/mol (Liquid); method: Large sample (1 g) scanning calorimetry
Temperature, K	Molar heat capacity at constant pressure, J/K/mol	uncertainty
260.1	236.87902238	2.3687902238
265	239.20707174	2.3920707174
270	241.61826572	2.4161826572
275	244.11260432	2.4411260432
280	246.27436444	2.4627436444
285	248.35297994	2.4835297994
290	250.59788468	2.5059788468
295	252.59335556	2.5259335556
300	254.8382603	2.548382603
305	257.24945428	2.5724945428
310	259.57750364	2.5957750364

System: bicyclo[4.1.0]hept-3-ene, 3,7,7-trimethyl-, (1S,6R)-; phases: Liquid, Gas
Property: Vapor or sublimation pressure, kPa (Liquid); method: Closed cell (Static) method
Temperature, K	Vapor or sublimation pressure, kPa	uncertainty
273.15	.04241	.00021205
273.15	.04243	.00021215
273.15	.04244	.0002122
278.15	.06282	.0003141
278.15	.06282	.0003141
278.15	.06283	.00031415
283.15	.09152	.0004576
283.15	.09153	.00045765
283.15	.09154	.0004577
288.15	.13125	.00065625
288.15	.13126	.0006563
288.15	.13128	.0006564
293.15	.18549	.00092745
293.15	.18549	.00092745
293.15	.1855	.0009275
298.15	.25841	.00129205
298.15	.25846	.0012923
298.15	.25848	.0012924
303.15	.35526	.0017763
303.15	.35527	.00177635
303.15	.35534	.0017767
308.15	.48246	.0024123
308.15	.48254	.0024127
308.15	.48254	.0024127

System: bicyclo[4.1.0]hept-3-ene, 3,7,7-trimethyl-, (1S,6R)-; phases: Liquid
Fixed: Pressure, kPa = 101.325
Property: Molar heat capacity at constant pressure, J/K/mol (Liquid); method: Large sample (1 g) scanning calorimetry
Temperature, K	Molar heat capacity at constant pressure, J/K/mol	uncertainty
258.1	235.63185308	2.3563185308
263.2	237.7936132	2.377936132
268.3	240.20480718	2.4020480718
273.4	242.44971192	2.4244971192
278.5	244.8609059	2.448609059
283.6	247.18895526	2.4718895526
288.7	249.60014924	2.4960014924
293.8	251.9281986	2.519281986
298.9	254.25624796	2.5425624796
304	256.58429732	2.5658429732
309.1	258.9954913	2.589954913
314.2	261.40668528	2.6140668528
319.4	263.73473464	2.6373473464
324.5	266.31221786	2.6631221786
329.6	268.88970108	2.6888970108
334.7	271.4671843	2.714671843
339.8	274.04466752	2.7404466752
344.9	276.62215074	2.7662215074
350	279.28277858	2.7928277858
355.1	281.77711718	2.8177711718

System: eucalyptol; phases: Crystal, Liquid, Air at 1 atmosphere
Property: Normal melting temperature, K (Crystal); method: DSC/DTA
Normal melting temperature, K	uncertainty
274.1	.3

System: eucalyptol; phases: Crystal, Liquid, Air at 1 atmosphere
Property: Molar enthalpy of transition or fusion, kJ/mol (Crystal); method: DSC
Molar enthalpy of transition or fusion, kJ/mol	uncertainty
13.8	.3

System: eucalyptol; phases: Crystal, Gas
Property: Vapor or sublimation pressure, kPa (Crystal); method: Closed cell (Static) method
Temperature, K	Vapor or sublimation pressure, kPa	uncertainty
238.2	.00051	.00000255
238.2	.00051	.00000255
238.2	.000512	.00000256
243.2	.001022	.00000511
243.2	.001023	.000005115
243.2	.001023	.000005115
248.15	.00197	.00000985
248.15	.001971	.000009855
248.15	.001972	.00000986
253.15	.003703	.000018515
253.15	.003705	.000018525
253.15	.003709	.000018545
258.15	.006771	.000033855
258.15	.006776	.00003388
258.15	.006782	.00003391
263.15	.01211	.00006055
263.15	.01211	.00006055
263.15	.01211	.00006055
268.15	.02109	.00010545
268.15	.02109	.00010545
268.15	.0211	.0001055
273.15	.03596	.0001798
273.15	.03597	.00017985
273.15	.03597	.00017985

System: eucalyptol; phases: Liquid, Gas
Property: Vapor or sublimation pressure, kPa (Liquid); method: Closed cell (Static) method
Temperature, K	Vapor or sublimation pressure, kPa	uncertainty
253.15	.006217	.000031085
253.15	.006221	.000031105
253.15	.006222	.00003111
258.15	.01	.00005
258.15	.01001	.00005005
263.15	.01574	.0000787
263.15	.01575	.00007875
263.15	.01576	.0000788
268.15	.02428	.0001214
268.15	.02428	.0001214
268.15	.0243	.0001215
268.15	.0243	.0001215
268.15	.02431	.00012155
268.15	.02433	.00012165
273.65	.03833	.00019165
273.65	.03835	.00019175
273.65	.03836	.0001918
278.15	.05478	.0002739
278.15	.05478	.0002739
278.15	.0548	.000274
283.15	.0801	.0004005
283.15	.0801	.0004005
283.15	.08012	.0004006
288.15	.11512	.0005756
288.15	.11517	.00057585
288.15	.11517	.00057585
293.15	.16367	.00081835
293.15	.16367	.00081835
293.15	.16372	.0008186
298.15	.22946	.0011473
298.15	.22955	.00114775
298.15	.22959	.00114795
303.15	.31689	.00158445
303.15	.31701	.00158505
303.15	.31705	.00158525
308.15	.43116	.0021558
308.15	.43131	.00215655
308.15	.43134	.0021567

System: eucalyptol; phases: Liquid
Fixed: Pressure, kPa = 101.325
Property: Molar heat capacity at constant pressure, J/K/mol (Liquid); method: Large sample (1 g) scanning calorimetry
Temperature, K	Molar heat capacity at constant pressure, J/K/mol	uncertainty
273.4	257.83146662	2.5783146662
278.5	260.2426606	2.602426606
283.6	262.3212761	2.623212761
288.7	264.64932546	2.6464932546
293.8	267.3099533	2.673099533
298.9	270.71888272	2.7071888272
304	273.29636594	2.7329636594
309.1	276.12328302	2.7612328302
314.2	279.28277858	2.7928277858
319.4	281.4445387	2.814445387
324.5	284.60403426	2.8460403426
329.6	288.01296368	2.8801296368
334.7	290.92302538	2.9092302538
339.8	294.16566556	2.9416566556
344.9	297.32516112	2.9732516112
350	301.23295826	3.0123295826
355.1	304.64188768	3.0464188768

System: (+)-limonene; phases: Liquid, Gas
Property: Vapor or sublimation pressure, kPa (Liquid); method: Closed cell (Static) method
Temperature, K	Vapor or sublimation pressure, kPa	uncertainty
238.2	.001012	.00000506
238.2	.001012	.00000506
238.2	.001013	.000005065
243.2	.001755	.000008775
243.2	.001756	.00000878
243.2	.001756	.00000878
248.15	.002958	.00001479
248.15	.002959	.000014795
248.15	.00296	.0000148
253.15	.004889	.000024445
253.15	.00489	.00002445
253.15	.004891	.000024455
258.15	.0079	.0000395
258.15	.0079	.0000395
258.15	.007901	.000039505
263.15	.01251	.00006255
263.15	.01252	.0000626
263.15	.01252	.0000626
268.15	.01942	.0000971
268.15	.01942	.0000971
268.15	.01942	.0000971
273.15	.02957	.00014785
273.15	.02957	.00014785
273.15	.02957	.00014785
273.65	.0308	.000154
273.65	.0308	.000154
273.65	.03082	.0001541
278.15	.04422	.0002211
278.15	.04422	.0002211
278.15	.04422	.0002211
283.15	.06502	.0003251
283.15	.06504	.0003252
283.15	.06505	.00032525
288.15	.09414	.0004707
288.15	.09416	.0004708
288.15	.09416	.0004708
293.15	.13427	.00067135
293.15	.13429	.00067145
293.15	.13429	.00067145
298.15	.18884	.0009442
298.15	.18886	.0009443
298.15	.18886	.0009443
303.15	.26199	.00130995
303.15	.262	.00131
303.15	.26203	.00131015
308.15	.35885	.00179425
308.15	.35886	.0017943
308.15	.35886	.0017943

System: (-)-limonene; phases: Liquid, Gas
Property: Vapor or sublimation pressure, kPa (Liquid); method: Closed cell (Static) method
Temperature, K	Vapor or sublimation pressure, kPa	uncertainty
273.65	.03073	.00015365
273.65	.03074	.0001537
273.65	.03075	.00015375
278.15	.0441	.0002205
278.15	.04411	.00022055
278.15	.04411	.00022055
283.15	.06487	.00032435
283.15	.06488	.0003244
283.15	.0649	.0003245
288.15	.09392	.0004696
288.15	.09392	.0004696
288.15	.09395	.00046975
293.15	.13392	.0006696
293.15	.13393	.00066965
293.15	.13394	.0006697
298.15	.18831	.00094155
298.15	.18831	.00094155
298.15	.18833	.00094165
303.15	.26092	.0013046
303.15	.26096	.0013048
303.15	.26101	.00130505
308.15	.35755	.00178775
308.15	.35756	.0017878
308.15	.35759	.00178795

System: (-)-limonene; phases: Liquid
Fixed: Pressure, kPa = 101.325
Property: Molar heat capacity at constant pressure, J/K/mol (Liquid); method: Large sample (1 g) scanning calorimetry
Temperature, K	Molar heat capacity at constant pressure, J/K/mol	uncertainty
260.1	240.2879518	2.402879518
265	242.53285654	2.4253285654
270	244.77776128	2.4477776128
275	247.10581064	2.4710581064
280	249.18442614	2.4918442614
285	251.26304164	2.5126304164
290	253.42480176	2.5342480176
295	255.83599574	2.5583599574
300	257.83146662	2.5783146662
305	260.15951598	2.6015951598
310	262.48756534	2.6248756534
