Measured thermophysical data. Experimental and computational thermochemical studies of 9-R-xanthene derivatives (R=OH, COOH, CONH2)
Source: J. Chem. Thermodyn., 2012, 10.1016/j.jct.2012.03.017
Compound 1: xanthydrol, C13H10O2, purity 99.9%
Compound 2: 9-xanthenecarboxylic acid, C14H10O3, purity 98%
Compound 3: 9-xanthenecarboxamide, C14H11NO2, purity 98%
Compound 4: carbon dioxide, CO2
Compound 5: water, H2O
Compound 6: oxygen, O2
Compound 7: nitrogen, diatomic, N2

System: xanthydrol; phases: Crystal, Gas
Property: Vapor or sublimation pressure, kPa (Crystal); method: Knudsen effusion method
Temperature, K	Vapor or sublimation pressure, kPa	uncertainty
333.18	.0000691	.00001
335.14	.0000854	.00001
337.08	.0001045	.00001
339.18	.000152	.00001
341.13	.0001838	.00001
343.08	.0002256	.00001
345.08	.0002616	.00001
347.14	.0003355	.00001
349.17	.0004364	.00001
351.07	.0005411	.00001
353.12	.0006853	.00001
355.18	.0008786	.00001
333.18	.0000567	.00001
335.14	.0000817	.00001
337.08	.0001126	.00001
339.18	.0001355	.00001
341.13	.0001813	.00001
343.08	.0002318	.00001
345.08	.0002749	.00001
347.14	.0003321	.00001
349.17	.0003742	.00001
351.07	.0005557	.00001
353.12	.0006411	.00001
355.18	.0007534	.00001
333.18	.0000628	.00001
335.14	.0000779	.00001
337.08	.0001038	.00001
339.18	.0001321	.00001
341.13	.0001645	.00001
343.08	.0002156	.00001
345.08	.0002595	.00001
347.14	.0003104	.00001
349.17	.0003877	.00001
351.07	.0005348	.00001
353.12	.0006134	.00001
355.18	.0007633	.00001

System: 9-xanthenecarboxylic acid; phases: Crystal, Gas
Property: Molar enthalpy of vaporization or sublimation, kJ/mol (Crystal); method: drop calorimetry
Temperature, K	Molar enthalpy of vaporization or sublimation, kJ/mol	uncertainty
298.15	125.5	

System: 9-xanthenecarboxylic acid; phases: Crystal, Gas
Property: Vapor or sublimation pressure, kPa (Crystal); method: Knudsen effusion method
Temperature, K	Vapor or sublimation pressure, kPa	uncertainty
383.08	.000119	.00001
385.15	.0001477	.00001
387.25	.0001726	.00001
389.12	.0002165	.00001
393.14	.0003154	.00001
395.13	.0003811	.00001
397.11	.0004814	.00001
399.14	.0005597	.00001
401.13	.0006834	.00001
403.12	.0008362	.00001
383.08	.0001121	.00001
385.15	.0001432	.00001
387.25	.0001686	.00001
389.12	.0002124	.00001
391.13	.0002584	.00001
393.14	.0003062	.00001
395.13	.0003776	.00001
397.11	.0004632	.00001
399.14	.0005447	.00001
401.13	.0006937	.00001
403.12	.0008293	.00001
405.15	.0009639	.00001
383.08	.0001132	.00001
385.15	.0001353	.00001
387.25	.0001619	.00001
389.12	.0002049	.00001
391.13	.0002449	.00001
395.13	.0003653	.00001
399.14	.0005518	.00001
401.13	.0006737	.00001
403.12	.0007816	.00001
405.15	.0009409	.00001

System: 9-xanthenecarboxamide; phases: Crystal, Gas
Property: Molar enthalpy of vaporization or sublimation, kJ/mol (Crystal); method: drop calorimetry
Temperature, K	Molar enthalpy of vaporization or sublimation, kJ/mol	uncertainty
298.15	130	

System: 9-xanthenecarboxamide; phases: Crystal, Gas
Property: Vapor or sublimation pressure, kPa (Crystal); method: Knudsen effusion method
Temperature, K	Vapor or sublimation pressure, kPa	uncertainty
399.14	.0001229	.00001
401.14	.000154	.00001
403.16	.0001893	.00001
405.15	.0002174	.00001
407.19	.0002731	.00001
409.17	.0003106	.00001
411.15	.0003968	.00001
413.19	.0004758	.00001
417.17	.000649	.00001
419.18	.0007769	.00001
421.2	.0009516	.00001
399.14	.0001189	.00001
401.14	.0001484	.00001
403.16	.0001856	.00001
407.19	.0002662	.00001
409.17	.0002981	.00001
411.15	.0003833	.00001
413.19	.0004828	.00001
415.15	.0005574	.00001
417.17	.0006492	.00001
421.2	.0009609	.00001
399.14	.000116	.00001
401.14	.000144	.00001
403.16	.0001767	.00001
405.15	.0002159	.00001
409.17	.0003072	.00001
413.19	.0004614	.00001
415.15	.0005463	.00001
419.18	.0008205	.00001

Reaction: -1 xanthydrol + 13 carbon dioxide + 5 water + -14.5 oxygen
Property: Specific internal energy of reaction at constant volume, J/g
-31806.9

Reaction: -1 9-xanthenecarboxylic acid + 14 carbon dioxide + 5 water + -15 oxygen
Property: Specific internal energy of reaction at constant volume, J/g
-28707.8

Reaction: -1 9-xanthenecarboxamide + 14 carbon dioxide + 0.5 nitrogen, diatomic + 5.5 water + -15.75 oxygen
Property: Specific internal energy of reaction at constant volume, J/g
-30222.1
