Measured thermophysical data. Activity coefficients at infinite dilution for solutes in the  trioctylmethylammonium bis(trifluoromethylsulfonyl)imide  ionic liquid using gas liquid chromatography
Source: J. Chem. Thermodyn., 2010, 10.1016/j.jct.2009.08.012
Compound 1: pentane, C5H12, purity 98%
Compound 2: hexane, C6H14, purity 98%
Compound 3: heptane, C7H16, purity 98%
Compound 4: octane, C8H18, purity 98%
Compound 5: nonane, C9H20, purity 98%
Compound 6: decane, C10H22, purity 98%
Compound 7: 1-pentene, C5H10, purity 98%
Compound 8: 1-hexene, C6H12, purity 98%
Compound 9: 1-heptene, C7H14, purity 98%
Compound 10: 1-octene, C8H16, purity 98%
Compound 11: 1-nonene, C9H18, purity 98%
Compound 12: 1-decene, C10H20, purity 98%
Compound 13: 1-pentyne, C5H8, purity 98%
Compound 14: 1-hexyne, C6H10, purity 98%
Compound 15: 1-octyne, C8H14, purity 98%
Compound 16: 1-nonyne, C9H16, purity 98%
Compound 17: 1-decyne, C10H18, purity 98%
Compound 18: cyclopentane, C5H10, purity 98%
Compound 19: cyclohexane, C6H12, purity 98%
Compound 20: cycloheptane, C7H14, purity 98%
Compound 21: cyclooctane, C8H16, purity 98%
Compound 22: cyclononane, C9H18, purity 98%
Compound 23: methanol, CH4O, purity 98%
Compound 24: ethanol, C2H6O, purity 98%
Compound 25: 1-propanol, C3H8O, purity 98%
Compound 26: benzene, C6H6, purity 98%
Compound 27: toluene, C7H8, purity 98%
Compound 28: propanone, C3H6O, purity 98%
Compound 29: butanone, C4H8O, purity 98%
Compound 30: methyltrioctylammonium 1,1,1-trifluoro-N-[(trifluoromethyl)sulfonyl]methanesulfonamide, C27H54F6N2O4S2, purity 98%
Compound 31: 1-heptyne, C7H12, purity 98%

System: pentane + methyltrioctylammonium 1,1,1-trifluoro-N-[(trifluoromethyl)sulfonyl]methanesulfonamide; phases: Liquid, Gas
Fixed: Mole fraction of pentane = 0
Property: Activity coefficient of pentane (Liquid); method: Chromatography
Temperature, K	Activity coefficient of pentane	uncertainty
303.15	1.01	.05656
303.15	1	.056
313.15	.99	.05544
313.15	.99	.05544
323.15	1	.056
323.15	.98	.05488

System: hexane + methyltrioctylammonium 1,1,1-trifluoro-N-[(trifluoromethyl)sulfonyl]methanesulfonamide; phases: Liquid, Gas
Fixed: Mole fraction of hexane = 0
Property: Activity coefficient of hexane (Liquid); method: Chromatography
Temperature, K	Activity coefficient of hexane	uncertainty
303.15	1.13	.06328
303.15	1.13	.06328
313.15	1.11	.06216
313.15	1.12	.06272
323.15	1.11	.06216
323.15	1.1	.0616

System: heptane + methyltrioctylammonium 1,1,1-trifluoro-N-[(trifluoromethyl)sulfonyl]methanesulfonamide; phases: Liquid, Gas
Fixed: Mole fraction of heptane = 0
Property: Activity coefficient of heptane (Liquid); method: Chromatography
Temperature, K	Activity coefficient of heptane	uncertainty
303.15	1.3	.0728
303.15	1.31	.07336
313.15	1.26	.07056
313.15	1.28	.07168
323.15	1.25	.07
323.15	1.25	.07

System: octane + methyltrioctylammonium 1,1,1-trifluoro-N-[(trifluoromethyl)sulfonyl]methanesulfonamide; phases: Liquid, Gas
Fixed: Mole fraction of octane = 0
Property: Activity coefficient of octane (Liquid); method: Chromatography
Temperature, K	Activity coefficient of octane	uncertainty
303.15	1.52	.08512
303.15	1.54	.08624
313.15	1.46	.08176
313.15	1.49	.08344
323.15	1.44	.08064
323.15	1.43	.08008

System: nonane + methyltrioctylammonium 1,1,1-trifluoro-N-[(trifluoromethyl)sulfonyl]methanesulfonamide; phases: Liquid, Gas
Fixed: Mole fraction of nonane = 0
Property: Activity coefficient of nonane (Liquid); method: Chromatography
Temperature, K	Activity coefficient of nonane	uncertainty
303.15	2.57	.14392
303.15	2.59	.14504
313.15	2.39	.13384
313.15	2.39	.13384
323.15	2.21	.12376
323.15	2.21	.12376

System: decane + methyltrioctylammonium 1,1,1-trifluoro-N-[(trifluoromethyl)sulfonyl]methanesulfonamide; phases: Liquid, Gas
Fixed: Mole fraction of decane = 0
Property: Activity coefficient of decane (Liquid); method: Chromatography
Temperature, K	Activity coefficient of decane	uncertainty
303.15	3.2	.1792
303.15	3	.168
313.15	2.74	.15344
313.15	2.72	.15232
323.15	2.5	.14
323.15	2.5	.14

System: 1-pentene + methyltrioctylammonium 1,1,1-trifluoro-N-[(trifluoromethyl)sulfonyl]methanesulfonamide; phases: Liquid, Gas
Fixed: Mole fraction of 1-pentene = 0
Property: Activity coefficient of 1-pentene (Liquid); method: Chromatography
Temperature, K	Activity coefficient of 1-pentene	uncertainty
303.15	.78	.04368
303.15	.78	.04368
313.15	.76	.04256
313.15	.74	.04144
323.15	.76	.04256
323.15	.78	.04368

System: 1-hexene + methyltrioctylammonium 1,1,1-trifluoro-N-[(trifluoromethyl)sulfonyl]methanesulfonamide; phases: Liquid, Gas
Fixed: Mole fraction of 1-hexene = 0
Property: Activity coefficient of 1-hexene (Liquid); method: Chromatography
Temperature, K	Activity coefficient of 1-hexene	uncertainty
303.15	.89	.04984
303.15	.88	.04928
313.15	.85	.0476
313.15	.85	.0476
323.15	.88	.04928
323.15	.87	.04872

System: 1-heptene + methyltrioctylammonium 1,1,1-trifluoro-N-[(trifluoromethyl)sulfonyl]methanesulfonamide; phases: Liquid, Gas
Fixed: Mole fraction of 1-heptene = 0
Property: Activity coefficient of 1-heptene (Liquid); method: Chromatography
Temperature, K	Activity coefficient of 1-heptene	uncertainty
303.15	1.46	.08176
303.15	1.44	.08064
313.15	1.45	.0812
313.15	1.43	.08008
323.15	1.44	.08064
323.15	1.42	.07952

System: 1-octene + methyltrioctylammonium 1,1,1-trifluoro-N-[(trifluoromethyl)sulfonyl]methanesulfonamide; phases: Liquid, Gas
Fixed: Mole fraction of 1-octene = 0
Property: Activity coefficient of 1-octene (Liquid); method: Chromatography
Temperature, K	Activity coefficient of 1-octene	uncertainty
303.15	1.69	.09464
303.15	1.69	.09464
313.15	1.65	.0924
313.15	1.67	.09352
323.15	1.64	.09184
323.15	1.66	.09296

System: 1-nonene + methyltrioctylammonium 1,1,1-trifluoro-N-[(trifluoromethyl)sulfonyl]methanesulfonamide; phases: Liquid, Gas
Fixed: Mole fraction of 1-nonene = 0
Property: Activity coefficient of 1-nonene (Liquid); method: Chromatography
Temperature, K	Activity coefficient of 1-nonene	uncertainty
303.15	1.99	.11144
303.15	1.99	.11144
313.15	1.87	.10472
313.15	1.91	.10696
323.15	1.81	.10136
323.15	1.85	.1036

System: 1-decene + methyltrioctylammonium 1,1,1-trifluoro-N-[(trifluoromethyl)sulfonyl]methanesulfonamide; phases: Liquid, Gas
Fixed: Mole fraction of 1-decene = 0
Property: Activity coefficient of 1-decene (Liquid); method: Chromatography
Temperature, K	Activity coefficient of 1-decene	uncertainty
303.15	2.26	.12656
303.15	2.22	.12432
313.15	2.13	.11928
313.15	2.11	.11816
323.15	2.07	.11592
323.15	2.05	.1148

System: 1-pentyne + methyltrioctylammonium 1,1,1-trifluoro-N-[(trifluoromethyl)sulfonyl]methanesulfonamide; phases: Liquid, Gas
Fixed: Mole fraction of 1-pentyne = 0
Property: Activity coefficient of 1-pentyne (Liquid); method: Chromatography
Temperature, K	Activity coefficient of 1-pentyne	uncertainty
303.15	.53	.02968
303.15	.52	.02912
313.15	.52	.02912
313.15	.53	.02968
323.15	.54	.03024
323.15	.55	.0308

System: 1-hexyne + methyltrioctylammonium 1,1,1-trifluoro-N-[(trifluoromethyl)sulfonyl]methanesulfonamide; phases: Liquid, Gas
Fixed: Mole fraction of 1-hexyne = 0
Property: Activity coefficient of 1-hexyne (Liquid); method: Chromatography
Temperature, K	Activity coefficient of 1-hexyne	uncertainty
303.15	.59	.03304
303.15	.59	.03304
313.15	.59	.03304
313.15	.59	.03304
323.15	.6	.0336
323.15	.62	.03472

System: 1-octyne + methyltrioctylammonium 1,1,1-trifluoro-N-[(trifluoromethyl)sulfonyl]methanesulfonamide; phases: Liquid, Gas
Fixed: Mole fraction of 1-octyne = 0
Property: Activity coefficient of 1-octyne (Liquid); method: Chromatography
Temperature, K	Activity coefficient of 1-octyne	uncertainty
303.15	1.07	.05992
303.15	1.05	.0588
313.15	1.08	.06048
313.15	1.06	.05936
323.15	1.1	.0616
323.15	1.08	.06048

System: 1-nonyne + methyltrioctylammonium 1,1,1-trifluoro-N-[(trifluoromethyl)sulfonyl]methanesulfonamide; phases: Liquid, Gas
Fixed: Mole fraction of 1-nonyne = 0
Property: Activity coefficient of 1-nonyne (Liquid); method: Chromatography
Temperature, K	Activity coefficient of 1-nonyne	uncertainty
303.15	1.15	.0644
303.15	1.15	.0644
313.15	1.15	.0644
313.15	1.17	.06552
323.15	1.18	.06608
323.15	1.18	.06608

System: 1-decyne + methyltrioctylammonium 1,1,1-trifluoro-N-[(trifluoromethyl)sulfonyl]methanesulfonamide; phases: Liquid, Gas
Fixed: Mole fraction of 1-decyne = 0
Property: Activity coefficient of 1-decyne (Liquid); method: Chromatography
Temperature, K	Activity coefficient of 1-decyne	uncertainty
303.15	1.3	.0728
303.15	1.3	.0728
313.15	1.33	.07448
313.15	1.31	.07336
323.15	1.32	.07392
323.15	1.34	.07504

System: cyclopentane + methyltrioctylammonium 1,1,1-trifluoro-N-[(trifluoromethyl)sulfonyl]methanesulfonamide; phases: Liquid, Gas
Fixed: Mole fraction of cyclopentane = 0
Property: Activity coefficient of cyclopentane (Liquid); method: Chromatography
Temperature, K	Activity coefficient of cyclopentane	uncertainty
303.15	.71	.03976
303.15	.71	.03976
313.15	.69	.03864
313.15	.7	.0392
323.15	.7	.0392
323.15	.69	.03864

System: cyclohexane + methyltrioctylammonium 1,1,1-trifluoro-N-[(trifluoromethyl)sulfonyl]methanesulfonamide; phases: Liquid, Gas
Fixed: Mole fraction of cyclohexane = 0
Property: Activity coefficient of cyclohexane (Liquid); method: Chromatography
Temperature, K	Activity coefficient of cyclohexane	uncertainty
303.15	.84	.04704
303.15	.84	.04704
313.15	.8	.0448
313.15	.81	.04536
323.15	.8	.0448
323.15	.79	.04424

System: cycloheptane + methyltrioctylammonium 1,1,1-trifluoro-N-[(trifluoromethyl)sulfonyl]methanesulfonamide; phases: Liquid, Gas
Fixed: Mole fraction of cycloheptane = 0
Property: Activity coefficient of cycloheptane (Liquid); method: Chromatography
Temperature, K	Activity coefficient of cycloheptane	uncertainty
303.15	.95	.0532
303.15	.94	.05264
313.15	.9	.0504
313.15	.91	.05096
323.15	.89	.04984
323.15	.88	.04928

System: cyclooctane + methyltrioctylammonium 1,1,1-trifluoro-N-[(trifluoromethyl)sulfonyl]methanesulfonamide; phases: Liquid, Gas
Fixed: Mole fraction of cyclooctane = 0
Property: Activity coefficient of cyclooctane (Liquid); method: Chromatography
Temperature, K	Activity coefficient of cyclooctane	uncertainty
303.15	1.08	.06048
303.15	1.07	.05992
313.15	1.01	.05656
313.15	1.03	.05768
323.15	.99	.05544
323.15	1.03	.05768

System: cyclononane + methyltrioctylammonium 1,1,1-trifluoro-N-[(trifluoromethyl)sulfonyl]methanesulfonamide; phases: Liquid, Gas
Fixed: Mole fraction of cyclononane = 0
Property: Activity coefficient of cyclononane (Liquid); method: Chromatography
Temperature, K	Activity coefficient of cyclononane	uncertainty
303.15	1.76	.09856
303.15	1.74	.09744
313.15	1.68	.09408
313.15	1.68	.09408
323.15	1.63	.09128
323.15	1.61	.09016

System: methanol + methyltrioctylammonium 1,1,1-trifluoro-N-[(trifluoromethyl)sulfonyl]methanesulfonamide; phases: Liquid, Gas
Fixed: Mole fraction of methanol = 0
Property: Activity coefficient of methanol (Liquid); method: Chromatography
Temperature, K	Activity coefficient of methanol	uncertainty
303.15	.88	.04928
303.15	.89	.04984
313.15	.81	.04536
313.15	.82	.04592
323.15	.79	.04424
323.15	.81	.04536

System: ethanol + methyltrioctylammonium 1,1,1-trifluoro-N-[(trifluoromethyl)sulfonyl]methanesulfonamide; phases: Liquid, Gas
Fixed: Mole fraction of ethanol = 0
Property: Activity coefficient of ethanol (Liquid); method: Chromatography
Temperature, K	Activity coefficient of ethanol	uncertainty
303.15	.94	.05264
303.15	.95	.0532
313.15	.85	.0476
313.15	.87	.04872
323.15	.8	.0448
323.15	.83	.04648

System: 1-propanol + methyltrioctylammonium 1,1,1-trifluoro-N-[(trifluoromethyl)sulfonyl]methanesulfonamide; phases: Liquid, Gas
Fixed: Mole fraction of 1-propanol = 0
Property: Activity coefficient of 1-propanol (Liquid); method: Chromatography
Temperature, K	Activity coefficient of 1-propanol	uncertainty
303.15	1.37	.07672
303.15	1.35	.0756
313.15	1.24	.06944
313.15	1.22	.06832
323.15	1.13	.06328
323.15	1.15	.0644

System: benzene + methyltrioctylammonium 1,1,1-trifluoro-N-[(trifluoromethyl)sulfonyl]methanesulfonamide; phases: Liquid, Gas
Fixed: Mole fraction of benzene = 0
Property: Activity coefficient of benzene (Liquid); method: Chromatography
Temperature, K	Activity coefficient of benzene	uncertainty
303.15	.32	.01792
303.15	.31	.01736
313.15	.31	.01736
313.15	.31	.01736
323.15	.31	.01736
323.15	.32	.01792

System: toluene + methyltrioctylammonium 1,1,1-trifluoro-N-[(trifluoromethyl)sulfonyl]methanesulfonamide; phases: Liquid, Gas
Fixed: Mole fraction of toluene = 0
Property: Activity coefficient of toluene (Liquid); method: Chromatography
Temperature, K	Activity coefficient of toluene	uncertainty
303.15	.51	.02856
303.15	.51	.02856
313.15	.52	.02912
313.15	.52	.02912
323.15	.55	.0308
323.15	.53	.02968

System: propanone + methyltrioctylammonium 1,1,1-trifluoro-N-[(trifluoromethyl)sulfonyl]methanesulfonamide; phases: Liquid, Gas
Fixed: Mole fraction of propanone = 0
Property: Activity coefficient of propanone (Liquid); method: Chromatography
Temperature, K	Activity coefficient of propanone	uncertainty
303.15	.35	.0196
303.15	.35	.0196
313.15	.4	.0224
313.15	.38	.02128
323.15	.42	.02352
323.15	.44	.02464

System: butanone + methyltrioctylammonium 1,1,1-trifluoro-N-[(trifluoromethyl)sulfonyl]methanesulfonamide; phases: Liquid, Gas
Fixed: Mole fraction of butanone = 0
Property: Activity coefficient of butanone (Liquid); method: Chromatography
Temperature, K	Activity coefficient of butanone	uncertainty
303.15	.32	.01792
303.15	.34	.01904
313.15	.31	.01736
313.15	.33	.01848
323.15	.29	.01624
323.15	.31	.01736

System: 1-heptyne + methyltrioctylammonium 1,1,1-trifluoro-N-[(trifluoromethyl)sulfonyl]methanesulfonamide; phases: Liquid, Gas
Fixed: Mole fraction of 1-heptyne = 0
Property: Activity coefficient of 1-heptyne (Liquid); method: Chromatography
Temperature, K	Activity coefficient of 1-heptyne	uncertainty
303.15	.89	.04984
303.15	.89	.04984
313.15	.89	.04984
313.15	.91	.05096
323.15	.9	.0504
323.15	.92	.05152
