Measured thermophysical data. Activity coefficient at infinite dilution measurements for organic solutes (polar  and non-polar) in fatty compounds   Part II: C18 fatty acids
Source: J. Chem. Thermodyn., 2013, 10.1016/j.jct.2012.12.009
Compound 1: n-octadecanoic acid, C18H36O2, purity 98.5%
Compound 2: cis-9-octadecenoic acid, C18H34O2, purity 99%
Compound 3: linoleic acid, C18H32O2, purity 99.5%
Compound 4: 9,12,15-octadecatrienoic acid, C18H30O2, purity 99%
Compound 5: n-hexane, C6H14, purity 99%
Compound 6: n-heptane, C7H16, purity 99%
Compound 7: 2,2,4-trimethylpentane, C8H18, purity 99%
Compound 8: 1-hexene, C6H12, purity 99%
Compound 9: methylbenzene, C7H8, purity 99%
Compound 10: cyclohexane, C6H12, purity 99%
Compound 11: .alpha.-methyltoluene, C8H10, purity 99%
Compound 12: methyl alcohol, CH4O, purity 99%
Compound 13: ethanol, C2H6O, purity 99%
Compound 14: n-propyl alcohol, C3H8O, purity 99%
Compound 15: n-butanol, C4H10O, purity 99%
Compound 16: isopropanol, C3H8O, purity 99%
Compound 17: dl-2-butanol, C4H10O, purity 99%
Compound 18: freon 20, CHCl3, purity 99%
Compound 19: trichloroethylene, C2HCl3, purity 99%
Compound 20: benzene, chloro-, C6H5Cl, purity 99%
Compound 21: 1,2-dichloroethane, C2H4Cl2, purity 99%
Compound 22: benzyl chloride, C7H7Cl, purity 99%
Compound 23: ethyl ethanoate, C4H8O2, purity 99%
Compound 24: acetone, C3H6O, purity 99%
Compound 25: methoxybenzene, C7H8O, purity 99%

System: n-octadecanoic acid + n-hexane; phases: Liquid
Fixed: Pressure, kPa = 101
Fixed: Mole fraction of n-hexane = 0
Property: Activity coefficient of n-hexane (Liquid); method: Chromatography
Temperature, K	Activity coefficient of n-hexane	uncertainty
349.47	1.258	.05032
358.4	1.239	.04956
368.13	1.186	.04744

System: n-octadecanoic acid + n-heptane; phases: Liquid
Fixed: Pressure, kPa = 101
Fixed: Mole fraction of n-heptane = 0
Property: Activity coefficient of n-heptane (Liquid); method: Chromatography
Temperature, K	Activity coefficient of n-heptane	uncertainty
349.47	1.346	.05384
358.4	1.332	.05328
368.13	1.279	.05116

System: n-octadecanoic acid + 2,2,4-trimethylpentane; phases: Liquid
Fixed: Pressure, kPa = 101
Fixed: Mole fraction of 2,2,4-trimethylpentane = 0
Property: Activity coefficient of 2,2,4-trimethylpentane (Liquid); method: Chromatography
Temperature, K	Activity coefficient of 2,2,4-trimethylpentane	uncertainty
349.47	1.419	.05676
358.4	1.407	.05628
368.19	1.365	.0546
368.13	1.354	.05416

System: n-octadecanoic acid + 1-hexene; phases: Liquid
Fixed: Pressure, kPa = 101
Fixed: Mole fraction of 1-hexene = 0
Property: Activity coefficient of 1-hexene (Liquid); method: Chromatography
Temperature, K	Activity coefficient of 1-hexene	uncertainty
349.47	1.151	.04604
358.4	1.134	.04536
368.13	1.085	.0434

System: n-octadecanoic acid + methylbenzene; phases: Liquid
Fixed: Pressure, kPa = 101
Fixed: Mole fraction of methylbenzene = 0
Property: Activity coefficient of methylbenzene (Liquid); method: Chromatography
Temperature, K	Activity coefficient of methylbenzene	uncertainty
349.47	.903	.03612
358.39	.892	.03568
368.13	.872	.03488
349.48	.869	.03476

System: n-octadecanoic acid + cyclohexane; phases: Liquid
Fixed: Pressure, kPa = 101
Fixed: Mole fraction of cyclohexane = 0
Property: Activity coefficient of cyclohexane (Liquid); method: Chromatography
Temperature, K	Activity coefficient of cyclohexane	uncertainty
349.47	.985	.0394
358.4	.968	.03872
368.19	.959	.03836

System: n-octadecanoic acid + .alpha.-methyltoluene; phases: Liquid
Fixed: Pressure, kPa = 101
Fixed: Mole fraction of .alpha.-methyltoluene = 0
Property: Activity coefficient of .alpha.-methyltoluene (Liquid); method: Chromatography
Temperature, K	Activity coefficient of .alpha.-methyltoluene	uncertainty
349.47	1.029	.04116
358.4	1.014	.04056
368.13	.982	.03928
368.19	1.02	.0408

System: n-octadecanoic acid + methyl alcohol; phases: Liquid
Fixed: Pressure, kPa = 101
Fixed: Mole fraction of methyl alcohol = 0
Property: Activity coefficient of methyl alcohol (Liquid); method: Chromatography
Temperature, K	Activity coefficient of methyl alcohol	uncertainty
349.48	1.964	.07856
358.39	1.924	.07696
368.13	1.751	.07004

System: n-octadecanoic acid + ethanol; phases: Liquid
Fixed: Pressure, kPa = 101
Fixed: Mole fraction of ethanol = 0
Property: Activity coefficient of ethanol (Liquid); method: Chromatography
Temperature, K	Activity coefficient of ethanol	uncertainty
349.48	1.811	.07244
358.39	1.713	.06852
368.13	1.549	.06196

System: n-octadecanoic acid + n-propyl alcohol; phases: Liquid
Fixed: Pressure, kPa = 101
Fixed: Mole fraction of n-propyl alcohol = 0
Property: Activity coefficient of n-propyl alcohol (Liquid); method: Chromatography
Temperature, K	Activity coefficient of n-propyl alcohol	uncertainty
349.38	1.555	.0622
349.48	1.582	.06328
358.46	1.461	.05844
367.93	1.363	.05452
368.13	1.387	.05548

System: n-octadecanoic acid + n-butanol; phases: Liquid
Fixed: Pressure, kPa = 101
Fixed: Mole fraction of n-butanol = 0
Property: Activity coefficient of n-butanol (Liquid); method: Chromatography
Temperature, K	Activity coefficient of n-butanol	uncertainty
349.38	1.501	.06004
349.48	1.481	.05924
358.46	1.363	.05452
367.93	1.307	.05228
368.13	1.315	.0526

System: n-octadecanoic acid + isopropanol; phases: Liquid
Fixed: Pressure, kPa = 101
Fixed: Mole fraction of isopropanol = 0
Property: Activity coefficient of isopropanol (Liquid); method: Chromatography
Temperature, K	Activity coefficient of isopropanol	uncertainty
349.38	1.337	.05348
358.46	1.262	.05048
367.93	1.175	.047
368.19	1.142	.04568

System: n-octadecanoic acid + dl-2-butanol; phases: Liquid
Fixed: Pressure, kPa = 101
Fixed: Mole fraction of dl-2-butanol = 0
Property: Activity coefficient of dl-2-butanol (Liquid); method: Chromatography
Temperature, K	Activity coefficient of dl-2-butanol	uncertainty
349.38	1.176	.04704
349.48	1.197	.04788
358.46	1.088	.04352
367.93	1.019	.04076
368.19	1.006	.04024

System: n-octadecanoic acid + freon 20; phases: Liquid
Fixed: Pressure, kPa = 101
Fixed: Mole fraction of freon 20 = 0
Property: Activity coefficient of freon 20 (Liquid); method: Chromatography
Temperature, K	Activity coefficient of freon 20	uncertainty
349.47	.734	.02936
358.39	.704	.02816
368.13	.694	.02776

System: n-octadecanoic acid + trichloroethylene; phases: Liquid
Fixed: Pressure, kPa = 101
Fixed: Mole fraction of trichloroethylene = 0
Property: Activity coefficient of trichloroethylene (Liquid); method: Chromatography
Temperature, K	Activity coefficient of trichloroethylene	uncertainty
349.48	.789	.03156
358.39	.776	.03104
367.93	.741	.02964

System: n-octadecanoic acid + benzene, chloro-; phases: Liquid
Fixed: Pressure, kPa = 101
Fixed: Mole fraction of benzene, chloro- = 0
Property: Activity coefficient of benzene, chloro- (Liquid); method: Chromatography
Temperature, K	Activity coefficient of benzene, chloro-	uncertainty
349.47	.954	.03816
358.4	.936	.03744
368.19	.924	.03696

System: n-octadecanoic acid + 1,2-dichloroethane; phases: Liquid
Fixed: Pressure, kPa = 101
Fixed: Mole fraction of 1,2-dichloroethane = 0
Property: Activity coefficient of 1,2-dichloroethane (Liquid); method: Chromatography
Temperature, K	Activity coefficient of 1,2-dichloroethane	uncertainty
349.47	1.157	.04628
349.48	1.142	.04568
358.39	1.102	.04408
358.4	1.121	.04484
368.19	1.096	.04384
368.13	1.062	.04248

System: n-octadecanoic acid + benzyl chloride; phases: Liquid
Fixed: Pressure, kPa = 101
Fixed: Mole fraction of benzyl chloride = 0
Property: Activity coefficient of benzyl chloride (Liquid); method: Chromatography
Temperature, K	Activity coefficient of benzyl chloride	uncertainty
349.47	1.559	.06236
349.48	1.545	.0618
358.39	1.486	.05944
368.13	1.452	.05808

System: n-octadecanoic acid + ethyl ethanoate; phases: Liquid
Fixed: Pressure, kPa = 101
Fixed: Mole fraction of ethyl ethanoate = 0
Property: Activity coefficient of ethyl ethanoate (Liquid); method: Chromatography
Temperature, K	Activity coefficient of ethyl ethanoate	uncertainty
349.48	1.245	.0498
358.39	1.189	.04756
367.93	1.076	.04304
368.19	1.09	.0436

System: n-octadecanoic acid + acetone; phases: Liquid
Fixed: Pressure, kPa = 101
Fixed: Mole fraction of acetone = 0
Property: Activity coefficient of acetone (Liquid); method: Chromatography
Temperature, K	Activity coefficient of acetone	uncertainty
349.48	1.48	.0592
358.39	1.391	.05564
368.13	1.304	.05216

System: n-octadecanoic acid + methoxybenzene; phases: Liquid
Fixed: Pressure, kPa = 101
Fixed: Mole fraction of methoxybenzene = 0
Property: Activity coefficient of methoxybenzene (Liquid); method: Chromatography
Temperature, K	Activity coefficient of methoxybenzene	uncertainty
349.47	1.216	.04864
349.48	1.224	.04896
358.39	1.189	.04756
358.4	1.194	.04776
368.19	1.173	.04692
368.13	1.157	.04628

System: n-hexane + cis-9-octadecenoic acid; phases: Liquid
Fixed: Pressure, kPa = 101
Fixed: Mole fraction of n-hexane = 0
Property: Activity coefficient of n-hexane (Liquid); method: Chromatography
Temperature, K	Activity coefficient of n-hexane	uncertainty
338.36	1.401	.05604
348.29	1.329	.05316
348.36	1.341	.05364
358.28	1.302	.05208

System: cis-9-octadecenoic acid + n-heptane; phases: Liquid
Fixed: Pressure, kPa = 101
Fixed: Mole fraction of n-heptane = 0
Property: Activity coefficient of n-heptane (Liquid); method: Chromatography
Temperature, K	Activity coefficient of n-heptane	uncertainty
338.36	1.516	.06064
348.29	1.428	.05712
348.36	1.469	.05876
358.28	1.369	.05476

System: cis-9-octadecenoic acid + 2,2,4-trimethylpentane; phases: Liquid
Fixed: Pressure, kPa = 101
Fixed: Mole fraction of 2,2,4-trimethylpentane = 0
Property: Activity coefficient of 2,2,4-trimethylpentane (Liquid); method: Chromatography
Temperature, K	Activity coefficient of 2,2,4-trimethylpentane	uncertainty
338.36	1.627	.06508
348.29	1.519	.06076
348.36	1.544	.06176
358.28	1.477	.05908

System: cis-9-octadecenoic acid + 1-hexene; phases: Liquid
Fixed: Pressure, kPa = 101
Fixed: Mole fraction of 1-hexene = 0
Property: Activity coefficient of 1-hexene (Liquid); method: Chromatography
Temperature, K	Activity coefficient of 1-hexene	uncertainty
338.36	1.213	.04852
348.29	1.205	.0482
348.36	1.194	.04776
358.28	1.152	.04608

System: methylbenzene + cis-9-octadecenoic acid; phases: Liquid
Fixed: Pressure, kPa = 101
Fixed: Mass fraction of methylbenzene = 0
Property: Activity coefficient of methylbenzene (Liquid); method: Chromatography
Temperature, K	Activity coefficient of methylbenzene	uncertainty
338.36	.925	.037
348.29	.893	.03572
348.36	.865	.0346
358.28	.852	.03408

System: cyclohexane + cis-9-octadecenoic acid; phases: Liquid
Fixed: Pressure, kPa = 101
Fixed: Mass fraction of cyclohexane = 0
Property: Activity coefficient of cyclohexane (Liquid); method: Chromatography
Temperature, K	Activity coefficient of cyclohexane	uncertainty
338.36	1.062	.04248
348.29	1.001	.04004
348.36	1.011	.04044
358.28	1.352	.05408

System: .alpha.-methyltoluene + cis-9-octadecenoic acid; phases: Liquid
Fixed: Pressure, kPa = 101
Fixed: Mass fraction of .alpha.-methyltoluene = 0
Property: Activity coefficient of .alpha.-methyltoluene (Liquid); method: Chromatography
Temperature, K	Activity coefficient of .alpha.-methyltoluene	uncertainty
338.36	1.052	.04208
348.29	.991	.03964
348.36	.964	.03856
358.28	.962	.03848

System: methyl alcohol + cis-9-octadecenoic acid; phases: Liquid
Fixed: Pressure, kPa = 101
Fixed: Mass fraction of methyl alcohol = 0
Property: Activity coefficient of methyl alcohol (Liquid); method: Chromatography
Temperature, K	Activity coefficient of methyl alcohol	uncertainty
338.36	1.573	.06292
348.36	1.476	.05904
358.28	1.491	.05964

System: ethanol + cis-9-octadecenoic acid; phases: Liquid
Fixed: Pressure, kPa = 101
Fixed: Mass fraction of ethanol = 0
Property: Activity coefficient of ethanol (Liquid); method: Chromatography
Temperature, K	Activity coefficient of ethanol	uncertainty
338.36	1.451	.05804
348.36	1.373	.05492
358.28	1.382	.05528

System: n-propyl alcohol + cis-9-octadecenoic acid; phases: Liquid
Fixed: Pressure, kPa = 101
Fixed: Mass fraction of n-propyl alcohol = 0
Property: Activity coefficient of n-propyl alcohol (Liquid); method: Chromatography
Temperature, K	Activity coefficient of n-propyl alcohol	uncertainty
338.36	1.355	.0542
348.36	1.267	.05068
358.28	1.244	.04976

System: isopropanol + cis-9-octadecenoic acid; phases: Liquid
Fixed: Pressure, kPa = 101
Fixed: Mass fraction of isopropanol = 0
Property: Activity coefficient of isopropanol (Liquid); method: Chromatography
Temperature, K	Activity coefficient of isopropanol	uncertainty
338.36	1.199	.04796
348.36	1.122	.04488
358.28	1.113	.04452

System: dl-2-butanol + cis-9-octadecenoic acid; phases: Liquid
Fixed: Pressure, kPa = 101
Fixed: Mass fraction of dl-2-butanol = 0
Property: Activity coefficient of dl-2-butanol (Liquid); method: Chromatography
Temperature, K	Activity coefficient of dl-2-butanol	uncertainty
338.36	1.019	.04076
348.36	.987	.03948
358.28	.975	.039

System: freon 20 + cis-9-octadecenoic acid; phases: Liquid
Fixed: Pressure, kPa = 101
Fixed: Mass fraction of freon 20 = 0
Property: Activity coefficient of freon 20 (Liquid); method: Chromatography
Temperature, K	Activity coefficient of freon 20	uncertainty
338.36	.653	.02612
348.29	.676	.02704
358.28	.628	.02512

System: trichloroethylene + cis-9-octadecenoic acid; phases: Liquid
Fixed: Pressure, kPa = 101
Fixed: Mass fraction of trichloroethylene = 0
Property: Activity coefficient of trichloroethylene (Liquid); method: Chromatography
Temperature, K	Activity coefficient of trichloroethylene	uncertainty
338.36	.803	.03212
348.29	.783	.03132
358.28	.742	.02968

System: benzene, chloro- + cis-9-octadecenoic acid; phases: Liquid
Fixed: Pressure, kPa = 101
Fixed: Mass fraction of benzene, chloro- = 0
Property: Activity coefficient of benzene, chloro- (Liquid); method: Chromatography
Temperature, K	Activity coefficient of benzene, chloro-	uncertainty
338.36	.93	.0372
348.29	.905	.0362
358.28	.877	.03508

System: 1,2-dichloroethane + cis-9-octadecenoic acid; phases: Liquid
Fixed: Pressure, kPa = 101
Fixed: Mass fraction of 1,2-dichloroethane = 0
Property: Activity coefficient of 1,2-dichloroethane (Liquid); method: Chromatography
Temperature, K	Activity coefficient of 1,2-dichloroethane	uncertainty
338.36	1.09	.0436
348.29	1.077	.04308
358.28	1.011	.04044

System: benzyl chloride + cis-9-octadecenoic acid; phases: Liquid
Fixed: Pressure, kPa = 101
Fixed: Mass fraction of benzyl chloride = 0
Property: Activity coefficient of benzyl chloride (Liquid); method: Chromatography
Temperature, K	Activity coefficient of benzyl chloride	uncertainty
348.29	1.439	.05756
358.28	1.385	.0554

System: cis-9-octadecenoic acid + ethyl ethanoate; phases: Liquid
Fixed: Pressure, kPa = 101
Fixed: Mass fraction of ethyl ethanoate = 0
Property: Activity coefficient of ethyl ethanoate (Liquid); method: Chromatography
Temperature, K	Activity coefficient of ethyl ethanoate	uncertainty
338.36	1.201	.04804
348.29	1.13	.0452
358.28	1.091	.04364

System: acetone + cis-9-octadecenoic acid; phases: Liquid
Fixed: Pressure, kPa = 101
Fixed: Mass fraction of acetone = 0
Property: Activity coefficient of acetone (Liquid); method: Chromatography
Temperature, K	Activity coefficient of acetone	uncertainty
338.36	1.311	.05244
348.29	1.292	.05168
358.28	1.197	.04788

System: methoxybenzene + cis-9-octadecenoic acid; phases: Liquid
Fixed: Pressure, kPa = 101
Fixed: Mass fraction of methoxybenzene = 0
Property: Activity coefficient of methoxybenzene (Liquid); method: Chromatography
Temperature, K	Activity coefficient of methoxybenzene	uncertainty
338.36	1.204	.04816
348.29	1.17	.0468
358.28	1.153	.04612

System: linoleic acid + n-hexane; phases: Liquid
Fixed: Pressure, kPa = 101
Fixed: Mole fraction of n-hexane = 0
Property: Activity coefficient of n-hexane (Liquid); method: Chromatography
Temperature, K	Activity coefficient of n-hexane	uncertainty
338.28	2.196	.08784
348.31	2.556	.10224
348.28	2.524	.10096
358.3	2.932	.11728

System: linoleic acid + n-heptane; phases: Liquid
Fixed: Pressure, kPa = 101
Fixed: Mole fraction of n-heptane = 0
Property: Activity coefficient of n-heptane (Liquid); method: Chromatography
Temperature, K	Activity coefficient of n-heptane	uncertainty
338.28	2.322	.09288
348.31	2.736	.10944
348.28	2.678	.10712
358.3	3.232	.12928

System: linoleic acid + 2,2,4-trimethylpentane; phases: Liquid
Fixed: Pressure, kPa = 101
Fixed: Mole fraction of 2,2,4-trimethylpentane = 0
Property: Activity coefficient of 2,2,4-trimethylpentane (Liquid); method: Chromatography
Temperature, K	Activity coefficient of 2,2,4-trimethylpentane	uncertainty
338.28	2.434	.09736
348.31	2.975	.119
348.28	2.962	.11848
358.3	3.632	.14528

System: linoleic acid + 1-hexene; phases: Liquid
Fixed: Pressure, kPa = 101
Fixed: Mole fraction of 1-hexene = 0
Property: Activity coefficient of 1-hexene (Liquid); method: Chromatography
Temperature, K	Activity coefficient of 1-hexene	uncertainty
338.28	1.726	.06904
348.31	1.982	.07928
348.28	2.003	.08012
358.3	2.36	.0944

System: linoleic acid + methylbenzene; phases: Liquid
Fixed: Pressure, kPa = 101
Fixed: Mole fraction of methylbenzene = 0
Property: Activity coefficient of methylbenzene (Liquid); method: Chromatography
Temperature, K	Activity coefficient of methylbenzene	uncertainty
338.28	1.097	.04388
338.28	1.094	.04376
348.31	1.165	.0466
348.28	1.192	.04768
358.3	1.263	.05052

System: linoleic acid + cyclohexane; phases: Liquid
Fixed: Pressure, kPa = 101
Fixed: Mole fraction of cyclohexane = 0
Property: Activity coefficient of cyclohexane (Liquid); method: Chromatography
Temperature, K	Activity coefficient of cyclohexane	uncertainty
338.28	1.493	.05972
338.28	1.486	.05944
348.31	1.709	.06836
348.28	1.704	.06816
358.3	2.026	.08104

System: linoleic acid + .alpha.-methyltoluene; phases: Liquid
Fixed: Pressure, kPa = 101
Fixed: Mole fraction of .alpha.-methyltoluene = 0
Property: Activity coefficient of .alpha.-methyltoluene (Liquid); method: Chromatography
Temperature, K	Activity coefficient of .alpha.-methyltoluene	uncertainty
338.28	1.271	.05084
348.31	1.363	.05452
348.28	1.353	.05412
358.3	1.487	.05948

System: linoleic acid + methyl alcohol; phases: Liquid
Fixed: Pressure, kPa = 101
Fixed: Mole fraction of methyl alcohol = 0
Property: Activity coefficient of methyl alcohol (Liquid); method: Chromatography
Temperature, K	Activity coefficient of methyl alcohol	uncertainty
338.28	1.454	.05816
348.31	1.328	.05312

System: linoleic acid + ethanol; phases: Liquid
Fixed: Pressure, kPa = 101
Fixed: Mole fraction of ethanol = 0
Property: Activity coefficient of ethanol (Liquid); method: Chromatography
Temperature, K	Activity coefficient of ethanol	uncertainty
338.28	1.362	.05448
348.28	1.222	.04888
358.3	1.231	.04924

System: linoleic acid + n-propyl alcohol; phases: Liquid
Fixed: Pressure, kPa = 101
Fixed: Mole fraction of n-propyl alcohol = 0
Property: Activity coefficient of n-propyl alcohol (Liquid); method: Chromatography
Temperature, K	Activity coefficient of n-propyl alcohol	uncertainty
338.28	1.288	.05152
348.31	1.242	.04968
358.33	1.22	.0488

System: linoleic acid + n-butanol; phases: Liquid
Fixed: Pressure, kPa = 101
Fixed: Mole fraction of n-butanol = 0
Property: Activity coefficient of n-butanol (Liquid); method: Chromatography
Temperature, K	Activity coefficient of n-butanol	uncertainty
338.28	1.187	.04748
348.28	1.181	.04724

System: linoleic acid + isopropanol; phases: Liquid
Fixed: Pressure, kPa = 101
Fixed: Mole fraction of isopropanol = 0
Property: Activity coefficient of isopropanol (Liquid); method: Chromatography
Temperature, K	Activity coefficient of isopropanol	uncertainty
338.28	1.134	.04536
348.28	1.136	.04544
358.33	1.127	.04508

System: linoleic acid + dl-2-butanol; phases: Liquid
Fixed: Pressure, kPa = 101
Fixed: Mole fraction of dl-2-butanol = 0
Property: Activity coefficient of dl-2-butanol (Liquid); method: Chromatography
Temperature, K	Activity coefficient of dl-2-butanol	uncertainty
338.28	1.089	.04356
348.31	1.101	.04404
358.3	1.1	.044

System: linoleic acid + freon 20; phases: Liquid
Fixed: Pressure, kPa = 101
Fixed: Mole fraction of freon 20 = 0
Property: Activity coefficient of freon 20 (Liquid); method: Chromatography
Temperature, K	Activity coefficient of freon 20	uncertainty
338.28	.642	.02568
338.28	.644	.02576
348.31	.674	.02696
348.28	.689	.02756
358.3	.734	.02936

System: linoleic acid + benzene, chloro-; phases: Liquid
Fixed: Pressure, kPa = 101
Fixed: Mole fraction of benzene, chloro- = 0
Property: Activity coefficient of benzene, chloro- (Liquid); method: Chromatography
Temperature, K	Activity coefficient of benzene, chloro-	uncertainty
338.28	1.002	.04008
338.28	.996	.03984
348.31	1.072	.04288
348.28	1.069	.04276
358.3	1.162	.04648

System: linoleic acid + 1,2-dichloroethane; phases: Liquid
Fixed: Pressure, kPa = 101
Fixed: Mole fraction of 1,2-dichloroethane = 0
Property: Activity coefficient of 1,2-dichloroethane (Liquid); method: Chromatography
Temperature, K	Activity coefficient of 1,2-dichloroethane	uncertainty
338.28	1.048	.04192
338.28	1.057	.04228
348.31	1.055	.0422
348.28	1.082	.04328
358.3	1.112	.04448

System: linoleic acid + benzyl chloride; phases: Liquid
Fixed: Pressure, kPa = 101
Fixed: Mole fraction of benzyl chloride = 0
Property: Activity coefficient of benzyl chloride (Liquid); method: Chromatography
Temperature, K	Activity coefficient of benzyl chloride	uncertainty
348.31	1.531	.06124
348.28	1.54	.0616
358.3	1.608	.06432

System: linoleic acid + ethyl ethanoate; phases: Liquid
Fixed: Pressure, kPa = 101
Fixed: Mole fraction of ethyl ethanoate = 0
Property: Activity coefficient of ethyl ethanoate (Liquid); method: Chromatography
Temperature, K	Activity coefficient of ethyl ethanoate	uncertainty
338.28	1.228	.04912
348.28	1.267	.05068
358.33	1.115	.0446

System: linoleic acid + acetone; phases: Liquid
Fixed: Pressure, kPa = 101
Fixed: Mole fraction of acetone = 0
Property: Activity coefficient of acetone (Liquid); method: Chromatography
Temperature, K	Activity coefficient of acetone	uncertainty
338.28	1.213	.04852
348.31	1.161	.04644
358.33	1.133	.04532

System: linoleic acid + methoxybenzene; phases: Liquid
Fixed: Pressure, kPa = 101
Fixed: Mole fraction of methoxybenzene = 0
Property: Activity coefficient of methoxybenzene (Liquid); method: Chromatography
Temperature, K	Activity coefficient of methoxybenzene	uncertainty
338.28	1.242	.04968
348.31	1.292	.05168
348.28	1.317	.05268
358.3	1.369	.05476

System: n-hexane + 9,12,15-octadecatrienoic acid; phases: Liquid
Fixed: Pressure, kPa = 101
Fixed: Mole fraction of n-hexane = 0
Property: Activity coefficient of n-hexane (Liquid); method: Chromatography
Temperature, K	Activity coefficient of n-hexane	uncertainty
303.13	3.699	.14796
313.25	2.911	.11644
323.26	3.306	.13224

System: n-heptane + 9,12,15-octadecatrienoic acid; phases: Liquid
Fixed: Pressure, kPa = 101
Fixed: Mole fraction of n-heptane = 0
Property: Activity coefficient of n-heptane (Liquid); method: Chromatography
Temperature, K	Activity coefficient of n-heptane	uncertainty
303.13	3.834	.15336
313.25	3.066	.12264
323.26	3.265	.1306

System: 9,12,15-octadecatrienoic acid + 2,2,4-trimethylpentane; phases: Liquid
Fixed: Pressure, kPa = 101
Fixed: Mole fraction of 2,2,4-trimethylpentane = 0
Property: Activity coefficient of 2,2,4-trimethylpentane (Liquid); method: Chromatography
Temperature, K	Activity coefficient of 2,2,4-trimethylpentane	uncertainty
303.13	4.57	.1828
313.25	3.535	.1414
323.26	4.012	.16048

System: 9,12,15-octadecatrienoic acid + 1-hexene; phases: Liquid
Fixed: Pressure, kPa = 101
Fixed: Mole fraction of 1-hexene = 0
Property: Activity coefficient of 1-hexene (Liquid); method: Chromatography
Temperature, K	Activity coefficient of 1-hexene	uncertainty
303.13	2.52	.1008
313.24	2.123	.08492
313.25	2.187	.08748
323.26	2.454	.09816

System: methylbenzene + 9,12,15-octadecatrienoic acid; phases: Liquid
Fixed: Pressure, kPa = 101
Fixed: Mole fraction of methylbenzene = 0
Property: Activity coefficient of methylbenzene (Liquid); method: Chromatography
Temperature, K	Activity coefficient of methylbenzene	uncertainty
313.25	1.171	.04684
323.26	1.204	.04816

System: cyclohexane + 9,12,15-octadecatrienoic acid; phases: Liquid
Fixed: Pressure, kPa = 101
Fixed: Mole fraction of cyclohexane = 0
Property: Activity coefficient of cyclohexane (Liquid); method: Chromatography
Temperature, K	Activity coefficient of cyclohexane	uncertainty
303.13	2.356	.09424
313.24	1.913	.07652
313.25	1.88	.0752
323.26	2.041	.08164

System: methyl alcohol + 9,12,15-octadecatrienoic acid; phases: Liquid
Fixed: Pressure, kPa = 101
Fixed: Mole fraction of methyl alcohol = 0
Property: Activity coefficient of methyl alcohol (Liquid); method: Chromatography
Temperature, K	Activity coefficient of methyl alcohol	uncertainty
303.13	1.164	.04656
313.24	1.291	.05164
323.26	1.357	.05428

System: ethanol + 9,12,15-octadecatrienoic acid; phases: Liquid
Fixed: Pressure, kPa = 101
Fixed: Mole fraction of ethanol = 0
Property: Activity coefficient of ethanol (Liquid); method: Chromatography
Temperature, K	Activity coefficient of ethanol	uncertainty
303.13	1.07	.0428
313.25	1.216	.04864
323.26	1.316	.05264

System: n-propyl alcohol + 9,12,15-octadecatrienoic acid; phases: Liquid
Fixed: Pressure, kPa = 101
Fixed: Mole fraction of n-propyl alcohol = 0
Property: Activity coefficient of n-propyl alcohol (Liquid); method: Chromatography
Temperature, K	Activity coefficient of n-propyl alcohol	uncertainty
323.26	1.271	.05084

System: isopropanol + 9,12,15-octadecatrienoic acid; phases: Liquid
Fixed: Pressure, kPa = 101
Fixed: Mole fraction of isopropanol = 0
Property: Activity coefficient of isopropanol (Liquid); method: Chromatography
Temperature, K	Activity coefficient of isopropanol	uncertainty
313.25	1.081	.04324
323.26	1.121	.04484

System: freon 20 + 9,12,15-octadecatrienoic acid; phases: Liquid
Fixed: Pressure, kPa = 101
Fixed: Mole fraction of freon 20 = 0
Property: Activity coefficient of freon 20 (Liquid); method: Chromatography
Temperature, K	Activity coefficient of freon 20	uncertainty
303.13	.613	.02452
313.24	.621	.02484
323.24	.623	.02492

System: 1,2-dichloroethane + 9,12,15-octadecatrienoic acid; phases: Liquid
Fixed: Pressure, kPa = 101
Fixed: Mole fraction of 1,2-dichloroethane = 0
Property: Activity coefficient of 1,2-dichloroethane (Liquid); method: Chromatography
Temperature, K	Activity coefficient of 1,2-dichloroethane	uncertainty
303.13	1.053	.04212
313.24	1.035	.0414
313.25	1.02	.0408
323.26	.996	.03984

System: ethyl ethanoate + 9,12,15-octadecatrienoic acid; phases: Liquid
Fixed: Pressure, kPa = 101
Fixed: Mole fraction of ethyl ethanoate = 0
Property: Activity coefficient of ethyl ethanoate (Liquid); method: Chromatography
Temperature, K	Activity coefficient of ethyl ethanoate	uncertainty
303.13	1.312	.05248
313.24	1.16	.0464
323.24	1.178	.04712

System: acetone + 9,12,15-octadecatrienoic acid; phases: Liquid
Fixed: Pressure, kPa = 101
Fixed: Mole fraction of acetone = 0
Property: Activity coefficient of acetone (Liquid); method: Chromatography
Temperature, K	Activity coefficient of acetone	uncertainty
303.13	1.099	.04396
313.24	1.057	.04228
313.25	1.101	.04404
323.26	1.111	.04444

System: n-butanol + cis-9-octadecenoic acid; phases: Liquid
Fixed: Pressure, kPa = 101
Fixed: Mole fraction of n-butanol = 0
Property: Activity coefficient of n-butanol (Liquid); method: Chromatography
Temperature, K	Activity coefficient of n-butanol	uncertainty
338.36	1.26	.0504
348.36	1.226	.04904
358.28	1.224	.04896
