Measured thermophysical data. Alkylsulfate-based ionic liquids in the liquid-liquid extraction of aromatic hydrocarbons
Source: J. Chem. Thermodyn., 2012, 10.1016/j.jct.2011.09.009
Compound 1: heptane, C7H16, purity 99.5%
Compound 2: toluene, C7H8, purity 99.5%
Compound 3: 1,3-dimethylimidazolium methylsulfate, C6H12N2O4S, purity 99%
Compound 4: 1-ethyl-3-methylimidazolium hydrogen sulfate, C6H12N2O4S, purity 99%
Compound 5: 1-ethyl-3-methylimazolium methylsulfate, C7H14N2O4S, purity 99%
Compound 6: 1-ethyl-3-methylimidazolium ethyl sulfate, C8H16N2O4S, purity 99%

System: toluene + heptane + 1,3-dimethylimidazolium methylsulfate; phases: Liquid mixture 1, Liquid mixture 2
Fixed: Temperature, K = 313.2
Fixed: Pressure, kPa = 101
Property: Mole fraction of heptane (Liquid mixture 1); method: Proton NMR spectroscopy
Property: Mole fraction of toluene (Liquid mixture 2); method: Proton NMR spectroscopy
Property: Mole fraction of heptane (Liquid mixture 2); method: Proton NMR spectroscopy
Mole fraction of toluene	Mole fraction of heptane	uncertainty	Mole fraction of toluene	uncertainty	Mole fraction of heptane	uncertainty
0	1	.006	0	.006	.0009	.006
.0472	.9528	.006	.0061	.006	.0011	.006
.0962	.9038	.006	.011	.006	.0011	.006
.1934	.8066	.006	.0227	.006	.001	.006
.293	.707	.006	.0314	.006	.0008	.006
.45	.55	.006	.0436	.006	.0007	.006
.5447	.4553	.006	.0522	.006	.0006	.006
.6082	.3918	.006	.0579	.006	.0005	.006
.6925	.3075	.006	.066	.006	.0005	.006
.7894	.2106	.006	.0703	.006	.0004	.006
.8609	.1391	.006	.0773	.006	.0003	.006
1	0	.006	.0568	.006	0	.006

System: toluene + heptane + 1-ethyl-3-methylimidazolium hydrogen sulfate; phases: Liquid mixture 2, Liquid mixture 1
Fixed: Temperature, K = 313.2
Fixed: Pressure, kPa = 101
Property: Mole fraction of heptane (Liquid mixture 2); method: Other
Property: Mole fraction of heptane (Liquid mixture 1); method: Other
Property: Mole fraction of toluene (Liquid mixture 1); method: Other
Mole fraction of toluene	Mole fraction of heptane	uncertainty	Mole fraction of heptane	uncertainty	Mole fraction of toluene	uncertainty
0	.0004	.006	1	.006	0	.006
.0023	.0002	.006	.9505	.006	.0495	.006
.004	.0003	.006	.8951	.006	.1049	.006
.0104	.0003	.006	.6849	.006	.3151	.006
.0151	.0002	.006	.5501	.006	.4499	.006
.018	.0003	.006	.455	.006	.545	.006
.0203	.0003	.006	.3901	.006	.6099	.006
.024	.0002	.006	.2761	.006	.7239	.006
.0253	.0002	.006	.2156	.006	.7844	.006
.0276	.0002	.006	.1434	.006	.8566	.006
.0194	0	.006	0	.006	1	.006

System: toluene + heptane + 1-ethyl-3-methylimazolium methylsulfate; phases: Liquid mixture 2, Liquid mixture 1
Fixed: Temperature, K = 313.2
Fixed: Pressure, kPa = 101
Property: Mole fraction of heptane (Liquid mixture 2); method: Other
Property: Mole fraction of heptane (Liquid mixture 1); method: Other
Property: Mole fraction of toluene (Liquid mixture 1); method: Other
Mole fraction of toluene	Mole fraction of heptane	uncertainty	Mole fraction of heptane	uncertainty	Mole fraction of toluene	uncertainty
0	.0018	.006	1	.006	0	.006
.0065	.0019	.006	.9614	.006	.0386	.006
.0161	.0018	.006	.9076	.006	.0924	.006
.0314	.0017	.006	.8101	.006	.1899	.006
.0464	.0016	.006	.7121	.006	.2879	.006
.0708	.0016	.006	.5623	.006	.4377	.006
.0844	.0015	.006	.4698	.006	.5302	.006
.0946	.0013	.006	.4012	.006	.5988	.006
.1092	.0012	.006	.3083	.006	.6917	.006
.1246	.001	.006	.2165	.006	.7835	.006
.1304	.0006	.006	.1394	.006	.8606	.006
.1542	0	.006	0	.006	1	.006

System: toluene + heptane + 1-ethyl-3-methylimidazolium ethyl sulfate; phases: Liquid mixture 2, Liquid mixture 1
Fixed: Temperature, K = 313.2
Fixed: Pressure, kPa = 101
Property: Mole fraction of heptane (Liquid mixture 2); method: Other
Property: Mole fraction of heptane (Liquid mixture 1); method: Other
Property: Mole fraction of toluene (Liquid mixture 1); method: Other
Mole fraction of toluene	Mole fraction of heptane	uncertainty	Mole fraction of heptane	uncertainty	Mole fraction of toluene	uncertainty
0	.0033	.006	1	.006	0	.006
.0101	.0033	.006	.957	.006	.043	.006
.0219	.0035	.006	.915	.006	.085	.006
.0449	.0036	.006	.8239	.006	.1761	.006
.0628	.0029	.006	.7081	.006	.2919	.006
.0827	.0024	.006	.5777	.006	.4223	.006
.1142	.0026	.006	.4814	.006	.5186	.006
.1285	.0026	.006	.4086	.006	.5914	.006
.1333	.0023	.006	.3212	.006	.6788	.006
.1686	.0026	.006	.2131	.006	.7869	.006
.1908	.0019	.006	.1521	.006	.8479	.006
.227	0	.006	0	.006	1	.006
