Measured thermophysical data. Isobaric (vapour + liquid) equilibria for the (1-pentanol + propionic acid) binary mixture at (53.3 and 91.3) kPa
Source: J. Chem. Thermodyn., 2010, 10.1016/j.jct.2010.05.014
Compound 1: pentan-1-ol, C5H12O, purity 98%
Compound 2: ethanecarboxylic acid, C3H6O2, purity 98%

System: pentan-1-ol; phases: Liquid, Gas
Property: Vapor or sublimation pressure, kPa (Liquid); method: Ebulliometric method (Recirculating still)
Temperature, K	Vapor or sublimation pressure, kPa	uncertainty
414.65	113.3	.1
411.35	101.9	.1
409	94.5	.1
404.6	81.3	.1
400.05	69.3	.1
394.7	56.9	.1
390.75	49.2	.1
385.65	40	.1
382.4	35.3	.1
379.35	31.3	.1

System: ethanecarboxylic acid; phases: Liquid, Gas
Property: Vapor or sublimation pressure, kPa (Liquid); method: Ebulliometric method (Recirculating still)
Temperature, K	Vapor or sublimation pressure, kPa	uncertainty
417.65	112.7	.1
415.45	105.3	.1
411.65	93.5	.1
407.75	82.5	.1
403.95	71.2	.1
399.05	72.9	.1
393.75	61.8	.1
391.9	51.4	.1
389.1	43.5	.1
385.6	38.3	.1
382.45	34.5	.1
379.65	30.8	.1

System: pentan-1-ol + ethanecarboxylic acid; phases: Liquid
Fixed: Pressure, kPa = 101.325
Fixed: Temperature, K = 293.15
Property: Refractive index (Na D-line) (Liquid); method: Standard Abbe refractometry
Mole fraction of pentan-1-ol	Refractive index (Na D-line)	uncertainty
0	1.381	.0001
.0985	1.3838	.0001
.1745	1.3861	.0001
.2541	1.3884	.0001
.3256	1.3904	.0001
.3974	1.3925	.0001
.4321	1.3935	.0001
.5	1.3955	.0001
.5732	1.3976	.0001
.6528	1.3999	.0001
.7243	1.402	.0001
.8001	1.4042	.0001
.8759	1.4064	.0001
.9324	1.4079	.0001
1	1.41	.0001

System: pentan-1-ol + ethanecarboxylic acid; phases: Gas, Liquid
Property: Mole fraction of pentan-1-ol (Gas); method: Index of refraction calibration data
Mole fraction of pentan-1-ol	Pressure, kPa	Mole fraction of pentan-1-ol	uncertainty
0	53.3	0	.0005
.092	53.3	.072	.0005
.1101	53.3	.0902	.0005
.1503	53.3	.1174	.0005
.191	53.3	.1499	.0005
.247	53.3	.2001	.0005
.2774	53.3	.2349	.0005
.322	53.3	.294	.0005
.3909	53.3	.3692	.0005
.4452	53.3	.4391	.0005
.4499	53.3	.4412	.0005
.4584	53.3	.4582	.0005
.4693	53.3	.4698	.0005
.4885	53.3	.4912	.0005
.5047	53.3	.5173	.0005
.5401	53.3	.5638	.0005
.5821	53.3	.6059	.0005
.627	53.3	.664	.0005
.6702	53.3	.7202	.0005
.7202	53.3	.769	.0005
.764	53.3	.818	.0005
.8381	53.3	.8703	.0005
.9219	53.3	.9297	.0005
.9644	53.3	.9821	.0005
1	53.3	1	.0005
0	91.3	0	.0005
.027	91.3	.018	.0005
.1016	91.3	.0705	.0005
.1352	91.3	.0996	.0005
.184	91.3	.1409	.0005
.2182	91.3	.1864	.0005
.2701	91.3	.2392	.0005
.3199	91.3	.2985	.0005
.3844	91.3	.3721	.0005
.4389	91.3	.4391	.0005
.449	91.3	.4502	.0005
.4602	91.3	.4657	.0005
.473	91.3	.4796	.0005
.4876	91.3	.4969	.0005
.5028	91.3	.5142	.0005
.5379	91.3	.5604	.0005
.5703	91.3	.604	.0005
.6193	91.3	.6651	.0005
.662	91.3	.703	.0005
.7389	91.3	.7996	.0005
.793	91.3	.845	.0005
.86	91.3	.9111	.0005
.9193	91.3	.9514	.0005
.974	91.3	.9903	.0005
1	91.3	1	.0005

System: pentan-1-ol + ethanecarboxylic acid; phases: Liquid, Gas
Property: Boiling temperature at pressure P, K (Liquid); method: Ebulliometric method (Recirculating still)
Mole fraction of pentan-1-ol	Pressure, kPa	Boiling temperature at pressure P, K	uncertainty
0	53.3	394.55	.05
.092	53.3	395.45	.05
.1101	53.3	395.6	.05
.1503	53.3	395.85	.05
.191	53.3	396.25	.05
.247	53.3	396.65	.05
.2774	53.3	396.85	.05
.322	53.3	397	.05
.3909	53.3	397.2	.05
.4452	53.3	397.25	.05
.4499	53.3	397.25	.05
.4584	53.3	397.25	.05
.4693	53.3	397.2	.05
.4885	53.3	397.2	.05
.5047	53.3	397.15	.05
.5401	53.3	397.05	.05
.5821	53.3	396.95	.05
.627	53.3	396.75	.05
.6702	53.3	396.5	.05
.7202	53.3	396.15	.05
.764	53.3	395.75	.05
.8381	53.3	395.25	.05
.9219	53.3	394.35	.05
.9644	53.3	393.5	.05
1	53.3	393.15	.05
0	91.3	410.55	.05
.027	91.3	410.85	.05
.1016	91.3	411.65	.05
.1352	91.3	411.95	.05
.184	91.3	412.15	.05
.2182	91.3	412.4	.05
.2701	91.3	412.65	.05
.3199	91.3	412.95	.05
.3844	91.3	413.15	.05
.4389	91.3	413.25	.05
.449	91.3	413.25	.05
.4602	91.3	413.25	.05
.473	91.3	413.2	.05
.4876	91.3	413.15	.05
.5028	91.3	413.05	.05
.5379	91.3	412.9	.05
.5703	91.3	412.7	.05
.6193	91.3	412.45	.05
.662	91.3	412.15	.05
.7389	91.3	411.35	.05
.793	91.3	410.65	.05
.86	91.3	409.85	.05
.9193	91.3	409.4	.05
.974	91.3	408.55	.05
1	91.3	408.05	.05

System: pentan-1-ol + ethanecarboxylic acid; phases: Liquid, Gas
Property: Azeotropic composition: mole fraction of pentan-1-ol (Liquid); method: By X=Y
Temperature, K	Azeotropic composition: mole fraction of pentan-1-ol	uncertainty
397.25	.4585	.0005
413.25	.439	.0005

System: pentan-1-ol + ethanecarboxylic acid; phases: Liquid, Gas
Property: Azeotropic composition: mole fraction of pentan-1-ol (Liquid); method: By X=Y
Pressure, kPa	Azeotropic composition: mole fraction of pentan-1-ol	uncertainty
53.3	.4585	.0005
91.3	.439	.0005
