Measured thermophysical data. Influence of alkyl group on interactions between carboxylic acid and acetonitrile at different temperatures
Source: J. Chem. Thermodyn., 2016, 10.1016/j.jct.2016.03.019
Compound 1: acetic acid, C2H4O2, purity 99%
Compound 2: propanoic acid, C3H6O2, purity 99.5%
Compound 3: acetonitrile, C2H3N, purity 99%

System: acetic acid + acetonitrile; phases: Liquid
Fixed: Pressure, kPa = 100
Property: Mass density, kg/m3 (Liquid); method: Vibrating tube method
Temperature, K	Mole fraction of acetic acid	Mass density, kg/m3	uncertainty
293.15	0	782.04	
293.15	.0555	799.34	
293.15	.1023	813.66	
293.15	.2005	843.56	
293.15	.3077	875	
293.15	.4059	902.8	
293.15	.5096	930.8	
293.15	.6069	956.24	
293.15	.7052	980.84	
293.15	.8022	1004.82	
293.15	.9054	1028.78	
293.15	1	1049.75	
298.15	0	776.66	
298.15	.0555	793.96	
298.15	.1023	808.27	
298.15	.2005	838.14	
298.15	.3077	869.48	
298.15	.4059	897.17	
298.15	.5096	925.3	
298.15	.6069	950.73	
298.15	.7052	975.3	
298.15	.8022	999.26	
298.15	.9054	1023.18	
298.15	1	1044.13	
303.15	0	771.24	
303.15	.0555	788.54	
303.15	.1023	802.85	
303.15	.2005	832.69	
303.15	.3077	863.94	
303.15	.4059	891.52	
303.15	.5096	919.77	
303.15	.6069	945.2	
303.15	.7052	969.76	
303.15	.8022	993.68	
303.15	.9054	1017.58	
303.15	1	1038.48	
308.15	0	765.78	
308.15	.0555	783.09	
308.15	.1023	797.39	
308.15	.2005	827.22	
308.15	.3077	858.37	
308.15	.4059	885.86	
308.15	.5096	914.2	
308.15	.6069	939.66	
308.15	.7052	964.19	
308.15	.8022	988.1	
308.15	.9054	1011.97	
308.15	1	1032.83	
313.15	0	760.29	
313.15	.0555	777.6	
313.15	.1023	791.91	
313.15	.2005	821.71	
313.15	.3077	852.79	
313.15	.4059	880.16	
313.15	.5096	908.6	
313.15	.6069	934.1	
313.15	.7052	958.62	
313.15	.8022	982.5	
313.15	.9054	1006.34	
313.15	1	1027.18	

System: acetic acid + acetonitrile; phases: Liquid
Fixed: Pressure, kPa = 100
Fixed: Frequency, MHz = 3
Property: Speed of sound, m/s (Liquid); method: Sing-around technique in a fixed-path interferometer
Temperature, K	Mole fraction of acetic acid	Speed of sound, m/s	uncertainty
293.15	0	1298.8	
293.15	.0555	1291.4	
293.15	.1023	1284	
293.15	.2005	1269	
293.15	.3077	1254.2	
293.15	.4059	1241.1	
293.15	.5096	1228.8	
293.15	.6069	1216.5	
293.15	.7052	1204.1	
293.15	.8022	1189.6	
293.15	.9054	1172.3	
293.15	1	1152.7	
298.15	0	1279	
298.15	.0555	1271.9	
298.15	.1023	1264.8	
298.15	.2005	1250	
298.15	.3077	1235.5	
298.15	.4059	1222.5	
298.15	.5096	1210.1	
298.15	.6069	1198.5	
298.15	.7052	1186.6	
298.15	.8022	1172.2	
298.15	.9054	1155.1	
298.15	1	1135.7	
303.15	0	1258.8	
303.15	.0555	1252.2	
303.15	.1023	1245.3	
303.15	.2005	1230.6	
303.15	.3077	1216.3	
303.15	.4059	1203.5	
303.15	.5096	1191.6	
303.15	.6069	1180.3	
303.15	.7052	1168.9	
303.15	.8022	1154.7	
303.15	.9054	1137.8	
303.15	1	1118.4	
308.15	0	1238.6	
308.15	.0555	1232.4	
308.15	.1023	1225.6	
308.15	.2005	1211.3	
308.15	.3077	1197.2	
308.15	.4059	1184.7	
308.15	.5096	1172.9	
308.15	.6069	1162	
308.15	.7052	1151.1	
308.15	.8022	1137.2	
308.15	.9054	1120.4	
308.15	1	1101.2	
313.15	0	1218.5	
313.15	.0555	1212.5	
313.15	.1023	1206	
313.15	.2005	1191.9	
313.15	.3077	1178.1	
313.15	.4059	1165.8	
313.15	.5096	1154.2	
313.15	.6069	1143.6	
313.15	.7052	1133.4	
313.15	.8022	1119.6	
313.15	.9054	1103.1	
313.15	1	1084	

System: acetonitrile + propanoic acid; phases: Liquid
Fixed: Pressure, kPa = 100
Property: Mass density, kg/m3 (Liquid); method: Vibrating tube method
Temperature, K	Mole fraction of propanoic acid	Mass density, kg/m3	uncertainty
293.15	0	782.04	
293.15	.0524	799.31	
293.15	.1072	815.8	
293.15	.2054	843.39	
293.15	.3018	868.07	
293.15	.4059	892.22	
293.15	.5084	914.05	
293.15	.6081	933.3	
293.15	.708	950.84	
293.15	.8033	966.14	
293.15	.9062	981.15	
293.15	1	993.33	
298.15	0	776.66	
298.15	.0524	793.95	
298.15	.1072	810.46	
298.15	.2054	838.08	
298.15	.3018	862.77	
298.15	.4059	886.94	
298.15	.5084	908.77	
298.15	.6081	928.01	
298.15	.708	945.55	
298.15	.8033	960.83	
298.15	.9062	975.8	
298.15	1	987.94	
303.15	0	771.24	
303.15	.0524	788.56	
303.15	.1072	805.08	
303.15	.2054	832.73	
303.15	.3018	857.45	
303.15	.4059	881.63	
303.15	.5084	903.48	
303.15	.6081	922.73	
303.15	.708	940.26	
303.15	.8033	955.52	
303.15	.9062	970.46	
303.15	1	982.54	
308.15	0	765.78	
308.15	.0524	783.13	
308.15	.1072	799.68	
308.15	.2054	827.35	
308.15	.3018	852.1	
308.15	.4059	876.3	
308.15	.5084	898.17	
308.15	.6081	917.44	
308.15	.708	934.95	
308.15	.8033	950.2	
308.15	.9062	965.11	
308.15	1	977.15	
313.15	0	760.29	
313.15	.0524	777.67	
313.15	.1072	794.24	
313.15	.2054	821.95	
313.15	.3018	846.72	
313.15	.4059	870.95	
313.15	.5084	892.84	
313.15	.6081	912.15	
313.15	.708	929.63	
313.15	.8033	944.88	
313.15	.9062	959.76	
313.15	1	971.75	

System: acetonitrile + propanoic acid; phases: Liquid
Fixed: Pressure, kPa = 100
Fixed: Frequency, MHz = 3
Property: Speed of sound, m/s (Liquid); method: Sing-around technique in a fixed-path interferometer
Temperature, K	Mole fraction of propanoic acid	Speed of sound, m/s	uncertainty
293.15	0	1298.8	
293.15	.0524	1291.4	
293.15	.1072	1282.6	
293.15	.2054	1267.5	
293.15	.3018	1254	
293.15	.4059	1240.2	
293.15	.5084	1227.4	
293.15	.6081	1215	
293.15	.708	1202.6	
293.15	.8033	1190.8	
293.15	.9062	1177.6	
293.15	1	1164.7	
298.15	0	1279	
298.15	.0524	1271.9	
298.15	.1072	1263.2	
298.15	.2054	1248.5	
298.15	.3018	1235.2	
298.15	.4059	1221.7	
298.15	.5084	1209	
298.15	.6081	1196.8	
298.15	.708	1184.2	
298.15	.8033	1172.4	
298.15	.9062	1159.1	
298.15	1	1146	
303.15	0	1258.8	
303.15	.0524	1252	
303.15	.1072	1243.6	
303.15	.2054	1229.1	
303.15	.3018	1216.1	
303.15	.4059	1202.8	
303.15	.5084	1190.3	
303.15	.6081	1177.8	
303.15	.708	1165.7	
303.15	.8033	1153.9	
303.15	.9062	1140.5	
303.15	1	1127.1	
308.15	0	1238.6	
308.15	.0524	1232.1	
308.15	.1072	1223.9	
308.15	.2054	1209.8	
308.15	.3018	1197	
308.15	.4059	1183.9	
308.15	.5084	1171.5	
308.15	.6081	1159.5	
308.15	.708	1147.2	
308.15	.8033	1135.3	
308.15	.9062	1121.8	
308.15	1	1108.3	
313.15	0	1218.5	
313.15	.0524	1212.3	
313.15	.1072	1204.3	
313.15	.2054	1190.4	
313.15	.3018	1177.8	
313.15	.4059	1165	
313.15	.5084	1152.8	
313.15	.6081	1141	
313.15	.708	1128.6	
313.15	.8033	1116.8	
313.15	.9062	1103.3	
313.15	1	1089.6	
