Measured thermophysical data. Thermodynamic functions of 1-methyl-4-(methylsulfonyl)benzene solubility in nine organic solvents from T = (278.15 to 318.15) K
Source: J. Chem. Thermodyn., 2016, 10.1016/j.jct.2016.08.021
Compound 1: 1-methyl-4-(methylsulfonyl)benzene, C8H10O2S, purity 98.7%
Compound 2: methanol, CH4O
Compound 3: ethanol, C2H6O
Compound 4: acetonitrile, C2H3N
Compound 5: ethyl acetate, C4H8O2
Compound 6: acetone, C3H6O
Compound 7: N,N-dimethylformamide, C3H7NO
Compound 8: n-butanol, C4H10O
Compound 9: n-propanol, C3H8O
Compound 10: isopropanol, C3H8O

System: 1-methyl-4-(methylsulfonyl)benzene; phases: Crystal, Liquid, Air at 1 atmosphere
Property: Normal melting temperature, K (Crystal); method: DSC/DTA
Normal melting temperature, K	uncertainty
359.55	.5

System: 1-methyl-4-(methylsulfonyl)benzene; phases: Crystal, Liquid, Air at 1 atmosphere
Property: Molar enthalpy of transition or fusion, kJ/mol (Crystal); method: DSC
Molar enthalpy of transition or fusion, kJ/mol	uncertainty
19.46	.44

System: methanol + 1-methyl-4-(methylsulfonyl)benzene; phases: Liquid, Crystal
Fixed: Pressure, kPa = 101.3
Property: Mole fraction of 1-methyl-4-(methylsulfonyl)benzene (Liquid); method: Chromatography
Temperature, K	Mole fraction of 1-methyl-4-(methylsulfonyl)benzene	uncertainty
278.15	.01108	
283.15	.01528	
288.15	.02069	
293.15	.02822	
298.15	.03757	
303.15	.04997	
308.15	.06568	
313.15	.08576	
318.15	.1109	

System: ethanol + 1-methyl-4-(methylsulfonyl)benzene; phases: Liquid, Crystal
Fixed: Pressure, kPa = 101.3
Property: Mole fraction of 1-methyl-4-(methylsulfonyl)benzene (Liquid); method: Chromatography
Temperature, K	Mole fraction of 1-methyl-4-(methylsulfonyl)benzene	uncertainty
278.15	.007212	
283.15	.009932	
288.15	.01369	
293.15	.01801	
298.15	.02412	
303.15	.03211	
308.15	.04205	
313.15	.055	
318.15	.07121	

System: acetonitrile + 1-methyl-4-(methylsulfonyl)benzene; phases: Liquid, Crystal
Fixed: Pressure, kPa = 101.3
Property: Mole fraction of 1-methyl-4-(methylsulfonyl)benzene (Liquid); method: Chromatography
Temperature, K	Mole fraction of 1-methyl-4-(methylsulfonyl)benzene	uncertainty
278.15	.08397	
283.15	.102	
288.15	.1295	
293.15	.1551	
298.15	.1831	
303.15	.2184	
308.15	.2575	
313.15	.3005	
318.15	.3594	

System: ethyl acetate + 1-methyl-4-(methylsulfonyl)benzene; phases: Liquid, Crystal
Fixed: Pressure, kPa = 101.3
Property: Mole fraction of 1-methyl-4-(methylsulfonyl)benzene (Liquid); method: Chromatography
Temperature, K	Mole fraction of 1-methyl-4-(methylsulfonyl)benzene	uncertainty
278.15	.06113	
283.15	.07319	
288.15	.08722	
293.15	.1033	
298.15	.1228	
303.15	.1436	
308.15	.1707	
313.15	.2027	
318.15	.2358	

System: acetone + 1-methyl-4-(methylsulfonyl)benzene; phases: Liquid, Crystal
Fixed: Pressure, kPa = 101.3
Property: Mole fraction of 1-methyl-4-(methylsulfonyl)benzene (Liquid); method: Chromatography
Temperature, K	Mole fraction of 1-methyl-4-(methylsulfonyl)benzene	uncertainty
278.15	.0999	
283.15	.1185	
288.15	.1442	
293.15	.1724	
298.15	.199	
303.15	.2342	
308.15	.274	
313.15	.3216	
318.15	.3791	

System: N,N-dimethylformamide + 1-methyl-4-(methylsulfonyl)benzene; phases: Liquid, Crystal
Fixed: Pressure, kPa = 101.3
Property: Mole fraction of 1-methyl-4-(methylsulfonyl)benzene (Liquid); method: Chromatography
Temperature, K	Mole fraction of 1-methyl-4-(methylsulfonyl)benzene	uncertainty
278.15	.1228	
283.15	.1459	
288.15	.1769	
293.15	.2082	
298.15	.2437	
303.15	.2822	
308.15	.3322	
313.15	.3885	
318.15	.4495	

System: n-butanol + 1-methyl-4-(methylsulfonyl)benzene; phases: Liquid, Crystal
Fixed: Pressure, kPa = 101.3
Property: Mole fraction of 1-methyl-4-(methylsulfonyl)benzene (Liquid); method: Chromatography
Temperature, K	Mole fraction of 1-methyl-4-(methylsulfonyl)benzene	uncertainty
278.15	.004083	
283.15	.005989	
288.15	.008694	
293.15	.01251	
298.15	.01782	
303.15	.0252	
308.15	.03533	
313.15	.04922	
318.15	.06809	

System: n-propanol + 1-methyl-4-(methylsulfonyl)benzene; phases: Liquid, Crystal
Fixed: Pressure, kPa = 101.3
Property: Mole fraction of 1-methyl-4-(methylsulfonyl)benzene (Liquid); method: Chromatography
Temperature, K	Mole fraction of 1-methyl-4-(methylsulfonyl)benzene	uncertainty
278.15	.005958	
283.15	.008391	
288.15	.012	
293.15	.01596	
298.15	.02202	
303.15	.02999	
308.15	.04001	
313.15	.05198	
318.15	.06903	

System: isopropanol + 1-methyl-4-(methylsulfonyl)benzene; phases: Liquid, Crystal
Fixed: Pressure, kPa = 101.3
Property: Mole fraction of 1-methyl-4-(methylsulfonyl)benzene (Liquid); method: Chromatography
Temperature, K	Mole fraction of 1-methyl-4-(methylsulfonyl)benzene	uncertainty
278.15	.004153	
283.15	.005789	
288.15	.008002	
293.15	.01101	
298.15	.01495	
303.15	.02028	
308.15	.02746	
313.15	.03667	
318.15	.04912	
