Measured thermophysical data. Thermodynamic measurement of Dy + Fe binary system by double Knudsen cell mass spectrometry
Source: J. Chem. Thermodyn., 2013, 10.1016/j.jct.2013.05.034
Compound 1: dysprosium, Dy, purity 99%
Compound 2: iron, Fe, purity 99%

System: dysprosium + iron; phases: Liquid
Fixed: Pressure, kPa = 101
Property: (Relative) activity of dysprosium (Liquid); method: Mass-spectrometry
Mole fraction of dysprosium	Temperature, K	(Relative) activity of dysprosium	uncertainty
.23	1573	.12	.01
.28	1573	.22	.01
.57	1423	.41	.01
.57	1473	.41	.01
.57	1523	.38	.01
.57	1573	.37	.01
.74	1273	.53	.01
.74	1323	.62	.01
.74	1373	.64	.01
.74	1423	.64	.01
.74	1473	.69	.01
.74	1523	.64	.01
.74	1573	.6	.01
.85	1573	.85	.01

System: dysprosium + iron; phases: Liquid, Crystal
Fixed: Pressure, kPa = 101
Property: (Relative) activity of dysprosium (Liquid); method: Mass-spectrometry
Temperature, K	(Relative) activity of dysprosium	uncertainty
1273	.96	.01
1323	.99	.01
1373	.95	.01
1423	.93	.01
1473	.91	.01
1523	.89	.01

System: dysprosium + iron; phases: Liquid, Crystal of intercomponent compound 1
Fixed: Pressure, kPa = 101
Property: (Relative) activity of dysprosium (Liquid); method: Mass-spectrometry
Temperature, K	(Relative) activity of dysprosium	uncertainty
1273	.54	.01
1323	.51	.01
1373	.45	.01

System: dysprosium + iron; phases: Liquid, Crystal of intercomponent compound 2
Fixed: Pressure, kPa = 101
Property: (Relative) activity of dysprosium (Liquid); method: Mass-spectrometry
Temperature, K	(Relative) activity of dysprosium	uncertainty
1573	.07	.002
