Measured thermophysical data. Isomerization effect on the heat capacities and phase behavior of oligophenyls isomers series
Source: J. Chem. Thermodyn., 2013, 10.1016/j.jct.2013.03.026
Compound 1: benzene, 1,2-diphenyl-, C18H14
Compound 2: 1,3-diphenylbenzene, C18H14
Compound 3: p-terphenyl, C18H14
Compound 4: o-quaterphenyl, C24H18
Compound 5: metaquaterphenyl, C24H18
Compound 6: 1,1'-biphenyl, 4,4'-diphenyl-, C24H18
Compound 7: o-quinquephenyl, C30H22
Compound 8: 1,1':3',1'':3'',1'':3'',1''''-quinquephenyl, C30H22
Compound 9: p-quinquephenyl, C30H22

System: benzene, 1,2-diphenyl-; phases: Crystal, Liquid, Air at 1 atmosphere
Property: Triple point temperature, K (Crystal); method: DSC/DTA
Triple point temperature, K	uncertainty
329.4	.2

System: benzene, 1,2-diphenyl-; phases: Crystal, Liquid, Air at 1 atmosphere
Property: Molar enthalpy of transition or fusion, kJ/mol (Crystal); method: DSC/DTA
Molar enthalpy of transition or fusion, kJ/mol	uncertainty
17	.4

System: 1,3-diphenylbenzene; phases: Crystal, Liquid, Air at 1 atmosphere
Property: Triple point temperature, K (Crystal); method: DSC/DTA
Triple point temperature, K	uncertainty
361.8	.6

System: 1,3-diphenylbenzene; phases: Crystal, Liquid, Air at 1 atmosphere
Property: Molar enthalpy of transition or fusion, kJ/mol (Crystal); method: DSC/DTA
Molar enthalpy of transition or fusion, kJ/mol	uncertainty
25.5	.4

System: p-terphenyl; phases: Crystal, Liquid, Air at 1 atmosphere
Property: Triple point temperature, K (Crystal); method: DSC/DTA
Triple point temperature, K	uncertainty
490.9	.5

System: p-terphenyl; phases: Crystal, Liquid, Air at 1 atmosphere
Property: Molar enthalpy of transition or fusion, kJ/mol (Crystal); method: DSC/DTA
Molar enthalpy of transition or fusion, kJ/mol	uncertainty
32.9	.6

System: o-quaterphenyl; phases: Crystal
Fixed: Pressure, kPa = 101.325
Property: Molar heat capacity at constant pressure, J/K/mol (Crystal); method: Drop calorimetry
Temperature, K	Molar heat capacity at constant pressure, J/K/mol	uncertainty
298.15	359.1	.5

System: o-quaterphenyl; phases: Crystal, Liquid, Air at 1 atmosphere
Property: Triple point temperature, K (Crystal); method: DSC/DTA
Triple point temperature, K	uncertainty
390.6	.4

System: o-quaterphenyl; phases: Crystal, Liquid, Air at 1 atmosphere
Property: Molar enthalpy of transition or fusion, kJ/mol (Crystal); method: DSC/DTA
Molar enthalpy of transition or fusion, kJ/mol	uncertainty
27.2	.5

System: metaquaterphenyl; phases: Crystal
Fixed: Pressure, kPa = 101.325
Property: Molar heat capacity at constant pressure, J/K/mol (Crystal); method: Drop calorimetry
Temperature, K	Molar heat capacity at constant pressure, J/K/mol	uncertainty
298.15	359.5	.7

System: metaquaterphenyl; phases: Crystal, Liquid, Air at 1 atmosphere
Property: Triple point temperature, K (Crystal); method: DSC/DTA
Triple point temperature, K	uncertainty
360	.1

System: metaquaterphenyl; phases: Crystal, Liquid, Air at 1 atmosphere
Property: Molar enthalpy of transition or fusion, kJ/mol (Crystal); method: DSC/DTA
Molar enthalpy of transition or fusion, kJ/mol	uncertainty
27.7	.5

System: 1,1'-biphenyl, 4,4'-diphenyl-; phases: Crystal, Liquid, Air at 1 atmosphere
Property: Triple point temperature, K (Crystal); method: DSC/DTA
Triple point temperature, K	uncertainty
594.4	.5

System: 1,1'-biphenyl, 4,4'-diphenyl-; phases: Crystal, Liquid, Air at 1 atmosphere
Property: Molar enthalpy of transition or fusion, kJ/mol (Crystal); method: DSC/DTA
Molar enthalpy of transition or fusion, kJ/mol	uncertainty
53.4	1.1

System: o-quinquephenyl; phases: Crystal
Fixed: Pressure, kPa = 101.325
Property: Molar heat capacity at constant pressure, J/K/mol (Crystal); method: Drop calorimetry
Temperature, K	Molar heat capacity at constant pressure, J/K/mol	uncertainty
298.15	444.3	.4

System: o-quinquephenyl; phases: Crystal, Liquid, Air at 1 atmosphere
Property: Triple point temperature, K (Crystal); method: DSC/DTA
Triple point temperature, K	uncertainty
428.8	.3

System: o-quinquephenyl; phases: Crystal, Liquid, Air at 1 atmosphere
Property: Molar enthalpy of transition or fusion, kJ/mol (Crystal); method: DSC/DTA
Molar enthalpy of transition or fusion, kJ/mol	uncertainty
32.4	.5

System: 1,1':3',1'':3'',1'':3'',1''''-quinquephenyl; phases: Crystal
Fixed: Pressure, kPa = 101.325
Property: Molar heat capacity at constant pressure, J/K/mol (Crystal); method: Drop calorimetry
Temperature, K	Molar heat capacity at constant pressure, J/K/mol	uncertainty
298.15	443.7	1

System: 1,1':3',1'':3'',1'':3'',1''''-quinquephenyl; phases: Crystal, Liquid, Air at 1 atmosphere
Property: Triple point temperature, K (Crystal); method: DSC/DTA
Triple point temperature, K	uncertainty
387.1	.2

System: 1,1':3',1'':3'',1'':3'',1''''-quinquephenyl; phases: Crystal, Liquid, Air at 1 atmosphere
Property: Molar enthalpy of transition or fusion, kJ/mol (Crystal); method: DSC/DTA
Molar enthalpy of transition or fusion, kJ/mol	uncertainty
31.2	.5

System: p-quinquephenyl; phases: Crystal 2
Fixed: Pressure, kPa = 101.325
Property: Molar heat capacity at constant pressure, J/K/mol (Crystal 2); method: Drop calorimetry
Temperature, K	Molar heat capacity at constant pressure, J/K/mol	uncertainty
298.15	455.5	.8

System: p-quinquephenyl; phases: Crystal 2, Crystal 1, Air at 1 atmosphere
Property: Triple point temperature, K (Crystal 2); method: DSC/DTA
Triple point temperature, K	uncertainty
642.2	3.9

System: p-quinquephenyl; phases: Crystal 1, Nematic liquid crystal, Air at 1 atmosphere
Property: Triple point temperature, K (Crystal 1); method: DSC/DTA
Triple point temperature, K	uncertainty
663.4	3.9

System: p-quinquephenyl; phases: Nematic liquid crystal, Liquid, Air at 1 atmosphere
Property: Triple point temperature, K (Nematic liquid crystal); method: DSC/DTA
Triple point temperature, K	uncertainty
696	3.9

System: p-quinquephenyl; phases: Crystal 2, Crystal 1, Air at 1 atmosphere
Property: Molar enthalpy of transition or fusion, kJ/mol (Crystal 2); method: DSC/DTA
Molar enthalpy of transition or fusion, kJ/mol	uncertainty
.5	.3

System: p-quinquephenyl; phases: Crystal 1, Nematic liquid crystal, Air at 1 atmosphere
Property: Molar enthalpy of transition or fusion, kJ/mol (Crystal 1); method: DSC/DTA
Molar enthalpy of transition or fusion, kJ/mol	uncertainty
48.8	3.9

System: p-quinquephenyl; phases: Nematic liquid crystal, Liquid, Air at 1 atmosphere
Property: Molar enthalpy of transition or fusion, kJ/mol (Nematic liquid crystal); method: DSC/DTA
Molar enthalpy of transition or fusion, kJ/mol	uncertainty
1.6	.4
