Measured thermophysical data. Solubility and viscosity for CO2 capture process using MEA promoted DEAE aqueous solution
Source: J. Chem. Thermodyn., 2016, 10.1016/j.jct.2015.12.001
Compound 1: 2-diethylaminoethanol, C6H15NO, purity 99%
Compound 2: monoethanolamine, C2H7NO, purity 99.5%
Compound 3: carbon dioxide, CO2, purity 99.99%
Compound 4: water, H2O, purity 99.9%

System: 2-diethylaminoethanol + carbon dioxide + water; phases: Liquid, Gas
Fixed: Pressure, kPa = 100
Property: Mass ratio of solute to solvent of carbon dioxide (Liquid); method: Volumetric
Temperature, K	Solvent: Mass fraction of 2-diethylaminoethanol	Mass ratio of solute to solvent of carbon dioxide	uncertainty
303.2	.2999	.0984	.0033
313.2	.2999	.0952	.0033
323.2	.2999	.0923	.0033
303.2	.4001	.1251	.0033
313.2	.4001	.1228	.0033
323.2	.4001	.1201	.0033

System: 2-diethylaminoethanol + carbon dioxide + water; phases: Liquid, Gas
Fixed: Pressure, kPa = 100
Fixed: Solvent: Mass fraction of 2-diethylaminoethanol = .61
Property: Mole fraction of carbon dioxide (Liquid); method: Volumetric
Temperature, K	Mole fraction of carbon dioxide	uncertainty
313.2	.128	.005

System: 2-diethylaminoethanol + monoethanolamine + water; phases: Liquid
Fixed: Pressure, kPa = 100
Property: Viscosity, Pa*s (Liquid); method: Concentric cylinders viscometry
Temperature, K	Mass fraction of 2-diethylaminoethanol	Mass fraction of monoethanolamine	Viscosity, Pa*s	uncertainty
303.2	.3001	.0499	.0041	.00016
303.2	.3001	.1001	.0053	.00016
303.2	.3001	.1501	.00585	.00016
303.2	.3499	.0501	.00516	.00016
303.2	.3499	.0999	.00607	.00016
303.2	.3499	.1501	.00705	.00016
303.2	.4001	.0499	.00586	.00016
303.2	.4001	.1001	.00687	.00016
303.2	.4001	.1499	.00817	.00016
303.2	.4501	.0501	.00707	.00016
303.2	.4501	.1001	.00804	.00016
303.2	.4501	.1501	.0103	.00016
313.2	.3001	.0499	.00304	.00016
313.2	.3001	.1001	.00381	.00016
313.2	.3001	.1501	.00431	.00016
313.2	.3499	.0501	.00372	.00016
313.2	.3499	.0999	.00436	.00016
313.2	.3499	.1501	.00497	.00016
313.2	.4001	.0499	.00438	.00016
313.2	.4001	.1001	.00485	.00016
313.2	.4001	.1499	.00543	.00016
313.2	.4501	.0501	.00509	.00016
313.2	.4501	.1001	.00547	.00016
313.2	.4501	.1501	.00639	.00016
323.2	.3001	.0499	.00227	.00016
323.2	.3001	.1001	.00283	.00016
323.2	.3001	.1501	.00325	.00016
323.2	.3499	.0501	.00277	.00016
323.2	.3499	.0999	.00338	.00016
323.2	.3499	.1501	.00383	.00016
323.2	.4001	.0499	.00329	.00016
323.2	.4001	.1001	.00367	.00016
323.2	.4001	.1499	.00412	.00016
323.2	.4501	.0501	.00374	.00016
323.2	.4501	.1001	.00389	.00016
323.2	.4501	.1501	.00466	.00016
303.2	.3001	0	.00296	.00017
313.2	.3001	0	.00212	.00017
323.2	.3001	0	.00159	.00017
303.2	.3499	0	.00334	.00017
313.2	.3499	0	.00236	.00017
323.2	.3499	0	.00181	.00017
303.2	.4001	0	.00456	.00017
313.2	.4001	0	.00312	.00017
323.2	.4001	0	.00223	.00017
303.2	.4501	0	.00506	.00017
313.2	.4501	0	.00365	.00017
323.2	.4501	0	.00269	.00017
303.2	.4999	0	.00611	.00017
313.2	.4999	0	.00433	.00017
323.2	.4999	0	.00307	.00017
303.2	.6001	0	.00841	.00017
313.2	.6001	0	.00552	.00017
323.2	.6001	0	.00374	.00017

System: 2-diethylaminoethanol + water; phases: Liquid
Property: Viscosity, Pa*s (Liquid); method: Concentric cylinders viscometry
Temperature, K	Mass fraction of 2-diethylaminoethanol	Pressure, kPa	Viscosity, Pa*s	uncertainty
303.2	.3001	100	.00296	.00017
313.2	.3001	100	.00212	.00017
323.2	.3001	100	.00159	.00017
303.2	.3499	100	.00334	.00017
313.2	.3499	100	.00236	.00017
323.2	.3499	100	.00181	.00017
303.2	.4001	100	.00456	.00017
313.2	.4001	100	.00312	.00017
323.2	.4001	100	.00223	.00017
303.2	.4501	100	.00506	.00017
313.2	.4501	100	.00365	.00017
323.2	.4501	100	.00269	.00017
303.2	.4999	100	.00611	.00017
313.2	.4999	100	.00433	.00017
323.2	.4999	100	.00307	.00017
303.2	.6001	100	.00841	.00017
313.2	.6001	100	.00552	.00017
323.2	.6001	100	.00374	.00017

System: carbon dioxide + monoethanolamine + water; phases: Liquid, Gas
Fixed: Pressure, kPa = 100
Fixed: Solvent: Mass fraction of monoethanolamine = .3
Property: Mole fraction of carbon dioxide (Liquid); method: Volumetric
Temperature, K	Mole fraction of carbon dioxide	uncertainty
313.2	.061	.003
