Measured thermophysical data. Physical properties of aqueous mixtures of the ionic 1-ethl-3-methyl imidazolium octyl sulfate: A new ionic rigid gel
Source: J. Chem. Thermodyn., 2014, 10.1016/j.jct.2014.04.016
Compound 1: 1-ethyl-3-methylimidazolium octyl sulfate, C14H28N2O4S, purity 99.8%
Compound 2: water, H2O, purity 99.8%

System: 1-ethyl-3-methylimidazolium octyl sulfate; phases: Crystal, Liquid, Air at 1 atmosphere
Property: Normal melting temperature, K (Crystal); method: Visual observation
Normal melting temperature, K	uncertainty
283	2

System: 1-ethyl-3-methylimidazolium octyl sulfate; phases: Liquid
Fixed: Pressure, kPa = 101.325
Property: Mass density, kg/m3 (Liquid); method: Vibrating tube method
Temperature, K	Mass density, kg/m3	uncertainty
273.1	1110.8	.5
278.1	1107.4	.5
283.1	1103.9	.5
288.1	1100.5	.5
293.1	1097.1	.5
298.1	1093.7	.5
303.1	1090.2	.5
308.1	1086.9	.5
313.1	1083.6	.5
318.1	1080.3	.5
323.1	1077.1	.5
328.1	1073.9	.5
333.1	1070.7	.5
338.1	1067.5	.5
343.1	1064.4	.5
348.1	1061.2	.5
353.1	1058.1	.5
358.1	1054.9	.5
363.1	1051.8	.5
368.1	1048.8	.5
373.1	1045.7	.5

System: 1-ethyl-3-methylimidazolium octyl sulfate; phases: Liquid
Fixed: Pressure, kPa = 101.325
Property: Viscosity, Pa*s (Liquid); method: Concentric cylinders viscometry
Temperature, K	Viscosity, Pa*s	uncertainty
273.1	4.561	.04561
278.1	2.822	.02822
283.1	1.815	.01815
288.1	1.207	.01207
293.1	.8267	.008267
298.1	.581	.00581
303.1	.4217	.004217
308.1	.3117	.003117
313.1	.2333	.002333
318.1	.1791	.001791
323.1	.1398	.001398
328.1	.1109	.001109
333.1	.08914	.0008914
338.1	.07256	.0007256
343.1	.05981	.0005981
348.1	.04983	.0004983
353.1	.04194	.0004194
358.1	.03563	.0003563
363.1	.03053	.0003053
368.1	.02636	.0002636
373.1	.02292	.0002292

System: 1-ethyl-3-methylimidazolium octyl sulfate; phases: Liquid
Fixed: Pressure, kPa = 101.325
Property: Electrical conductivity, S/m (Liquid); method: Alternating current cell with electrodes
Temperature, K	Electrical conductivity, S/m	uncertainty
373.1	.731	.00731
368.1	.661	.00661
363.1	.584	.00584
358.1	.514	.00514
353.1	.447	.00447
348.1	.385	.00385
343.1	.329	.00329
338.1	.279	.00279
333.1	.232	.00232
328.1	.193	.00193
323.1	.153	.00153
318.1	.124	.00124
313.1	.098	.00098
308.1	.078	.00078
303.1	.06	.0006
298.1	.046	.00046
293.1	.034	.00034
288.1	.025	.00025
283.1	.017	.00017
278.1	.012	.00012
273.1	.008	.00008
268.1	.005	.00005
263.1	.003	.00003
258.1	.002	.00002

System: water + 1-ethyl-3-methylimidazolium octyl sulfate; phases: Liquid, Crystal
Fixed: Pressure, kPa = 100
Property: Solid-liquid equilibrium temperature, K (Liquid); method: Visual observation
Mole fraction of 1-ethyl-3-methylimidazolium octyl sulfate	Solid-liquid equilibrium temperature, K	uncertainty
.0401	271	2
.0586	269	2
.0803	265	2

System: water + 1-ethyl-3-methylimidazolium octyl sulfate; phases: Liquid
Fixed: Pressure, kPa = 100
Property: Electrical conductivity, S/m (Liquid); method: Alternating current cell with electrodes
Mole fraction of 1-ethyl-3-methylimidazolium octyl sulfate	Temperature, K	Electrical conductivity, S/m	uncertainty
.1197	272.1	.667	.00667
.1197	271.1	.641	.00641
.1197	270.1	.617	.00617
.1197	269.1	.591	.00591
.1197	268.1	.566	.00566
.1197	264.1	.479	.00479
.1197	268.1	.566	.00566
.1197	269.1	.59	.0059
.1197	270.1	.616	.00616
.1197	271.1	.639	.00639
.1402	283.1	.873	.00873
.1402	282.1	.848	.00848
.1402	281.1	.815	.00815
.1402	278.1	.731	.00731
.1402	273.1	.597	.00597
.1402	278.1	.732	.00732
.1402	280.1	.788	.00788
.1402	281.1	.816	.00816
.1402	282.1	.847	.00847
.1402	283.1	.874	.00874
.1605	287.1	.904	.00904
.1605	286.1	.875	.00875
.1605	285.1	.847	.00847
.1605	284.1	.819	.00819
.1605	283.1	.793	.00793
.1605	282.1	.766	.00766
.1605	281.1	.737	.00737
.1605	278.1	.677	.00677
.1605	283.1	.791	.00791
.1605	285.1	.848	.00848
.1605	286.1	.876	.00876
.1766	293.1	.977	.00977
.1766	292.1	.951	.00951
.1766	291.1	.924	.00924
.1766	290.1	.895	.00895
.1766	289.1	.868	.00868
.1766	288.1	.844	.00844
.1766	287.1	.817	.00817
.1766	288.1	.846	.00846
.1766	289.1	.871	.00871
.1766	290.1	.899	.00899
.1766	291.1	.925	.00925
.1766	292.1	.953	.00953
.1766	293.1	.979	.00979
.2119	292.1	.779	.00779
.2119	291.1	.759	.00759
.2119	290.1	.728	.00728
.2119	288.1	.682	.00682
.2119	283.1	.566	.00566
.2119	278.1	.46	.0046
.2119	273.1	.371	.00371
.2119	268.1	.29	.0029
.2119	263.1	.228	.00228
.2119	273.1	.368	.00368
.2119	283.1	.563	.00563
.2119	288.1	.681	.00681
.2119	291.1	.757	.00757
.2119	292.1	.781	.00781
.2119	293.1	.805	.00805
.2632	288.1	.48	.0048
.2632	287.1	.463	.00463
.2632	286.1	.449	.00449
.2632	285.1	.431	.00431
.2632	284.1	.409	.00409
.2632	283.1	.393	.00393
.2632	286.1	.445	.00445
.2632	286.6	.455	.00455
.2632	287.1	.463	.00463
.2632	287.6	.469	.00469
.2632	288.1	.478	.00478
.2632	288.6	.485	.00485
.2632	289.1	.489	.00489
.3076	286.1	.363	.00363
.3076	285.1	.349	.00349
.3076	284.1	.335	.00335
.3076	278.1	.259	.00259
.3076	273.1	.203	.00203
.3076	278.1	.258	.00258
.3076	284.1	.335	.00335
.3076	285.1	.349	.00349
.3076	286.1	.362	.00362
.3555	279.1	.198	.00198
.3555	278.1	.188	.00188
.3555	277.1	.181	.00181
.3555	276.1	.169	.00169
.3555	273.1	.147	.00147
.3555	276.1	.169	.00169
.3555	277.1	.181	.00181
.3555	278.1	.188	.00188
.3555	279.1	.198	.00198
.4108	273.1	.111	.00111
.4108	272.1	.104	.00104
.4108	271.1	.1	.001
.4108	268.1	.085	.00085
.4108	271.1	.1	.001
.4108	272.1	.104	.00104
.4108	273.1	.111	.00111
.4688	267.1	.049	.00049
.4688	266.1	.045	.00045
.4688	263.1	.038	.00038
.4688	261.1	.032	.00032
.4688	261.1	.031	.00031
.4688	259.1	.028	.00028
.4688	257.1	.023	.00023
.4688	263.1	.036	.00036
.4688	268.1	.051	.00051
.5001	258.1	.023	.00023
.5001	257.1	.022	.00022
.5001	256.1	.02	.0002
.5001	255.1	.018	.00018
.5001	254.1	.016	.00016
.5001	254.1	.017	.00017
.5001	251.9	.014	.00014
.5001	251.8	.013	.00013

System: water + 1-ethyl-3-methylimidazolium octyl sulfate; phases: Liquid
Fixed: Pressure, kPa = 100
Property: Electrical conductivity, S/m (Liquid); method: Alternating current cell with electrodes
Mole fraction of 1-ethyl-3-methylimidazolium octyl sulfate	Temperature, K	Electrical conductivity, S/m	uncertainty
.1197	298.1	1.564	.01564
.1197	293.1	1.358	.01358
.1197	289.1	1.206	.01206
.1197	287.1	1.128	.01128
.1197	285.1	1.058	.01058
.1197	283.1	.987	.00987
.1197	281.1	.927	.00927
.1197	279.1	.866	.00866
.1197	277.1	.806	.00806
.1197	275.1	.75	.0075
.1197	273.1	.695	.00695
.1197	272.1	.666	.00666
.1197	273.1	.695	.00695
.1197	274.1	.723	.00723
.1197	275.1	.75	.0075
.1197	277.1	.807	.00807
.1197	298.1	1.565	.01565
.1402	298.1	1.38	.0138
.1402	293.1	1.19	.0119
.1402	288.1	1.028	.01028
.1402	287.1	.996	.00996
.1402	286.1	.965	.00965
.1402	285.1	.934	.00934
.1402	284.1	.908	.00908
.1402	284.1	.907	.00907
.1402	285.1	.936	.00936
.1402	286.1	.967	.00967
.1402	287.1	.997	.00997
.1402	288.1	1.028	.01028
.1402	289.1	1.058	.01058
.1402	291.1	1.12	.0112
.1402	293.1	1.19	.0119
.1402	298.1	1.377	.01377
.1605	298.1	1.25	.0125
.1605	296.1	1.177	.01177
.1605	293.1	1.076	.01076
.1605	291.1	1.02	.0102
.1605	289.1	.964	.00964
.1605	288.1	.932	.00932
.1605	287.1	.906	.00906
.1605	288.1	.934	.00934
.1605	289.1	.963	.00963
.1605	291.1	1.02	.0102
.1605	293.1	1.078	.01078
.1605	296.1	1.176	.01176
.1605	298.1	1.247	.01247
.1766	298.1	1.112	.01112
.1766	297.1	1.081	.01081
.1766	296.1	1.055	.01055
.1766	295.1	1.028	.01028
.1766	294.1	1.003	.01003
.1766	294.1	1.004	.01004
.1766	295.1	1.03	.0103
.1766	296.1	1.056	.01056
.1766	297.1	1.083	.01083
.1766	298.1	1.11	.0111
.2119	298.1	.925	.00925
.2119	296.1	.873	.00873
.2119	295.1	.85	.0085
.2119	294.1	.826	.00826
.2119	293.1	.804	.00804
.2119	294.1	.828	.00828
.2119	295.1	.852	.00852
.2119	296.1	.875	.00875
.2119	297.1	.9	.009
.2119	298.1	.921	.00921
.2632	298.1	.675	.00675
.2632	297.1	.651	.00651
.2632	296.1	.628	.00628
.2632	295.1	.606	.00606
.2632	294.1	.585	.00585
.2632	293.1	.564	.00564
.2632	292.1	.543	.00543
.2632	291.1	.527	.00527
.2632	290.1	.511	.00511
.2632	289.1	.494	.00494
.2632	289.6	.503	.00503
.2632	290.1	.511	.00511
.2632	291.1	.527	.00527
.2632	293.1	.562	.00562
.2632	298.1	.669	.00669
.3076	298.1	.573	.00573
.3076	296.1	.531	.00531
.3076	293.1	.477	.00477
.3076	291.1	.441	.00441
.3076	288.1	.389	.00389
.3076	287.1	.375	.00375
.3076	287.1	.377	.00377
.3076	288.1	.388	.00388
.3076	291.1	.442	.00442
.3076	293.1	.479	.00479
.3076	296.1	.533	.00533
.3076	298.1	.572	.00572
.3555	298.1	.435	.00435
.3555	295.1	.389	.00389
.3555	293.1	.359	.00359
.3555	291.1	.332	.00332
.3555	288.1	.294	.00294
.3555	285.1	.257	.00257
.3555	283.1	.236	.00236
.3555	281.1	.215	.00215
.3555	280.1	.206	.00206
.3555	280.1	.205	.00205
.3555	281.1	.214	.00214
.3555	283.1	.234	.00234
.3555	285.1	.258	.00258
.3555	288.1	.293	.00293
.3555	293.1	.357	.00357
.3555	295.1	.387	.00387
.3555	298.1	.434	.00434
.4108	298.1	.358	.00358
.4108	295.1	.32	.0032
.4108	293.1	.294	.00294
.4108	291.1	.271	.00271
.4108	288.1	.24	.0024
.4108	285.1	.209	.00209
.4108	283.1	.189	.00189
.4108	281.1	.168	.00168
.4108	278.1	.144	.00144
.4108	275.1	.123	.00123
.4108	274.1	.117	.00117
.4108	275.1	.123	.00123
.4108	278.1	.144	.00144
.4108	281.1	.168	.00168
.4108	283.1	.189	.00189
.4108	288.1	.237	.00237
.4108	293.1	.293	.00293
.4108	298.1	.355	.00355
.4688	298.1	.287	.00287
.4688	296.1	.258	.00258
.4688	293.1	.214	.00214
.4688	291.1	.192	.00192
.4688	288.1	.166	.00166
.4688	285.1	.142	.00142
.4688	283.1	.128	.00128
.4688	280.1	.109	.00109
.4688	278.1	.097	.00097
.4688	276.1	.086	.00086
.4688	273.1	.073	.00073
.4688	270.1	.059	.00059
.4688	268.1	.052	.00052
.4688	269.1	.054	.00054
.4688	270.1	.058	.00058
.4688	273.1	.07	.0007
.4688	283.1	.124	.00124
.4688	288.1	.159	.00159
.4688	298.1	.254	.00254
.5001	298.1	.241	.00241
.5001	293.1	.19	.0019
.5001	288.1	.15	.0015
.5001	283.1	.117	.00117
.5001	278.1	.089	.00089
.5001	273.1	.066	.00066
.5001	268.1	.048	.00048
.5001	263.1	.034	.00034
.5001	261.1	.029	.00029
.5001	259.1	.025	.00025
.5001	293.1	.191	.00191
.5001	298.1	.236	.00236
.5001	303.1	.295	.00295
.5001	313.1	.42	.0042
.5001	323.1	.58	.0058
.0401	298.1	2.163	.02163
.0401	293.1	1.924	.01924
.0401	288.1	1.698	.01698
.0401	283.1	1.479	.01479
.0401	278.1	1.318	.01318
.0401	273.1	1.075	.01075
.0401	270.1	.968	.00968
.0401	268.1	.898	.00898
.0401	272.1	1.03	.0103
.0401	273.1	1.074	.01074
.0401	278.1	1.314	.01314
.0401	283.1	1.477	.01477
.0401	288.1	1.696	.01696
.0401	293.1	1.923	.01923
.0401	298.1	2.161	.02161
.0586	298.1	2.141	.02141
.0586	293.1	1.91	.0191
.0586	288.1	1.666	.01666
.0586	283.1	1.455	.01455
.0586	278.1	1.244	.01244
.0586	273.1	1.043	.01043
.0586	268.1	.867	.00867
.0586	263.1	.703	.00703
.0586	269.1	.897	.00897
.0586	273.1	1.04	.0104
.0586	278.1	1.241	.01241
.0586	283.1	1.451	.01451
.0586	298.1	2.139	.02139
.0803	298.1	1.962	.01962
.0803	295.1	1.815	.01815
.0803	293.1	1.723	.01723
.0803	291.1	1.633	.01633
.0803	288.1	1.506	.01506
.0803	285.1	1.373	.01373
.0803	283.1	1.294	.01294
.0803	281.1	1.218	.01218
.0803	279.1	1.099	.01099
.0803	276.1	1.024	.01024
.0803	273.1	.921	.00921
.0803	271.1	.862	.00862
.0803	268.1	.755	.00755
.0803	265.1	.667	.00667
.0803	263.1	.611	.00611
.0803	261.1	.56	.0056
.0803	265.1	.622	.00622
.0803	266.1	.688	.00688
.0803	268.1	.753	.00753

System: water + 1-ethyl-3-methylimidazolium octyl sulfate; phases: Liquid
Fixed: Pressure, kPa = 100
Property: Viscosity, Pa*s (Liquid); method: Concentric cylinders viscometry
Mole fraction of 1-ethyl-3-methylimidazolium octyl sulfate	Temperature, K	Viscosity, Pa*s	uncertainty
.1197	298.1	.0463	.001389
.1197	313.1	.02309	.0006927
.1197	298.1	.04617	.0013851
.1197	293.1	.05982	.0017946
.1197	288.1	.07876	.0023628
.1197	283.1	.1055	.003165
.1197	278.1	.5918	.017754
.1197	277.1	1.248	.03744
.1197	276.1	2.361	.07083
.1197	275.1	4.354	.13062
.1197	274.1	6.783	.20349
.1197	273.1	9.033	.27099
.1197	272.1	11.47	.3441
.1197	271.1	16.39	.4917
.1197	270.1	19.17	.5751
.1402	298.1	.05329	.0015987
.1402	297.1	.0562	.001686
.1402	296.1	.05929	.0017787
.1402	295.1	.06258	.0018774
.1402	294.1	.06611	.0019833
.1402	293.1	.06989	.0020967
.1402	292.1	.0808	.002424
.1402	291.1	.1228	.003684
.1402	290.1	.2136	.006408
.1402	289.1	.3961	.011883
.1402	288.1	1.042	.03126
.1402	287.1	2.587	.07761
.1402	286.1	4.375	.13125
.1402	285.1	6.22	.1866
.1402	283.1	11.41	.3423
.1605	313.1	.02853	.0008559
.1605	308.1	.03589	.0010767
.1605	303.1	.0458	.001374
.1605	298.1	.05939	.0017817
.1605	293.1	.5891	.017673
.1605	292.1	1.353	.04059
.1605	291.1	2.756	.08268
.1605	290.1	5.299	.15897
.1605	289.1	8.364	.25092
.1605	288.1	13.78	.4134
.1605	288.1	15.8	.474
.1605	289.1	8.406	.25218
.1605	290.1	4.5	.135
.1605	291.1	2.752	.08256
.1605	292.1	.5973	.017919
.1605	293.1	.2322	.006966
.1605	298.1	.05763	.0017289
.2632	313.1	.04023	.0012069
.2632	308.1	.04872	.0014616
.2632	303.1	.06215	.0018645
.2632	298.1	.08058	.0024174
.2632	293.1	.1064	.003192
.2632	291.1	.1189	.003567
.2632	289.1	3.435	.10305
.2632	288.1	8.6	.258
.2632	287.6	10.72	.3216
.2632	287.1	14.71	.4413
.2632	287.6	11.92	.3576
.2632	289.6	1.082	.03246
.2632	298.1	.0821	.002463
.3076	318.1	.03602	.0010806
.3076	313.1	.04326	.0012978
.3076	308.1	.05447	.0016341
.3076	303.1	.06923	.0020769
.3076	298.1	.08942	.0026826
.3076	293.1	.1176	.003528
.3076	291.1	.1331	.003993
.3076	290.1	.1413	.004239
.3076	289.1	.15	.0045
.3076	288.1	.1594	.004782
.3076	287.1	.1693	.005079
.3076	286.6	.1746	.005238
.3076	286.1	.1802	.005406
.3076	285.6	.186	.00558
.3076	285.1	.1919	.005757
.3076	284.1	.5606	.016818
.3076	283.6	1.129	.03387
.3076	283.1	2.873	.08619
.3076	282.6	7.608	.22824
.3076	282.1	12.19	.3657
.3555	318.1	.04079	.0012237
.3555	313.1	.05046	.0015138
.3555	308.1	.06327	.0018981
.3555	303.1	.08049	.0024147
.3555	298.1	.1041	.003123
.3555	293.1	.1369	.004107
.3555	288.1	.1837	.005511
.3555	283.1	.2518	.007554
.3555	283.1	.2517	.007551
.3555	282.1	.2688	.008064
.3555	281.1	.2874	.008622
.3555	280.1	.3076	.009228
.3555	279.1	.6332	.018996
.3555	278.1	2.561	.07683
.3555	277.9	2.995	.08985
.3555	277.6	5.137	.15411
.3555	277.9	2.875	.08625
.3555	278.1	2.061	.06183
.3555	278.6	1.16	.0348
.3555	280.6	.2975	.008925
.3555	283.1	.2517	.007551
.3555	298.1	.104	.00312
.3555	323.1	.03303	.0009909
.4108	323.1	.03858	.0011574
.4108	318.1	.04697	.0014091
.4108	313.1	.05788	.0017364
.4108	308.1	.07228	.0021684
.4108	303.1	.09161	.0027483
.4108	298.1	.118	.00354
.4108	293.1	.1547	.004641
.4108	288.1	.2068	.006204
.4108	283.1	.2822	.008466
.4108	278.1	.3946	.011838
.4108	275.1	.4871	.014613
.4108	274.1	.5242	.015726
.4108	273.1	.5647	.016941
.4108	272.1	.6091	.018273
.4108	271.6	.8893	.026679
.4108	271.1	1.385	.04155
.4108	270.6	2.431	.07293
.4108	270.1	5.51	.1653
.4108	269.6	16.3	.489

System: water + 1-ethyl-3-methylimidazolium octyl sulfate; phases: Liquid
Fixed: Pressure, kPa = 100
Property: Mass density, kg/m3 (Liquid); method: Vibrating tube method
Mole fraction of 1-ethyl-3-methylimidazolium octyl sulfate	Temperature, K	Mass density, kg/m3	uncertainty
.1197	298.1	1065.5	.5
.1197	313.1	1055.4	.5
.1197	298.1	1065.9	.5
.1197	293.1	1069.2	.5
.1197	288.1	1072.5	.5
.1197	283.1	1075.7	.5
.1197	278.1	1079	.5
.1197	277.1	1079.7	.5
.1197	276.1	1080.3	.5
.1197	275.1	1080.9	.5
.1197	274.1	1081.5	.5
.1197	273.1	1082	.5
.1197	272.1	1082.6	.5
.1197	271.1	1083.1	.5
.1197	270.1	1083.7	.5
.1197	269.1	1084.1	.5
.1402	298.1	1069.3	.5
.1402	297.1	1069.9	.5
.1402	296.1	1070.6	.5
.1402	295.1	1071.3	.5
.1402	294.1	1072	.5
.1402	293.1	1072.6	.5
.1402	292.1	1073.2	.5
.1402	291.1	1073.7	.5
.1402	290.1	1074.2	.5
.1402	289.1	1074.9	.5
.1402	288.1	1076	.5
.1402	287.1	1076.8	.5
.1402	286.1	1077.3	.5
.1402	285.1	1077.9	.5
.1402	283.1	1078.9	.5
.1402	278.1	1080.9	.5
.1605	313.1	1062.4	.5
.1605	308.1	1065.9	.5
.1605	303.1	1069.3	.5
.1605	298.1	1072.8	.5
.1605	293.1	1076.1	.5
.1605	292.1	1076.9	.5
.1605	291.1	1077.5	.5
.1605	290.1	1077.9	.5
.1605	289.1	1078.4	.5
.1605	288.1	1078.8	.5
.1605	287.1	1079.2	.5
.1605	288.1	1078.7	.5
.1605	289.1	1078.4	.5
.1605	290.1	1078	.5
.1605	291.1	1077.5	.5
.1605	292.1	1076.7	.5
.1605	293.1	1076.2	.5
.1605	298.1	1072.7	.5
.2632	313.1	1072.9	.5
.2632	308.1	1075	.5
.2632	303.1	1078.5	.5
.2632	298.1	1081.9	.5
.2632	293.1	1085.4	.5
.2632	291.1	1085.5	.5
.2632	289.1	1087.8	.5
.2632	288.1	1088.3	.5
.2632	287.6	1088.5	.5
.2632	287.1	1088.7	.5
.2632	286.6	1088.8	.5
.2632	287.6	1088.8	.5
.2632	289.6	1087.9	.5
.2632	298.1	1081.7	.5
.3076	318.1	1070.1	.5
.3076	313.1	1072.2	.5
.3076	308.1	1077.2	.5
.3076	303.1	1080.7	.5
.3076	298.1	1084.1	.5
.3076	293.1	1087.6	.5
.3076	291.1	1088.1	.5
.3076	290.1	1089.1	.5
.3076	289.1	1089.8	.5
.3076	288.1	1090.5	.5
.3076	287.1	1091.2	.5
.3076	286.6	1091.7	.5
.3076	286.1	1092	.5
.3076	285.6	1092.4	.5
.3076	285.1	1092.7	.5
.3076	284.1	1093.6	.5
.3076	283.6	1093.8	.5
.3076	283.1	1094.1	.5
.3076	282.6	1094.3	.5
.3076	282.1	1094.6	.5
.3555	318.1	1072.2	.5
.3555	313.1	1075.6	.5
.3555	308.1	1079	.5
.3555	303.1	1082.4	.5
.3555	298.1	1085.8	.5
.3555	293.1	1089.2	.5
.3555	288.1	1092.7	.5
.3555	283.1	1096.1	.5
.3555	283.1	1096.2	.5
.3555	282.1	1096.9	.5
.3555	281.1	1097.6	.5
.3555	280.1	1098.3	.5
.3555	279.1	1098.8	.5
.3555	278.1	1099.8	.5
.3555	277.9	1099.9	.5
.3555	277.6	1100	.5
.3555	277.9	1099.9	.5
.3555	278.1	1099.7	.5
.3555	278.6	1099.4	.5
.3555	280.6	1097.9	.5
.3555	283.1	1096.1	.5
.3555	298.1	1085.8	.5
.3555	323.1	1068.8	.5
.4108	323.1	1070.8	.5
.4108	318.1	1074.2	.5
.4108	313.1	1077.6	.5
.4108	308.1	1080.9	.5
.4108	303.1	1084.3	.5
.4108	298.1	1087.7	.5
.4108	293.1	1091.1	.5
.4108	288.1	1094.5	.5
.4108	283.1	1098	.5
.4108	278.1	1101.5	.5
.4108	275.1	1103.6	.5
.4108	274.1	1104.3	.5
.4108	273.1	1105	.5
.4108	272.1	1105.7	.5
.4108	271.6	1106.1	.5
.4108	271.1	1106.4	.5
.4108	270.6	1106.7	.5
.4108	270.1	1107	.5
.4108	269.6	1107.2	.5
