Measured thermophysical data. (Vapor + liquid) equilibrium properties of (ethane + ethanol) system  at (295, 303, and 313) K
Source: J. Chem. Thermodyn., 2011, 10.1016/j.jct.2011.05.037
Compound 1: ethane, C2H6, purity 99.999%
Compound 2: ethanol, C2H6O, purity 99.7%

System: ethanol + ethane; phases: Liquid, Gas
Property: Vapor or sublimation pressure, kPa (Liquid); method: density shift at phase transition
Temperature, K	Mass fraction of ethane	Vapor or sublimation pressure, kPa	uncertainty
295.3	.057	1100	5
295.5	.121	2030	5
295.3	.245	3090	5
295.1	.335	3470	5
303.2	.044	1050	5
303.6	.102	2110	5
303.2	.183	3050	5
302.9	.309	4050	5
313.3	.042	1100	5
313.4	.089	2070	5
313.4	.151	3110	5
313.5	.227	4050	5
313.4	.387	5130	5

System: ethanol + ethane; phases: Liquid, Gas
Property: Mass density, kg/m3 (Liquid); method: Vibrating tube method
Temperature, K	Mass fraction of ethane	Mass density, kg/m3	uncertainty
295.3	.057	757	1
295.5	.121	726	1
295.3	.245	665	1
295.1	.335	620	1
303.2	.044	757	1
303.6	.102	725	1
303.2	.183	687	1
302.9	.309	627	1
313.3	.042	749	1
313.4	.089	725	1
313.4	.151	693	1
313.5	.227	654	1
313.4	.387	577	1

System: ethanol + ethane; phases: Liquid, Gas
Property: Viscosity, Pa*s (Liquid); method: Cambridge Visco Pro 2000
Temperature, K	Mass fraction of ethane	Viscosity, Pa*s	uncertainty
295.3	.057	.00085	.0000425
295.5	.121	.00066	.000033
295.3	.245	.00042	.000021
295.1	.335	.00031	.0000155
303.2	.044	.00078	.000039
303.6	.102	.00063	.0000315
303.2	.183	.00046	.000023
302.9	.309	.0003	.000015
313.3	.042	.00064	.000032
313.4	.089	.00053	.0000265
313.4	.387	.00017	.0000085
