Measured thermophysical data. Effect of the number, position and length of alkyl chains on the physical properties of polysubstituted pyridinium ionic liquids
Source: J. Chem. Thermodyn., 2014, 10.1016/j.jct.2013.09.028
Compound 1: 1-ethyl-3,5-dimethyl-2-pentylpyridinium bis(trifluoromethylsulfonyl)imide, C16H24F6N2O4S2
Compound 2: 1-butyl-3,5-dimethyl-2-pentylpyridinium bis(trifluoromethylsulfonyl)imide, C18H28F6N2O4S2
Compound 3: 1-hexyl-2,3,5-trimethylpyridinium bis(trifluoromethylsulfonyl)imide, C16H24F6N2O4S2
Compound 4: 1-hexyl-2-ethyl-3,5-dimethylpyridinium 1,1,1-trifluoro-N-[(trifluoromethyl)sulfonyl]methanesulfonamide, C17H26F6N2O4S2
Compound 5: 1-hexyl-3,5-dimethyl-2-pentylpyridinium bis(trifluoromethylsulfonyl)imide, C20H32F6N2O4S2

System: 1-ethyl-3,5-dimethyl-2-pentylpyridinium bis(trifluoromethylsulfonyl)imide; phases: Liquid
Fixed: Pressure, kPa = 101.325
Property: Mass density, kg/m3 (Liquid); method: Vibrating tube method
Temperature, K	Mass density, kg/m3	uncertainty
298.15	1323.9	.05
303.15	1319.56	.05
308.15	1315.21	.05
313.15	1310.86	.05
318.15	1306.53	.05
323.15	1302.2	.05
328.15	1297.9	.05
333.15	1293.6	.05
338.15	1289.3	.05
343.15	1285.03	.05

System: 1-ethyl-3,5-dimethyl-2-pentylpyridinium bis(trifluoromethylsulfonyl)imide; phases: Liquid
Fixed: Pressure, kPa = 101.325
Property: Viscosity, Pa*s (Liquid); method: Capillary tube (Ostwald; Ubbelohde) method
Temperature, K	Viscosity, Pa*s	uncertainty
298.15	.26	.0026
303.15	.187	.00187
308.15	.138	.00138
313.15	.104	.00104
318.15	.0799	.000799
323.15	.0628	.000628
328.15	.0501	.000501
333.15	.0407	.000407
338.15	.0335	.000335
343.15	.028	.00028

System: 1-ethyl-3,5-dimethyl-2-pentylpyridinium bis(trifluoromethylsulfonyl)imide; phases: Liquid
Fixed: Pressure, kPa = 101.325
Property: Refractive index (Na D-line) (Liquid); method: Standard Abbe refractometry
Temperature, K	Refractive index (Na D-line)	uncertainty
298.15	1.46108	.00004
303.15	1.45947	.00004
308.15	1.45787	.00004
313.15	1.45627	.00004
318.15	1.45463	.00004
323.15	1.45304	.00004
328.15	1.45139	.00004
333.15	1.44979	.00004
338.15	1.44822	.00004
343.15	1.44667	.00004

System: 1-ethyl-3,5-dimethyl-2-pentylpyridinium bis(trifluoromethylsulfonyl)imide; phases: Liquid
Fixed: Pressure, kPa = 101.325
Property: Speed of sound, m/s (Liquid); method: Sing-around technique in a fixed-path interferometer
Temperature, K	Speed of sound, m/s	uncertainty
298.15	1309	1
303.15	1296	1
308.15	1283	1
313.15	1270	1
318.15	1258	1
323.15	1245	1
328.15	1233	1
333.15	1221	1
338.15	1209	1
343.15	1198	1

System: 1-butyl-3,5-dimethyl-2-pentylpyridinium bis(trifluoromethylsulfonyl)imide; phases: Liquid
Fixed: Pressure, kPa = 101.325
Property: Mass density, kg/m3 (Liquid); method: Vibrating tube method
Temperature, K	Mass density, kg/m3	uncertainty
298.15	1288.23	.05
303.15	1283.93	.05
308.15	1279.63	.05
313.15	1275.33	.05
318.15	1271.04	.05
323.15	1266.77	.05
328.15	1262.51	.05
333.15	1258.26	.05
338.15	1254.01	.05
343.15	1249.77	.05

System: 1-butyl-3,5-dimethyl-2-pentylpyridinium bis(trifluoromethylsulfonyl)imide; phases: Liquid
Fixed: Pressure, kPa = 101.325
Property: Viscosity, Pa*s (Liquid); method: Capillary tube (Ostwald; Ubbelohde) method
Temperature, K	Viscosity, Pa*s	uncertainty
298.15	.253	.00253
303.15	.186	.00186
308.15	.138	.00138
313.15	.105	.00105
318.15	.0808	.000808
323.15	.0637	.000637
328.15	.051	.00051
333.15	.0415	.000415
338.15	.0342	.000342
343.15	.0286	.000286

System: 1-butyl-3,5-dimethyl-2-pentylpyridinium bis(trifluoromethylsulfonyl)imide; phases: Liquid
Fixed: Pressure, kPa = 101.325
Property: Refractive index (Na D-line) (Liquid); method: Standard Abbe refractometry
Temperature, K	Refractive index (Na D-line)	uncertainty
298.15	1.4604	.00004
303.15	1.45878	.00004
308.15	1.45714	.00004
313.15	1.45549	.00004
318.15	1.45386	.00004
323.15	1.45226	.00004
328.15	1.45065	.00004
333.15	1.44902	.00004
338.15	1.44744	.00004
343.15	1.44588	.00004

System: 1-butyl-3,5-dimethyl-2-pentylpyridinium bis(trifluoromethylsulfonyl)imide; phases: Liquid
Fixed: Pressure, kPa = 101.325
Property: Speed of sound, m/s (Liquid); method: Sing-around technique in a fixed-path interferometer
Temperature, K	Speed of sound, m/s	uncertainty
298.15	1293	1
303.15	1279	1
308.15	1266	1
313.15	1253	1
318.15	1240	1
323.15	1228	1
328.15	1215	1
333.15	1203	1
338.15	1191	1
343.15	1179	1

System: 1-hexyl-2,3,5-trimethylpyridinium bis(trifluoromethylsulfonyl)imide; phases: Liquid
Fixed: Pressure, kPa = 101.325
Property: Mass density, kg/m3 (Liquid); method: Vibrating tube method
Temperature, K	Mass density, kg/m3	uncertainty
298.15	1336.18	.05
303.15	1331.83	.05
308.15	1327.48	.05
313.15	1323.15	.05
318.15	1318.83	.05
323.15	1314.52	.05
328.15	1310.23	.05
333.15	1305.85	.05
338.15	1301.66	.05
343.15	1297.4	.05

System: 1-hexyl-2,3,5-trimethylpyridinium bis(trifluoromethylsulfonyl)imide; phases: Liquid
Fixed: Pressure, kPa = 101.325
Property: Viscosity, Pa*s (Liquid); method: Capillary tube (Ostwald; Ubbelohde) method
Temperature, K	Viscosity, Pa*s	uncertainty
298.15	.174	.00174
303.15	.129	.00129
308.15	.0982	.000982
313.15	.0762	.000762
318.15	.0602	.000602
323.15	.0483	.000483
328.15	.0393	.000393
333.15	.0324	.000324
338.15	.0271	.000271
343.15	.023	.00023

System: 1-hexyl-2,3,5-trimethylpyridinium bis(trifluoromethylsulfonyl)imide; phases: Liquid
Fixed: Pressure, kPa = 101.325
Property: Refractive index (Na D-line) (Liquid); method: Standard Abbe refractometry
Temperature, K	Refractive index (Na D-line)	uncertainty
298.15	1.46466	.00004
303.15	1.46311	.00004
308.15	1.4615	.00004
313.15	1.4599	.00004
318.15	1.45826	.00004
323.15	1.45671	.00004
328.15	1.45514	.00004
333.15	1.45357	.00004
338.15	1.452	.00004
343.15	1.45044	.00004

System: 1-hexyl-2,3,5-trimethylpyridinium bis(trifluoromethylsulfonyl)imide; phases: Liquid
Fixed: Pressure, kPa = 101.325
Property: Speed of sound, m/s (Liquid); method: Sing-around technique in a fixed-path interferometer
Temperature, K	Speed of sound, m/s	uncertainty
298.15	1288	1
303.15	1276	1
308.15	1264	1
313.15	1252	1
318.15	1240	1
323.15	1229	1
328.15	1218	1
333.15	1206	1
338.15	1195	1
343.15	1184	1

System: 1-hexyl-2-ethyl-3,5-dimethylpyridinium 1,1,1-trifluoro-N-[(trifluoromethyl)sulfonyl]methanesulfonamide; phases: Liquid
Fixed: Pressure, kPa = 101.325
Property: Mass density, kg/m3 (Liquid); method: Vibrating tube method
Temperature, K	Mass density, kg/m3	uncertainty
298.15	1310.42	.05
303.15	1306.08	.05
308.15	1301.74	.05
313.15	1297.4	.05
318.15	1293.07	.05
323.15	1288.77	.05
328.15	1284.47	.05
333.15	1280.19	.05
338.15	1275.9	.05
343.15	1271.64	.05

System: 1-hexyl-2-ethyl-3,5-dimethylpyridinium 1,1,1-trifluoro-N-[(trifluoromethyl)sulfonyl]methanesulfonamide; phases: Liquid
Fixed: Pressure, kPa = 101.325
Property: Viscosity, Pa*s (Liquid); method: Capillary tube (Ostwald; Ubbelohde) method
Temperature, K	Viscosity, Pa*s	uncertainty
298.15	.236	.00236
303.15	.171	.00171
308.15	.128	.00128
313.15	.097	.00097
318.15	.0753	.000753
323.15	.0594	.000594
328.15	.0479	.000479
333.15	.0392	.000392
338.15	.0323	.000323
343.15	.027	.00027

System: 1-hexyl-2-ethyl-3,5-dimethylpyridinium 1,1,1-trifluoro-N-[(trifluoromethyl)sulfonyl]methanesulfonamide; phases: Liquid
Fixed: Pressure, kPa = 101.325
Property: Refractive index (Na D-line) (Liquid); method: Standard Abbe refractometry
Temperature, K	Refractive index (Na D-line)	uncertainty
298.15	1.45938	.00004
303.15	1.45779	.00004
308.15	1.45618	.00004
313.15	1.45457	.00004
318.15	1.45298	.00004
323.15	1.45137	.00004
328.15	1.44977	.00004
333.15	1.44817	.00004
338.15	1.4466	.00004
343.15	1.44499	.00004

System: 1-hexyl-2-ethyl-3,5-dimethylpyridinium 1,1,1-trifluoro-N-[(trifluoromethyl)sulfonyl]methanesulfonamide; phases: Liquid
Fixed: Pressure, kPa = 101.325
Property: Speed of sound, m/s (Liquid); method: Sing-around technique in a fixed-path interferometer
Temperature, K	Speed of sound, m/s	uncertainty
298.15	1303	1
303.15	1289	1
308.15	1276	1
313.15	1264	1
318.15	1251	1
323.15	1239	1
328.15	1227	1
333.15	1215	1
338.15	1203	1
343.15	1192	1

System: 1-hexyl-3,5-dimethyl-2-pentylpyridinium bis(trifluoromethylsulfonyl)imide; phases: Liquid
Fixed: Pressure, kPa = 101.325
Property: Mass density, kg/m3 (Liquid); method: Vibrating tube method
Temperature, K	Mass density, kg/m3	uncertainty
298.15	1253.47	.05
303.15	1249.29	.05
308.15	1245.09	.05
313.15	1240.9	.05
318.15	1236.71	.05
323.15	1232.53	.05
328.15	1228.37	.05
333.15	1224.22	.05
338.15	1220.07	.05
343.15	1215.94	.05

System: 1-hexyl-3,5-dimethyl-2-pentylpyridinium bis(trifluoromethylsulfonyl)imide; phases: Liquid
Fixed: Pressure, kPa = 101.325
Property: Viscosity, Pa*s (Liquid); method: Capillary tube (Ostwald; Ubbelohde) method
Temperature, K	Viscosity, Pa*s	uncertainty
298.15	.278	.00278
303.15	.204	.00204
308.15	.151	.00151
313.15	.115	.00115
318.15	.0885	.000885
323.15	.0696	.000696
328.15	.0557	.000557
333.15	.0452	.000452
338.15	.0371	.000371
343.15	.0309	.000309

System: 1-hexyl-3,5-dimethyl-2-pentylpyridinium bis(trifluoromethylsulfonyl)imide; phases: Liquid
Fixed: Pressure, kPa = 101.325
Property: Refractive index (Na D-line) (Liquid); method: Standard Abbe refractometry
Temperature, K	Refractive index (Na D-line)	uncertainty
298.15	1.46074	.00004
303.15	1.4591	.00004
308.15	1.45746	.00004
313.15	1.45583	.00004
318.15	1.45417	.00004
323.15	1.45255	.00004
328.15	1.45093	.00004
333.15	1.4493	.00004
338.15	1.44769	.00004
343.15	1.44607	.00004

System: 1-hexyl-3,5-dimethyl-2-pentylpyridinium bis(trifluoromethylsulfonyl)imide; phases: Liquid
Fixed: Pressure, kPa = 101.325
Property: Speed of sound, m/s (Liquid); method: Sing-around technique in a fixed-path interferometer
Temperature, K	Speed of sound, m/s	uncertainty
298.15	1291	1
303.15	1277	1
308.15	1264	1
313.15	1251	1
318.15	1238	1
323.15	1225	1
328.15	1213	1
333.15	1201	1
338.15	1188	1
343.15	1176	1
