Measured thermophysical data. (Vapour + liquid) equilibria and excess Gibbs free energies of (cyclohexanone + 1- chlorobutane and + 1,1,1-trichloroethane) binary mixtures at temperatures from (298.15 to 318.15) K
Source: J. Chem. Thermodyn., 2009, 10.1016/j.jct.2009.04.006
Compound 1: 1-chlorobutane, C4H9Cl
Compound 2: 1,1,1-trichloroethane, C2H3Cl3
Compound 3: cyclohexanone, C6H10O

System: 1-chlorobutane; phases: Liquid, Gas
Property: Vapor or sublimation pressure, kPa (Liquid); method: Isoteniscope
Temperature, K	Vapor or sublimation pressure, kPa	uncertainty
298.15	13.72	.02
308.15	20.66	.02
318.15	31.46	.02

System: 1-chlorobutane; phases: Liquid
Property: Refractive index (Na D-line) (Liquid); method: Standard Abbe refractometry
Temperature, K	Pressure, kPa	Refractive index (Na D-line)	uncertainty
298.15	101.325	1.3991	

System: 1-chlorobutane; phases: Liquid
Property: Mass density, kg/m3 (Liquid); method: Pycnometric method
Temperature, K	Pressure, kPa	Mass density, kg/m3	uncertainty
298.15	101.325	880.9	

System: 1,1,1-trichloroethane; phases: Liquid, Gas
Property: Vapor or sublimation pressure, kPa (Liquid); method: Isoteniscope
Temperature, K	Vapor or sublimation pressure, kPa	uncertainty
298.15	16.64	.02
308.15	25.85	.02
318.15	37.61	.02

System: 1,1,1-trichloroethane; phases: Liquid
Property: Refractive index (Na D-line) (Liquid); method: Standard Abbe refractometry
Temperature, K	Pressure, kPa	Refractive index (Na D-line)	uncertainty
298.15	101.325	1.4354	

System: 1,1,1-trichloroethane; phases: Liquid
Property: Mass density, kg/m3 (Liquid); method: Pycnometric method
Temperature, K	Pressure, kPa	Mass density, kg/m3	uncertainty
298.15	101.325	1328.7	

System: cyclohexanone; phases: Liquid, Gas
Property: Vapor or sublimation pressure, kPa (Liquid); method: Isoteniscope
Temperature, K	Vapor or sublimation pressure, kPa	uncertainty
298.15	.64	.02
308.15	1.16	.02
318.15	1.92	.02

System: cyclohexanone; phases: Liquid
Property: Refractive index (Na D-line) (Liquid); method: Standard Abbe refractometry
Temperature, K	Pressure, kPa	Refractive index (Na D-line)	uncertainty
298.15	101.325	1.4482	

System: cyclohexanone; phases: Liquid
Property: Mass density, kg/m3 (Liquid); method: Pycnometric method
Temperature, K	Pressure, kPa	Mass density, kg/m3	uncertainty
298.15	101.325	943	

System: cyclohexanone + 1-chlorobutane; phases: Gas, Liquid
Property: Mole fraction of 1-chlorobutane (Gas); method: Phase equilibration
Mole fraction of 1-chlorobutane	Temperature, K	Mole fraction of 1-chlorobutane	uncertainty
0	298.15	0	.001
.069	298.15	.65	.001
.157	298.15	.822	.001
.242	298.15	.885	.001
.338	298.15	.923	.001
.431	298.15	.945	.001
.519	298.15	.959	.001
.619	298.15	.971	.001
.707	298.15	.979	.001
.78	298.15	.985	.001
.88	298.15	.992	.001
.955	298.15	.997	.001
1	298.15	1	.001
0	308.15	0	.001
.069	308.15	.609	.001
.157	308.15	.792	.001
.242	308.15	.863	.001
.338	308.15	.907	.001
.431	308.15	.933	.001
.519	308.15	.95	.001
.619	308.15	.964	.001
.707	308.15	.974	.001
.78	308.15	.982	.001
.88	308.15	.99	.001
.955	308.15	.996	.001
1	308.15	1	.001
0	318.15	0	.001
.069	318.15	.569	.001
.157	318.15	.768	.001
.242	318.15	.848	.001
.338	318.15	.899	.001
.431	318.15	.927	.001
.519	318.15	.946	.001
.619	318.15	.962	.001
.707	318.15	.973	.001
.78	318.15	.981	.001
.88	318.15	.99	.001
.955	318.15	.996	.001
1	318.15	1	.001

System: cyclohexanone + 1-chlorobutane; phases: Liquid, Gas
Property: Vapor or sublimation pressure, kPa (Liquid); method: Isoteniscope
Mole fraction of 1-chlorobutane	Temperature, K	Vapor or sublimation pressure, kPa	uncertainty
0	298.15	.64	.02
.069	298.15	1.56	.02
.157	298.15	3.06	.02
.242	298.15	4.31	.02
.338	298.15	5.7	.02
.431	298.15	6.84	.02
.519	298.15	7.93	.02
.619	298.15	9.14	.02
.707	298.15	10.22	.02
.78	298.15	11.06	.02
.88	298.15	12.27	.02
.955	298.15	13.26	.02
1	298.15	13.72	.02
0	308.15	1.16	.02
.069	308.15	2.73	.02
.157	308.15	4.88	.02
.242	308.15	6.65	.02
.338	308.15	8.29	.02
.431	308.15	10.29	.02
.519	308.15	11.92	.02
.619	308.15	13.78	.02
.707	308.15	15.33	.02
.78	308.15	16.74	.02
.88	308.15	18.71	.02
.955	308.15	20.04	.02
1	308.15	20.66	.02
0	318.15	1.92	.02
.069	318.15	4.22	.02
.157	318.15	7.27	.02
.242	318.15	9.77	.02
.338	318.15	12.42	.02
.431	318.15	15.46	.02
.519	318.15	18.1	.02
.619	318.15	21	.02
.707	318.15	23.3	.02
.78	318.15	25.49	.02
.88	318.15	28.3	.02
.955	318.15	30.26	.02
1	318.15	31.46	.02

System: 1,1,1-trichloroethane + cyclohexanone; phases: Gas, Liquid
Property: Mole fraction of 1,1,1-trichloroethane (Gas); method: Phase equilibration
Mole fraction of 1,1,1-trichloroethane	Temperature, K	Mole fraction of 1,1,1-trichloroethane	uncertainty
0	298.15	0	.001
.075	298.15	.666	.001
.165	298.15	.831	.001
.271	298.15	.903	.001
.36	298.15	.934	.001
.44	298.15	.952	.001
.507	298.15	.963	.001
.571	298.15	.971	.001
.652	298.15	.979	.001
.725	298.15	.985	.001
.795	298.15	.99	.001
.855	298.15	.993	.001
.948	298.15	.998	.001
1	298.15	1	.001
0	308.15	0	.001
.075	308.15	.629	.001
.165	308.15	.805	.001
.271	308.15	.886	.001
.359	308.15	.922	.001
.44	308.15	.943	.001
.507	308.15	.956	.001
.571	308.15	.966	.001
.652	308.15	.976	.001
.725	308.15	.983	.001
.795	308.15	.988	.001
.855	308.15	.993	.001
.948	308.15	.998	.001
1	308.15	1	.001
0	318.15	0	.001
.075	318.15	.597	.001
.165	318.15	.787	.001
.271	318.15	.876	.001
.359	318.15	.915	.001
.44	318.15	.938	.001
.507	318.15	.952	.001
.571	318.15	.962	.001
.652	318.15	.973	.001
.725	318.15	.981	.001
.795	318.15	.986	.001
.855	318.15	.991	.001
.948	318.15	.997	.001
1	318.15	1	.001

System: 1,1,1-trichloroethane + cyclohexanone; phases: Liquid, Gas
Property: Vapor or sublimation pressure, kPa (Liquid); method: Isoteniscope
Mole fraction of 1,1,1-trichloroethane	Temperature, K	Vapor or sublimation pressure, kPa	uncertainty
0	298.15	.64	.02
.075	298.15	1.73	.02
.165	298.15	3.21	.02
.271	298.15	4.77	.02
.36	298.15	6.26	.02
.44	298.15	7.59	.02
.507	298.15	8.68	.02
.571	298.15	9.69	.02
.652	298.15	10.82	.02
.725	298.15	12.02	.02
.795	298.15	13.5	.02
.855	298.15	14.36	.02
.948	298.15	15.78	.02
1	298.15	16.64	.02
0	308.15	1.16	.02
.075	308.15	2.83	.02
.165	308.15	4.95	.02
.271	308.15	7.51	.02
.359	308.15	9.58	.02
.44	308.15	11.64	.02
.507	308.15	13.21	.02
.571	308.15	14.96	.02
.652	308.15	16.84	.02
.725	308.15	18.69	.02
.795	308.15	20.38	.02
.855	308.15	22.17	.02
.948	308.15	24.37	.02
1	308.15	25.85	.02
0	318.15	1.92	.02
.075	318.15	4.48	.02
.165	318.15	7.6	.02
.271	318.15	11.52	.02
.359	318.15	14.41	.02
.44	318.15	17.37	.02
.507	318.15	19.9	.02
.571	318.15	22.32	.02
.652	318.15	25.22	.02
.725	318.15	27.98	.02
.795	318.15	30.21	.02
.855	318.15	32.5	.02
.948	318.15	35.94	.02
1	318.15	37.61	.02
