Measured thermophysical data. Quantification of the impact of water as an impurity on standard physico-chemical properties of ionic liquids
Source: J. Chem. Thermodyn., 2016, 10.1016/j.jct.2015.11.008
Compound 1: 1-butyl-3-methylimidazolium bis(trifluoromethylsulfonyl)imide, C10H15F6N3O4S2
Compound 2: 1-butyl-4-methylpyridinium bis((trifluoromethyl)sulfonyl)amide, C12H16F6N2O4S2
Compound 3: butyltrimethylammonium bis(trifluoromethylsulfonyl)imide, C9H18F6N2O4S2
Compound 4: 1-butyl-3-methylimidazolium tetrafluoroborate, C8H15BF4N2
Compound 5: 1-butyl-3-methylimidazolium triflate, C9H15F3N2O3S
Compound 6: water, H2O, purity 99.8%

System: 1-butyl-3-methylimidazolium bis(trifluoromethylsulfonyl)imide; phases: Liquid
Fixed: Pressure, kPa = 101.325
Property: Mass density, kg/m3 (Liquid); method: Vibrating tube method
Temperature, K	Mass density, kg/m3	uncertainty
298.15	1436.3	1

System: 1-butyl-3-methylimidazolium bis(trifluoromethylsulfonyl)imide; phases: Liquid
Fixed: Pressure, kPa = 101.325
Property: Viscosity, Pa*s (Liquid); method: Concentric cylinders viscometry
Temperature, K	Viscosity, Pa*s	uncertainty
298.15	.0509	.001018

System: 1-butyl-3-methylimidazolium bis(trifluoromethylsulfonyl)imide; phases: Liquid
Fixed: Pressure, kPa = 101.325
Property: Viscosity, Pa*s (Liquid); method: Falling or rolling sphere viscometry
Temperature, K	Viscosity, Pa*s	uncertainty
298.15	.0515	.00103

System: 1-butyl-4-methylpyridinium bis((trifluoromethyl)sulfonyl)amide; phases: Liquid
Fixed: Pressure, kPa = 101.325
Property: Mass density, kg/m3 (Liquid); method: Vibrating tube method
Temperature, K	Mass density, kg/m3	uncertainty
298.15	1412.3	1

System: 1-butyl-4-methylpyridinium bis((trifluoromethyl)sulfonyl)amide; phases: Liquid
Fixed: Pressure, kPa = 101.325
Property: Viscosity, Pa*s (Liquid); method: Concentric cylinders viscometry
Temperature, K	Viscosity, Pa*s	uncertainty
298.15	.0557	.001114

System: 1-butyl-4-methylpyridinium bis((trifluoromethyl)sulfonyl)amide; phases: Liquid
Fixed: Pressure, kPa = 101.325
Property: Viscosity, Pa*s (Liquid); method: Falling or rolling sphere viscometry
Temperature, K	Viscosity, Pa*s	uncertainty
298.15	.0561	.001122

System: butyltrimethylammonium bis(trifluoromethylsulfonyl)imide; phases: Liquid
Fixed: Pressure, kPa = 101.325
Property: Mass density, kg/m3 (Liquid); method: Vibrating tube method
Temperature, K	Mass density, kg/m3	uncertainty
298.15	1392.9	1

System: butyltrimethylammonium bis(trifluoromethylsulfonyl)imide; phases: Liquid
Fixed: Pressure, kPa = 101.325
Property: Viscosity, Pa*s (Liquid); method: Concentric cylinders viscometry
Temperature, K	Viscosity, Pa*s	uncertainty
298.15	.1049	.002098

System: butyltrimethylammonium bis(trifluoromethylsulfonyl)imide; phases: Liquid
Fixed: Pressure, kPa = 101.325
Property: Viscosity, Pa*s (Liquid); method: Falling or rolling sphere viscometry
Temperature, K	Viscosity, Pa*s	uncertainty
298.15	.104	.00208

System: 1-butyl-3-methylimidazolium tetrafluoroborate; phases: Liquid
Fixed: Pressure, kPa = 101.325
Property: Mass density, kg/m3 (Liquid); method: Vibrating tube method
Temperature, K	Mass density, kg/m3	uncertainty
298.15	1201.7	1

System: 1-butyl-3-methylimidazolium tetrafluoroborate; phases: Liquid
Fixed: Pressure, kPa = 101.325
Property: Viscosity, Pa*s (Liquid); method: Concentric cylinders viscometry
Temperature, K	Viscosity, Pa*s	uncertainty
298.15	.108	.00216

System: 1-butyl-3-methylimidazolium tetrafluoroborate; phases: Liquid
Fixed: Pressure, kPa = 101.325
Property: Viscosity, Pa*s (Liquid); method: Falling or rolling sphere viscometry
Temperature, K	Viscosity, Pa*s	uncertainty
298.15	.1119	.002238

System: 1-butyl-3-methylimidazolium triflate; phases: Liquid
Fixed: Pressure, kPa = 101.325
Property: Mass density, kg/m3 (Liquid); method: Vibrating tube method
Temperature, K	Mass density, kg/m3	uncertainty
298.15	1298.3	1

System: 1-butyl-3-methylimidazolium triflate; phases: Liquid
Fixed: Pressure, kPa = 101.325
Property: Viscosity, Pa*s (Liquid); method: Concentric cylinders viscometry
Temperature, K	Viscosity, Pa*s	uncertainty
298.15	.0907	.001814

System: 1-butyl-3-methylimidazolium triflate; phases: Liquid
Fixed: Pressure, kPa = 101.325
Property: Viscosity, Pa*s (Liquid); method: Falling or rolling sphere viscometry
Temperature, K	Viscosity, Pa*s	uncertainty
298.15	.0928	.001856

System: water + 1-butyl-3-methylimidazolium bis(trifluoromethylsulfonyl)imide; phases: Liquid
Fixed: Pressure, kPa = 101
Fixed: Temperature, K = 298.15
Property: Mass density, kg/m3 (Liquid); method: Vibrating tube method
Mole fraction of water	Mass density, kg/m3	uncertainty
.00078	1436.26	1
.00473	1436.04	1
.0101	1435.89	1
.01864	1435.57	1
.05002	1434.5	1
.10005	1432.47	1

System: water + 1-butyl-3-methylimidazolium bis(trifluoromethylsulfonyl)imide; phases: Liquid
Fixed: Pressure, kPa = 101
Fixed: Temperature, K = 298.15
Property: Viscosity, Pa*s (Liquid); method: Concentric cylinders viscometry
Mole fraction of water	Viscosity, Pa*s	uncertainty
.00078	.0509	.001018
.00473	.0506	.001012
.0101	.0499	.000998
.01864	.0493	.000986
.05002	.0459	.000918
.10005	.0417	.000834

System: water + 1-butyl-3-methylimidazolium bis(trifluoromethylsulfonyl)imide; phases: Liquid
Fixed: Pressure, kPa = 101
Fixed: Temperature, K = 298.15
Property: Viscosity, Pa*s (Liquid); method: Falling or rolling sphere viscometry
Mole fraction of water	Viscosity, Pa*s	uncertainty
.00078	.0515	.00103
.00473	.0508	.001016
.0101	.0505	.00101
.01864	.0494	.000988
.05002	.0468	.000936
.10005	.0423	.000846

System: water + 1-butyl-4-methylpyridinium bis((trifluoromethyl)sulfonyl)amide; phases: Liquid
Fixed: Pressure, kPa = 101
Fixed: Temperature, K = 298.15
Property: Mass density, kg/m3 (Liquid); method: Vibrating tube method
Mole fraction of water	Mass density, kg/m3	uncertainty
.00167	1412.27	1
.00513	1412.02	1
.01053	1411.94	1
.01985	1411.55	1
.04978	1410.48	1
.10021	1408.83	1

System: water + 1-butyl-4-methylpyridinium bis((trifluoromethyl)sulfonyl)amide; phases: Liquid
Fixed: Pressure, kPa = 101
Fixed: Temperature, K = 298.15
Property: Viscosity, Pa*s (Liquid); method: Concentric cylinders viscometry
Mole fraction of water	Viscosity, Pa*s	uncertainty
.00167	.0557	.001114
.00513	.0553	.001106
.01053	.0548	.001096
.01985	.0539	.001078
.04978	.0504	.001008
.10021	.0456	.000912

System: water + 1-butyl-4-methylpyridinium bis((trifluoromethyl)sulfonyl)amide; phases: Liquid
Fixed: Pressure, kPa = 101
Fixed: Temperature, K = 298.15
Property: Viscosity, Pa*s (Liquid); method: Falling or rolling sphere viscometry
Mole fraction of water	Viscosity, Pa*s	uncertainty
.00167	.0561	.001122
.00513	.056	.00112
.01053	.0551	.001102
.01985	.0542	.001084
.04978	.0513	.001026
.10021	.046	.00092

System: water + butyltrimethylammonium bis(trifluoromethylsulfonyl)imide; phases: Liquid
Fixed: Pressure, kPa = 101
Fixed: Temperature, K = 298.15
Property: Mass density, kg/m3 (Liquid); method: Vibrating tube method
Mole fraction of water	Mass density, kg/m3	uncertainty
.00006	1392.89	1
.00494	1392.7	1
.01002	1392.61	1
.01995	1392.23	1
.05012	1391.7	1
.09979	1390.15	1

System: water + butyltrimethylammonium bis(trifluoromethylsulfonyl)imide; phases: Liquid
Fixed: Pressure, kPa = 101
Fixed: Temperature, K = 298.15
Property: Viscosity, Pa*s (Liquid); method: Concentric cylinders viscometry
Mole fraction of water	Viscosity, Pa*s	uncertainty
.00006	.104	.00208
.00494	.1035	.00207
.01002	.1014	.002028
.01995	.0986	.001972
.05012	.0873	.001746
.09979	.073	.00146

System: water + butyltrimethylammonium bis(trifluoromethylsulfonyl)imide; phases: Liquid
Fixed: Pressure, kPa = 101
Fixed: Temperature, K = 298.15
Property: Viscosity, Pa*s (Liquid); method: Falling or rolling sphere viscometry
Mole fraction of water	Viscosity, Pa*s	uncertainty
.00006	.105	.0021
.00494	.1036	.002072
.01002	.1028	.002056
.01995	.0996	.001992
.05012	.0882	.001764
.09979	.073	.00146

System: water + 1-butyl-3-methylimidazolium tetrafluoroborate; phases: Liquid
Fixed: Pressure, kPa = 101
Fixed: Temperature, K = 298.15
Property: Mass density, kg/m3 (Liquid); method: Vibrating tube method
Mole fraction of water	Mass density, kg/m3	uncertainty
.00062	1201.69	1
.005	1201.55	1
.00993	1201.36	1
.01995	1201.1	1
.04989	1200.18	1
.09965	1198.59	1

System: water + 1-butyl-3-methylimidazolium tetrafluoroborate; phases: Liquid
Fixed: Pressure, kPa = 101
Fixed: Temperature, K = 298.15
Property: Viscosity, Pa*s (Liquid); method: Concentric cylinders viscometry
Mole fraction of water	Viscosity, Pa*s	uncertainty
.00062	.108	.00216
.005	.1059	.002118
.00993	.1037	.002074
.01995	.0995	.00199
.04989	.0879	.001758
.09965	.0714	.001428

System: water + 1-butyl-3-methylimidazolium tetrafluoroborate; phases: Liquid
Fixed: Pressure, kPa = 101
Fixed: Temperature, K = 298.15
Property: Viscosity, Pa*s (Liquid); method: Falling or rolling sphere viscometry
Mole fraction of water	Viscosity, Pa*s	uncertainty
.00062	.1119	.002238
.005	.1074	.002148
.00993	.1065	.00213
.01995	.0999	.001998
.04989	.0896	.001792
.09965	.0725	.00145

System: water + 1-butyl-3-methylimidazolium triflate; phases: Liquid
Fixed: Pressure, kPa = 101
Fixed: Temperature, K = 298.15
Property: Mass density, kg/m3 (Liquid); method: Vibrating tube method
Mole fraction of water	Mass density, kg/m3	uncertainty
.00022	1298.32	1
.00612	1298.12	1
.01	1297.98	1
.01738	1297.72	1
.04999	1296.84	1
.10035	1295.4	1

System: water + 1-butyl-3-methylimidazolium triflate; phases: Liquid
Fixed: Pressure, kPa = 101
Fixed: Temperature, K = 298.15
Property: Viscosity, Pa*s (Liquid); method: Concentric cylinders viscometry
Mole fraction of water	Viscosity, Pa*s	uncertainty
.00022	.0907	.001814
.00612	.0892	.001784
.01	.0882	.001764
.01738	.0862	.001724
.04999	.0797	.001594
.10035	.0704	.001408

System: water + 1-butyl-3-methylimidazolium triflate; phases: Liquid
Fixed: Pressure, kPa = 101
Fixed: Temperature, K = 298.15
Property: Viscosity, Pa*s (Liquid); method: Falling or rolling sphere viscometry
Mole fraction of water	Viscosity, Pa*s	uncertainty
.00022	.0927	.001854
.00612	.0913	.001826
.01	.0896	.001792
.01738	.0879	.001758
.04999	.0813	.001626
.10035	.0706	.001412
