Measured thermophysical data. Effect of mono-, di- and tri-ethanolammonium tetrafluoroborate protonic ionic liquids on vapour liquid equilibria of ethanol aqueous solution
Source: J. Chem. Thermodyn., 2011, 10.1016/j.jct.2010.10.019
Compound 1: water, H2O, purity 99.9%
Compound 2: ethanol, C2H6O
Compound 3: monoethanolammonium tetrafluoroborate, C2H8BF4NO
Compound 4: diethanolammonium tetrafluoroborate, C4H12BF4NO2
Compound 5: triethanolammonium tetrafluoroborate, C6H16BF4NO3

System: ethanol + water + monoethanolammonium tetrafluoroborate; phases: Liquid, Gas
Property: Vapor or sublimation pressure, kPa (Liquid); method: Closed cell (Static) method
Temperature, K	Mole fraction of water	Mole fraction of ethanol	Vapor or sublimation pressure, kPa	uncertainty
321.33	.3541	.5542	23.72	.04
325.35	.3541	.5542	28.78	.04
330.19	.3541	.5542	36.05	.04
333.54	.3541	.5542	41.87	.04
338.69	.3541	.5542	52.5	.04
343.77	.3541	.5542	65.08	.04
348.52	.3541	.5542	78.95	.04
322.08	.5826	.342	23.32	.04
327.35	.5826	.342	29.99	.04
331.22	.5826	.342	35.86	.04
335.11	.5826	.342	42.75	.04
339.17	.5826	.342	51.13	.04
345.36	.5826	.342	66.43	.04
349.94	.5826	.342	79.88	.04
324.04	.7423	.1936	23.63	.04
329.38	.7423	.1936	30.38	.04
333.25	.7423	.1936	36.31	.04
337.88	.7423	.1936	44.66	.04
342.88	.7423	.1936	55.4	.04
347.03	.7423	.1936	65.93	.04
352.03	.7423	.1936	80.52	.04
327.57	.8601	.0841	23.21	.04
332.36	.8601	.0841	29.06	.04
337.01	.8601	.0841	35.94	.04
342.06	.8601	.0841	44.94	.04
346.33	.8601	.0841	53.94	.04
351.03	.8601	.0841	65.35	.04
355.65	.8601	.0841	78.39	.04

System: ethanol + water + diethanolammonium tetrafluoroborate; phases: Liquid, Gas
Property: Vapor or sublimation pressure, kPa (Liquid); method: Closed cell (Static) method
Temperature, K	Mole fraction of water	Mole fraction of ethanol	Vapor or sublimation pressure, kPa	uncertainty
318.24	.3616	.5661	20.89	.04
323.07	.3616	.5661	26.45	.04
328.22	.3616	.5661	33.76	.04
333.32	.3616	.5661	42.67	.04
338.37	.3616	.5661	53.31	.04
343.15	.3616	.5661	65.29	.04
348	.3616	.5661	79.6	.04
318.68	.5928	.3479	20.19	.04
324.46	.5928	.3479	26.77	.04
329.96	.5928	.3479	34.67	.04
334.94	.5928	.3479	43.52	.04
340.06	.5928	.3479	54.43	.04
345.05	.5928	.3479	67.14	.04
349.84	.5928	.3479	81.38	.04
320.84	.7533	.1965	20.5	.04
326	.7533	.1965	26.37	.04
331.29	.7533	.1965	33.79	.04
337.37	.7533	.1965	44.41	.04
342.61	.7533	.1965	55.86	.04
347.45	.7533	.1965	68.46	.04
351.75	.7533	.1965	81.09	.04
325.44	.8712	.0852	21.11	.04
330.41	.8712	.0852	26.81	.04
336.2	.8712	.0852	34.97	.04
341.81	.8712	.0852	44.8	.04
346.6	.8712	.0852	54.96	.04
351.48	.8712	.0852	67.25	.04
356.58	.8712	.0852	82.26	.04

System: ethanol + water + triethanolammonium tetrafluoroborate; phases: Liquid, Gas
Property: Vapor or sublimation pressure, kPa (Liquid); method: Closed cell (Static) method
Temperature, K	Mole fraction of water	Mole fraction of ethanol	Vapor or sublimation pressure, kPa	uncertainty
320.27	.3666	.5738	23.66	.04
324.71	.3666	.5738	29.36	.04
330.08	.3666	.5738	37.76	.04
334.7	.3666	.5738	46.58	.04
339.56	.3666	.5738	57.5	.04
343.78	.3666	.5738	68.76	.04
347.42	.3666	.5738	79.78	.04
320.09	.5994	.3518	21.95	.04
325.63	.5994	.3518	28.89	.04
331.33	.5994	.3518	37.58	.04
336.25	.5994	.3518	46.92	.04
340.61	.5994	.3518	56.66	.04
345.05	.5994	.3518	68.24	.04
349.06	.5994	.3518	80.37	.04
321.48	.7604	.1984	21.31	.04
327.74	.7604	.1984	28.91	.04
332.76	.7604	.1984	36.54	.04
337.19	.7604	.1984	44.44	.04
342.45	.7604	.1984	55.86	.04
347.46	.7604	.1984	68.84	.04
351.24	.7604	.1984	80.26	.04
325.07	.8783	.0859	20.93	.04
331.01	.8783	.0859	27.86	.04
336.27	.8783	.0859	35.48	.04
341.27	.8783	.0859	44.27	.04
345.49	.8783	.0859	53.14	.04
350.24	.8783	.0859	64.94	.04
354.63	.8783	.0859	77.44	.04
