Measured thermophysical data. A combined experimental and theoretical approach to the study of hydrogen bond interaction in the binary mixture of N-methylimidazole with water
Source: J. Chem. Thermodyn., 2012, 10.1016/j.jct.2012.06.015
Compound 1: 1-methylimidazole, C4H6N2, purity 99%
Compound 2: water, H2O, purity 99.8%

System: 1-methylimidazole + water; phases: Liquid
Fixed: Pressure, kPa = 101
Property: Mass density, kg/m3 (Liquid); method: Vibrating tube method
Temperature, K	Mole fraction of 1-methylimidazole	Mass density, kg/m3	uncertainty
288.15	0	999.1	.1
288.15	.0443	1010.2	.1
288.15	.1036	1022.1	.1
288.15	.2167	1037.4	.1
288.15	.3003	1044.4	.1
288.15	.4024	1048.9	.1
288.15	.4982	1050.2	.1
288.15	.5902	1049.3	.1
288.15	.7159	1046.7	.1
288.15	.7795	1044.7	.1
288.15	.8907	1041.8	.1
288.15	1	1039.4	.1
293.15	0	998.2	.1
293.15	.0443	1008.3	.1
293.15	.1036	1019.3	.1
293.15	.2167	1033.7	.1
293.15	.3003	1040.3	.1
293.15	.4024	1044.6	.1
293.15	.4982	1045.8	.1
293.15	.5902	1044.7	.1
293.15	.7159	1042.2	.1
293.15	.7795	1040.2	.1
293.15	.8907	1037.4	.1
293.15	1	1035	.1
298.15	0	997	.1
298.15	.0443	1006.2	.1
298.15	.1036	1016.5	.1
298.15	.2167	1030.1	.1
298.15	.3003	1036.3	.1
298.15	.4024	1040.5	.1
298.15	.4982	1041.6	.1
298.15	.5902	1040.5	.1
298.15	.7159	1038	.1
298.15	.7795	1036	.1
298.15	.8907	1033.3	.1
298.15	1	1030.9	.1
303.15	0	995.6	.1
303.15	.0443	1003.9	.1
303.15	.1036	1013.3	.1
303.15	.2167	1026	.1
303.15	.3003	1031.9	.1
303.15	.4024	1035.9	.1
303.15	.4982	1036.8	.1
303.15	.5902	1035.7	.1
303.15	.7159	1033.2	.1
303.15	.7795	1031.2	.1
303.15	.8907	1028.5	.1
303.15	1	1026.1	.1
308.15	0	994	.1
308.15	.0443	1001.6	.1
308.15	.1036	1010.2	.1
308.15	.2167	1022.1	.1
308.15	.3003	1027.8	.1
308.15	.4024	1031.5	.1
308.15	.4982	1032.4	.1
308.15	.5902	1031.3	.1
308.15	.7159	1028.8	.1
308.15	.7795	1026.8	.1
308.15	.8907	1024.1	.1
308.15	1	1021.7	.1
313.15	0	992.2	.1
313.15	.0443	999.2	.1
313.15	.1036	1007.1	.1
313.15	.2167	1018.2	.1
313.15	.3003	1023.6	.1
313.15	.4024	1027.2	.1
313.15	.4982	1028	.1
313.15	.5902	1026.9	.1
313.15	.7159	1024.4	.1
313.15	.7795	1022.4	.1
313.15	.8907	1019.7	.1
313.15	1	1017.3	.1
318.15	0	990.1	.1
318.15	.0443	996.6	.1
318.15	.1036	1003.9	.1
318.15	.2167	1014.3	.1
318.15	.3003	1019.3	.1
318.15	.4024	1022.7	.1
318.15	.4982	1023.5	.1
318.15	.5902	1022.5	.1
318.15	.7159	1020	.1
318.15	.7795	1018	.1
318.15	.8907	1015.3	.1
318.15	1	1012.9	.1
323.15	0	988.1	.1
323.15	.0443	994.2	.1
323.15	.1036	1000.9	.1
323.15	.2167	1010.6	.1
323.15	.3003	1015.4	.1
323.15	.4024	1018.6	.1
323.15	.4982	1019.3	.1
323.15	.5902	1018.4	.1
323.15	.7159	1015.9	.1
323.15	.7795	1013.9	.1
323.15	.8907	1011.2	.1
323.15	1	1008.8	.1
