Measured thermophysical data. Measurement, correlation of the solubility and solution thermodynamics of 2-cyanoguanidine in (methanol + water) binary solvent systems from T = (283.15 to 343.15) K
Source: J. Chem. Thermodyn., 2015, 10.1016/j.jct.2015.05.025
Compound 1: cyanoguanidine, C2H4N4, purity 99%
Compound 2: methanol, CH4O, purity 99.99%
Compound 3: water, H2O, purity 99%

System: cyanoguanidine; phases: Crystal, Liquid, Air at 1 atmosphere
Property: Normal melting temperature, K (Crystal); method: Visual observation
Normal melting temperature, K	uncertainty
482.65	4.8265

System: methanol + cyanoguanidine + water; phases: Liquid, Crystal
Fixed: Pressure, kPa = 88.4
Property: Mole fraction of cyanoguanidine (Liquid); method: Chromatography
Solvent: Mass fraction of methanol	Temperature, K	Mole fraction of cyanoguanidine	uncertainty
0	283.15	.00387	.0001548
0	293.15	.00708	.0002832
0	303.15	.01137	.0004548
0	313.15	.01663	.0006652
.1	283.15	.00414	.0001656
.1	293.15	.00711	.0002844
.1	303.15	.01188	.0004752
.1	313.15	.01858	.0007432
.1	323.15	.02885	.001154
.1	333.15	.04062	.0016248
.1	343.15	.05809	.0023236
.2	283.15	.00534	.0002136
.2	293.15	.00902	.0003608
.2	303.15	.01403	.0005612
.2	313.15	.02105	.000842
.2	323.15	.03113	.0012452
.2	333.15	.04475	.00179
.2	343.15	.06261	.0025044
.3	283.15	.00741	.0002964
.3	293.15	.01132	.0004528
.3	303.15	.01654	.0006616
.3	313.15	.02491	.0009964
.3	323.15	.03431	.0013724
.3	333.15	.04839	.0019356
.3	343.15	.06789	.0027156
.4	283.15	.00951	.0003804
.4	293.15	.01325	.00053
.4	303.15	.01942	.0007768
.4	313.15	.02739	.0010956
.4	323.15	.03651	.0014604
.4	333.15	.05108	.0020432
.4	343.15	.07096	.0028384
.5	283.15	.01076	.0004304
.5	293.15	.01598	.0006392
.5	303.15	.02195	.000878
.5	313.15	.03094	.0012376
.5	323.15	.04173	.0016692
.5	333.15	.05347	.0021388
.5	343.15	.07182	.0028728
.6	283.15	.01237	.0004948
.6	293.15	.01734	.0006936
.6	303.15	.02486	.0009944
.6	313.15	.03285	.001314
.6	323.15	.04352	.0017408
.6	333.15	.05431	.0021724
.6	343.15	.07262	.0029048
0	313.15	.01667	.0006668
0	313.15	.01666	.0006664
0	313.15	.01671	.0006684
0	313.15	.01666	.0006664

System: cyanoguanidine + water; phases: Liquid, Crystal
Property: Mole fraction of cyanoguanidine (Liquid); method: Chromatography
Temperature, K	Pressure, kPa	Mole fraction of cyanoguanidine	uncertainty
283.15	88.4	.00387	.0001548
293.15	88.4	.00708	.0002832
303.15	88.4	.01137	.0004548
313.15	88.4	.01663	.0006652
313.15	88.4	.01667	.0006668
313.15	88.4	.01666	.0006664
313.15	88.4	.01671	.0006684
