Measured thermophysical data. Thermophysical properties for (diethyl carbonate + p-xylene + octane)  ternary system
Source: J. Chem. Thermodyn., 2011, 10.1016/j.jct.2011.07.012
Compound 1: 1,4-xylene, C8H10, purity 99%
Compound 2: carbonic acid, diethyl ester, C5H10O3, purity 99.5%
Compound 3: n-octane, C8H18, purity 99.5%

System: carbonic acid, diethyl ester + 1,4-xylene + n-octane; phases: Liquid
Fixed: Pressure, kPa = 101
Property: Mass density, kg/m3 (Liquid); method: Vibrating tube method
Temperature, K	Mole fraction of carbonic acid, diethyl ester	Mole fraction of 1,4-xylene	Mass density, kg/m3	uncertainty
288.15	.05799	.05602	724.64	.1
288.15	.05096	.90103	861.02	.1
288.15	.10052	.09708	738.81	.1
288.15	.09872	.20004	752.84	.1
288.15	.10036	.29851	767.74	.1
288.15	.10148	.37365	779.66	.1
288.15	.10045	.49112	798.62	.1
288.15	.09794	.60255	817.37	.1
288.15	.09934	.70022	835.88	.1
288.15	.10197	.79837	856.04	.1
288.15	.19871	.10062	760.79	.1
288.15	.20104	.19759	776	.1
288.15	.19823	.30006	791.78	.1
288.15	.1983	.40094	808.9	.1
288.15	.19632	.50102	826.32	.1
288.15	.20051	.59947	846.3	.1
288.15	.20352	.69484	866.57	.1
288.15	.30128	.09828	784.56	.1
288.15	.30142	.19611	800.69	.1
288.15	.2997	.2987	818.07	.1
293.15	.05799	.05602	720.49	.1
293.15	.05096	.90103	856.62	.1
293.15	.10052	.09708	734.58	.1
293.15	.09872	.20004	748.57	.1
293.15	.10036	.29851	763.44	.1
293.15	.10148	.37365	775.33	.1
293.15	.10045	.49112	794.25	.1
293.15	.09794	.60255	812.98	.1
293.15	.09934	.70022	831.45	.1
293.15	.10197	.79837	851.59	.1
293.15	.19871	.10062	756.4	.1
293.15	.20104	.19759	771.58	.1
293.15	.19823	.30006	787.33	.1
293.15	.1983	.40094	804.42	.1
293.15	.19632	.50102	821.81	.1
293.15	.20051	.59947	841.76	.1
293.15	.20352	.69484	861.98	.1
293.15	.30128	.09828	780.02	.1
293.15	.30142	.19611	796.12	.1
293.15	.2997	.2987	813.47	.1
298.15	.05799	.05602	716.35	.1
298.15	.05096	.90103	852.22	.1
298.15	.10052	.09708	730.35	.1
298.15	.09872	.20004	744.31	.1
298.15	.10036	.29851	759.14	.1
298.15	.10148	.37365	771.01	.1
298.15	.10045	.49112	789.89	.1
298.15	.09794	.60255	808.59	.1
298.15	.09934	.70022	827.03	.1
298.15	.10197	.79837	847.12	.1
298.15	.19871	.10062	752.01	.1
298.15	.20104	.19759	767.16	.1
298.15	.19823	.30006	782.87	.1
298.15	.1983	.40094	799.93	.1
298.15	.19632	.50102	817.3	.1
298.15	.20051	.59947	837.2	.1
298.15	.20352	.69484	857.39	.1
298.15	.30128	.09828	775.47	.1
298.15	.30142	.19611	791.53	.1
298.15	.2997	.2987	808.86	.1
303.15	.05799	.05602	712.12	.1
303.15	.05096	.90103	847.77	.1
303.15	.10052	.09708	726.05	.1
303.15	.09872	.20004	739.97	.1
303.15	.10036	.29851	754.78	.1
303.15	.10148	.37365	766.63	.1
303.15	.10045	.49112	785.48	.1
303.15	.09794	.60255	804.15	.1
303.15	.09934	.70022	822.56	.1
303.15	.10197	.79837	842.62	.1
303.15	.19871	.10062	747.56	.1
303.15	.20104	.19759	762.67	.1
303.15	.19823	.30006	778.35	.1
303.15	.1983	.40094	795.38	.1
303.15	.19632	.50102	812.72	.1
303.15	.20051	.59947	832.59	.1
303.15	.20352	.69484	852.76	.1
303.15	.30128	.09828	770.85	.1
303.15	.30142	.19611	786.89	.1
303.15	.2997	.2987	804.19	.1
308.15	.05799	.05602	708.05	.1
308.15	.05096	.90103	843.42	.1
308.15	.10052	.09708	721.88	.1
308.15	.09872	.20004	735.79	.1
308.15	.10036	.29851	750.56	.1
308.15	.10148	.37365	762.37	.1
308.15	.10045	.49112	781.17	.1
308.15	.09794	.60255	799.82	.1
308.15	.09934	.70022	818.21	.1
308.15	.10197	.79837	838.22	.1
308.15	.19871	.10062	743.24	.1
308.15	.20104	.19759	758.31	.1
308.15	.19823	.30006	773.98	.1
308.15	.1983	.40094	790.97	.1
308.15	.19632	.50102	808.27	.1
308.15	.20051	.59947	828.1	.1
308.15	.20352	.69484	848.23	.1
308.15	.30128	.09828	766.37	.1
308.15	.30142	.19611	782.37	.1
308.15	.2997	.2987	799.65	.1

System: carbonic acid, diethyl ester + 1,4-xylene + n-octane; phases: Liquid
Fixed: Pressure, kPa = 101
Property: Speed of sound, m/s (Liquid); method: Sing-around technique in a fixed-path interferometer
Temperature, K	Mole fraction of carbonic acid, diethyl ester	Mole fraction of 1,4-xylene	Speed of sound, m/s	uncertainty
288.15	.05799	.05602	1213.3	.5
288.15	.05096	.90103	1334.4	.5
288.15	.10052	.09708	1213.3	.5
288.15	.09872	.20004	1224	.5
288.15	.10036	.29851	1235.1	.5
288.15	.10148	.37365	1244.4	.5
288.15	.10045	.49112	1260.7	.5
288.15	.09794	.60255	1278.3	.5
288.15	.09934	.70022	1295.6	.5
288.15	.10197	.79837	1315.5	.5
288.15	.19871	.10062	1207.1	.5
288.15	.20104	.19759	1218.2	.5
288.15	.19823	.30006	1231.6	.5
288.15	.1983	.40094	1246.1	.5
288.15	.19632	.50102	1262.2	.5
288.15	.20051	.59947	1280.2	.5
288.15	.20352	.69484	1299.9	.5
288.15	.30128	.09828	1202.4	.5
288.15	.30142	.19611	1215.2	.5
288.15	.2997	.2987	1230.2	.5
293.15	.05799	.05602	1192.9	.5
293.15	.05096	.90103	1314	.5
293.15	.10052	.09708	1193	.5
293.15	.09872	.20004	1203.7	.5
293.15	.10036	.29851	1214.8	.5
293.15	.10148	.37365	1224.1	.5
293.15	.10045	.49112	1240.5	.5
293.15	.09794	.60255	1258	.5
293.15	.09934	.70022	1275.3	.5
293.15	.10197	.79837	1295.1	.5
293.15	.19871	.10062	1186.8	.5
293.15	.20104	.19759	1197.9	.5
293.15	.19823	.30006	1211.3	.5
293.15	.1983	.40094	1225.8	.5
293.15	.19632	.50102	1241.9	.5
293.15	.20051	.59947	1259.8	.5
293.15	.20352	.69484	1279.4	.5
293.15	.30128	.09828	1182	.5
293.15	.30142	.19611	1194.8	.5
293.15	.2997	.2987	1209.9	.5
298.15	.05799	.05602	1172	.5
298.15	.05096	.90103	1293	.5
298.15	.10052	.09708	1172.1	.5
298.15	.09872	.20004	1182.8	.5
298.15	.10036	.29851	1194.1	.5
298.15	.10148	.37365	1203.3	.5
298.15	.10045	.49112	1219.7	.5
298.15	.09794	.60255	1237.3	.5
298.15	.09934	.70022	1254.4	.5
298.15	.10197	.79837	1274.1	.5
298.15	.19871	.10062	1165.9	.5
298.15	.20104	.19759	1177	.5
298.15	.19823	.30006	1190.5	.5
298.15	.1983	.40094	1205	.5
298.15	.19632	.50102	1221	.5
298.15	.20051	.59947	1238.9	.5
298.15	.20352	.69484	1258.5	.5
298.15	.30128	.09828	1161.1	.5
298.15	.30142	.19611	1174	.5
298.15	.2997	.2987	1189.1	.5
303.15	.05799	.05602	1151.2	.5
303.15	.05096	.90103	1272.2	.5
303.15	.10052	.09708	1151.4	.5
303.15	.09872	.20004	1162.1	.5
303.15	.10036	.29851	1173.4	.5
303.15	.10148	.37365	1182.7	.5
303.15	.10045	.49112	1199.1	.5
303.15	.09794	.60255	1216.5	.5
303.15	.09934	.70022	1233.7	.5
303.15	.10197	.79837	1253.4	.5
303.15	.19871	.10062	1145.2	.5
303.15	.20104	.19759	1156.3	.5
303.15	.19823	.30006	1169.8	.5
303.15	.1983	.40094	1184.3	.5
303.15	.19632	.50102	1200.3	.5
303.15	.20051	.59947	1218.1	.5
303.15	.20352	.69484	1237.6	.5
303.15	.30128	.09828	1140.3	.5
303.15	.30142	.19611	1153.3	.5
303.15	.2997	.2987	1168.3	.5
308.15	.05799	.05602	1130.4	.5
308.15	.05096	.90103	1251.4	.5
308.15	.10052	.09708	1130.6	.5
308.15	.09872	.20004	1141.4	.5
308.15	.10036	.29851	1152.7	.5
308.15	.10148	.37365	1162	.5
308.15	.10045	.49112	1178.4	.5
308.15	.09794	.60255	1195.9	.5
308.15	.09934	.70022	1213	.5
308.15	.10197	.79837	1232.6	.5
308.15	.19871	.10062	1124.4	.5
308.15	.20104	.19759	1135.6	.5
308.15	.19823	.30006	1149.1	.5
308.15	.1983	.40094	1163.6	.5
308.15	.19632	.50102	1179.7	.5
308.15	.20051	.59947	1197.4	.5
308.15	.20352	.69484	1216.8	.5
308.15	.30128	.09828	1119.6	.5
308.15	.30142	.19611	1132.5	.5
308.15	.2997	.2987	1147.7	.5

System: carbonic acid, diethyl ester + 1,4-xylene + n-octane; phases: Liquid
Fixed: Pressure, kPa = 101
Property: Excess molar volume, m3/mol (Liquid); method: Calculated with densities of this investigation
Temperature, K	Mole fraction of carbonic acid, diethyl ester	Mole fraction of 1,4-xylene	Excess molar volume, m3/mol	uncertainty
288.15	.05799	.05602	.00000023	.00000000115
288.15	.05096	.90103	-.000000005	-.000000000025
288.15	.10052	.09708	.00000034	.0000000017
288.15	.09872	.20004	.000000294	.00000000147
288.15	.10036	.29851	.000000258	.00000000129
288.15	.10148	.37365	.000000225	.000000001125
288.15	.10045	.49112	.00000017	.00000000085
288.15	.09794	.60255	.000000118	.00000000059
288.15	.09934	.70022	.00000007	.00000000035
288.15	.10197	.79837	.00000002	.0000000001
288.15	.19871	.10062	.000000535	.000000002675
288.15	.20104	.19759	.00000047	.00000000235
288.15	.19823	.30006	.000000377	.000000001885
288.15	.1983	.40094	.000000295	.000000001475
288.15	.19632	.50102	.000000214	.00000000107
288.15	.20051	.59947	.000000132	.00000000066
288.15	.20352	.69484	.000000052	.00000000026
288.15	.30128	.09828	.000000653	.000000003265
288.15	.30142	.19611	.000000543	.000000002715
288.15	.2997	.2987	.000000428	.00000000214
293.15	.05799	.05602	.000000244	.00000000122
293.15	.05096	.90103	.000000003	.000000000015
293.15	.10052	.09708	.000000358	.00000000179
293.15	.09872	.20004	.000000312	.00000000156
293.15	.10036	.29851	.000000275	.000000001375
293.15	.10148	.37365	.00000024	.0000000012
293.15	.10045	.49112	.000000184	.00000000092
293.15	.09794	.60255	.00000013	.00000000065
293.15	.09934	.70022	.000000082	.00000000041
293.15	.10197	.79837	.00000003	.00000000015
293.15	.19871	.10062	.00000056	.0000000028
293.15	.20104	.19759	.000000492	.00000000246
293.15	.19823	.30006	.000000396	.00000000198
293.15	.1983	.40094	.000000312	.00000000156
293.15	.19632	.50102	.000000228	.00000000114
293.15	.20051	.59947	.000000145	.000000000725
293.15	.20352	.69484	.000000065	.000000000325
293.15	.30128	.09828	.000000682	.00000000341
293.15	.30142	.19611	.000000567	.000000002835
293.15	.2997	.2987	.000000449	.000000002245
298.15	.05799	.05602	.000000255	.000000001275
298.15	.05096	.90103	.000000008	.00000000004
298.15	.10052	.09708	.000000373	.000000001865
298.15	.09872	.20004	.000000326	.00000000163
298.15	.10036	.29851	.000000287	.000000001435
298.15	.10148	.37365	.000000253	.000000001265
298.15	.10045	.49112	.000000195	.000000000975
298.15	.09794	.60255	.000000138	.00000000069
298.15	.09934	.70022	.00000009	.00000000045
298.15	.10197	.79837	.000000038	.00000000019
298.15	.19871	.10062	.000000583	.000000002915
298.15	.20104	.19759	.000000513	.000000002565
298.15	.19823	.30006	.000000416	.00000000208
298.15	.1983	.40094	.000000328	.00000000164
298.15	.19632	.50102	.00000024	.0000000012
298.15	.20051	.59947	.000000157	.000000000785
298.15	.20352	.69484	.000000073	.000000000365
298.15	.30128	.09828	.000000709	.000000003545
298.15	.30142	.19611	.000000592	.00000000296
298.15	.2997	.2987	.000000469	.000000002345
303.15	.05799	.05602	.000000273	.000000001365
303.15	.05096	.90103	.000000013	.000000000065
303.15	.10052	.09708	.000000395	.000000001975
303.15	.09872	.20004	.000000348	.00000000174
303.15	.10036	.29851	.000000306	.00000000153
303.15	.10148	.37365	.000000269	.000000001345
303.15	.10045	.49112	.000000207	.000000001035
303.15	.09794	.60255	.000000149	.000000000745
303.15	.09934	.70022	.000000098	.00000000049
303.15	.10197	.79837	.000000046	.00000000023
303.15	.19871	.10062	.000000611	.000000003055
303.15	.20104	.19759	.000000539	.000000002695
303.15	.19823	.30006	.000000439	.000000002195
303.15	.1983	.40094	.000000347	.000000001735
303.15	.19632	.50102	.000000259	.000000001295
303.15	.20051	.59947	.00000017	.00000000085
303.15	.20352	.69484	.000000085	.000000000425
303.15	.30128	.09828	.000000743	.000000003715
303.15	.30142	.19611	.00000062	.0000000031
303.15	.2997	.2987	.000000493	.000000002465
308.15	.05799	.05602	.000000258	.00000000129
308.15	.05096	.90103	.000000002	.00000000001
308.15	.10052	.09708	.000000388	.00000000194
308.15	.09872	.20004	.000000336	.00000000168
308.15	.10036	.29851	.000000294	.00000000147
308.15	.10148	.37365	.000000259	.000000001295
308.15	.10045	.49112	.0000002	.000000001
308.15	.09794	.60255	.000000139	.000000000695
308.15	.09934	.70022	.000000087	.000000000435
308.15	.10197	.79837	.000000035	.000000000175
308.15	.19871	.10062	.000000612	.00000000306
308.15	.20104	.19759	.000000539	.000000002695
308.15	.19823	.30006	.000000434	.00000000217
308.15	.1983	.40094	.000000342	.00000000171
308.15	.19632	.50102	.000000252	.00000000126
308.15	.20051	.59947	.000000163	.000000000815
308.15	.20352	.69484	.000000077	.000000000385
308.15	.30128	.09828	.000000748	.00000000374
308.15	.30142	.19611	.000000624	.00000000312
308.15	.2997	.2987	.000000493	.000000002465

System: carbonic acid, diethyl ester + 1,4-xylene + n-octane; phases: Liquid, Gas
Fixed: Temperature, K = 298.15
Property: Surface tension liquid-gas, N/m (Liquid); method: Drop volume
Mole fraction of carbonic acid, diethyl ester	Mole fraction of 1,4-xylene	Surface tension liquid-gas, N/m	uncertainty
.04753	.05042	.02116	.0001
.04887	.91503	.02664	.0001
.09768	.09903	.02132	.0001
.09761	.19445	.02176	.0001
.09763	.3085	.02226	.0001
.09871	.40084	.02271	.0001
.10009	.49464	.02327	.0001
.09784	.59474	.02393	.0001
.09884	.70571	.02461	.0001
.09813	.80339	.02567	.0001
.19703	.09924	.0215	.0001
.19725	.19823	.02192	.0001
.19721	.30337	.02246	.0001
.19754	.40083	.02307	.0001
.19815	.49983	.02373	.0001
.19725	.59674	.02453	.0001
.19693	.70444	.02559	.0001
.30114	.09989	.02166	.0001
.29297	.19364	.02212	.0001
.30168	.29587	.02278	.0001
