Measured thermophysical data. Experimental solubility of diosgenin and estriol in various solvents between T = (293.2-328.2) K
Source: J. Chem. Thermodyn., 2017, 10.1016/j.jct.2016.11.017
Compound 1: nonan-1-ol, C9H20O, purity 99%
Compound 2: pentan-1-ol, C5H12O, purity 99%
Compound 3: acetonitrile, C2H3N, purity 99.9%
Compound 4: 2-aminoethanol, C2H7NO, purity 99%
Compound 5: n-dodecane, C12H26, purity 99%
Compound 6: butan-2-ol, C4H10O, purity 99%
Compound 7: N,N-dimethylformamide, C3H7NO, purity 99.9%
Compound 8: n-octane, C8H18, purity 99%
Compound 9: octan-1-ol, C8H18O, purity 99.5%
Compound 10: morpholine-4-carbaldehyde, C5H9NO2, purity 99%
Compound 11: n-hexadecane, C16H34, purity 99%
Compound 12: 1-methyl-2-pyrrolidone, C5H9NO, purity 99.5%
Compound 13: water, H2O, purity 99.9%
Compound 14: Diosgenin, C27H42O3, purity 93%
Compound 15: Estriol, C18H24O3, purity 99%

System: Diosgenin; phases: Crystal, Liquid, Air at 1 atmosphere
Property: Normal melting temperature, K (Crystal); method: DSC/DTA
Normal melting temperature, K	uncertainty
474.4	.1

System: Diosgenin; phases: Crystal, Liquid, Air at 1 atmosphere
Property: Molar enthalpy of transition or fusion, kJ/mol (Crystal); method: DSC
Molar enthalpy of transition or fusion, kJ/mol	uncertainty
52.105	.52105

System: Estriol; phases: Crystal, Liquid, Air at 1 atmosphere
Property: Normal melting temperature, K (Crystal); method: DSC/DTA
Normal melting temperature, K	uncertainty
553.2	.1

System: Estriol; phases: Crystal, Liquid, Air at 1 atmosphere
Property: Molar enthalpy of transition or fusion, kJ/mol (Crystal); method: DSC
Molar enthalpy of transition or fusion, kJ/mol	uncertainty
42.718	.42718

System: nonan-1-ol + Diosgenin; phases: Liquid, Crystal
Fixed: Pressure, kPa = 101
Property: Mole fraction of Diosgenin (Liquid); method: DTA/TGA
Temperature, K	Mole fraction of Diosgenin	uncertainty
328.2	.0155	
323.2	.0145	
318.2	.0132	
313.2	.0123	
308.2	.011	
303.2	.00965	
298.2	.00825	
293.2	.0067	

System: 2-aminoethanol + Diosgenin; phases: Liquid, Crystal
Fixed: Pressure, kPa = 101
Property: Mole fraction of Diosgenin (Liquid); method: DTA/TGA
Temperature, K	Mole fraction of Diosgenin	uncertainty
328.2	.0132	
323.2	.011	
318.2	.00914	
313.2	.00807	
308.2	.00625	
303.2	.0042	
298.2	.00218	
293.2	.00142	

System: acetonitrile + Diosgenin; phases: Liquid, Crystal
Fixed: Pressure, kPa = 101
Property: Mole fraction of Diosgenin (Liquid); method: DTA/TGA
Temperature, K	Mole fraction of Diosgenin	uncertainty
328.2	.0221	
323.2	.0188	
318.2	.0151	
313.2	.0125	
308.2	.00894	
303.2	.00675	
298.2	.00529	
293.2	.00359	

System: n-dodecane + Diosgenin; phases: Liquid, Crystal
Fixed: Pressure, kPa = 101
Property: Mole fraction of Diosgenin (Liquid); method: DTA/TGA
Temperature, K	Mole fraction of Diosgenin	uncertainty
328.2	.00105	
323.2	.000898	
318.2	.000743	
313.2	.000631	
308.2	.000542	
303.2	.000439	
298.2	.000351	
293.2	.000266	

System: butan-2-ol + Diosgenin; phases: Liquid, Crystal
Fixed: Pressure, kPa = 101
Property: Mole fraction of Diosgenin (Liquid); method: DTA/TGA
Temperature, K	Mole fraction of Diosgenin	uncertainty
328.2	.00366	
323.2	.00253	
318.2	.0017	
313.2	.00119	
308.2	.000784	
303.2	.000436	
298.2	.000229	
293.2	.000128	

System: N,N-dimethylformamide + Diosgenin; phases: Liquid, Crystal
Fixed: Pressure, kPa = 101
Property: Mole fraction of Diosgenin (Liquid); method: DTA/TGA
Temperature, K	Mole fraction of Diosgenin	uncertainty
328.2	.0116	
323.2	.00794	
318.2	.00587	
313.2	.00461	
308.2	.00369	
303.2	.00232	
298.2	.00159	
293.2	.00113	

System: n-octane + Diosgenin; phases: Liquid, Crystal
Fixed: Pressure, kPa = 101
Property: Mole fraction of Diosgenin (Liquid); method: DTA/TGA
Temperature, K	Mole fraction of Diosgenin	uncertainty
328.2	.000915	
323.2	.00068	
318.2	.000466	
313.2	.000302	
308.2	.00021	
303.2	.00016	
298.2	.00013	
293.2	.000081	

System: Diosgenin + water; phases: Liquid, Crystal
Fixed: Pressure, kPa = 101
Property: Mole fraction of Diosgenin (Liquid); method: DTA/TGA
Temperature, K	Mole fraction of Diosgenin	uncertainty
328.2	.00212	
323.2	.00116	
318.2	.000353	
313.2	.0000884	
308.2	.000045	
303.2	.000015	
298.2	.000006	
293.2	.000002	

System: octan-1-ol + Diosgenin; phases: Liquid, Crystal
Fixed: Pressure, kPa = 101
Property: Mole fraction of Diosgenin (Liquid); method: DTA/TGA
Temperature, K	Mole fraction of Diosgenin	uncertainty
328.2	.0116	
323.2	.0104	
318.2	.00947	
313.2	.00842	
308.2	.0066	
303.2	.00516	
298.2	.00423	
293.2	.00348	

System: Diosgenin + morpholine-4-carbaldehyde; phases: Liquid, Crystal
Fixed: Pressure, kPa = 101
Property: Mole fraction of Diosgenin (Liquid); method: DTA/TGA
Temperature, K	Mole fraction of Diosgenin	uncertainty
328.2	.0198	
323.2	.0181	
318.2	.0162	
313.2	.0147	
308.2	.012	
303.2	.00976	
298.2	.00809	
293.2	.00663	

System: Diosgenin + n-hexadecane; phases: Liquid, Crystal
Fixed: Pressure, kPa = 101
Property: Mole fraction of Diosgenin (Liquid); method: DTA/TGA
Temperature, K	Mole fraction of Diosgenin	uncertainty
328.2	.00244	
323.2	.00171	
318.2	.00131	
313.2	.000949	
308.2	.000626	
303.2	.000465	
298.2	.000373	
293.2	.000256	

System: Diosgenin + 1-methyl-2-pyrrolidone; phases: Liquid, Crystal
Fixed: Pressure, kPa = 101
Property: Mole fraction of Diosgenin (Liquid); method: DTA/TGA
Temperature, K	Mole fraction of Diosgenin	uncertainty
328.2	.0219	
323.2	.0196	
318.2	.0178	
313.2	.0163	
308.2	.0148	
303.2	.0138	
298.2	.0128	
293.2	.0118	

System: Estriol + nonan-1-ol; phases: Liquid, Crystal
Fixed: Pressure, kPa = 101
Property: Mole fraction of Estriol (Liquid); method: DTA/TGA
Temperature, K	Mole fraction of Estriol	uncertainty
328.2	.0199	
323.2	.0168	
318.2	.0147	
313.2	.0131	
308.2	.0116	
303.2	.0104	
298.2	.00863	
293.2	.0074	

System: Estriol + pentan-1-ol; phases: Liquid, Crystal
Fixed: Pressure, kPa = 101
Property: Mole fraction of Estriol (Liquid); method: DTA/TGA
Temperature, K	Mole fraction of Estriol	uncertainty
328.2	.0121	
323.2	.00967	
318.2	.00809	
313.2	.00594	
308.2	.00468	
303.2	.00367	
298.2	.00285	
293.2	.00243	

System: Estriol + 2-aminoethanol; phases: Liquid, Crystal
Fixed: Pressure, kPa = 101
Property: Mole fraction of Estriol (Liquid); method: DTA/TGA
Temperature, K	Mole fraction of Estriol	uncertainty
328.2	.0363	
323.2	.0314	
318.2	.0254	
313.2	.0214	
308.2	.018	
303.2	.0148	
298.2	.0127	
293.2	.0111	

System: Estriol + n-dodecane; phases: Liquid, Crystal
Fixed: Pressure, kPa = 101
Property: Mole fraction of Estriol (Liquid); method: DTA/TGA
Temperature, K	Mole fraction of Estriol	uncertainty
328.2	.00285	
323.2	.00243	
318.2	.00179	
313.2	.00128	
308.2	.000956	
303.2	.00092	
298.2	.000779	
293.2	.00072	

System: Estriol + butan-2-ol; phases: Liquid, Crystal
Fixed: Pressure, kPa = 101
Property: Mole fraction of Estriol (Liquid); method: DTA/TGA
Temperature, K	Mole fraction of Estriol	uncertainty
328.2	.00812	
323.2	.00668	
318.2	.00533	
313.2	.00453	
308.2	.00403	
303.2	.0032	
298.2	.0025	
293.2	.00189	

System: Estriol + N,N-dimethylformamide; phases: Liquid, Crystal
Fixed: Pressure, kPa = 101
Property: Mole fraction of Estriol (Liquid); method: DTA/TGA
Temperature, K	Mole fraction of Estriol	uncertainty
328.2	.018	
323.2	.013	
318.2	.00958	
313.2	.00581	
308.2	.00426	
303.2	.00258	
298.2	.00158	
293.2	.00112	

System: Estriol + n-octane; phases: Liquid, Crystal
Fixed: Pressure, kPa = 101
Property: Mole fraction of Estriol (Liquid); method: DTA/TGA
Temperature, K	Mole fraction of Estriol	uncertainty
328.2	.00186	
323.2	.00152	
318.2	.00138	
313.2	.00123	
308.2	.00103	
303.2	.000873	
298.2	.000735	
293.2	.000621	

System: Estriol + water; phases: Liquid, Crystal
Fixed: Pressure, kPa = 101
Property: Mole fraction of Estriol (Liquid); method: DTA/TGA
Temperature, K	Mole fraction of Estriol	uncertainty
328.2	.000803	
323.2	.000577	
318.2	.000422	
313.2	.000306	
308.2	.000191	
303.2	.000168	
298.2	.000135	
293.2	.000115	

System: Estriol + octan-1-ol; phases: Liquid, Crystal
Fixed: Pressure, kPa = 101
Property: Mole fraction of Estriol (Liquid); method: DTA/TGA
Temperature, K	Mole fraction of Estriol	uncertainty
328.2	.0171	
323.2	.0147	
318.2	.0121	
313.2	.0104	
308.2	.00868	
303.2	.00747	
298.2	.00678	
293.2	.00593	

System: Estriol + morpholine-4-carbaldehyde; phases: Liquid, Crystal
Fixed: Pressure, kPa = 101
Property: Mole fraction of Estriol (Liquid); method: DTA/TGA
Temperature, K	Mole fraction of Estriol	uncertainty
328.2	.0107	
323.2	.00726	
318.2	.00495	
313.2	.00343	
308.2	.00147	
303.2	.000652	
298.2	.00023	
293.2	.000062	

System: Estriol + n-hexadecane; phases: Liquid, Crystal
Fixed: Pressure, kPa = 101
Property: Mole fraction of Estriol (Liquid); method: DTA/TGA
Temperature, K	Mole fraction of Estriol	uncertainty
328.2	.00382	
323.2	.00335	
318.2	.00299	
313.2	.00251	
308.2	.00219	
303.2	.00175	
298.2	.00147	
293.2	.00114	

System: Estriol + 1-methyl-2-pyrrolidone; phases: Liquid, Crystal
Fixed: Pressure, kPa = 101
Property: Mole fraction of Estriol (Liquid); method: DTA/TGA
Temperature, K	Mole fraction of Estriol	uncertainty
328.2	.00718	
323.2	.00491	
318.2	.00364	
313.2	.00275	
308.2	.00174	
303.2	.00105	
298.2	.000677	
293.2	.000415	
