Measured thermophysical data. Energetics of pairwise interaction between glycidol enantiomers in (dimethylformamide + water) mixtures rich in water at T = 298.15 K
Source: J. Chem. Thermodyn., 2015, 10.1016/j.jct.2015.03.012
Compound 1: R-(+)-glycidol, C3H6O2, purity 97%
Compound 2: S-(-)-glycidol, C3H6O2, purity 97%
Compound 3: glycidol, C3H6O2, purity 96%
Compound 4: dimethylformamide, C3H7NO, purity 99.8%
Compound 5: water, H2O, purity 99.9%

System: water; phases: Liquid
Property: Mass density, kg/m3 (Liquid); method: Vibrating tube method
Pressure, kPa	Temperature, K	Mass density, kg/m3	uncertainty
101.3	298.15	997.069	.05

System: dimethylformamide + water; phases: Liquid
Fixed: Pressure, kPa = 101.3
Fixed: Temperature, K = 298.15
Property: Mass density, kg/m3 (Liquid); method: Vibrating tube method
Mass fraction of dimethylformamide	Mass density, kg/m3	uncertainty
0	997.069	.05
.05	996.463	.05
.1001	996.232	.05
.15	996.24	.05
.2001	996.402	.05
.2502	996.649	.05

System: dimethylformamide + water + R-(+)-glycidol; phases: Liquid
Fixed: Pressure, kPa = 101.3
Fixed: Temperature, K = 298.15
Property: Mass density, kg/m3 (Liquid); method: Vibrating tube method
Solvent: Mass fraction of dimethylformamide	Molality, mol/kg of R-(+)-glycidol	Mass density, kg/m3	uncertainty
0	.40203	1002.684	.05
.05	.42342	1002.443	.05
.1001	.43534	1002.595	.05
.15	.45012	1002.456	.05
.2001	.43815	1002.48	.05
.2502	.43053	1002.485	.05

System: dimethylformamide + water + S-(-)-glycidol; phases: Liquid
Fixed: Pressure, kPa = 101.3
Fixed: Temperature, K = 298.15
Property: Mass density, kg/m3 (Liquid); method: Vibrating tube method
Solvent: Mass fraction of dimethylformamide	Molality, mol/kg of S-(-)-glycidol	Mass density, kg/m3	uncertainty
0	.45542	1002.793	.05
.05	.39754	1001.534	.05
.1001	.44032	1001.849	.05
.15	.44283	1001.907	.05
.2001	.37581	1001.167	.05
.2502	.42412	1001.941	.05

System: dimethylformamide + glycidol + water; phases: Liquid
Fixed: Pressure, kPa = 101.3
Fixed: Temperature, K = 298.15
Property: Mass density, kg/m3 (Liquid); method: Vibrating tube method
Solvent: Molality, mol/kg of dimethylformamide	Molality, mol/kg of glycidol	Mass density, kg/m3	uncertainty
0	.40191	1001.846	.05
.05	.42523	1001.67	.05
.1001	.46232	1001.87	.05
.15	.44173	1001.644	.05
.2001	.44521	1001.751	.05
.2502	.48652	1002.422	.05

System: water + R-(+)-glycidol; phases: Liquid
Property: Mass density, kg/m3 (Liquid); method: Vibrating tube method
Molality, mol/kg of R-(+)-glycidol	Pressure, kPa	Temperature, K	Mass density, kg/m3	uncertainty
.40203	101.3	298.15	1002.684	.05

System: water + S-(-)-glycidol; phases: Liquid
Property: Mass density, kg/m3 (Liquid); method: Vibrating tube method
Molality, mol/kg of S-(-)-glycidol	Pressure, kPa	Temperature, K	Mass density, kg/m3	uncertainty
.45542	101.3	298.15	1002.793	.05

System: glycidol + water; phases: Liquid
Property: Mass density, kg/m3 (Liquid); method: Vibrating tube method
Molality, mol/kg of glycidol	Pressure, kPa	Temperature, K	Mass density, kg/m3	uncertainty
.40191	101.3	298.15	1001.846	.05
