Measured thermophysical data. Diffusion of levodopa in aqueous solutions of hydrochloric acid at 25 C
Source: J. Chem. Thermodyn., 2014, 10.1016/j.jct.2013.12.010
Compound 1: L-DOPA, C9H11NO4, purity 99%
Compound 2: water, H2O, purity 99%
Compound 3: hydrogen chloride, ClH, purity 97%

System: hydrogen chloride + water; phases: Liquid
Fixed: Pressure, kPa = 101
Fixed: Temperature, K = 298.15
Property: Binary diffusion coefficient, m2/s (Liquid); method: Taylor dispersion method
Amount concentration (molarity), mol/dm3 of hydrogen chloride	Binary diffusion coefficient, m2/s	uncertainty
.005	0.00000000299	
.1	0.0000000029	

System: L-DOPA + water; phases: Liquid
Fixed: Pressure, kPa = 101
Fixed: Temperature, K = 298.15
Property: Binary diffusion coefficient, m2/s (Liquid); method: Taylor dispersion method
Amount concentration (molarity), mol/dm3 of L-DOPA	Binary diffusion coefficient, m2/s	uncertainty
.005	0.00000000062	
