Measured thermophysical data. Self-assembled nano structures of cationic ester-containing gemini surfactants: The surfactant structure and salt effects
Source: J. Chem. Thermodyn., 2013, 10.1016/j.jct.2013.03.008
Compound 1: N,N,N',N'-tetramethyl-N,N'-bis[2-[(1-oxododecyl)oxy]ethyl]-1,3-propanediaminium dibromide, C35H72Br2N2O4, purity 97%
Compound 2: N,N'-bis[2-(dodecyloxy)-2-oxoethyl]-N,N,N',N'-tetramethyl-1,3-propanediaminium dibromide, C35H72Br2N2O4, purity 97%
Compound 3: N,N'-bis[2-(dodecyloxy)-2-oxoethyl]-N,N,N',N'-tetramethyl-1,2-ethanediaminium dibromide, C34H70Br2N2O4, purity 97%
Compound 4: sodium bromide, BrNa, purity 99%
Compound 5: water, H2O, purity 99.8%

System: sodium bromide + water + N,N,N',N'-tetramethyl-N,N'-bis[2-[(1-oxododecyl)oxy]ethyl]-1,3-propanediaminium dibromide; phases: Liquid, Air at 1 atmosphere
Fixed: Temperature, K = 313
Property: Surface tension liquid-gas, N/m (Liquid); method: Ring tensiometer
Amount concentration (molarity), mol/dm3 of sodium bromide	Amount concentration (molarity), mol/dm3 of N,N,N',N'-tetramethyl-N,N'-bis[2-[(1-oxododecyl)oxy]ethyl]-1,3-propanediaminium dibromide	Surface tension liquid-gas, N/m	uncertainty
0	.000412	.0302	.0001
.0001	.000355	.0287	.0001
.0005	.000133	.0289	.0001
.001	.000064	.0283	.0001
.005	.000023	.0312	.0001

System: N,N'-bis[2-(dodecyloxy)-2-oxoethyl]-N,N,N',N'-tetramethyl-1,3-propanediaminium dibromide + sodium bromide + water; phases: Liquid, Air at 1 atmosphere
Fixed: Temperature, K = 313
Property: Surface tension liquid-gas, N/m (Liquid); method: Ring tensiometer
Amount concentration (molarity), mol/dm3 of sodium bromide	Amount concentration (molarity), mol/dm3 of N,N'-bis[2-(dodecyloxy)-2-oxoethyl]-N,N,N',N'-tetramethyl-1,3-propanediaminium dibromide	Surface tension liquid-gas, N/m	uncertainty
0	.000228	.0272	.0001
.0001	.000188	.0262	.0001
.0005	.000114	.0265	.0001
.001	.000011	.0246	.0001
.005	.000002	.0268	.0001

System: sodium bromide + water + N,N'-bis[2-(dodecyloxy)-2-oxoethyl]-N,N,N',N'-tetramethyl-1,2-ethanediaminium dibromide; phases: Liquid, Air at 1 atmosphere
Fixed: Temperature, K = 313
Property: Surface tension liquid-gas, N/m (Liquid); method: Ring tensiometer
Amount concentration (molarity), mol/dm3 of sodium bromide	Amount concentration (molarity), mol/dm3 of N,N'-bis[2-(dodecyloxy)-2-oxoethyl]-N,N,N',N'-tetramethyl-1,2-ethanediaminium dibromide	Surface tension liquid-gas, N/m	uncertainty
0	.000168	.0264	.0001
.0001	.000121	.0258	.0001
.0005	.000058	.0259	.0001
.001	.000031	.0254	.0001
.005	.000005	.0259	.0001

System: water + N,N,N',N'-tetramethyl-N,N'-bis[2-[(1-oxododecyl)oxy]ethyl]-1,3-propanediaminium dibromide; phases: Liquid, Air at 1 atmosphere
Property: Surface tension liquid-gas, N/m (Liquid); method: Ring tensiometer
Amount concentration (molarity), mol/dm3 of N,N,N',N'-tetramethyl-N,N'-bis[2-[(1-oxododecyl)oxy]ethyl]-1,3-propanediaminium dibromide	Temperature, K	Surface tension liquid-gas, N/m	uncertainty
.000412	313	.0302	.0001

System: N,N'-bis[2-(dodecyloxy)-2-oxoethyl]-N,N,N',N'-tetramethyl-1,3-propanediaminium dibromide + water; phases: Liquid, Air at 1 atmosphere
Property: Surface tension liquid-gas, N/m (Liquid); method: Ring tensiometer
Amount concentration (molarity), mol/dm3 of N,N'-bis[2-(dodecyloxy)-2-oxoethyl]-N,N,N',N'-tetramethyl-1,3-propanediaminium dibromide	Temperature, K	Surface tension liquid-gas, N/m	uncertainty
.000228	313	.0272	.0001

System: water + N,N'-bis[2-(dodecyloxy)-2-oxoethyl]-N,N,N',N'-tetramethyl-1,2-ethanediaminium dibromide; phases: Liquid, Air at 1 atmosphere
Property: Surface tension liquid-gas, N/m (Liquid); method: Ring tensiometer
Amount concentration (molarity), mol/dm3 of N,N'-bis[2-(dodecyloxy)-2-oxoethyl]-N,N,N',N'-tetramethyl-1,2-ethanediaminium dibromide	Temperature, K	Surface tension liquid-gas, N/m	uncertainty
.000168	313	.0264	.0001
