Measured thermophysical data. Part 2: Limiting apparent molar volume of organic and inorganic  1:1 electrolytes in (water + ethylammonium nitrate) mixtures  at 298 K   Thermodynamic approach using Bahe Varela  pseudo-lattice theory
Source: J. Chem. Thermodyn., 2008
Compound 1: water, H2O
Compound 2: ethylammonium nitrate, C2H9N2O3
Compound 3: nitric acid ammonium salt, H4N2O3
Compound 4: ammonium chloride, ClH4N
Compound 5: cesium bromide (CsBr), BrCs
Compound 6: rubidium bromide, BrRb
Compound 7: potassium bromide, BrK
Compound 8: sodium iodide, INa
Compound 9: sodium bromide, BrNa
Compound 10: sodium chloride, ClNa
Compound 11: sodium fluoride, FNa
Compound 12: tetramethylammonium bromide, C4H12BrN
Compound 13: tetraethylammonium bromide, C8H20BrN
Compound 14: tetrapropylammonium bromide, C12H28BrN
Compound 15: tetrabutylammonium bromide, C16H36BrN

System: nitric acid ammonium salt + water + ethylammonium nitrate; phases: Liquid
Fixed: Pressure, kPa = 101
Fixed: Temperature, K = 298.15
Fixed: Mole fraction of nitric acid ammonium salt = 0
Property: Partial molar volume, m3/mol of nitric acid ammonium salt (Liquid); method: Derived analytically
Solvent: Amount concentration (molarity), mol/dm3 of ethylammonium nitrate	Partial molar volume, m3/mol of nitric acid ammonium salt	uncertainty
0	.0000469	.0000001
1	.0000493	.0000001
2	.0000503	.0000001
4	.0000514	.0000001
6	.00005215	.0000001
8	.0000525	.0000001
10	.0000525	.0000001
11.2	.0000526	.0000001

System: nitric acid ammonium salt + water + ethylammonium nitrate; phases: Liquid
Fixed: Temperature, K = 298.15
Fixed: Pressure, kPa = 101
Property: Partial molar volume, m3/mol of nitric acid ammonium salt (Liquid); method: densities determined by vibrating tube
Solvent: Amount concentration (molarity), mol/dm3 of ethylammonium nitrate	Molality, mol/kg of nitric acid ammonium salt	Partial molar volume, m3/mol of nitric acid ammonium salt	uncertainty
1	.023	.000049	
1	.061	.0000492	
1	.108	.0000494	
1	.14	.0000493	
1	.237	.0000494	
2	.034	.0000501	
2	.05	.0000505	
2	.073	.0000503	
2	.104	.0000503	
2	.158	.0000501	
4	.021	.0000512	
4	.071	.0000513	
4	.092	.0000517	
4	.108	.0000516	
4	.14	.0000514	
6	.05	.0000521	
6	.07	.0000521	
6	.099	.0000522	
6	.116	.0000522	
6	.158	.0000522	
8	.033	.0000526	
8	.039	.0000526	
8	.045	.0000526	
8	.061	.0000526	
8	.074	.0000526	
10	.043	.0000525	
10	.058	.0000526	
10	.072	.0000525	
10	.093	.0000525	
10	.181	.0000524	
11.2	.015	.0000525	
11.2	.024	.0000523	
11.2	.032	.0000523	
11.2	.046	.0000527	

System: water + ammonium chloride; phases: Liquid
Fixed: Temperature, K = 298.15
Fixed: Pressure, kPa = 101
Property: Partial molar volume, m3/mol of ammonium chloride (Liquid); method: densities measured with a vibrating tube
Molality, mol/kg of ammonium chloride	Partial molar volume, m3/mol of ammonium chloride	uncertainty
.025	.000036	
.0807	.0000361	
.157	.0000364	
.189	.0000365	
.303	.0000366	
.489	.0000369	
.652	.000037	
1.03	.0000374	
0	.00003554	

System: nitric acid ammonium salt + water; phases: Liquid
Fixed: Temperature, K = 298.15
Fixed: Pressure, kPa = 101
Property: Partial molar volume, m3/mol of nitric acid ammonium salt (Liquid); method: densities measured with a vibrating tube
Molality, mol/kg of nitric acid ammonium salt	Partial molar volume, m3/mol of nitric acid ammonium salt	uncertainty
.0431	.0000475	
.0664	.0000476	
.106	.0000478	
.209	.0000479	
.282	.000048	
.406	.0000481	
.648	.0000484	
1.04	.0000486	
0	.00004703	

System: water + ammonium chloride + ethylammonium nitrate; phases: Liquid
Fixed: Pressure, kPa = 101
Fixed: Temperature, K = 298.15
Fixed: Mole fraction of ammonium chloride = 0
Property: Partial molar volume, m3/mol of ammonium chloride (Liquid); method: Derived analytically
Solvent: Amount concentration (molarity), mol/dm3 of ethylammonium nitrate	Partial molar volume, m3/mol of ammonium chloride	uncertainty
0	.0000357	
1	.0000375	
2	.0000384	
4	.0000394	
6	.0000401	
8	.0000408	
10	.0000408	
11.2	.0000406	

System: water + cesium bromide (CsBr) + ethylammonium nitrate; phases: Liquid
Fixed: Pressure, kPa = 101
Fixed: Temperature, K = 298.15
Fixed: Mole fraction of cesium bromide (CsBr) = 0
Property: Partial molar volume, m3/mol of cesium bromide (CsBr) (Liquid); method: Derived analytically
Solvent: Amount concentration (molarity), mol/dm3 of ethylammonium nitrate	Partial molar volume, m3/mol of cesium bromide (CsBr)	uncertainty
1	.00004825	
2	.0000492	
4	.0000508	
6	.0000515	
8	.0000518	
10	.0000517	
11.2	.0000517	

System: water + rubidium bromide + ethylammonium nitrate; phases: Liquid
Fixed: Pressure, kPa = 101
Fixed: Temperature, K = 298.15
Fixed: Mole fraction of rubidium bromide = 0
Property: Partial molar volume, m3/mol of rubidium bromide (Liquid); method: Derived analytically
Solvent: Amount concentration (molarity), mol/dm3 of ethylammonium nitrate	Partial molar volume, m3/mol of rubidium bromide	uncertainty
1	.0000409	
2	.0000423	
4	.0000437	
6	.0000445	
8	.0000445	
10	.0000445	
11.2	.00004446	

System: water + potassium bromide + ethylammonium nitrate; phases: Liquid
Fixed: Pressure, kPa = 101
Fixed: Temperature, K = 298.15
Fixed: Mole fraction of potassium bromide = 0
Property: Partial molar volume, m3/mol of potassium bromide (Liquid); method: Derived analytically
Solvent: Amount concentration (molarity), mol/dm3 of ethylammonium nitrate	Partial molar volume, m3/mol of potassium bromide	uncertainty
1	.0000364	
2	.0000374	
4	.0000386	
6	.0000395	
8	.0000399	
10	.00003995	
11.2	.00004007	

System: sodium iodide + water + ethylammonium nitrate; phases: Liquid
Fixed: Pressure, kPa = 101
Fixed: Temperature, K = 298.15
Fixed: Mole fraction of sodium iodide = 0
Property: Partial molar volume, m3/mol of sodium iodide (Liquid); method: Derived analytically
Solvent: Amount concentration (molarity), mol/dm3 of ethylammonium nitrate	Partial molar volume, m3/mol of sodium iodide	uncertainty
1	.00003785	
2	.00003875	
4	.0000403	
6	.0000416	
8	.0000423	
10	.0000429	
11.2	.0000426	

System: sodium bromide + water + ethylammonium nitrate; phases: Liquid
Fixed: Pressure, kPa = 101
Fixed: Temperature, K = 298.15
Fixed: Mole fraction of sodium bromide = 0
Property: Partial molar volume, m3/mol of sodium bromide (Liquid); method: Derived analytically
Solvent: Amount concentration (molarity), mol/dm3 of ethylammonium nitrate	Partial molar volume, m3/mol of sodium bromide	uncertainty
1	.0000264	
2	.00002745	
4	.0000294	
6	.0000308	
8	.0000317	
10	.00003225	
11.2	.0000323	

System: sodium chloride + water + ethylammonium nitrate; phases: Liquid
Fixed: Pressure, kPa = 101
Fixed: Temperature, K = 298.15
Fixed: Mole fraction of sodium chloride = 0
Property: Partial molar volume, m3/mol of sodium chloride (Liquid); method: Derived analytically
Solvent: Amount concentration (molarity), mol/dm3 of ethylammonium nitrate	Partial molar volume, m3/mol of sodium chloride	uncertainty
1	.00001845	
2	.0000204	
4	.0000225	
6	.0000245	
8	.0000257	
10	.00002665	
11.2	.0000267	

System: sodium fluoride + water + ethylammonium nitrate; phases: Liquid
Fixed: Pressure, kPa = 101
Fixed: Temperature, K = 298.15
Fixed: Mole fraction of sodium fluoride = 0
Property: Partial molar volume, m3/mol of sodium fluoride (Liquid); method: Derived analytically
Solvent: Amount concentration (molarity), mol/dm3 of ethylammonium nitrate	Partial molar volume, m3/mol of sodium fluoride	uncertainty
1	.00000064	
2	.00000317	
4	.00000688	
6	.00001051	

System: tetramethylammonium bromide + water + ethylammonium nitrate; phases: Liquid
Fixed: Pressure, kPa = 101
Fixed: Temperature, K = 298.15
Fixed: Mole fraction of tetramethylammonium bromide = 0
Property: Partial molar volume, m3/mol of tetramethylammonium bromide (Liquid); method: Derived analytically
Solvent: Amount concentration (molarity), mol/dm3 of ethylammonium nitrate	Partial molar volume, m3/mol of tetramethylammonium bromide	uncertainty
1	.0001174	
2	.0001178	
4	.0001184	
6	.0001187	
8	.0001186	
10	.0001181	
11.2	.0001177	

System: tetraethylammonium bromide + water + ethylammonium nitrate; phases: Liquid
Fixed: Pressure, kPa = 101
Fixed: Temperature, K = 298.15
Fixed: Mole fraction of tetraethylammonium bromide = 0
Property: Partial molar volume, m3/mol of tetraethylammonium bromide (Liquid); method: Derived analytically
Solvent: Amount concentration (molarity), mol/dm3 of ethylammonium nitrate	Partial molar volume, m3/mol of tetraethylammonium bromide	uncertainty
1	.0001753	
2	.0001757	
4	.0001763	
6	.0001766	
8	.0001767	
10	.0001768	
11.2	.0001766	

System: tetrapropylammonium bromide + water + ethylammonium nitrate; phases: Liquid
Fixed: Pressure, kPa = 101
Fixed: Temperature, K = 298.15
Fixed: Mole fraction of tetrapropylammonium bromide = 0
Property: Partial molar volume, m3/mol of tetrapropylammonium bromide (Liquid); method: Derived analytically
Solvent: Amount concentration (molarity), mol/dm3 of ethylammonium nitrate	Partial molar volume, m3/mol of tetrapropylammonium bromide	uncertainty
1	.0002406	
2	.0002412	
4	.0002419	
6	.0002429	
8	.0002439	
10	.0002446	
11.2	.0002447	

System: tetrabutylammonium bromide + water + ethylammonium nitrate; phases: Liquid
Fixed: Pressure, kPa = 101
Fixed: Temperature, K = 298.15
Fixed: Mole fraction of tetrabutylammonium bromide = 0
Property: Partial molar volume, m3/mol of tetrabutylammonium bromide (Liquid); method: Derived analytically
Solvent: Amount concentration (molarity), mol/dm3 of ethylammonium nitrate	Partial molar volume, m3/mol of tetrabutylammonium bromide	uncertainty
1	.0003016	
2	.0003028	
4	.0003057	
6	.0003075	
8	.0003085	
10	.0003094	
11.2	.0003101	
