Measured thermophysical data. Solubility of xylitol and sorbitol in ionic liquids - Experimental data and modeling
Source: J. Chem. Thermodyn., 2012, 10.1016/j.jct.2012.05.020
Compound 1: tricaprylylmethylammonium chloride, C25H54ClN, purity 96%
Compound 2: triheptylammonium nitrate, C25H54N2O3, purity 96%
Compound 3: 1-ethyl-3-methylimidazolium ethyl sulfate, C8H16N2O4S, purity 99.9%
Compound 4: xylitol, C5H12O5, purity 99%
Compound 5: D-glucitol, C6H14O6, purity 99.9%

System: tricaprylylmethylammonium chloride; phases: Liquid
Fixed: Pressure, kPa = 101.325
Property: Mass density, kg/m3 (Liquid); method: Vibrating tube method
Temperature, K	Mass density, kg/m3	uncertainty
293.15	889.47	.05
298.14	886.45	.05
303.14	883.43	.05
308.14	880.41	.05
313.14	877.37	.05
318.14	874.35	.05
323.14	871.36	.05
328.14	868.37	.05
333.14	865.37	.05
338.14	862.37	.05
343.14	859.36	.05

System: triheptylammonium nitrate; phases: Liquid
Fixed: Pressure, kPa = 101.325
Property: Mass density, kg/m3 (Liquid); method: Vibrating tube method
Temperature, K	Mass density, kg/m3	uncertainty
293.16	915.29	.05
298.14	912.33	.05
303.14	909.37	.05
308.14	906.41	.05
313.14	903.43	.05
318.14	900.5	.05
323.14	897.58	.05
328.14	894.67	.05
333.14	891.76	.05
338.14	888.84	.05
343.14	885.93	.05

System: 1-ethyl-3-methylimidazolium ethyl sulfate; phases: Liquid
Fixed: Pressure, kPa = 101.325
Property: Mass density, kg/m3 (Liquid); method: Vibrating tube method
Temperature, K	Mass density, kg/m3	uncertainty
293.16	1240.25	.05
298.15	1236.81	.05
303.15	1233.39	.05
308.15	1229.98	.05
313.15	1226.59	.05
318.15	1223.22	.05
323.18	1219.84	.05

System: xylitol + triheptylammonium nitrate; phases: Liquid, Crystal
Fixed: Pressure, kPa = 101
Property: Mass fraction of xylitol (Liquid); method: Chromatography
Temperature, K	Mass fraction of xylitol	uncertainty
308	.036	.02
318	.05	.02
328.7	.071	.02
338.8	.095	.02
344.9	.115	.02

System: D-glucitol + triheptylammonium nitrate; phases: Liquid, Crystal
Fixed: Pressure, kPa = 101
Property: Mass fraction of D-glucitol (Liquid); method: Chromatography
Temperature, K	Mass fraction of D-glucitol	uncertainty
308.1	.043	.02
317.8	.056	.02
328.1	.076	.02
338.1	.089	.02
344.4	.103	.02

System: xylitol + tricaprylylmethylammonium chloride; phases: Liquid, Crystal
Fixed: Pressure, kPa = 101
Property: Mass fraction of xylitol (Liquid); method: Chromatography
Temperature, K	Mass fraction of xylitol	uncertainty
308.2	.123	.01
318	.151	.01
328.1	.193	.01
335.5	.211	.01
343	.25	.01

System: xylitol + 1-ethyl-3-methylimidazolium ethyl sulfate; phases: Liquid, Crystal
Fixed: Pressure, kPa = 101
Property: Mass fraction of xylitol (Liquid); method: Chromatography
Temperature, K	Mass fraction of xylitol	uncertainty
289.2	.113	.01
298.1	.146	.01
308.2	.187	.01
318.4	.247	.01
328.3	.31	.01

System: D-glucitol + tricaprylylmethylammonium chloride; phases: Liquid, Crystal
Fixed: Pressure, kPa = 101
Property: Mass fraction of D-glucitol (Liquid); method: Chromatography
Temperature, K	Mass fraction of D-glucitol	uncertainty
308.2	.154	.01
318	.186	.01
328.1	.207	.01
335.5	.217	.01
343	.248	.01

System: D-glucitol + 1-ethyl-3-methylimidazolium ethyl sulfate; phases: Liquid, Crystal
Fixed: Pressure, kPa = 101
Property: Mass fraction of D-glucitol (Liquid); method: Chromatography
Temperature, K	Mass fraction of D-glucitol	uncertainty
289.2	.155	.02
298.1	.2	.02
308.2	.2283	.02
318.4	.283	.02
328.3	.3377	.02
