Measured thermophysical data. Solubilities of some gases in four immidazolium-based ionic liquids
Source: J. Chem. Thermodyn., 2013, 10.1016/j.jct.2013.03.007
Compound 1: ethylene glycol, C2H6O2, purity 99.5%
Compound 2: 1-butyl-3-methylimidazolium tetrafluoroborate, C8H15BF4N2, purity 98%
Compound 3: 1-butyl-3-methylimidazolium hexafluorophosphate, C8H15F6N2P, purity 99%
Compound 4: 1-ethyl-3-methylimidazolium acetate, C8H14N2O2, purity 95%
Compound 5: 1-ethyl-3-methylimidazolium bis(trifluoromethylsulfonyl)imide, C8H11F6N3O4S2, purity 99%
Compound 6: carbon dioxide, CO2, purity 99.99%
Compound 7: krypton, Kr, purity 99.9%
Compound 8: hydrogen, H2, purity 99.9%
Compound 9: oxygen, O2, purity 99.9%

System: 1-butyl-3-methylimidazolium tetrafluoroborate; phases: Liquid
Fixed: Pressure, kPa = 101.325
Property: Mass density, kg/m3 (Liquid); method: Vibrating tube method
Temperature, K	Mass density, kg/m3	uncertainty
293.2	1204.1	.1
298.2	1201	.1
303.2	1197.5	.1
308.2	1194	.1
313.2	1190.4	.1
318.2	1186.9	.1
323.2	1183.4	.1
328.2	1180	.1
333.2	1176.5	.1
338.2	1173	.1
343.2	1169.6	.1
348.2	1166.1	.1
353.2	1162.7	.1
358.2	1159.3	.1

System: 1-butyl-3-methylimidazolium hexafluorophosphate; phases: Liquid
Fixed: Pressure, kPa = 101.325
Property: Mass density, kg/m3 (Liquid); method: Vibrating tube method
Temperature, K	Mass density, kg/m3	uncertainty
288.2	1376.4	.1
293.2	1372.1	.1
298.2	1367.8	.1
303.2	1363.6	.1
308.2	1359.5	.1
313.2	1355.6	.1
318.2	1351.3	.1
323.2	1347.2	.1
328.2	1343.1	.1
333.2	1339	.1
338.2	1335	.1
343.2	1330.9	.1
348.2	1326.8	.1
353.2	1322.8	.1

System: ethylene glycol + carbon dioxide; phases: Liquid, Gas
Property: Mole fraction of carbon dioxide (Liquid); method: Volumetric Method
Pressure, kPa	Temperature, K	Mole fraction of carbon dioxide	uncertainty
39	298.7	.0009	.000045
75	298.4	.0017	.000085
100	298.9	.0022	.00011
136	298.8	.0033	.000165

System: carbon dioxide + 1-butyl-3-methylimidazolium tetrafluoroborate; phases: Liquid, Gas
Property: Mole fraction of carbon dioxide (Liquid); method: Volumetric Method
Pressure, kPa	Temperature, K	Mole fraction of carbon dioxide	uncertainty
81	298.4	.014	.0007
61	298.6	.0101	.000505
118	298.6	.0196	.00098
159	298.6	.0261	.001305
92	313.1	.012	.0006
179	313.3	.0227	.001135
192	323.1	.0208	.00104
101	324.5	.0102	.00051
46	324.7	.0043	.000215
171	332.9	.0152	.00076
107	333.8	.0094	.00047
181	342.9	.014	.0007
120	352	.0078	.00039
190	352.4	.0131	.000655
65	354.2	.004	.0002

System: carbon dioxide + 1-butyl-3-methylimidazolium hexafluorophosphate; phases: Liquid, Gas
Property: Mole fraction of carbon dioxide (Liquid); method: Volumetric Method
Pressure, kPa	Temperature, K	Mole fraction of carbon dioxide	uncertainty
64	313.5	.01	.0005
103	313.3	.0162	.00081
97	312.3	.0133	.000665
149	313	.0203	.001015
162	322.7	.0189	.000945
146	332.7	.0151	.000755
109	298.3	.0197	.000985
149	298.8	.0271	.001355
171	313.6	.0239	.001195
186	323.6	.0223	.001115
78	334.4	.0077	.000385
153	334	.0166	.00083
163	344.7	.0144	.00072
171	352.5	.0136	.00068
73	354.7	.0056	.00028
156	354.9	.0123	.000615
181	353.8	.0145	.000725
169	342.4	.0157	.000785
158	332.3	.0168	.00084
180	334.3	.0186	.00093

System: oxygen + 1-butyl-3-methylimidazolium tetrafluoroborate; phases: Liquid, Gas
Property: Mole fraction of oxygen (Liquid); method: Volumetric Method
Pressure, kPa	Temperature, K	Mole fraction of oxygen	uncertainty
1324	298	.0081	.000405
909	298.1	.0056	.00028
911	298.1	.0055	.000275
1743	299.1	.0108	.00054
962	311.7	.0054	.00027
1407	314.2	.0082	.00041
1861	314.8	.011	.00055
992	322.9	.0057	.000285
1457	323.6	.0082	.00041
1913	323.8	.011	.00055
1971	333.8	.0112	.00056
1511	334.1	.0084	.00042
2044	343.5	.0115	.000575
1567	344.5	.0085	.000425
2096	351.8	.011	.00055
523	352	.0025	.000125
1097	352.1	.0054	.00027
1613	353	.0085	.000425
1455	353.2	.0074	.00037

System: oxygen + 1-butyl-3-methylimidazolium hexafluorophosphate; phases: Liquid, Gas
Property: Mole fraction of oxygen (Liquid); method: Volumetric Method
Pressure, kPa	Temperature, K	Mole fraction of oxygen	uncertainty
1444	298.3	.008	.0004
1918	304	.0108	.00054
1476	304.4	.0085	.000425
1985	313.6	.0115	.000575
1556	314.6	.008	.0004
1582	324.2	.009	.00045
1602	324.4	.0084	.00042
1704	343.6	.0096	.00048
1766	355.4	.0102	.00051

System: oxygen + 1-ethyl-3-methylimidazolium bis(trifluoromethylsulfonyl)imide; phases: Liquid, Gas
Property: Mole fraction of oxygen (Liquid); method: Volumetric Method
Pressure, kPa	Temperature, K	Mole fraction of oxygen	uncertainty
1192	314	.0165	.000825
2204	313.6	.0299	.001495
3146	313.7	.0426	.00213
4867	313.5	.0641	.003205
1276	333.5	.0173	.000865
2361	333.4	.0316	.00158
3385	333.3	.0438	.00219
5239	333.5	.0676	.00338
1360	352.5	.0179	.000895
2520	352.8	.033	.00165
3623	353.1	.0459	.002295
5614	353.2	.0708	.00354

System: krypton + 1-ethyl-3-methylimidazolium acetate; phases: Liquid, Gas
Property: Mole fraction of krypton (Liquid); method: Volumetric Method
Pressure, kPa	Temperature, K	Mole fraction of krypton	uncertainty
1985	303.2	.0119	.000595
5527	303.2	.0297	.001485
4395	303.3	.0243	.001215
915	303.7	.0055	.000275
4599	313.1	.024	.0012
5782	313.3	.0306	.00153
6040	323.2	.0313	.001565
4809	323.6	.0243	.001215
2154	324.3	.0123	.000615
6295	333.1	.0321	.001605
5195	342.8	.0253	.001265
2381	352.2	.0131	.000655
6795	352.4	.0339	.001695
5407	353.3	.0259	.001295

System: krypton + 1-ethyl-3-methylimidazolium bis(trifluoromethylsulfonyl)imide; phases: Liquid, Gas
Property: Mole fraction of krypton (Liquid); method: Volumetric Method
Pressure, kPa	Temperature, K	Mole fraction of krypton	uncertainty
1034	314.1	.0287	.001435
1457	314	.0401	.002005
1955	313.9	.053	.00265
3625	313.4	.0942	.00471
1072	323.7	.0287	.001435
1509	323.4	.0402	.00201
2027	323.6	.0532	.00266
3776	323.7	.0943	.004715
1336	333	.0342	.00171
1567	333.8	.04	.002
2103	333.6	.0531	.002655
3925	333.8	.0946	.00473

System: hydrogen + 1-butyl-3-methylimidazolium hexafluorophosphate; phases: Liquid, Gas
Property: Mole fraction of hydrogen (Liquid); method: Volumetric Method
Pressure, kPa	Temperature, K	Mole fraction of hydrogen	uncertainty
2682	298	.0058	.00029
2847	314.4	.0062	.00031
2850	314.7	.0063	.000315
2855	315.5	.0064	.00032
3222	353.5	.0103	.000515
3251	356.4	.0101	.000505
