Measured thermophysical data. Experimental and computational thermochemistry of the isomers: Chromanone, 3-isochromanone, and dihydrocoumarin
Source: J. Chem. Thermodyn., 2009, 10.1016/j.jct.2008.08.012
Compound 1: 4H-1-benzopyran-4-one, 2,3-dihydro-, C9H8O2
Compound 2: dihydrocoumarin, C9H8O2
Compound 3: 3H-2-benzopyran-3-one, 1,4-dihydro-, C9H8O2
Compound 4: carbon dioxide, CO2
Compound 5: water, H2O
Compound 6: oxygen, O2

System: 4H-1-benzopyran-4-one, 2,3-dihydro-; phases: Crystal
Fixed: Pressure, kPa = 101.325
Property: Mass density, kg/m3 (Crystal); method: mass and volume of pellet
Temperature, K	Mass density, kg/m3	uncertainty
298.15	1140	

System: 4H-1-benzopyran-4-one, 2,3-dihydro-; phases: Crystal, Liquid, Air at 1 atmosphere
Property: Normal melting temperature, K (Crystal); method: DSC/DTA
Normal melting temperature, K	uncertainty
312.28	.05

System: 4H-1-benzopyran-4-one, 2,3-dihydro-; phases: Crystal, Liquid, Air at 1 atmosphere
Property: Molar enthalpy of transition or fusion, kJ/mol (Crystal); method: DSC/DTA
Molar enthalpy of transition or fusion, kJ/mol	uncertainty
16.72	.2

System: 4H-1-benzopyran-4-one, 2,3-dihydro-; phases: Crystal, Gas
Property: Molar enthalpy of vaporization or sublimation, kJ/mol (Crystal); method: Derived by Second law
Temperature, K	Molar enthalpy of vaporization or sublimation, kJ/mol	uncertainty
298.15	84.6	1.3

System: dihydrocoumarin; phases: Crystal, Gas
Property: Molar enthalpy of vaporization or sublimation, kJ/mol (Crystal); method: Derived by Second law
Temperature, K	Molar enthalpy of vaporization or sublimation, kJ/mol	uncertainty
298.15	69.9	.5

System: 3H-2-benzopyran-3-one, 1,4-dihydro-; phases: Crystal
Fixed: Pressure, kPa = 101.325
Property: Mass density, kg/m3 (Crystal); method: mass and volume of pellet
Temperature, K	Mass density, kg/m3	uncertainty
298.15	1140	

System: 3H-2-benzopyran-3-one, 1,4-dihydro-; phases: Crystal, Liquid, Air at 1 atmosphere
Property: Normal melting temperature, K (Crystal); method: DSC/DTA
Normal melting temperature, K	uncertainty
355.88	.07

System: 3H-2-benzopyran-3-one, 1,4-dihydro-; phases: Crystal, Liquid, Air at 1 atmosphere
Property: Molar enthalpy of transition or fusion, kJ/mol (Crystal); method: DSC/DTA
Molar enthalpy of transition or fusion, kJ/mol	uncertainty
18.27	.13

System: 3H-2-benzopyran-3-one, 1,4-dihydro-; phases: Crystal, Gas
Property: Molar enthalpy of vaporization or sublimation, kJ/mol (Crystal); method: Derived by Second law
Temperature, K	Molar enthalpy of vaporization or sublimation, kJ/mol	uncertainty
298.15	97.3	1.4

Reaction: -1 4H-1-benzopyran-4-one, 2,3-dihydro- + 9 carbon dioxide + 4 water + -10 oxygen
Property: Specific internal energy of reaction at constant volume, J/g
-29652.3

Reaction: -1 dihydrocoumarin + 9 carbon dioxide + 4 water + -10 oxygen
Property: Specific internal energy of reaction at constant volume, J/g
-29458.2

Reaction: -1 3H-2-benzopyran-3-one, 1,4-dihydro- + 9 carbon dioxide + 4 water + -10 oxygen
Property: Specific internal energy of reaction at constant volume, J/g
-29351
