Measured thermophysical data. Solubilities of palmitic and stearic fatty acids in supercritical carbon dioxide
Source: J. Chem. Thermodyn., 2010, 10.1016/j.jct.2009.08.001
Compound 1: carbon dioxide, CO2, purity 99%
Compound 2: hexadecanoic acid, C16H32O2, purity 98%
Compound 3: octadecanoic acid, C18H36O2, purity 98%

System: hexadecanoic acid + carbon dioxide; phases: Fluid (supercritical or subcritical phases), Crystal
Property: Mole fraction of hexadecanoic acid (Fluid (supercritical or subcritical phases)); method: Trap and weigh eluted solutes
Temperature, K	Pressure, kPa	Mole fraction of hexadecanoic acid	uncertainty
308	12850	.000258	.00000645
308	14810	.000314	.00000785
308	16770	.000353	.000008825
308	19710	.000401	.000010025
308	22650	.000445	.000011125
318	12850	.000374	.00000935
318	14810	.000544	.0000136
318	16770	.000698	.00001745
318	19710	.000865	.000021625
318	22650	.001045	.000026125
328	12850	.000371	.000009275
328	14810	.000763	.000019075
328	16770	.00116	.000029
328	19710	.00169	.00004225
328	22650	.00214	.0000535

System: octadecanoic acid + carbon dioxide; phases: Fluid (supercritical or subcritical phases), Crystal
Property: Mole fraction of octadecanoic acid (Fluid (supercritical or subcritical phases)); method: Trap and weigh eluted solutes
Temperature, K	Pressure, kPa	Mole fraction of octadecanoic acid	uncertainty
308	12850	.000074	.00000185
308	14810	.000089	.000002225
308	16770	.000103	.000002575
308	19710	.000119	.000002975
308	22650	.000124	.0000031
318	12850	.000083	.000002075
318	14810	.000148	.0000037
318	16770	.000212	.0000053
318	19710	.000287	.000007175
318	22650	.000324	.0000081
328	12850	.000159	.000003975
328	14810	.000278	.00000695
328	16770	.000382	.00000955
328	19710	.000527	.000013175
328	22650	.000652	.0000163
338	12850	.000151	.000003775
338	14810	.000334	.00000835
338	16770	.000537	.000013425
338	19710	.000831	.000020775
338	22650	.00111	.00002775
