Measured thermophysical data. Partitioning and complexation study of bioactive tricyclic acyclovir derivative with cyclodextrins
Source: J. Chem. Thermodyn., 2014, 10.1016/j.jct.2013.12.014
Compound 1: 3,4-dihydro-3-[(2-hydroxyethoxy)methyl]-6-(4-methoxyphenyl)-9H-imidazo[1,2-a]purin-9-one, C17H17N5O4

System: 3,4-dihydro-3-[(2-hydroxyethoxy)methyl]-6-(4-methoxyphenyl)-9H-imidazo[1,2-a]purin-9-one; phases: Crystal, Liquid, Air at 1 atmosphere
Property: Normal melting temperature, K (Crystal); method: DSC/DTA
Normal melting temperature, K	uncertainty
510.1	1

System: 3,4-dihydro-3-[(2-hydroxyethoxy)methyl]-6-(4-methoxyphenyl)-9H-imidazo[1,2-a]purin-9-one; phases: Crystal, Liquid, Air at 1 atmosphere
Property: Molar enthalpy of transition or fusion, kJ/mol (Crystal); method: DSC/DTA
Molar enthalpy of transition or fusion, kJ/mol	uncertainty
37.453698172	1.7767409
