Measured thermophysical data. Thermodynamic properties of diniconazole and hexaconazole
Source: J. Chem. Thermodyn., 2016, 10.1016/j.jct.2016.04.001
Compound 1: Diniconazole, C15H17Cl2N3O, purity 95%
Compound 2: hexaconazole, C14H17Cl2N3O, purity 95%

System: Diniconazole; phases: Crystal
Fixed: Pressure, kPa = 101.325
Property: Mass density, kg/m3 (Crystal); method: X-ray diffraction
Temperature, K	Mass density, kg/m3	uncertainty
296	1323	1

System: Diniconazole; phases: Crystal
Fixed: Pressure, kPa = 101.325
Property: Molar heat capacity at constant pressure, J/K/mol (Crystal); method: Small sample (50 mg) scanning calorimetry
Temperature, K	Molar heat capacity at constant pressure, J/K/mol	uncertainty
283.15	360.4	
288.15	367.41	
293.15	374.58	
298.15	381.72	
303.15	388.72	
308.15	395.47	
313.15	401.89	
318.15	407.93	
323.15	413.6	
328.15	418.9	
333.15	423.89	
338.15	428.65	
343.15	433.27	
348.15	437.91	
353.15	442.73	

System: hexaconazole; phases: Crystal
Fixed: Pressure, kPa = 101.325
Property: Mass density, kg/m3 (Crystal); method: X-ray diffraction
Temperature, K	Mass density, kg/m3	uncertainty
296	1331	1

System: hexaconazole; phases: Crystal
Fixed: Pressure, kPa = 101.325
Property: Molar heat capacity at constant pressure, J/K/mol (Crystal); method: Small sample (50 mg) scanning calorimetry
Temperature, K	Molar heat capacity at constant pressure, J/K/mol	uncertainty
283.15	342.68	
288.15	351.02	
293.15	358.22	
298.15	364.66	
303.15	370.65	
308.15	376.44	
313.15	382.23	
318.15	388.15	
323.15	394.25	
328.15	400.53	
333.15	406.94	
338.15	413.34	
343.15	419.55	
348.15	425.32	
353.15	430.33	
