Measured thermophysical data. Calorimetric and computational thermochemical study of difluorophenol isomers
Source: J. Chem. Thermodyn., 2010, 10.1016/j.jct.2009.07.011
Compound 1: 2,3-Difluorophenol, C6H4F2O, purity 98%
Compound 2: 2,4-Difluorophenol, C6H4F2O, purity 99%
Compound 3: 2,5-Difluorophenol, C6H4F2O, purity 95%
Compound 4: 2,6-difluorophenol, C6H4F2O, purity 98%
Compound 5: 3,4-Difluorophenol, C6H4F2O, purity 99%
Compound 6: 3,5-Difluorophenol, C6H4F2O, purity 99%
Compound 7: hydrogen fluoride, FH
Compound 8: carbon, C
Compound 9: carbon dioxide, CO2
Compound 10: water, H2O
Compound 11: oxygen, O2
Compound 12: fluorine, F2
Compound 13: hydrogen, H2

System: 2,3-Difluorophenol; phases: Gas
Property: Molar enthalpy, kJ/mol (Gas); method: Flow calorimetry
Temperature, K	Pressure, kPa	Molar enthalpy, kJ/mol	uncertainty
314.6	100	70.4	

System: 2,3-Difluorophenol; phases: Crystal, Gas
Property: Molar enthalpy of vaporization or sublimation, kJ/mol (Crystal); method: Flow calorimetry
Temperature, K	Molar enthalpy of vaporization or sublimation, kJ/mol	uncertainty
298.15	68.2	

System: 2,4-Difluorophenol; phases: Gas
Property: Molar enthalpy, kJ/mol (Gas); method: Flow calorimetry
Temperature, K	Pressure, kPa	Molar enthalpy, kJ/mol	uncertainty
315.6	100	61.1	

System: 2,4-Difluorophenol; phases: Liquid, Gas
Property: Molar enthalpy of vaporization or sublimation, kJ/mol (Liquid); method: Flow calorimetry
Temperature, K	Molar enthalpy of vaporization or sublimation, kJ/mol	uncertainty
298.15	58.8	

System: 2,5-Difluorophenol; phases: Gas
Property: Molar enthalpy, kJ/mol (Gas); method: Flow calorimetry
Temperature, K	Pressure, kPa	Molar enthalpy, kJ/mol	uncertainty
314.6	100	70.2	

System: 2,5-Difluorophenol; phases: Crystal, Gas
Property: Molar enthalpy of vaporization or sublimation, kJ/mol (Crystal); method: Flow calorimetry
Temperature, K	Molar enthalpy of vaporization or sublimation, kJ/mol	uncertainty
298.15	68	

System: 2,6-difluorophenol; phases: Gas
Property: Molar enthalpy, kJ/mol (Gas); method: Flow calorimetry
Temperature, K	Pressure, kPa	Molar enthalpy, kJ/mol	uncertainty
315.6	100	80.1	

System: 2,6-difluorophenol; phases: Crystal, Gas
Property: Molar enthalpy of vaporization or sublimation, kJ/mol (Crystal); method: Flow calorimetry
Temperature, K	Molar enthalpy of vaporization or sublimation, kJ/mol	uncertainty
298.15	77.8	

System: 3,4-Difluorophenol; phases: Gas
Property: Molar enthalpy, kJ/mol (Gas); method: Flow calorimetry
Temperature, K	Pressure, kPa	Molar enthalpy, kJ/mol	uncertainty
314.5	100	75.1	

System: 3,4-Difluorophenol; phases: Crystal, Gas
Property: Molar enthalpy of vaporization or sublimation, kJ/mol (Crystal); method: Flow calorimetry
Temperature, K	Molar enthalpy of vaporization or sublimation, kJ/mol	uncertainty
298.15	72.9	

System: 3,5-Difluorophenol; phases: Gas
Property: Molar enthalpy, kJ/mol (Gas); method: Flow calorimetry
Temperature, K	Pressure, kPa	Molar enthalpy, kJ/mol	uncertainty
314.6	100	75	

System: 3,5-Difluorophenol; phases: Crystal, Gas
Property: Molar enthalpy of vaporization or sublimation, kJ/mol (Crystal); method: Flow calorimetry
Temperature, K	Molar enthalpy of vaporization or sublimation, kJ/mol	uncertainty
298.15	72.8	

Reaction: -1 2,3-Difluorophenol + 2 hydrogen fluoride + 6 carbon dioxide + 1 water + -6 oxygen
Property: Specific internal energy of reaction at constant volume, J/g
-21228.1

Reaction: -1 2,4-Difluorophenol + 2 hydrogen fluoride + 6 carbon dioxide + 1 water + -6 oxygen
Property: Specific internal energy of reaction at constant volume, J/g
-21230.3

Reaction: -1 2,5-Difluorophenol + 2 hydrogen fluoride + 6 carbon dioxide + 1 water + -6 oxygen
Property: Specific internal energy of reaction at constant volume, J/g
-21106.6

Reaction: 2 hydrogen fluoride + -1 2,6-difluorophenol + 6 carbon dioxide + 1 water + -6 oxygen
Property: Specific internal energy of reaction at constant volume, J/g
-21081.3

Reaction: -1 3,4-Difluorophenol + 2 hydrogen fluoride + 6 carbon dioxide + 1 water + -6 oxygen
Property: Specific internal energy of reaction at constant volume, J/g
-21182.6

Reaction: -1 3,5-Difluorophenol + 2 hydrogen fluoride + 6 carbon dioxide + 1 water + -6 oxygen
Property: Specific internal energy of reaction at constant volume, J/g
-21025.1

Reaction: 1 2,3-Difluorophenol + -6 carbon + -1 fluorine + -2 hydrogen + -0.5 oxygen
Property: Molar enthalpy of reaction, kJ/mol
-529.4

Reaction: 1 2,3-Difluorophenol + -6 carbon + -1 fluorine + -2 hydrogen + -0.5 oxygen
Property: Molar enthalpy of reaction, kJ/mol
-461.2

Reaction: 1 2,4-Difluorophenol + -6 carbon + -1 fluorine + -2 hydrogen + -0.5 oxygen
Property: Molar enthalpy of reaction, kJ/mol
-529.1

Reaction: 1 2,4-Difluorophenol + -6 carbon + -1 fluorine + -2 hydrogen + -0.5 oxygen
Property: Molar enthalpy of reaction, kJ/mol
-470.3

Reaction: 1 2,5-Difluorophenol + -6 carbon + -1 fluorine + -2 hydrogen + -0.5 oxygen
Property: Molar enthalpy of reaction, kJ/mol
-545.2

Reaction: 1 2,5-Difluorophenol + -6 carbon + -1 fluorine + -2 hydrogen + -0.5 oxygen
Property: Molar enthalpy of reaction, kJ/mol
-477.2

Reaction: -6 carbon + -1 fluorine + 1 2,6-difluorophenol + -2 hydrogen + -0.5 oxygen
Property: Molar enthalpy of reaction, kJ/mol
-548.5

Reaction: -6 carbon + -1 fluorine + 1 2,6-difluorophenol + -2 hydrogen + -0.5 oxygen
Property: Molar enthalpy of reaction, kJ/mol
-470.7

Reaction: 1 3,4-Difluorophenol + -6 carbon + -1 fluorine + -2 hydrogen + -0.5 oxygen
Property: Molar enthalpy of reaction, kJ/mol
-535.3

Reaction: 1 3,4-Difluorophenol + -6 carbon + -1 fluorine + -2 hydrogen + -0.5 oxygen
Property: Molar enthalpy of reaction, kJ/mol
-462.4

Reaction: 1 3,5-Difluorophenol + -6 carbon + -1 fluorine + -2 hydrogen + -0.5 oxygen
Property: Molar enthalpy of reaction, kJ/mol
-555.8

Reaction: 1 3,5-Difluorophenol + -6 carbon + -1 fluorine + -2 hydrogen + -0.5 oxygen
Property: Molar enthalpy of reaction, kJ/mol
-483
