Measured thermophysical data. Enthalpy of formation of 5-fluoro-1,3-dimethyluracil: 5-Fluorouracil revisited
Source: J. Chem. Thermodyn., 2014, 10.1016/j.jct.2014.02.018
Compound 1: 5-fluorouracil, C4H3FN2O2, purity 99%
Compound 2: 2,4(1H,3H)-pyrimidinedione, 5-fluoro-1,3-dimethyl-, C6H7FN2O2, purity 99%
Compound 3: hydrogen fluoride, FH
Compound 4: carbon dioxide, CO2
Compound 5: nitrogen, N2
Compound 6: water, H2O
Compound 7: oxygen, O2

System: 5-fluorouracil; phases: Crystal, Gas
Property: Vapor or sublimation pressure, kPa (Crystal); method: Knudsen effusion method
Temperature, K	Vapor or sublimation pressure, kPa	uncertainty
411.14	.000178	.0000089
413.1	.000197	.00000985
415.14	.000246	.0000123
417.14	.000278	.0000139
419.14	.000351	.00001755
421.18	.000406	.0000203
423.16	.000474	.0000237
425.11	.00058	.000029
427.16	.000668	.0000334
429.15	.000829	.00004145
431.11	.001027	.00005135
433.17	.001185	.00005925
411.14	.000166	.0000083
413.1	.000207	.00001035
415.14	.000239	.00001195
417.14	.000261	.00001305
419.14	.000347	.00001735
421.18	.000418	.0000209
423.16	.000477	.00002385
425.11	.000588	.0000294
427.16	.000669	.00003345
429.15	.000836	.0000418
431.11	.001013	.00005065
433.17	.001148	.0000574
411.14	.000165	.00000825
413.1	.000198	.0000099
415.14	.000235	.00001175
417.14	.000283	.00001415
419.14	.000332	.0000166
421.18	.000401	.00002005
423.16	.000472	.0000236
425.11	.000561	.00002805
427.16	.000669	.00003345
429.15	.000794	.0000397
431.11	.000961	.00004805
433.17	.001135	.00005675

System: 2,4(1H,3H)-pyrimidinedione, 5-fluoro-1,3-dimethyl-; phases: Crystal, Gas
Property: Vapor or sublimation pressure, kPa (Crystal); method: Knudsen effusion method
Temperature, K	Vapor or sublimation pressure, kPa	uncertainty
317.18	.0000839	.000004195
319.21	.0001195	.000005975
321.12	.000135	.00000675
323.18	.0001712	.00000856
325.22	.0002013	.000010065
327.13	.0002608	.00001304
329.18	.000333	.00001665
331.22	.0004159	.000020795
333.12	.0005012	.00002506
335.17	.0006128	.00003064
337.24	.0007507	.000037535
339.14	.0009104	.00004552
317.18	.000088	.0000044
319.21	.0001113	.000005565
321.12	.0001414	.00000707
323.18	.0001684	.00000842
325.22	.00021	.0000105
327.13	.0002547	.000012735
329.18	.0003128	.00001564
331.22	.0004074	.00002037
333.12	.0005058	.00002529
335.17	.0006116	.00003058
337.24	.0007652	.00003826
339.14	.0009266	.00004633
317.18	.0000846	.00000423
319.21	.0001105	.000005525
321.12	.0001372	.00000686
323.18	.0001645	.000008225
325.22	.0002051	.000010255
327.13	.0002583	.000012915
329.18	.0003165	.000015825
331.22	.0004027	.000020135
333.12	.0004953	.000024765
335.17	.0006003	.000030015
337.24	.0007436	.00003718
339.14	.0009283	.000046415

Reaction: -1 5-fluorouracil + 1 hydrogen fluoride + 4 carbon dioxide + 1 nitrogen + 1 water + -3.5 oxygen
Property: Specific internal energy of reaction at constant volume, J/g
-12289.3

Reaction: -1 2,4(1H,3H)-pyrimidinedione, 5-fluoro-1,3-dimethyl- + 1 hydrogen fluoride + 6 carbon dioxide + 1 nitrogen + 3 water + -6.5 oxygen
Property: Specific internal energy of reaction at constant volume, J/g
-18760
