Measured thermophysical data. Ternary liquid liquid equilibrium data for the (water + butyric acid + n-hexane or  n-hexanol) systems at T = (298.2, 308.2, and 318.2) K
Source: J. Chem. Thermodyn., 2013, 10.1016/j.jct.2013.01.015
Compound 1: butyric acid, C4H8O2, purity 99%
Compound 2: n-hexane, C6H14, purity 99%
Compound 3: n-hexanol, C6H14O, purity 98%
Compound 4: water, H2O

System: butyric acid; phases: Liquid
Fixed: Pressure, kPa = 101.325
Property: Refractive index (Na D-line) (Liquid); method: Standard Abbe refractometry
Temperature, K	Refractive index (Na D-line)	uncertainty
298.2	1.3976	.0002

System: butyric acid; phases: Liquid
Fixed: Pressure, kPa = 101.325
Property: Mass density, kg/m3 (Liquid); method: Vibrating tube method
Temperature, K	Mass density, kg/m3	uncertainty
298.15	952.7	.001

System: n-hexane; phases: Liquid
Fixed: Pressure, kPa = 101.325
Property: Refractive index (Na D-line) (Liquid); method: Standard Abbe refractometry
Temperature, K	Refractive index (Na D-line)	uncertainty
298.15	1.3751	.0002

System: n-hexane; phases: Liquid
Fixed: Pressure, kPa = 101.325
Property: Mass density, kg/m3 (Liquid); method: Vibrating tube method
Temperature, K	Mass density, kg/m3	uncertainty
298.15	654.6	.001

System: n-hexanol; phases: Liquid
Fixed: Pressure, kPa = 101.325
Property: Refractive index (Na D-line) (Liquid); method: Standard Abbe refractometry
Temperature, K	Refractive index (Na D-line)	uncertainty
298.15	1.4155	.0002

System: n-hexanol; phases: Liquid
Fixed: Pressure, kPa = 101.325
Property: Mass density, kg/m3 (Liquid); method: Vibrating tube method
Temperature, K	Mass density, kg/m3	uncertainty
298.15	815.2	.001

System: water; phases: Liquid
Fixed: Pressure, kPa = 101.325
Property: Refractive index (Na D-line) (Liquid); method: Standard Abbe refractometry
Temperature, K	Refractive index (Na D-line)	uncertainty
298.15	1.3325	.0002

System: water; phases: Liquid
Fixed: Pressure, kPa = 101.325
Property: Mass density, kg/m3 (Liquid); method: Vibrating tube method
Temperature, K	Mass density, kg/m3	uncertainty
298.15	997.1	.001

System: butyric acid + n-hexane + water; phases: Liquid mixture 1, Liquid mixture 2
Fixed: Pressure, kPa = 101
Property: Mass fraction of butyric acid (Liquid mixture 1); method: cloud point titration
Temperature, K	Mass fraction of water	Mass fraction of butyric acid	uncertainty
298.2	.9384	.0604	.0007
298.2	.8885	.1103	.0007
298.2	.7881	.2072	.0007
298.2	.735	.2583	.0007
298.2	.6895	.3025	.0007
298.2	.6373	.3513	.0007
298.2	.5883	.398	.0007
298.2	.5391	.4441	.0007
298.2	.4864	.4924	.0007
298.2	.4378	.5342	.0007
298.2	.3906	.5746	.0007
298.2	.3338	.6197	.0007
298.2	.2842	.6589	.0007
298.2	.231	.6885	.0007
298.2	.1783	.6994	.0007
298.2	.1061	.6973	.0007
298.2	.0672	.6603	.0007
298.2	.0462	.6313	.0007
298.2	.0265	.5838	.0007
298.2	.0228	.5363	.0007
298.2	.0169	.488	.0007
298.2	.0146	.4439	.0007
298.2	.0122	.3988	.0007
298.2	.0073	.3436	.0007
298.2	.0025	.298	.0007
298.2	.0025	.2042	.0007
298.2	.0025	.1505	.0007
298.2	.0024	.1139	.0007
298.2	.0024	.053	.0007
308.2	.9389	.0588	.0007
308.2	.898	.0997	.0007
308.2	.8462	.1504	.0007
308.2	.7895	.2024	.0007
308.2	.6862	.3023	.0007
308.2	.6377	.3485	.0007
308.2	.5885	.3954	.0007
308.2	.5402	.4405	.0007
308.2	.4832	.4934	.0007
308.2	.4351	.5325	.0007
308.2	.3808	.5803	.0007
308.2	.3321	.6182	.0007
308.2	.2848	.6452	.0007
308.2	.2267	.6746	.0007
308.2	.1801	.6791	.0007
308.2	.117	.6701	.0007
308.2	.0862	.6431	.0007
308.2	.0591	.6161	.0007
308.2	.0361	.5823	.0007
308.2	.0286	.5393	.0007
308.2	.024	.4869	.0007
308.2	.0194	.4391	.0007
308.2	.0145	.3966	.0007
308.2	.0097	.3519	.0007
308.2	.0049	.3062	.0007
308.2	.0025	.2505	.0007
308.2	.0025	.1594	.0007
308.2	.0025	.1033	.0007
308.2	.0024	.053	.0007
318.2	.9418	.0559	.0007
318.2	.8911	.1067	.0007
318.2	.8259	.1684	.0007
318.2	.7867	.203	.0007
318.2	.7341	.2511	.0007
318.2	.6882	.2959	.0007
318.2	.6365	.3463	.0007
318.2	.5865	.3898	.0007
318.2	.5418	.4314	.0007
318.2	.4834	.4857	.0007
318.2	.3831	.5664	.0007
318.2	.3357	.5979	.0007
318.2	.2702	.6348	.0007
318.2	.2248	.6492	.0007
318.2	.1811	.6532	.0007
318.2	.1553	.6401	.0007
318.2	.1172	.618	.0007
318.2	.0822	.5911	.0007
318.2	.0562	.5601	.0007
318.2	.0263	.4848	.0007
318.2	.0217	.4426	.0007
318.2	.0193	.3965	.0007
318.2	.0144	.3489	.0007
318.2	.0097	.3015	.0007
318.2	.0049	.2538	.0007
318.2	.0025	.2037	.0007
318.2	.0025	.1564	.0007
318.2	.0024	.1059	.0007
318.2	.0024	.053	.0007

System: butyric acid + n-hexane + water; phases: Liquid mixture 2, Liquid mixture 1
Fixed: Pressure, kPa = 101
Property: Mass fraction of water (Liquid mixture 2); method: Karl-Fischer titration
Property: Mass fraction of butyric acid (Liquid mixture 1); method: Karl-Fischer titration
Property: Mass fraction of water (Liquid mixture 1); method: Karl-Fischer titration
Temperature, K	Mass fraction of butyric acid	Mass fraction of water	uncertainty	Mass fraction of butyric acid	uncertainty	Mass fraction of water	uncertainty
298.2	.147	.002	.009	.06	.009	.938	.009
318.2	.576	.065	.009	.17	.009	.811	.009
298.2	.261	.004	.009	.084	.009	.914	.009
298.2	.351	.006	.009	.098	.009	.898	.009
298.2	.438	.009	.009	.108	.009	.888	.009
298.2	.504	.013	.009	.12	.009	.875	.009
298.2	.541	.021	.009	.128	.009	.866	.009
308.2	.153	.002	.009	.071	.009	.926	.009
308.2	.294	.005	.009	.092	.009	.904	.009
308.2	.351	.008	.009	.107	.009	.887	.009
308.2	.442	.019	.009	.119	.009	.873	.009
308.2	.51	.031	.009	.131	.009	.859	.009
308.2	.572	.037	.009	.143	.009	.846	.009
318.2	.171	.003	.009	.082	.009	.915	.009
318.2	.309	.007	.009	.106	.009	.891	.009
318.2	.375	.012	.009	.126	.009	.867	.009
318.2	.469	.02	.009	.138	.009	.852	.009
318.2	.531	.04	.009	.153	.009	.833	.009

System: butyric acid + n-hexanol + water; phases: Liquid mixture 1, Liquid mixture 2
Fixed: Pressure, kPa = 101
Property: Mass fraction of butyric acid (Liquid mixture 1); method: cloud point titration
Temperature, K	Mass fraction of water	Mass fraction of butyric acid	uncertainty
298.2	.9452	.0497	.0007
298.2	.8814	.1127	.0007
298.2	.8434	.1505	.0007
298.2	.7882	.2047	.0007
298.2	.7439	.2461	.0007
298.2	.6815	.3027	.0007
298.2	.6389	.3411	.0007
298.2	.5761	.3976	.0007
298.2	.5354	.435	.0007
298.2	.4818	.4759	.0007
298.2	.4247	.522	.0007
298.2	.3782	.5554	.0007
298.2	.3057	.578	.0007
298.2	.2656	.5873	.0007
298.2	.2242	.5768	.0007
298.2	.1944	.5592	.0007
298.2	.1608	.4949	.0007
298.2	.1521	.469	.0007
298.2	.1379	.431	.0007
298.2	.125	.3991	.0007
298.2	.1108	.3598	.0007
298.2	.1034	.3122	.0007
298.2	.0968	.2793	.0007
298.2	.0892	.2333	.0007
298.2	.087	.1888	.0007
298.2	.0847	.152	.0007
298.2	.0762	.0924	.0007
298.2	.0731	.05	.0007
308.2	.9298	.0662	.0007
308.2	.8868	.1092	.0007
308.2	.8415	.1526	.0007
308.2	.7871	.2049	.0007
308.2	.7362	.2498	.0007
308.2	.6842	.2979	.0007
308.2	.6403	.338	.0007
308.2	.584	.3866	.0007
308.2	.5317	.4312	.0007
308.2	.4778	.4758	.0007
308.2	.4177	.5258	.0007
308.2	.3664	.5535	.0007
308.2	.3054	.5654	.0007
308.2	.2416	.5696	.0007
308.2	.2369	.57	.0007
308.2	.2021	.5486	.0007
308.2	.1827	.5263	.0007
308.2	.1545	.4986	.0007
308.2	.1475	.4633	.0007
308.2	.1377	.4282	.0007
308.2	.1258	.3904	.0007
308.2	.1161	.3487	.0007
308.2	.1107	.3191	.0007
308.2	.0996	.2685	.0007
308.2	.0925	.229	.0007
308.2	.0891	.1857	.0007
308.2	.0866	.1425	.0007
308.2	.0822	.1015	.0007
318.2	.9457	.0502	.0007
318.2	.8978	.0982	.0007
318.2	.8413	.1486	.0007
318.2	.7769	.2113	.0007
318.2	.73	.2524	.0007
318.2	.6766	.2997	.0007
318.2	.6255	.3371	.0007
318.2	.5743	.3814	.0007
318.2	.519	.4294	.0007
318.2	.4762	.4631	.0007
318.2	.4186	.5048	.0007
318.2	.3574	.5428	.0007
318.2	.2945	.5612	.0007
318.2	.2516	.5544	.0007
318.2	.2353	.5501	.0007
318.2	.2214	.5433	.0007
318.2	.1978	.5154	.0007
318.2	.1803	.4957	.0007
318.2	.1579	.4572	.0007
318.2	.1469	.4267	.0007
318.2	.1325	.3901	.0007
318.2	.1264	.3568	.0007
318.2	.1144	.3108	.0007
318.2	.1087	.2691	.0007
318.2	.1034	.2282	.0007
318.2	.0901	.187	.0007
318.2	.0875	.1399	.0007
318.2	.0852	.1016	.0007

System: butyric acid + n-hexanol + water; phases: Liquid mixture 1, Liquid mixture 2
Fixed: Pressure, kPa = 101
Property: Mass fraction of water (Liquid mixture 1); method: karl-Fischer titration
Property: Mass fraction of butyric acid (Liquid mixture 2); method: karl-Fischer titration
Property: Mass fraction of water (Liquid mixture 2); method: karl-Fischer titration
Temperature, K	Mass fraction of butyric acid	Mass fraction of water	uncertainty	Mass fraction of butyric acid	uncertainty	Mass fraction of water	uncertainty
298.2	.018	.978	.009	.169	.009	.085	.009
308.2	.019	.978	.009	.171	.009	.087	.009
308.2	.032	.964	.009	.275	.009	.102	.009
308.2	.044	.951	.009	.354	.009	.116	.009
318.2	.063	.93	.009	.457	.009	.153	.009
318.2	.019	.977	.009	.171	.009	.087	.009
318.2	.031	.964	.009	.277	.009	.109	.009
318.2	.069	.922	.009	.489	.009	.172	.009
318.2	.044	.951	.009	.356	.009	.126	.009
318.2	.054	.94	.009	.412	.009	.141	.009
298.2	.033	.964	.009	.275	.009	.097	.009
298.2	.046	.951	.009	.349	.009	.11	.009
298.2	.055	.941	.009	.399	.009	.124	.009
298.2	.063	.931	.009	.451	.009	.145	.009
298.2	.074	.919	.009	.483	.009	.159	.009
308.2	.055	.94	.009	.407	.009	.128	.009
308.2	.063	.932	.009	.453	.009	.144	.009
308.2	.072	.922	.009	.485	.009	.151	.009
