Measured thermophysical data. Thermophysical properties of ammonium and hydroxylammonium protic ionic liquids
Source: J. Chem. Thermodyn., 2014, 10.1016/j.jct.2014.01.004
Compound 1: propylammonium formate, C4H11NO2
Compound 2: propylammonium acetate, C5H13NO2
Compound 3: 3-hydroxypropylammonium formate, C4H11NO3
Compound 4: 3-hydroxypropylammonium acetate, C5H13NO3
Compound 5: 3-hydroxypropylammonium trifluoroacetate, C5H10F3NO3

System: propylammonium formate; phases: Crystal, Liquid, Air at 1 atmosphere
Property: Normal melting temperature, K (Crystal); method: DSC/DTA
Normal melting temperature, K	uncertainty
307.15	2

System: propylammonium formate; phases: Crystal, Liquid, Air at 1 atmosphere
Property: Molar enthalpy of transition or fusion, kJ/mol (Crystal); method: DSC/DTA
Molar enthalpy of transition or fusion, kJ/mol	uncertainty
9.0584901888	.181169803776

System: propylammonium formate; phases: Liquid
Fixed: Pressure, kPa = 101.325
Property: Mass density, kg/m3 (Liquid); method: Vibrating tube method
Temperature, K	Mass density, kg/m3	uncertainty
293.15	996.18	.05
298.15	993.47	.05
303.15	990.77	.05
308.15	988.09	.05
313.15	985.42	.05
318.15	982.75	.05
323.15	980.1	.05
328.15	977.45	.05
333.15	974.8	.05
338.15	972.15	.05
343.15	969.49	.05

System: propylammonium formate; phases: Liquid
Fixed: Pressure, kPa = 101.325
Property: Viscosity, Pa*s (Liquid); method: Falling or rolling sphere viscometry
Temperature, K	Viscosity, Pa*s	uncertainty
293.15	.09677	.0009677
298.15	.0786	.000786
303.15	.06358	.0006358
308.15	.05267	.0005267
313.15	.04397	.0004397
318.15	.03716	.0003716
323.15	.03143	.0003143
328.15	.02692	.0002692
333.15	.02332	.0002332
338.15	.02018	.0002018
343.15	.01757	.0001757

System: propylammonium formate; phases: Liquid
Fixed: Pressure, kPa = 101.325
Property: Speed of sound, m/s (Liquid); method: Sing-around technique in a fixed-path interferometer
Temperature, K	Speed of sound, m/s	uncertainty
293.15	1553.06	.5
298.15	1542.72	.5
303.15	1532.43	.5
308.15	1522.21	.5
313.15	1511.96	.5
318.15	1501.79	.5
323.15	1491.69	.5
328.15	1481.63	.5
333.15	1471.65	.5
338.15	1461.78	.5
343.15	1451.97	.5

System: propylammonium acetate; phases: Glass, Liquid, Air at 1 atmosphere
Property: Triple point temperature, K (Glass); method: DSC/DTA
Triple point temperature, K	uncertainty
247.15	2

System: propylammonium acetate; phases: Liquid
Fixed: Pressure, kPa = 101.325
Property: Mass density, kg/m3 (Liquid); method: Vibrating tube method
Temperature, K	Mass density, kg/m3	uncertainty
293.15	989.97	.05
298.15	986.91	.05
303.15	983.85	.05
308.15	980.77	.05
313.15	977.69	.05
318.15	974.6	.05
323.15	971.5	.05
328.15	968.4	.05
333.15	965.3	.05
338.15	962.17	.05
343.15	959.03	.05

System: propylammonium acetate; phases: Liquid
Fixed: Pressure, kPa = 101.325
Property: Viscosity, Pa*s (Liquid); method: Falling or rolling sphere viscometry
Temperature, K	Viscosity, Pa*s	uncertainty
293.15	.93222	.0093222
298.15	.62741	.0062741
303.15	.43542	.0043542
308.15	.30995	.0030995
313.15	.22635	.0022635
318.15	.16769	.0016769
323.15	.12815	.0012815
328.15	.09903	.0009903
333.15	.07803	.0007803
338.15	.06196	.0006196
343.15	.05002	.0005002

System: propylammonium acetate; phases: Liquid
Fixed: Pressure, kPa = 101.325
Property: Speed of sound, m/s (Liquid); method: Sing-around technique in a fixed-path interferometer
Temperature, K	Speed of sound, m/s	uncertainty
293.15	1517.12	.5
298.15	1507.96	.5
303.15	1497.08	.5
308.15	1487.62	.5
313.15	1477.02	.5
318.15	1467.75	.5
323.15	1457.45	.5
328.15	1447.92	.5
333.15	1437.29	.5
338.15	1427.42	.5
343.15	1417.47	.5

System: 3-hydroxypropylammonium formate; phases: Glass, Liquid, Air at 1 atmosphere
Property: Triple point temperature, K (Glass); method: DSC/DTA
Triple point temperature, K	uncertainty
249.15	2

System: 3-hydroxypropylammonium formate; phases: Liquid
Fixed: Pressure, kPa = 101.325
Property: Mass density, kg/m3 (Liquid); method: Vibrating tube method
Temperature, K	Mass density, kg/m3	uncertainty
293.15	1148.29	.05
298.15	1145.84	.05
303.15	1143.39	.05
308.15	1140.95	.05
313.15	1138.53	.05
318.15	1136.12	.05
323.15	1133.73	.05
328.15	1131.34	.05
333.15	1128.97	.05
338.15	1126.61	.05
343.15	1124.25	.05

System: 3-hydroxypropylammonium formate; phases: Liquid
Fixed: Pressure, kPa = 101.325
Property: Viscosity, Pa*s (Liquid); method: Falling or rolling sphere viscometry
Temperature, K	Viscosity, Pa*s	uncertainty
293.15	.33904	.0033904
298.15	.25715	.0025715
303.15	.19839	.0019839
308.15	.15449	.0015449
313.15	.12256	.0012256
318.15	.09817	.0009817
323.15	.07984	.0007984
328.15	.06537	.0006537
333.15	.05398	.0005398
338.15	.04536	.0004536
343.15	.03838	.0003838

System: 3-hydroxypropylammonium formate; phases: Liquid
Fixed: Pressure, kPa = 101.325
Property: Speed of sound, m/s (Liquid); method: Sing-around technique in a fixed-path interferometer
Temperature, K	Speed of sound, m/s	uncertainty
293.15	1824.27	.5
298.15	1816.35	.5
303.15	1808.29	.5
308.15	1800.45	.5
313.15	1792.32	.5
318.15	1785.25	.5
323.15	1776.4	.5
328.15	1768.31	.5
333.15	1760.43	.5
338.15	1752.54	.5
343.15	1744.69	.5

System: 3-hydroxypropylammonium acetate; phases: Glass, Liquid, Air at 1 atmosphere
Property: Triple point temperature, K (Glass); method: DSC/DTA
Triple point temperature, K	uncertainty
247.15	2

System: 3-hydroxypropylammonium acetate; phases: Liquid
Fixed: Pressure, kPa = 101.325
Property: Mass density, kg/m3 (Liquid); method: Vibrating tube method
Temperature, K	Mass density, kg/m3	uncertainty
293.15	1114.58	.05
298.15	1112.02	.05
303.15	1109.46	.05
308.15	1106.91	.05
313.15	1104.36	.05
318.15	1101.8	.05
323.15	1099.24	.05
328.15	1096.68	.05
333.15	1094.13	.05
338.15	1091.59	.05
343.15	1089.03	.05

System: 3-hydroxypropylammonium acetate; phases: Liquid
Fixed: Pressure, kPa = 101.325
Property: Viscosity, Pa*s (Liquid); method: Falling or rolling sphere viscometry
Temperature, K	Viscosity, Pa*s	uncertainty
293.15	4.2617	.042617
298.15	2.82701	.0282701
303.15	1.93703	.0193703
308.15	1.34855	.0134855
313.15	.9709	.009709
318.15	.71444	.0071444
323.15	.526	.00526
328.15	.40011	.0040011
333.15	.30597	.0030597
338.15	.23821	.0023821
343.15	.1904	.001904

System: 3-hydroxypropylammonium acetate; phases: Liquid
Fixed: Pressure, kPa = 101.325
Property: Speed of sound, m/s (Liquid); method: Sing-around technique in a fixed-path interferometer
Temperature, K	Speed of sound, m/s	uncertainty
293.15	1779.78	.5
298.15	1770.84	.5
303.15	1761.87	.5
308.15	1753.29	.5
313.15	1745.22	.5
318.15	1736.37	.5
323.15	1727.81	.5
328.15	1719.35	.5
333.15	1710.34	.5
338.15	1702.84	.5
343.15	1693.6	.5

System: 3-hydroxypropylammonium trifluoroacetate; phases: Glass, Liquid, Air at 1 atmosphere
Property: Triple point temperature, K (Glass); method: DSC/DTA
Triple point temperature, K	uncertainty
245.15	2

System: 3-hydroxypropylammonium trifluoroacetate; phases: Liquid
Fixed: Pressure, kPa = 101.325
Property: Mass density, kg/m3 (Liquid); method: Vibrating tube method
Temperature, K	Mass density, kg/m3	uncertainty
293.15	1311.44	.05
298.15	1307.81	.05
303.15	1304.2	.05
308.15	1300.58	.05
313.15	1296.96	.05
318.15	1293.34	.05
323.15	1289.72	.05
328.15	1286.1	.05
333.15	1282.49	.05
338.15	1278.88	.05
343.15	1275.25	.05

System: 3-hydroxypropylammonium trifluoroacetate; phases: Liquid
Fixed: Pressure, kPa = 101.325
Property: Viscosity, Pa*s (Liquid); method: Falling or rolling sphere viscometry
Temperature, K	Viscosity, Pa*s	uncertainty
293.15	1.4302	.014302
298.15	.97033	.0097033
303.15	.67732	.0067732
308.15	.48303	.0048303
313.15	.35231	.0035231
318.15	.26207	.0026207
323.15	.19879	.0019879
328.15	.15305	.0015305
333.15	.11986	.0011986
338.15	.09492	.0009492
343.15	.07672	.0007672

System: 3-hydroxypropylammonium trifluoroacetate; phases: Liquid
Fixed: Pressure, kPa = 101.325
Property: Speed of sound, m/s (Liquid); method: Sing-around technique in a fixed-path interferometer
Temperature, K	Speed of sound, m/s	uncertainty
293.15	1487.9	.5
298.15	1476.51	.5
303.15	1465.53	.5
308.15	1454.92	.5
313.15	1444.53	.5
318.15	1434.31	.5
323.15	1424.15	.5
328.15	1413.92	.5
333.15	1403.56	.5
338.15	1393.2	.5
343.15	1382.79	.5
