Measured thermophysical data. Application of 1-pentyl-3-methylimidazolium bis(trifluoromethylsulfonyl) imide for desulfurization, denitrification and dearomatization of FCC gasoline
Source: J. Chem. Thermodyn., 2014, 10.1016/j.jct.2014.04.010
Compound 1: 1-pentyl-3-methylimidazolium bis(trifluoromethylsulfonyl)amide, C11H17F6N3O4S2
Compound 2: hexane, C6H14, purity 98.5%
Compound 3: heptane, C7H16, purity 99%
Compound 4: isooctane, C8H18, purity 99.5%
Compound 5: toluene, C7H8, purity 99.5%
Compound 6: pyridine, C5H5N, purity 99%
Compound 7: thiophene, C4H4S, purity 99%

System: hexane + pyridine + 1-pentyl-3-methylimidazolium bis(trifluoromethylsulfonyl)amide; phases: Liquid mixture 1, Liquid mixture 2
Fixed: Pressure, kPa = 101.325
Fixed: Temperature, K = 298.15
Property: Mass fraction of 1-pentyl-3-methylimidazolium bis(trifluoromethylsulfonyl)amide (Liquid mixture 1); method: Titration method
Mass fraction of pyridine	Mass fraction of 1-pentyl-3-methylimidazolium bis(trifluoromethylsulfonyl)amide	uncertainty
.2176	0	.0026
.2401	0	.0026
.2793	0	.0026
.3502	0	.0026
.419	.0146	.0026
.4496	.03	.0026
.4665	.0372	.0026
.51	.0651	.0026
.5358	.1093	.0026
.5648	.1975	.0026
0	.9662	.0026
.049	.9156	.0026
.1183	.8407	.0026
.2557	.6853	.0026
.32	.61	.0026
.3644	.5569	.0026
.3966	.5156	.0026
.4106	.4978	.0026
.4343	.4644	.0026
.4531	.4397	.0026
.4743	.4117	.0026
.497	.3787	.0026
.5441	.3235	.0026
.5151	.3519	.0026
.5251	.3413	.0026
.5544	.3067	.0026
.5642	.2889	.0026
.574	.2635	.0026

System: hexane + pyridine + 1-pentyl-3-methylimidazolium bis(trifluoromethylsulfonyl)amide; phases: Liquid mixture 2, Liquid mixture 1
Fixed: Temperature, K = 298.15
Fixed: Pressure, kPa = 101.325
Property: Mass fraction of 1-pentyl-3-methylimidazolium bis(trifluoromethylsulfonyl)amide (Liquid mixture 2); method: Index of refraction calibration data
Property: Mass fraction of pyridine (Liquid mixture 1); method: Index of refraction calibration data
Property: Mass fraction of 1-pentyl-3-methylimidazolium bis(trifluoromethylsulfonyl)amide (Liquid mixture 1); method: Index of refraction calibration data
Mass fraction of pyridine	Mass fraction of 1-pentyl-3-methylimidazolium bis(trifluoromethylsulfonyl)amide	uncertainty	Mass fraction of pyridine	uncertainty	Mass fraction of 1-pentyl-3-methylimidazolium bis(trifluoromethylsulfonyl)amide	uncertainty
0	.966	.005	0	.0006	0	.0006
.07	.89	.005	.029	.0006	0	.0006
.143	.815	.005	.05	.0006	0	.0006
.211	.745	.005	.077	.0006	0	.0006
.352	.572	.005	.141	.0006	0	.0006
.408	.5	.005	.174	.0006	0	.0006
.535	.335	.005	.292	.0006	0	.0006
.575	.25	.005	.363	.0006	0	.0006

System: pyridine + heptane + 1-pentyl-3-methylimidazolium bis(trifluoromethylsulfonyl)amide; phases: Liquid mixture 1, Liquid mixture 2
Fixed: Pressure, kPa = 101.325
Fixed: Temperature, K = 298.15
Property: Mass fraction of 1-pentyl-3-methylimidazolium bis(trifluoromethylsulfonyl)amide (Liquid mixture 1); method: Titration method
Mass fraction of pyridine	Mass fraction of 1-pentyl-3-methylimidazolium bis(trifluoromethylsulfonyl)amide	uncertainty
.2613	0	.0026
.3676	0	.0026
.4527	.0277	.0026
.4746	.0398	.0026
.4965	.0488	.0026
.5105	.0581	.0026
.5216	.0761	.0026
.5448	.0974	.0026
.5531	.1094	.0026
.5595	.1202	.0026
.5713	.1396	.0026
.5746	.1533	.0026
.5772	.1753	.0026
0	.9705	.0026
.077	.8851	.0026
.165	.7953	.0026
.1994	.7575	.0026
.2396	.7102	.0026
.301	.6419	.0026
.3455	.5895	.0026
.3914	.5311	.0026
.4343	.4763	.0026
.476	.419	.0026
.507	.3733	.0026
.5346	.33	.0026
.5492	.2985	.0026
.5622	.2716	.0026
.576	.2408	.0026
.583	.205	.0026

System: pyridine + heptane + 1-pentyl-3-methylimidazolium bis(trifluoromethylsulfonyl)amide; phases: Liquid mixture 1, Liquid mixture 2
Fixed: Pressure, kPa = 101.325
Fixed: Temperature, K = 298.15
Property: Mass fraction of 1-pentyl-3-methylimidazolium bis(trifluoromethylsulfonyl)amide (Liquid mixture 1); method: Index of refraction calibration data
Property: Mass fraction of pyridine (Liquid mixture 2); method: Index of refraction calibration data
Property: Mass fraction of 1-pentyl-3-methylimidazolium bis(trifluoromethylsulfonyl)amide (Liquid mixture 2); method: Index of refraction calibration data
Mass fraction of pyridine	Mass fraction of 1-pentyl-3-methylimidazolium bis(trifluoromethylsulfonyl)amide	uncertainty	Mass fraction of pyridine	uncertainty	Mass fraction of 1-pentyl-3-methylimidazolium bis(trifluoromethylsulfonyl)amide	uncertainty
0	0	.0006	0	.005	.971	.005
.03	0	.0006	.07	.005	.895	.005
.082	0	.0006	.215	.005	.739	.005
.203	0	.0006	.391	.005	.531	.005
.389	0	.0006	.56	.005	.28	.005

System: pyridine + isooctane + 1-pentyl-3-methylimidazolium bis(trifluoromethylsulfonyl)amide; phases: Liquid mixture 1, Liquid mixture 2
Fixed: Pressure, kPa = 101.325
Fixed: Temperature, K = 298.15
Property: Mass fraction of 1-pentyl-3-methylimidazolium bis(trifluoromethylsulfonyl)amide (Liquid mixture 1); method: Titration method
Mass fraction of pyridine	Mass fraction of 1-pentyl-3-methylimidazolium bis(trifluoromethylsulfonyl)amide	uncertainty
.0231	0	.0026
.0881	0	.0026
.1462	0	.0026
.2002	0	.0026
.2486	0	.0026
.2902	0	.0026
.3016	0	.0026
.4219	.0216	.0026
.4384	.0286	.0026
.451	.0364	.0026
.4643	.044	.0026
.4785	.0503	.0026
.4908	.0564	.0026
.5009	.0607	.0026
.5087	.0662	.0026
.5203	.0696	.0026
.5344	.0836	.0026
.5523	.0912	.0026
.5637	.1048	.0026
.5702	.1222	.0026
.5782	.134	.0026
.5838	.1463	.0026
.5861	.1605	.0026
.5858	.1763	.0026
0	.9715	.0026
.0461	.9196	.0026
.1206	.8388	.0026
.1924	.7625	.0026
.252	.6959	.0026
.3193	.6209	.0026
.3732	.5596	.0026
.4312	.4884	.0026
.4746	.4319	.0026
.5228	.3663	.0026
.5522	.3143	.0026
.5697	.2859	.0026
.5803	.2648	.0026

System: pyridine + isooctane + 1-pentyl-3-methylimidazolium bis(trifluoromethylsulfonyl)amide; phases: Liquid mixture 2, Liquid mixture 1
Fixed: Temperature, K = 298.15
Fixed: Pressure, kPa = 101.325
Property: Mass fraction of 1-pentyl-3-methylimidazolium bis(trifluoromethylsulfonyl)amide (Liquid mixture 2); method: Index of refraction calibration data
Property: Mass fraction of pyridine (Liquid mixture 1); method: Index of refraction calibration data
Property: Mass fraction of 1-pentyl-3-methylimidazolium bis(trifluoromethylsulfonyl)amide (Liquid mixture 1); method: Index of refraction calibration data
Mass fraction of pyridine	Mass fraction of 1-pentyl-3-methylimidazolium bis(trifluoromethylsulfonyl)amide	uncertainty	Mass fraction of pyridine	uncertainty	Mass fraction of 1-pentyl-3-methylimidazolium bis(trifluoromethylsulfonyl)amide	uncertainty
0	.972	.005	0	.0006	0	.0006
.149	.808	.005	.051	.0006	0	.0006
.268	.678	.005	.106	.0006	0	.0006
.402	.524	.005	.18	.0006	0	.0006
.472	.433	.005	.234	.0006	0	.0006
.566	.292	.005	.333	.0006	0	.0006

System: toluene + pyridine + 1-pentyl-3-methylimidazolium bis(trifluoromethylsulfonyl)amide; phases: Liquid mixture 1, Liquid mixture 2
Fixed: Pressure, kPa = 101.325
Fixed: Temperature, K = 298.15
Property: Mass fraction of 1-pentyl-3-methylimidazolium bis(trifluoromethylsulfonyl)amide (Liquid mixture 1); method: Titration method
Mass fraction of pyridine	Mass fraction of 1-pentyl-3-methylimidazolium bis(trifluoromethylsulfonyl)amide	uncertainty
.0852	0	.0026
.1179	0	.0026
.151	.073	.0026
.1582	.1618	.0026
0	.5772	.0026
.0232	.5437	.0026
.0537	.496	.0026
.1031	.4038	.0026
.131	.3311	.0026
.1485	.2703	.0026
.1577	.2161	.0026
.1602	.1847	.0026
.1608	.1582	.0026

System: toluene + pyridine + 1-pentyl-3-methylimidazolium bis(trifluoromethylsulfonyl)amide; phases: Liquid mixture 2, Liquid mixture 1
Fixed: Temperature, K = 298.15
Fixed: Pressure, kPa = 101.325
Property: Mass fraction of pyridine (Liquid mixture 2); method: Index of refraction calibration data
Property: Mass fraction of pyridine (Liquid mixture 1); method: Index of refraction calibration data
Property: Mass fraction of 1-pentyl-3-methylimidazolium bis(trifluoromethylsulfonyl)amide (Liquid mixture 1); method: Index of refraction calibration data
Mass fraction of 1-pentyl-3-methylimidazolium bis(trifluoromethylsulfonyl)amide	Mass fraction of pyridine	uncertainty	Mass fraction of pyridine	uncertainty	Mass fraction of 1-pentyl-3-methylimidazolium bis(trifluoromethylsulfonyl)amide	uncertainty
.577	0	.005	0	.0006	0	.0006
.52	.04	.005	.024	.0006	0	.0006
.45	.08	.005	.04	.0006	0	.0006
.318	.134	.005	.04	.0006	0	.0006
.23	.153	.005	.067	.0006	0	.0006

System: thiophene + hexane + 1-pentyl-3-methylimidazolium bis(trifluoromethylsulfonyl)amide; phases: Liquid mixture 1, Liquid mixture 2
Fixed: Pressure, kPa = 101.325
Fixed: Temperature, K = 298.15
Property: Mass fraction of 1-pentyl-3-methylimidazolium bis(trifluoromethylsulfonyl)amide (Liquid mixture 1); method: Titration method
Mass fraction of thiophene	Mass fraction of 1-pentyl-3-methylimidazolium bis(trifluoromethylsulfonyl)amide	uncertainty
.0611	0	.0026
.1398	0	.0026
.1542	0	.0026
.1779	0	.0026
.2151	0	.0026
.2433	0	.0026
.2941	0	.0026
.3382	0	.0026
.4225	0	.0026
.4951	0	.0026
.5611	0	.0026
.621	0	.0026
.6684	0	.0026
.882	0	.0026
.977	0	.0026
.5583	.4417	.0026
.5377	.4571	.0026
.5281	.463	.0026
.5211	.4659	.0026
.5141	.4704	.0026
.4963	.4844	.0026
.4726	.504	.0026
.4529	.5185	.0026
.427	.5403	.0026
.353	.6054	.0026
.2829	.6765	.0026
.2	.7582	.0026
.0974	.8622	.0026
0	.9662	.0026

System: thiophene + hexane + 1-pentyl-3-methylimidazolium bis(trifluoromethylsulfonyl)amide; phases: Liquid mixture 2, Liquid mixture 1
Fixed: Temperature, K = 298.15
Fixed: Pressure, kPa = 101.325
Property: Mass fraction of 1-pentyl-3-methylimidazolium bis(trifluoromethylsulfonyl)amide (Liquid mixture 2); method: Index of refraction calibration data
Property: Mass fraction of thiophene (Liquid mixture 1); method: Index of refraction calibration data
Property: Mass fraction of 1-pentyl-3-methylimidazolium bis(trifluoromethylsulfonyl)amide (Liquid mixture 1); method: Index of refraction calibration data
Mass fraction of thiophene	Mass fraction of 1-pentyl-3-methylimidazolium bis(trifluoromethylsulfonyl)amide	uncertainty	Mass fraction of thiophene	uncertainty	Mass fraction of 1-pentyl-3-methylimidazolium bis(trifluoromethylsulfonyl)amide	uncertainty
0	.966	.005	0	.0006	0	.0006
.08	.879	.005	.123	.0006	0	.0006
.16	.799	.005	.238	.0006	0	.0006
.2	.759	.005	.307	.0006	0	.0006
.235	.724	.005	.382	.0006	0	.0006
.326	.633	.005	.654	.0006	0	.0006
.335	.624	.005	.738	.0006	0	.0006
.453	.519	.005	.929	.0006	0	.0006
.558	.442	.005	1	.0006	0	.0006

System: thiophene + heptane + 1-pentyl-3-methylimidazolium bis(trifluoromethylsulfonyl)amide; phases: Liquid mixture 1, Liquid mixture 2
Fixed: Pressure, kPa = 101.325
Fixed: Temperature, K = 298.15
Property: Mass fraction of 1-pentyl-3-methylimidazolium bis(trifluoromethylsulfonyl)amide (Liquid mixture 1); method: Titration method
Mass fraction of thiophene	Mass fraction of 1-pentyl-3-methylimidazolium bis(trifluoromethylsulfonyl)amide	uncertainty
.1373	0	.0026
.1693	0	.0026
.2173	0	.0026
.292	0	.0026
.3674	0	.0026
.4461	0	.0026
.5231	0	.0026
.5841	0	.0026
.6002	0	.0026
.6477	0	.0026
.6766	0	.0026
.7399	0	.0026
.762	0	.0026
.8762	0	.0026
0	.9705	.0026
.1574	.8124	.0026
.1975	.7723	.0026
.2247	.7441	.0026
.2411	.7269	.0026
.259	.7079	.0026
.2817	.6843	.0026
.298	.667	.0026
.3229	.6418	.0026
.3514	.6084	.0026
.4056	.5622	.0026
.5583	.4417	.0026

System: thiophene + heptane + 1-pentyl-3-methylimidazolium bis(trifluoromethylsulfonyl)amide; phases: Liquid mixture 2, Liquid mixture 1
Fixed: Temperature, K = 298.15
Fixed: Pressure, kPa = 101.325
Property: Mass fraction of 1-pentyl-3-methylimidazolium bis(trifluoromethylsulfonyl)amide (Liquid mixture 2); method: Index of refraction calibration data
Property: Mass fraction of thiophene (Liquid mixture 1); method: Index of refraction calibration data
Property: Mass fraction of 1-pentyl-3-methylimidazolium bis(trifluoromethylsulfonyl)amide (Liquid mixture 1); method: Index of refraction calibration data
Mass fraction of thiophene	Mass fraction of 1-pentyl-3-methylimidazolium bis(trifluoromethylsulfonyl)amide	uncertainty	Mass fraction of thiophene	uncertainty	Mass fraction of 1-pentyl-3-methylimidazolium bis(trifluoromethylsulfonyl)amide	uncertainty
0	.971	.005	0	.0006	0	.0006
.085	.885	.005	.115	.0006	0	.0006
.162	.808	.005	.242	.0006	0	.0006
.197	.773	.005	.31	.0006	0	.0006
.23	.739	.005	.381	.0006	0	.0006
.238	.73	.005	.396	.0006	0	.0006
.39	.57	.005	.724	.0006	0	.0006
.558	.442	.005	1	.0006	0	.0006

System: thiophene + isooctane + 1-pentyl-3-methylimidazolium bis(trifluoromethylsulfonyl)amide; phases: Liquid mixture 1, Liquid mixture 2
Fixed: Pressure, kPa = 101.325
Fixed: Temperature, K = 298.15
Property: Mass fraction of 1-pentyl-3-methylimidazolium bis(trifluoromethylsulfonyl)amide (Liquid mixture 1); method: Titration method
Mass fraction of thiophene	Mass fraction of 1-pentyl-3-methylimidazolium bis(trifluoromethylsulfonyl)amide	uncertainty
.1682	0	.0026
.2903	0	.0026
.4365	0	.0026
.5198	0	.0026
.5931	0	.0026
.6449	0	.0026
.6556	0	.0026
.6947	0	.0026
.791	0	.0026
.8846	0	.0026
.5583	.4417	.0026
.5163	.4633	.0026
.4966	.4769	.0026
.4766	.4922	.0026
.4598	.5043	.0026
.4318	.5287	.0026
.3804	.5697	.0026
.3455	.6093	.0026
.2602	.6969	.0026
.1685	.7927	.0026
0	.9715	.0026

System: thiophene + isooctane + 1-pentyl-3-methylimidazolium bis(trifluoromethylsulfonyl)amide; phases: Liquid mixture 2, Liquid mixture 1
Fixed: Temperature, K = 298.15
Fixed: Pressure, kPa = 101.325
Property: Mass fraction of 1-pentyl-3-methylimidazolium bis(trifluoromethylsulfonyl)amide (Liquid mixture 2); method: Index of refraction calibration data
Property: Mass fraction of thiophene (Liquid mixture 1); method: Index of refraction calibration data
Property: Mass fraction of 1-pentyl-3-methylimidazolium bis(trifluoromethylsulfonyl)amide (Liquid mixture 1); method: Index of refraction calibration data
Mass fraction of thiophene	Mass fraction of 1-pentyl-3-methylimidazolium bis(trifluoromethylsulfonyl)amide	uncertainty	Mass fraction of thiophene	uncertainty	Mass fraction of 1-pentyl-3-methylimidazolium bis(trifluoromethylsulfonyl)amide	uncertainty
0	.972	.005	0	.0006	0	.0006
.093	.868	.005	.107	.0006	0	.0006
.168	.793	.005	.233	.0006	0	.0006
.226	.733	.005	.35	.0006	0	.0006
.289	.671	.005	.489	.0006	0	.0006
.31	.65	.005	.585	.0006	0	.0006
.558	.442	.005	1	.0006	0	.0006

System: toluene + thiophene + 1-pentyl-3-methylimidazolium bis(trifluoromethylsulfonyl)amide; phases: Liquid mixture 1, Liquid mixture 2
Fixed: Pressure, kPa = 101.325
Fixed: Temperature, K = 298.15
Property: Mass fraction of 1-pentyl-3-methylimidazolium bis(trifluoromethylsulfonyl)amide (Liquid mixture 1); method: Titration method
Mass fraction of thiophene	Mass fraction of 1-pentyl-3-methylimidazolium bis(trifluoromethylsulfonyl)amide	uncertainty
.1682	0	.0026
.2903	0	.0026
.4365	0	.0026
.5198	0	.0026
.5931	0	.0026
.6449	0	.0026
.6556	0	.0026
.6947	0	.0026
.791	0	.0026
.8846	0	.0026
.5583	.4417	.0026
.4911	.4412	.0026
.4684	.4498	.0026
.4284	.4618	.0026
.3922	.4728	.0026
.3635	.4827	.0026
.338	.4898	.0026
.3155	.4929	.0026
.2901	.501	.0026
.2736	.506	.0026
.2399	.5152	.0026
.2242	.5207	.0026
.2002	.527	.0026
.1326	.545	.0026
.0717	.5611	.0026
0	.5772	.0026

System: toluene + thiophene + 1-pentyl-3-methylimidazolium bis(trifluoromethylsulfonyl)amide; phases: Liquid mixture 2, Liquid mixture 1
Fixed: Temperature, K = 298.15
Fixed: Pressure, kPa = 101.325
Property: Mass fraction of 1-pentyl-3-methylimidazolium bis(trifluoromethylsulfonyl)amide (Liquid mixture 2); method: Index of refraction calibration data
Property: Mass fraction of thiophene (Liquid mixture 1); method: Index of refraction calibration data
Property: Mass fraction of 1-pentyl-3-methylimidazolium bis(trifluoromethylsulfonyl)amide (Liquid mixture 1); method: Index of refraction calibration data
Mass fraction of thiophene	Mass fraction of 1-pentyl-3-methylimidazolium bis(trifluoromethylsulfonyl)amide	uncertainty	Mass fraction of thiophene	uncertainty	Mass fraction of 1-pentyl-3-methylimidazolium bis(trifluoromethylsulfonyl)amide	uncertainty
0	.577	.005	0	.0006	0	.0006
.09	.56	.005	.135	.0006	0	.0006
.18	.53	.005	.281	.0006	0	.0006
.26	.51	.005	.422	.0006	0	.0006
.335	.49	.005	.582	.0006	0	.0006
.42	.462	.005	.721	.0006	0	.0006
.482	.448	.005	.851	.0006	0	.0006
.558	.442	.005	1	.0006	0	.0006

System: hexane + 1-pentyl-3-methylimidazolium bis(trifluoromethylsulfonyl)amide; phases: Liquid mixture 1, Liquid mixture 2
Property: Mass fraction of 1-pentyl-3-methylimidazolium bis(trifluoromethylsulfonyl)amide (Liquid mixture 1); method: Titration method
Pressure, kPa	Temperature, K	Mass fraction of 1-pentyl-3-methylimidazolium bis(trifluoromethylsulfonyl)amide	uncertainty
101.325	298.15	.9662	.0026

System: heptane + 1-pentyl-3-methylimidazolium bis(trifluoromethylsulfonyl)amide; phases: Liquid mixture 1, Liquid mixture 2
Property: Mass fraction of 1-pentyl-3-methylimidazolium bis(trifluoromethylsulfonyl)amide (Liquid mixture 1); method: Titration method
Pressure, kPa	Temperature, K	Mass fraction of 1-pentyl-3-methylimidazolium bis(trifluoromethylsulfonyl)amide	uncertainty
101.325	298.15	.9705	.0026

System: isooctane + 1-pentyl-3-methylimidazolium bis(trifluoromethylsulfonyl)amide; phases: Liquid mixture 1, Liquid mixture 2
Property: Mass fraction of 1-pentyl-3-methylimidazolium bis(trifluoromethylsulfonyl)amide (Liquid mixture 1); method: Titration method
Pressure, kPa	Temperature, K	Mass fraction of 1-pentyl-3-methylimidazolium bis(trifluoromethylsulfonyl)amide	uncertainty
101.325	298.15	.9715	.0026

System: toluene + 1-pentyl-3-methylimidazolium bis(trifluoromethylsulfonyl)amide; phases: Liquid mixture 1, Liquid mixture 2
Property: Mass fraction of 1-pentyl-3-methylimidazolium bis(trifluoromethylsulfonyl)amide (Liquid mixture 1); method: Titration method
Pressure, kPa	Temperature, K	Mass fraction of 1-pentyl-3-methylimidazolium bis(trifluoromethylsulfonyl)amide	uncertainty
101.325	298.15	.5772	.0026

System: thiophene + 1-pentyl-3-methylimidazolium bis(trifluoromethylsulfonyl)amide; phases: Liquid mixture 1, Liquid mixture 2
Property: Mass fraction of 1-pentyl-3-methylimidazolium bis(trifluoromethylsulfonyl)amide (Liquid mixture 1); method: Titration method
Pressure, kPa	Temperature, K	Mass fraction of 1-pentyl-3-methylimidazolium bis(trifluoromethylsulfonyl)amide	uncertainty
101.325	298.15	.4417	.0026
