Measured thermophysical data. Isothermal phase (vapour + liquid) equilibrium data for binary mixtures of propene (R1270) with either 1,1,2,3,3,3-hexafluoro-1-propene (R1216) or 2,2,3-trifluoro-3-(trifluoromethyl)oxirane in the temperature range of (279 to 318) K
Source: J. Chem. Thermodyn., 2015, 10.1016/j.jct.2015.06.017
Compound 1: propene, C3H6
Compound 2: 1,1,2,3,3,3-hexafluoro-1-propene, C3F6
Compound 3: 2,2,3-trifluoro-3-(trifluoromethyl)oxirane, C3F6O

System: propene; phases: Liquid, Gas
Property: Vapor or sublimation pressure, kPa (Liquid); method: Closed cell (Static) method
Temperature, K	Vapor or sublimation pressure, kPa	uncertainty
282.97	769	8
287.57	873	8
293.48	1028	8
298.02	1152	8
302.83	1291	8
307.67	1458	8
314.06	1691	8
318.36	1854	8
322.91	2039	8
327.27	2239	8

System: propene + 1,1,2,3,3,3-hexafluoro-1-propene; phases: Liquid, Gas
Property: Vapor or sublimation pressure, kPa (Liquid); method: Closed cell (Static) method
Mole fraction of propene	Temperature, K	Vapor or sublimation pressure, kPa	uncertainty
.076	288.07	627	8
.193	288.07	723	8
.298	288.07	801	8
.421	288.07	862	8
.589	288.07	915	8
.684	288.07	932	8
.802	288.07	938	8
.896	288.07	929	8
.96	288.07	906	8
.089	293.09	734	8
.182	293.09	821	8
.261	293.09	891	8
.32	293.09	932	8
.391	293.09	972	8
.512	293.09	1021	8
.692	293.09	1069	8
.792	293.09	1072	8
.87	293.09	1066	8
.939	293.09	1042	8
.072	299.47	854	8
.141	299.47	939	8
.182	299.47	982	8
.241	299.47	1042	8
.303	299.47	1092	8
.371	299.47	1142	8
.491	299.47	1204	8
.521	299.47	1218	8
.831	299.47	1266	8
.93	299.47	1238	8
.112	308.09	1134	8
.203	308.09	1242	8
.29	308.09	1333	8
.405	308.09	1432	8
.537	308.09	1512	8
.692	308.09	1551	8
.832	308.09	1556	8
.896	308.09	1539	8
.953	308.09	1511	8
.096	318.09	1423	8
.178	318.09	1542	8
.291	318.09	1692	8
.457	318.09	1852	8
.642	318.09	1950	8
.711	318.09	1965	8
.803	318.09	1964	8
.862	318.09	1948	8
.924	318.09	1916	8

System: propene + 1,1,2,3,3,3-hexafluoro-1-propene; phases: Gas, Liquid
Property: Mole fraction of propene (Gas); method: Chromatography
Mole fraction of propene	Temperature, K	Mole fraction of propene	uncertainty
.076	288.07	.182	.006
.193	288.07	.359	.01
.298	288.07	.468	.011
.421	288.07	.562	.011
.589	288.07	.665	.01
.684	288.07	.723	.009
.802	288.07	.797	.007
.896	288.07	.876	.005
.96	288.07	.943	.002
.089	293.09	.199	.007
.182	293.09	.334	.01
.261	293.09	.421	.011
.32	293.09	.471	.011
.391	293.09	.532	.011
.512	293.09	.612	.01
.692	293.09	.722	.009
.792	293.09	.788	.007
.87	293.09	.848	.006
.939	293.09	.921	.003
.072	299.47	.153	.006
.141	299.47	.266	.008
.182	299.47	.32	.009
.241	299.47	.388	.01
.303	299.47	.446	.011
.371	299.47	.505	.011
.491	299.47	.59	.011
.521	299.47	.61	.01
.831	299.47	.816	.007
.93	299.47	.91	.004
.112	308.09	.21	.007
.203	308.09	.328	.009
.29	308.09	.416	.011
.405	308.09	.512	.011
.537	308.09	.61	.01
.692	308.09	.714	.009
.832	308.09	.815	.007
.896	308.09	.869	.005
.953	308.09	.933	.003
.096	318.09	.173	.006
.178	318.09	.277	.009
.291	318.09	.401	.01
.457	318.09	.538	.011
.642	318.09	.67	.01
.711	318.09	.721	.009
.803	318.09	.79	.007
.862	318.09	.841	.006
.924	318.09	.901	.004

System: propene + 2,2,3-trifluoro-3-(trifluoromethyl)oxirane; phases: Liquid, Gas
Property: Vapor or sublimation pressure, kPa (Liquid); method: Closed cell (Static) method
Mole fraction of propene	Temperature, K	Vapor or sublimation pressure, kPa	uncertainty
.243	279.36	643	8
.354	279.36	690	8
.445	279.36	719	8
.516	279.36	737	8
.617	279.36	755	8
.698	279.36	763	8
.759	279.36	764	8
.86	279.36	755	8
.891	279.36	749	8
.931	279.36	736	8
.962	279.36	723	8
.104	288.19	694	8
.156	288.19	759	8
.238	288.19	823	8
.32	288.19	867	8
.399	288.19	904	8
.508	288.19	941	8
.586	288.19	963	8
.655	288.19	975	8
.836	288.19	970	8
.863	288.19	963	8
.886	288.19	956	8
.949	288.19	928	8
.05	298.35	814	8
.091	298.35	890	8
.151	298.35	975	8
.237	298.35	1057	8
.314	298.35	1119	8
.425	298.35	1187	8
.553	298.35	1243	8
.717	298.35	1273	8
.841	298.35	1259	8
.869	298.35	1253	8
.913	298.35	1232	8
.149	308.18	1230	8
.201	308.18	1297	8
.265	308.18	1363	8
.356	308.18	1446	8
.495	308.18	1543	8
.583	308.18	1584	8
.659	308.18	1606	8
.822	308.18	1598	8
.849	308.18	1592	8
.861	308.18	1584	8
.908	308.18	1558	8
.945	308.18	1536	8
.082	317.12	1363	8
.16	317.12	1519	8
.265	317.12	1661	8
.337	317.12	1752	8
.406	317.12	1820	8
.481	317.12	1877	8
.54	317.12	1916	8
.569	317.12	1932	8
.668	317.12	1965	8
.835	317.12	1949	8
.878	317.12	1924	8
.921	317.12	1895	8

System: propene + 2,2,3-trifluoro-3-(trifluoromethyl)oxirane; phases: Gas, Liquid
Property: Mole fraction of propene (Gas); method: Chromatography
Mole fraction of propene	Temperature, K	Mole fraction of propene	uncertainty
.243	279.36	.448	.011
.354	279.36	.516	.011
.445	279.36	.566	.011
.516	279.36	.605	.011
.617	279.36	.661	.01
.698	279.36	.708	.01
.759	279.36	.745	.009
.86	279.36	.816	.007
.891	279.36	.842	.006
.931	279.36	.882	.005
.962	279.36	.918	.004
.104	288.19	.282	.009
.156	288.19	.349	.01
.238	288.19	.419	.011
.32	288.19	.47	.012
.399	288.19	.52	.011
.508	288.19	.583	.011
.586	288.19	.637	.01
.655	288.19	.682	.01
.836	288.19	.805	.007
.863	288.19	.828	.007
.886	288.19	.852	.006
.949	288.19	.918	.004
.05	298.35	.164	.006
.091	298.35	.241	.008
.151	298.35	.318	.01
.237	298.35	.39	.011
.314	298.35	.449	.011
.425	298.35	.523	.011
.553	298.35	.611	.011
.717	298.35	.722	.009
.841	298.35	.823	.007
.869	298.35	.84	.006
.913	298.35	.889	.004
.149	308.18	.289	.009
.201	308.18	.336	.01
.265	308.18	.386	.011
.356	308.18	.453	.011
.495	308.18	.555	.011
.583	308.18	.622	.011
.659	308.18	.683	.01
.822	308.18	.81	.007
.849	308.18	.827	.007
.861	308.18	.845	.006
.908	308.18	.894	.005
.945	308.18	.927	.003
.082	317.12	.175	.007
.16	317.12	.272	.009
.265	317.12	.359	.01
.337	317.12	.421	.011
.406	317.12	.475	.011
.481	317.12	.531	.011
.54	317.12	.58	.011
.569	317.12	.604	.011
.668	317.12	.687	.01
.835	317.12	.821	.007
.878	317.12	.867	.005
.921	317.12	.908	.005
