Measured thermophysical data. The impact of uni-univalent electrolytes on (water + acetic acid + toluene) equilibria: Representation with electrolyte-NRTL model
Source: J. Chem. Thermodyn., 2014, 10.1016/j.jct.2014.02.005
Compound 1: toluene, C7H8, purity 99.5%
Compound 2: acetic acid, C2H4O2, purity 99.8%
Compound 3: water, H2O, purity 99.9%

System: toluene; phases: Liquid
Fixed: Pressure, kPa = 101.325
Property: Mass density, kg/m3 (Liquid); method: Vibrating tube method
Temperature, K	Mass density, kg/m3	uncertainty
288.2	871.92	.5
298.2	862.49	.5
313.2	848.23	.5

System: acetic acid; phases: Liquid
Fixed: Pressure, kPa = 101.325
Property: Mass density, kg/m3 (Liquid); method: Vibrating tube method
Temperature, K	Mass density, kg/m3	uncertainty
288.2	1055.01	.5
298.2	1043.67	.5
313.2	1026.72	.5

System: water; phases: Liquid
Fixed: Pressure, kPa = 101.325
Property: Mass density, kg/m3 (Liquid); method: Vibrating tube method
Temperature, K	Mass density, kg/m3	uncertainty
288.2	999.09	.5
298.2	997.05	.5
313.2	992.13	.5
