Measured thermophysical data. Acoustic, volumetric, and spectroscopic studies of formamide with 2-alkoxyethanols at different temperatures
Source: J. Chem. Thermodyn., 2012, 10.1016/j.jct.2012.04.024
Compound 1: carbamaldehyde, CH3NO, purity 99%
Compound 2: ethylene glycol, monomethyl ether, C3H8O2, purity 99.5%
Compound 3: 1,2-ethanediol, monoethyl ether, C4H10O2, purity 99.5%

System: carbamaldehyde; phases: Liquid
Property: Mass density, kg/m3 (Liquid); method: Pycnometric method
Temperature, K	Pressure, kPa	Mass density, kg/m3	uncertainty
303.15	101	1124.5	.01
313.15	101	1115.4	.01
323.15	101	1106.4	.01

System: carbamaldehyde; phases: Liquid
Property: Speed of sound, m/s (Liquid); method: Linear variable-path acoustic interferometer
Temperature, K	Pressure, kPa	Speed of sound, m/s	uncertainty
303.15	101	1588.1	.1
313.15	101	1565.4	.1
323.15	101	1542.7	.1

System: ethylene glycol, monomethyl ether; phases: Liquid
Property: Mass density, kg/m3 (Liquid); method: Pycnometric method
Temperature, K	Pressure, kPa	Mass density, kg/m3	uncertainty
303.15	101	955.7	.01
313.15	101	946.3	.01
323.15	101	936.9	.01

System: ethylene glycol, monomethyl ether; phases: Liquid
Property: Speed of sound, m/s (Liquid); method: Linear variable-path acoustic interferometer
Temperature, K	Pressure, kPa	Speed of sound, m/s	uncertainty
303.15	101	1324.2	.1
313.15	101	1293.9	.1
323.15	101	1260.7	.1

System: 1,2-ethanediol, monoethyl ether; phases: Liquid
Property: Mass density, kg/m3 (Liquid); method: Pycnometric method
Temperature, K	Pressure, kPa	Mass density, kg/m3	uncertainty
303.15	101	920.5	.01
313.15	101	912.2	.01
323.15	101	903.8	.01

System: 1,2-ethanediol, monoethyl ether; phases: Liquid
Property: Speed of sound, m/s (Liquid); method: Linear variable-path acoustic interferometer
Temperature, K	Pressure, kPa	Speed of sound, m/s	uncertainty
303.15	101	1290.4	.1
313.15	101	1257.3	.1
323.15	101	1224.9	.1

System: carbamaldehyde + ethylene glycol, monomethyl ether; phases: Liquid
Fixed: Pressure, kPa = 101
Property: Mass density, kg/m3 (Liquid); method: Pycnometric method
Temperature, K	Mole fraction of carbamaldehyde	Mass density, kg/m3	uncertainty
303.15	0	955.7	.01
303.15	.1785	973.8	.01
303.15	.2723	985	.01
303.15	.3849	1000.2	.01
303.15	.4862	1015.3	.01
303.15	.5726	1029.5	.01
303.15	.6651	1044.9	.01
303.15	.7492	1060.5	.01
303.15	.8363	1079.1	.01
303.15	.9138	1098.5	.01
303.15	1	1124.5	.01
313.15	0	946.3	.01
313.15	.1785	964.8	.01
313.15	.2723	976.2	.01
313.15	.3849	991.7	.01
313.15	.4862	1006.9	.01
313.15	.5726	1021.1	.01
313.15	.6651	1036.7	.01
313.15	.7492	1052.1	.01
313.15	.8363	1070.5	.01
313.15	.9138	1089.6	.01
313.15	1	1115.4	.01
323.15	0	936.9	.01
323.15	.1785	955.9	.01
323.15	.2723	967.5	.01
323.15	.3849	983.1	.01
323.15	.4862	998.4	.01
323.15	.5726	1012.7	.01
323.15	.6651	1028.8	.01
323.15	.7492	1044.3	.01
323.15	.8363	1062	.01
323.15	.9138	1080.7	.01
323.15	1	1106.4	.01

System: carbamaldehyde + ethylene glycol, monomethyl ether; phases: Liquid
Fixed: Pressure, kPa = 101
Property: Speed of sound, m/s (Liquid); method: Linear variable-path acoustic interferometer
Temperature, K	Mole fraction of carbamaldehyde	Speed of sound, m/s	uncertainty
303.15	0	1324.2	.1
303.15	.1785	1368.1	.1
303.15	.2723	1391.1	.1
303.15	.3849	1419	.1
303.15	.4862	1444.1	.1
303.15	.5726	1465.7	.1
303.15	.6651	1490.4	.1
303.15	.7492	1514.1	.1
303.15	.8363	1539.7	.1
303.15	.9138	1563	.1
303.15	1	1588.1	.1
313.15	0	1293.9	.1
313.15	.1785	1338.6	.1
313.15	.2723	1362	.1
313.15	.3849	1390.6	.1
313.15	.4862	1416.4	.1
313.15	.5726	1438.6	.1
313.15	.6651	1463.8	.1
313.15	.7492	1487.7	.1
313.15	.8363	1514.2	.1
313.15	.9138	1538.3	.1
313.15	1	1565.4	.1
323.15	0	1260.7	.1
323.15	.1785	1305.8	.1
323.15	.2723	1329.9	.1
323.15	.3849	1358.8	.1
323.15	.4862	1385.3	.1
323.15	.5726	1409	.1
323.15	.6651	1435.3	.1
323.15	.7492	1460.2	.1
323.15	.8363	1487.3	.1
323.15	.9138	1512.8	.1
323.15	1	1542.7	.1

System: carbamaldehyde + 1,2-ethanediol, monoethyl ether; phases: Liquid
Fixed: Pressure, kPa = 101
Property: Mass density, kg/m3 (Liquid); method: Pycnometric method
Temperature, K	Mole fraction of carbamaldehyde	Mass density, kg/m3	uncertainty
303.15	0	920.5	.01
303.15	.0975	930	.01
303.15	.2009	941.7	.01
303.15	.2984	954.8	.01
303.15	.4047	970.9	.01
303.15	.5054	988	.01
303.15	.6055	1007.2	.01
303.15	.7092	1029.5	.01
303.15	.8063	1053.5	.01
303.15	.9074	1085.9	.01
303.15	1	1124.5	.01
313.15	0	912.2	.01
313.15	.0975	921.8	.01
313.15	.2009	933.8	.01
313.15	.2984	946.9	.01
313.15	.4047	962.8	.01
313.15	.5054	980	.01
313.15	.6055	999.2	.01
313.15	.7092	1021.7	.01
313.15	.8063	1045.9	.01
313.15	.9074	1077.6	.01
313.15	1	1115.4	.01
323.15	0	903.8	.01
323.15	.0975	913.8	.01
323.15	.2009	925.9	.01
323.15	.2984	938.9	.01
323.15	.4047	954.9	.01
323.15	.5054	972.2	.01
323.15	.6055	991.5	.01
323.15	.7092	1014.1	.01
323.15	.8063	1038.4	.01
323.15	.9074	1069.6	.01
323.15	1	1106.4	.01

System: carbamaldehyde + 1,2-ethanediol, monoethyl ether; phases: Liquid
Fixed: Pressure, kPa = 101
Property: Speed of sound, m/s (Liquid); method: Linear variable-path acoustic interferometer
Temperature, K	Mole fraction of carbamaldehyde	Speed of sound, m/s	uncertainty
303.15	0	1290.4	.1
303.15	.0975	1312.7	.1
303.15	.2009	1337.7	.1
303.15	.2984	1361.9	.1
303.15	.4047	1390.3	.1
303.15	.5054	1420.5	.1
303.15	.6055	1452.9	.1
303.15	.7092	1487.8	.1
303.15	.8063	1521.3	.1
303.15	.9074	1556.4	.1
303.15	1	1588.1	.1
313.15	0	1257.3	.1
313.15	.0975	1279.5	.1
313.15	.2009	1304.4	.1
313.15	.2984	1329.3	.1
313.15	.4047	1358.2	.1
313.15	.5054	1388.8	.1
313.15	.6055	1421.8	.1
313.15	.7092	1458.6	.1
313.15	.8063	1493.6	.1
313.15	.9074	1530.7	.1
313.15	1	1565.4	.1
323.15	0	1224.9	.1
323.15	.0975	1246	.1
323.15	.2009	1271.6	.1
323.15	.2984	1296.9	.1
323.15	.4047	1326.9	.1
323.15	.5054	1358.6	.1
323.15	.6055	1392.8	.1
323.15	.7092	1430.3	.1
323.15	.8063	1466.6	.1
323.15	.9074	1505.6	.1
323.15	1	1542.7	.1
