Measured thermophysical data. Study of thermodynamic and transport properties of phosphonium-based ionic liquids
Source: J. Chem. Thermodyn., 2013, 10.1016/j.jct.2013.02.012
Compound 1: tributylmethylphosphonium methylsulphate, C14H33O4PS
Compound 2: tributylethylphosphonium diethylphosphate, C18H42O4P2
Compound 3: octyltributylphosphonium chloride, C20H44ClP

System: tributylmethylphosphonium methylsulphate; phases: Liquid
Fixed: Pressure, kPa = 101.325
Property: Mass density, kg/m3 (Liquid); method: Vibrating tube method
Temperature, K	Mass density, kg/m3	uncertainty
293.15	1061.63	.05
298.15	1058.55	.05
303.15	1055.47	.05
308.15	1052.41	.05
313.15	1049.38	.05
318.15	1046.35	.05
323.15	1043.31	.05
328.15	1040.27	.05
333.15	1037.24	.05
338.15	1034.21	.05
343.15	1031.18	.05

System: tributylmethylphosphonium methylsulphate; phases: Liquid
Fixed: Pressure, kPa = 101.325
Property: Speed of sound, m/s (Liquid); method: Sing-around technique in a fixed-path interferometer
Temperature, K	Speed of sound, m/s	uncertainty
293.15	1564	.3
298.15	1546.2	.3
303.15	1529.8	.3
308.15	1514.4	.3
313.15	1499.9	.3
318.15	1485.8	.3
323.15	1472.2	.3
328.15	1458.9	.3
333.15	1445.9	.3
338.15	1433.2	.3
343.15	1420.3	.3

System: tributylmethylphosphonium methylsulphate; phases: Liquid
Fixed: Pressure, kPa = 101.325
Property: Refractive index (Na D-line) (Liquid); method: Standard Abbe refractometry
Temperature, K	Refractive index (Na D-line)	uncertainty
293.15	1.47489	.00004
298.15	1.47344	.00004
303.15	1.47199	.00004
308.15	1.47054	.00004
313.15	1.46907	.00004
318.15	1.46762	.00004
323.15	1.46616	.00004
328.15	1.46474	.00004
333.15	1.46328	.00004
338.15	1.46188	.00004
343.15	1.46048	.00004

System: tributylmethylphosphonium methylsulphate; phases: Liquid
Fixed: Pressure, kPa = 101.325
Property: Viscosity, Pa*s (Liquid); method: Falling or rolling sphere viscometry
Temperature, K	Viscosity, Pa*s	uncertainty
293.15	.71909	.0215727
298.15	.50851	.0152553
303.15	.36768	.0110304
308.15	.27132	.0081396
313.15	.20397	.0061191
318.15	.15597	.0046791
323.15	.12114	.0036342
328.15	.09546	.0028638
333.15	.07624	.0022872
338.15	.06166	.0018498
343.15	.05046	.0015138

System: tributylethylphosphonium diethylphosphate; phases: Liquid
Fixed: Pressure, kPa = 101.325
Property: Mass density, kg/m3 (Liquid); method: Vibrating tube method
Temperature, K	Mass density, kg/m3	uncertainty
293.15	1012.12	.05
298.15	1008.76	.05
303.15	1005.42	.05
308.15	1002.07	.05
313.15	998.71	.05
318.15	995.35	.05
323.15	992	.05
328.15	988.65	.05
333.15	985.31	.05
338.15	982.01	.05
343.15	978.71	.05

System: tributylethylphosphonium diethylphosphate; phases: Liquid
Fixed: Pressure, kPa = 101.325
Property: Speed of sound, m/s (Liquid); method: Sing-around technique in a fixed-path interferometer
Temperature, K	Speed of sound, m/s	uncertainty
293.15	1439.9	.3
298.15	1422.3	.3
303.15	1405.5	.3
308.15	1389.4	.3
313.15	1373.8	.3
318.15	1358.5	.3
323.15	1343.5	.3
328.15	1328.8	.3
333.15	1314.3	.3
338.15	1299.8	.3
343.15	1285.6	.3

System: tributylethylphosphonium diethylphosphate; phases: Liquid
Fixed: Pressure, kPa = 101.325
Property: Refractive index (Na D-line) (Liquid); method: Standard Abbe refractometry
Temperature, K	Refractive index (Na D-line)	uncertainty
293.15	1.46897	.00004
298.15	1.46732	.00004
303.15	1.46567	.00004
308.15	1.46402	.00004
313.15	1.46234	.00004
318.15	1.46069	.00004
323.15	1.45904	.00004
328.15	1.45738	.00004
333.15	1.45573	.00004
338.15	1.45409	.00004
343.15	1.4524	.00004

System: tributylethylphosphonium diethylphosphate; phases: Liquid
Fixed: Pressure, kPa = 101.325
Property: Viscosity, Pa*s (Liquid); method: Falling or rolling sphere viscometry
Temperature, K	Viscosity, Pa*s	uncertainty
293.15	.43869	.0131607
298.15	.30641	.0091923
303.15	.21945	.0065835
308.15	.1608	.004824
313.15	.12032	.0036096
318.15	.09176	.0027528
323.15	.07122	.0021366
328.15	.05617	.0016851
333.15	.04499	.0013497
338.15	.03647	.0010941
343.15	.02996	.0008988

System: octyltributylphosphonium chloride; phases: Liquid
Fixed: Pressure, kPa = 101.325
Property: Mass density, kg/m3 (Liquid); method: Vibrating tube method
Temperature, K	Mass density, kg/m3	uncertainty
293.15	927.22	.05
298.15	924.39	.05
303.15	921.57	.05
308.15	918.74	.05
313.15	915.91	.05
318.15	913.07	.05
323.15	910.23	.05
328.15	907.38	.05
333.15	904.52	.05
338.15	901.69	.05
343.15	898.86	.05

System: octyltributylphosphonium chloride; phases: Liquid
Fixed: Pressure, kPa = 101.325
Property: Speed of sound, m/s (Liquid); method: Sing-around technique in a fixed-path interferometer
Temperature, K	Speed of sound, m/s	uncertainty
293.15	1627.9	.3
298.15	1595.8	.3
303.15	1565.4	.3
308.15	1537.8	.3
313.15	1512.6	.3
318.15	1490	.3
323.15	1469.5	.3
328.15	1451	.3
333.15	1433.7	.3
338.15	1416.9	.3
343.15	1401	.3

System: octyltributylphosphonium chloride; phases: Liquid
Fixed: Pressure, kPa = 101.325
Property: Refractive index (Na D-line) (Liquid); method: Standard Abbe refractometry
Temperature, K	Refractive index (Na D-line)	uncertainty
293.15	1.49551	.00004
298.15	1.49392	.00004
303.15	1.49231	.00004
308.15	1.49071	.00004
313.15	1.48911	.00004
318.15	1.48749	.00004
323.15	1.48587	.00004
328.15	1.48427	.00004
333.15	1.48265	.00004
338.15	1.48104	.00004
343.15	1.47941	.00004

System: octyltributylphosphonium chloride; phases: Liquid
Fixed: Pressure, kPa = 101.325
Property: Viscosity, Pa*s (Liquid); method: Falling or rolling sphere viscometry
Temperature, K	Viscosity, Pa*s	uncertainty
293.15	7.83751	.2351253
298.15	4.6696	.140088
303.15	2.90582	.0871746
308.15	1.86791	.0560373
313.15	1.23723	.0371169
318.15	.84201	.0252603
323.15	.58739	.0176217
328.15	.41921	.0125763
333.15	.30553	.0091659
338.15	.22699	.0068097
343.15	.17166	.0051498
