Measured thermophysical data. Effect of temperature and ionic strength on volumetric and acoustic properties of solutions of urea alkyl derivatives in aqueous NaCl
Source: J. Chem. Thermodyn., 2015, 10.1016/j.jct.2015.07.002
Compound 1: sodium chloride, ClNa, purity 99.9%
Compound 2: urea, CH4N2O, purity 99.5%
Compound 3: N-propylurea, C4H10N2O, purity 98%
Compound 4: N-butylurea, C5H12N2O, purity 99%
Compound 5: tetramethylurea, C5H12N2O, purity 99%
Compound 6: water, H2O

System: tetramethylurea; phases: Liquid
Fixed: Pressure, kPa = 101.325
Property: Speed of sound, m/s (Liquid); method: Sing-around technique in a fixed-path interferometer
Temperature, K	Speed of sound, m/s	uncertainty
288.15	1432.53	.5
293.15	1413.44	.5
298.15	1393.92	.5
303.15	1374.53	.5
308.15	1355.31	.5

System: tetramethylurea; phases: Liquid
Fixed: Pressure, kPa = 101.325
Property: Mass density, kg/m3 (Liquid); method: Vibrating tube method
Temperature, K	Mass density, kg/m3	uncertainty
288.15	971.402	.05
293.15	966.837	.05
298.15	962.254	.05
303.15	957.661	.05
308.15	953.057	.05

System: water; phases: Liquid
Fixed: Frequency, MHz = 3
Property: Speed of sound, m/s (Liquid); method: Sing-around technique in a fixed-path interferometer
Temperature, K	Pressure, kPa	Speed of sound, m/s	uncertainty
288.15	100	1466.58	.5
298.15	100	1496.89	.5
308.15	100	1519.96	.5

System: water; phases: Liquid
Property: Mass density, kg/m3 (Liquid); method: Vibrating tube method
Temperature, K	Pressure, kPa	Mass density, kg/m3	uncertainty
288.15	100	999.105	.05
298.15	100	997.059	.05
308.15	100	994.046	.05

System: urea + sodium chloride + water; phases: Liquid
Fixed: Pressure, kPa = 100
Fixed: Frequency, MHz = 3
Property: Speed of sound, m/s (Liquid); method: Sing-around technique in a fixed-path interferometer
Solvent: Ratio of amount of component to mass of solvent, mol/kg of sodium chloride	Temperature, K	Molality, mol/kg of urea	Speed of sound, m/s	uncertainty
.49153	288.15	0	1500.19	.5
.49153	288.15	.05278	1501.75	.5
.49153	288.15	.08532	1502.67	.5
.49153	288.15	.1164	1503.57	.5
.49153	288.15	.159	1504.77	.5
.49153	288.15	.2124	1506.28	.5
.49153	288.15	.2636	1507.71	.5
.49153	288.15	.3175	1509.22	.5
.49153	298.15	0	1527.92	.5
.49153	298.15	.05278	1529.23	.5
.49153	298.15	.08532	1530.04	.5
.49153	298.15	.1164	1530.78	.5
.49153	298.15	.159	1531.8	.5
.49153	298.15	.2124	1533.09	.5
.49153	298.15	.2636	1534.28	.5
.49153	298.15	.3175	1535.55	.5
.49153	308.15	0	1548.91	.5
.49153	308.15	.05278	1550.02	.5
.49153	308.15	.08532	1550.7	.5
.49153	308.15	.1164	1551.34	.5
.49153	308.15	.159	1552.21	.5
.49153	308.15	.2124	1553.3	.5
.49153	308.15	.2636	1554.32	.5
.49153	308.15	.3175	1555.4	.5
.9625	288.15	0	1532.61	.5
.9625	288.15	.1027	1535.5	.5
.9625	288.15	.1398	1536.49	.5
.9625	288.15	.1912	1537.85	.5
.9625	288.15	.255	1539.52	.5
.9625	288.15	.3201	1541.21	.5
.9625	288.15	.3863	1542.87	.5
.9625	298.15	0	1557.58	.5
.9625	298.15	.1027	1560.24	.5
.9625	298.15	.1398	1561.06	.5
.9625	298.15	.1912	1562.22	.5
.9625	298.15	.255	1563.62	.5
.9625	298.15	.3201	1565.05	.5
.9625	298.15	.3863	1566.43	.5
.9625	308.15	0	1576.8	.5
.9625	308.15	.1027	1578.8	.5
.9625	308.15	.1398	1579.51	.5
.9625	308.15	.1912	1580.49	.5
.9625	308.15	.255	1581.68	.5
.9625	308.15	.3201	1582.89	.5
.9625	308.15	.3863	1584.07	.5

System: urea + sodium chloride + water; phases: Liquid
Fixed: Pressure, kPa = 100
Property: Mass density, kg/m3 (Liquid); method: Vibrating tube method
Solvent: Ratio of amount of component to mass of solvent, mol/kg of sodium chloride	Temperature, K	Molality, mol/kg of urea	Mass density, kg/m3	uncertainty
.49153	288.15	0	1019.891	.05
.49153	288.15	.05278	1020.714	.05
.49153	288.15	.08532	1021.215	.05
.49153	288.15	.1164	1021.696	.05
.49153	288.15	.159	1022.352	.05
.49153	288.15	.2124	1023.165	.05
.49153	288.15	.2636	1023.935	.05
.49153	288.15	.3175	1024.747	.05
.49153	298.15	0	1017.321	.05
.49153	298.15	.05278	1018.111	.05
.49153	298.15	.08532	1018.592	.05
.49153	298.15	.1164	1019.052	.05
.49153	298.15	.159	1019.685	.05
.49153	298.15	.2124	1020.464	.05
.49153	298.15	.2636	1021.205	.05
.49153	298.15	.3175	1021.988	.05
.49153	308.15	0	1013.946	.05
.49153	308.15	.05278	1014.711	.05
.49153	308.15	.08532	1015.178	.05
.49153	308.15	.1164	1015.624	.05
.49153	308.15	.159	1016.234	.05
.49153	308.15	.2124	1016.989	.05
.49153	308.15	.2636	1017.706	.05
.49153	308.15	.3175	1018.464	.05
.9625	288.15	0	1039.957	.05
.9625	288.15	.1027	1041.45	.05
.9625	288.15	.1398	1041.979	.05
.9625	288.15	.1912	1042.71	.05
.9625	288.15	.255	1043.611	.05
.9625	288.15	.3201	1044.533	.05
.9625	288.15	.3863	1045.433	.05
.9625	298.15	0	1036.945	.05
.9625	298.15	.1027	1038.372	.05
.9625	298.15	.1398	1038.885	.05
.9625	298.15	.1912	1039.59	.05
.9625	298.15	.255	1040.458	.05
.9625	298.15	.3201	1041.347	.05
.9625	298.15	.3863	1042.217	.05
.9625	308.15	0	1033.24	.05
.9625	308.15	.1027	1034.633	.05
.9625	308.15	.1398	1035.129	.05
.9625	308.15	.1912	1035.814	.05
.9625	308.15	.255	1036.656	.05
.9625	308.15	.3201	1037.517	.05
.9625	308.15	.3863	1038.362	.05

System: N-propylurea + sodium chloride + water; phases: Liquid
Fixed: Pressure, kPa = 100
Fixed: Frequency, MHz = 3
Property: Speed of sound, m/s (Liquid); method: Sing-around technique in a fixed-path interferometer
Solvent: Ratio of amount of component to mass of solvent, mol/kg of sodium chloride	Temperature, K	Molality, mol/kg of N-propylurea	Speed of sound, m/s	uncertainty
.49153	288.15	0	1500.19	.5
.49153	288.15	.08497	1507.11	.5
.49153	288.15	.1176	1509.71	.5
.49153	288.15	.1607	1513.09	.5
.49153	288.15	.2145	1517.23	.5
.49153	288.15	.2702	1521.48	.5
.49153	288.15	.3258	1525.59	.5
.49153	298.15	0	1527.92	.5
.49153	298.15	.08497	1533.8	.5
.49153	298.15	.1176	1536	.5
.49153	298.15	.1607	1538.86	.5
.49153	298.15	.2145	1542.36	.5
.49153	298.15	.2702	1545.93	.5
.49153	298.15	.3258	1549.39	.5
.49153	308.15	0	1548.91	.5
.49153	308.15	.08497	1553.85	.5
.49153	308.15	.1176	1555.7	.5
.49153	308.15	.1607	1558.11	.5
.49153	308.15	.2145	1561.06	.5
.49153	308.15	.2702	1564.06	.5
.49153	308.15	.3258	1566.97	.5
.9634	288.15	0	1532.86	.5
.9634	288.15	.05246	1537	.5
.9634	288.15	.08355	1539.4	.5
.9634	288.15	.1143	1541.77	.5
.9634	288.15	.1559	1544.89	.5
.9634	288.15	.2084	1548.79	.5
.9634	288.15	.2616	1552.69	.5
.9634	288.15	.3164	1556.74	.5
.9634	298.15	0	1558.02	.5
.9634	298.15	.05246	1561.5	.5
.9634	298.15	.08355	1563.53	.5
.9634	298.15	.1143	1565.55	.5
.9634	298.15	.1559	1568.18	.5
.9634	298.15	.2084	1571.47	.5
.9634	298.15	.2616	1574.76	.5
.9634	298.15	.3164	1578.21	.5
.9634	308.15	0	1576.96	.5
.9634	308.15	.05246	1579.89	.5
.9634	308.15	.08355	1581.59	.5
.9634	308.15	.1143	1583.26	.5
.9634	308.15	.1559	1585.47	.5
.9634	308.15	.2084	1588.22	.5
.9634	308.15	.2616	1590.95	.5
.9634	308.15	.3164	1593.89	.5

System: N-propylurea + sodium chloride + water; phases: Liquid
Fixed: Pressure, kPa = 100
Property: Mass density, kg/m3 (Liquid); method: Vibrating tube method
Solvent: Ratio of amount of component to mass of solvent, mol/kg of sodium chloride	Temperature, K	Molality, mol/kg of N-propylurea	Mass density, kg/m3	uncertainty
.49153	288.15	0	1019.891	.05
.49153	288.15	.08497	1020.528	.05
.49153	288.15	.1176	1020.773	.05
.49153	288.15	.1607	1021.093	.05
.49153	288.15	.2145	1021.494	.05
.49153	288.15	.2702	1021.917	.05
.49153	288.15	.3258	1022.328	.05
.49153	298.15	0	1017.321	.05
.49153	298.15	.08497	1017.901	.05
.49153	298.15	.1176	1018.124	.05
.49153	298.15	.1607	1018.415	.05
.49153	298.15	.2145	1018.778	.05
.49153	298.15	.2702	1019.163	.05
.49153	298.15	.3258	1019.535	.05
.49153	308.15	0	1013.946	.05
.49153	308.15	.08497	1014.481	.05
.49153	308.15	.1176	1014.685	.05
.49153	308.15	.1607	1014.947	.05
.49153	308.15	.2145	1015.279	.05
.49153	308.15	.2702	1015.627	.05
.49153	308.15	.3258	1015.963	.05
.9634	288.15	0	1040.082	.05
.9634	288.15	.05246	1040.353	.05
.9634	288.15	.08355	1040.517	.05
.9634	288.15	.1143	1040.683	.05
.9634	288.15	.1559	1040.894	.05
.9634	288.15	.2084	1041.181	.05
.9634	288.15	.2616	1041.47	.05
.9634	288.15	.3164	1041.768	.05
.9634	298.15	0	1037.058	.05
.9634	298.15	.05246	1037.303	.05
.9634	298.15	.08355	1037.45	.05
.9634	298.15	.1143	1037.6	.05
.9634	298.15	.1559	1037.786	.05
.9634	298.15	.2084	1038.041	.05
.9634	298.15	.2616	1038.296	.05
.9634	298.15	.3164	1038.559	.05
.9634	308.15	0	1033.359	.05
.9634	308.15	.05246	1033.578	.05
.9634	308.15	.08355	1033.708	.05
.9634	308.15	.1143	1033.843	.05
.9634	308.15	.1559	1034.007	.05
.9634	308.15	.2084	1034.233	.05
.9634	308.15	.2616	1034.459	.05
.9634	308.15	.3164	1034.687	.05

System: N-butylurea + sodium chloride + water; phases: Liquid
Fixed: Pressure, kPa = 100
Fixed: Frequency, MHz = 3
Property: Speed of sound, m/s (Liquid); method: Sing-around technique in a fixed-path interferometer
Solvent: Ratio of amount of component to mass of solvent, mol/kg of sodium chloride	Temperature, K	Molality, mol/kg of N-butylurea	Speed of sound, m/s	uncertainty
.49153	288.15	0	1500.19	.5
.49153	288.15	.0537	1505.52	.5
.49153	288.15	.08494	1508.56	.5
.49153	288.15	.1172	1511.64	.5
.49153	288.15	.1602	1515.86	.5
.49153	288.15	.2161	1521.18	.5
.49153	288.15	.271	1525.71	.5
.49153	288.15	.3276	1530.71	.5
.49153	298.15	0	1527.92	.5
.49153	298.15	.0537	1532.43	.5
.49153	298.15	.08494	1534.98	.5
.49153	298.15	.1172	1537.56	.5
.49153	298.15	.1602	1541.09	.5
.49153	298.15	.2161	1545.61	.5
.49153	298.15	.271	1549.29	.5
.49153	298.15	.3276	1553.33	.5
.49153	308.15	0	1548.91	.5
.49153	308.15	.0537	1552.65	.5
.49153	308.15	.08494	1554.78	.5
.49153	308.15	.1172	1556.92	.5
.49153	308.15	.1602	1559.87	.5
.49153	308.15	.2161	1563.69	.5
.49153	308.15	.271	1566.63	.5
.49153	308.15	.3276	1570.17	.5
.9634	288.15	0	1532.86	.5
.9634	288.15	.0819	1540.61	.5
.9634	288.15	.1134	1543.54	.5
.9634	288.15	.1542	1547.22	.5
.9634	288.15	.207	1551.91	.5
.9634	288.15	.26	1556.46	.5
.9634	288.15	.3146	1560.86	.5
.9634	298.15	0	1558.02	.5
.9634	298.15	.0819	1564.54	.5
.9634	298.15	.1134	1566.97	.5
.9634	298.15	.1542	1570.07	.5
.9634	298.15	.207	1573.95	.5
.9634	298.15	.26	1577.73	.5
.9634	298.15	.3146	1581.23	.5
.9634	308.15	0	1576.96	.5
.9634	308.15	.0819	1582.35	.5
.9634	308.15	.1134	1584.37	.5
.9634	308.15	.1542	1586.9	.5
.9634	308.15	.207	1590.09	.5
.9634	308.15	.26	1593.19	.5
.9634	308.15	.3146	1596.01	.5

System: N-butylurea + sodium chloride + water; phases: Liquid
Fixed: Pressure, kPa = 100
Property: Mass density, kg/m3 (Liquid); method: Vibrating tube method
Solvent: Ratio of amount of component to mass of solvent, mol/kg of sodium chloride	Temperature, K	Molality, mol/kg of N-butylurea	Mass density, kg/m3	uncertainty
.49153	288.15	0	1019.891	.05
.49153	288.15	.0537	1020.114	.05
.49153	288.15	.08494	1020.241	.05
.49153	288.15	.1172	1020.373	.05
.49153	288.15	.1602	1020.556	.05
.49153	288.15	.2161	1020.798	.05
.49153	288.15	.271	1021.048	.05
.49153	288.15	.3276	1021.294	.05
.49153	298.15	0	1017.321	.05
.49153	298.15	.0537	1017.499	.05
.49153	298.15	.08494	1017.599	.05
.49153	298.15	.1172	1017.705	.05
.49153	298.15	.1602	1017.849	.05
.49153	298.15	.2161	1018.041	.05
.49153	298.15	.271	1018.241	.05
.49153	298.15	.3276	1018.438	.05
.49153	308.15	0	1013.946	.05
.49153	308.15	.0537	1014.086	.05
.49153	308.15	.08494	1014.164	.05
.49153	308.15	.1172	1014.243	.05
.49153	308.15	.1602	1014.355	.05
.49153	308.15	.2161	1014.5	.05
.49153	308.15	.271	1014.654	.05
.49153	308.15	.3276	1014.797	.05
.9634	288.15	0	1040.082	.05
.9634	288.15	.0819	1040.19	.05
.9634	288.15	.1134	1040.243	.05
.9634	288.15	.1542	1040.31	.05
.9634	288.15	.207	1040.413	.05
.9634	288.15	.26	1040.516	.05
.9634	288.15	.3146	1040.622	.05
.9634	298.15	0	1037.058	.05
.9634	298.15	.0819	1037.109	.05
.9634	298.15	.1134	1037.14	.05
.9634	298.15	.1542	1037.174	.05
.9634	298.15	.207	1037.236	.05
.9634	298.15	.26	1037.295	.05
.9634	298.15	.3146	1037.361	.05
.9634	308.15	0	1033.359	.05
.9634	308.15	.0819	1033.356	.05
.9634	308.15	.1134	1033.365	.05
.9634	308.15	.1542	1033.371	.05
.9634	308.15	.207	1033.393	.05
.9634	308.15	.26	1033.412	.05
.9634	308.15	.3146	1033.435	.05

System: tetramethylurea + sodium chloride + water; phases: Liquid
Fixed: Pressure, kPa = 100
Fixed: Frequency, MHz = 3
Property: Speed of sound, m/s (Liquid); method: Sing-around technique in a fixed-path interferometer
Solvent: Ratio of amount of component to mass of solvent, mol/kg of sodium chloride	Temperature, K	Molality, mol/kg of tetramethylurea	Speed of sound, m/s	uncertainty
0	288.15	0	1466.58	.5
0	288.15	.05312	1471.48	.5
0	288.15	.08465	1474.31	.5
0	288.15	.1165	1477.1	.5
0	288.15	.1526	1480.23	.5
0	288.15	.2129	1485.4	.5
0	288.15	.2671	1489.95	.5
0	288.15	.3243	1494.64	.5
0	298.15	0	1496.89	.5
0	298.15	.05312	1500.89	.5
0	298.15	.08465	1503.22	.5
0	298.15	.1165	1505.47	.5
0	298.15	.1526	1508.04	.5
0	298.15	.2129	1512.22	.5
0	298.15	.2671	1515.93	.5
0	298.15	.3243	1519.71	.5
0	308.15	0	1519.96	.5
0	308.15	.05312	1523.16	.5
0	308.15	.08465	1525.01	.5
0	308.15	.1165	1526.85	.5
0	308.15	.1526	1528.89	.5
0	308.15	.2129	1532.25	.5
0	308.15	.2671	1535.21	.5
0	308.15	.3243	1538.24	.5
.49153	288.15	0	1500.19	.5
.49153	288.15	.05363	1504.88	.5
.49153	288.15	.0841	1507.51	.5
.49153	288.15	.1156	1510.2	.5
.49153	288.15	.1579	1513.75	.5
.49153	288.15	.2117	1518.18	.5
.49153	288.15	.2654	1522.52	.5
.49153	288.15	.3213	1526.95	.5
.49153	298.15	0	1527.92	.5
.49153	298.15	.05363	1531.76	.5
.49153	298.15	.0841	1533.88	.5
.49153	298.15	.1156	1536.06	.5
.49153	298.15	.1579	1538.96	.5
.49153	298.15	.2117	1542.54	.5
.49153	298.15	.2654	1546.05	.5
.49153	298.15	.3213	1549.6	.5
.49153	308.15	0	1548.91	.5
.49153	308.15	.05363	1551.97	.5
.49153	308.15	.0841	1553.68	.5
.49153	308.15	.1156	1555.43	.5
.49153	308.15	.1579	1557.73	.5
.49153	308.15	.2117	1560.59	.5
.49153	308.15	.2654	1563.36	.5
.49153	308.15	.3213	1566.18	.5
.9634	288.15	0	1532.86	.5
.9634	288.15	.05498	1537.46	.5
.9634	288.15	.08508	1539.93	.5
.9634	288.15	.1171	1542.55	.5
.9634	288.15	.1601	1545.98	.5
.9634	288.15	.2138	1550.18	.5
.9634	288.15	.2697	1554.47	.5
.9634	288.15	.3261	1559	.5
.9634	298.15	0	1558.02	.5
.9634	298.15	.05498	1561.73	.5
.9634	298.15	.08508	1563.75	.5
.9634	298.15	.1171	1565.87	.5
.9634	298.15	.1601	1568.65	.5
.9634	298.15	.2138	1572.03	.5
.9634	298.15	.2697	1575.48	.5
.9634	298.15	.3261	1579.23	.5
.9634	308.15	0	1576.96	.5
.9634	308.15	.05498	1579.91	.5
.9634	308.15	.08508	1581.5	.5
.9634	308.15	.1171	1583.18	.5
.9634	308.15	.1601	1585.36	.5
.9634	308.15	.2138	1588.04	.5
.9634	308.15	.2697	1590.75	.5
.9634	308.15	.3261	1593.83	.5

System: tetramethylurea + sodium chloride + water; phases: Liquid
Fixed: Pressure, kPa = 100
Property: Mass density, kg/m3 (Liquid); method: Vibrating tube method
Solvent: Ratio of amount of component to mass of solvent, mol/kg of sodium chloride	Temperature, K	Molality, mol/kg of tetramethylurea	Mass density, kg/m3	uncertainty
0	288.15	0	999.105	.05
0	288.15	.05312	999.175	.05
0	288.15	.08465	999.224	.05
0	288.15	.1165	999.275	.05
0	288.15	.1526	999.338	.05
0	288.15	.2129	999.46	.05
0	288.15	.2671	999.579	.05
0	288.15	.3243	999.719	.05
0	298.15	0	997.059	.05
0	298.15	.05312	997.09	.05
0	298.15	.08465	997.115	.05
0	298.15	.1165	997.14	.05
0	298.15	.1526	997.175	.05
0	298.15	.2129	997.249	.05
0	298.15	.2671	997.324	.05
0	298.15	.3243	997.417	.05
0	308.15	0	994.046	.05
0	308.15	.05312	994.048	.05
0	308.15	.08465	994.054	.05
0	308.15	.1165	994.06	.05
0	308.15	.1526	994.068	.05
0	308.15	.2129	994.099	.05
0	308.15	.2671	994.135	.05
0	308.15	.3243	994.179	.05
.49153	288.15	0	1019.891	.05
.49153	288.15	.05363	1019.842	.05
.49153	288.15	.0841	1019.817	.05
.49153	288.15	.1156	1019.795	.05
.49153	288.15	.1579	1019.782	.05
.49153	288.15	.2117	1019.77	.05
.49153	288.15	.2654	1019.769	.05
.49153	288.15	.3213	1019.778	.05
.49153	298.15	0	1017.321	.05
.49153	298.15	.05363	1017.238	.05
.49153	298.15	.0841	1017.192	.05
.49153	298.15	.1156	1017.15	.05
.49153	298.15	.1579	1017.108	.05
.49153	298.15	.2117	1017.057	.05
.49153	298.15	.2654	1017.015	.05
.49153	298.15	.3213	1016.983	.05
.49153	308.15	0	1013.946	.05
.49153	308.15	.05363	1013.833	.05
.49153	308.15	.0841	1013.771	.05
.49153	308.15	.1156	1013.708	.05
.49153	308.15	.1579	1013.638	.05
.49153	308.15	.2117	1013.552	.05
.49153	308.15	.2654	1013.474	.05
.49153	308.15	.3213	1013.399	.05
.9634	288.15	0	1040.05	.05
.9634	288.15	.05498	1039.872	.05
.9634	288.15	.08508	1039.775	.05
.9634	288.15	.1171	1039.686	.05
.9634	288.15	.1601	1039.564	.05
.9634	288.15	.2138	1039.43	.05
.9634	288.15	.2697	1039.303	.05
.9634	288.15	.3261	1039.172	.05
.9634	298.15	0	1037.033	.05
.9634	298.15	.05498	1036.821	.05
.9634	298.15	.08508	1036.707	.05
.9634	298.15	.1171	1036.597	.05
.9634	298.15	.1601	1036.45	.05
.9634	298.15	.2138	1036.28	.05
.9634	298.15	.2697	1036.116	.05
.9634	298.15	.3261	1035.945	.05
.9634	308.15	0	1033.327	.05
.9634	308.15	.05498	1033.093	.05
.9634	308.15	.08508	1032.964	.05
.9634	308.15	.1171	1032.838	.05
.9634	308.15	.1601	1032.663	.05
.9634	308.15	.2138	1032.459	.05
.9634	308.15	.2697	1032.258	.05
.9634	308.15	.3261	1032.05	.05

System: sodium chloride + water; phases: Liquid
Fixed: Frequency, MHz = 3
Property: Speed of sound, m/s (Liquid); method: Sing-around technique in a fixed-path interferometer
Ratio of amount of solute to mass of solution, mol/kg of sodium chloride	Temperature, K	Pressure, kPa	Speed of sound, m/s	uncertainty
.49153	288.15	100	1500.19	.5
.49153	298.15	100	1527.92	.5
.49153	308.15	100	1548.91	.5
.9625	288.15	100	1532.61	.5
.9625	298.15	100	1557.58	.5
.9625	308.15	100	1576.8	.5
.9634	288.15	100	1532.86	.5
.9634	298.15	100	1558.02	.5
.9634	308.15	100	1576.96	.5

System: sodium chloride + water; phases: Liquid
Property: Mass density, kg/m3 (Liquid); method: Vibrating tube method
Ratio of amount of solute to mass of solution, mol/kg of sodium chloride	Temperature, K	Pressure, kPa	Mass density, kg/m3	uncertainty
.49153	288.15	100	1019.891	.05
.49153	298.15	100	1017.321	.05
.49153	308.15	100	1013.946	.05
.9625	288.15	100	1039.957	.05
.9625	298.15	100	1036.945	.05
.9625	308.15	100	1033.24	.05
.9634	288.15	100	1040.082	.05
.9634	298.15	100	1037.058	.05
.9634	308.15	100	1033.359	.05
.9634	288.15	100	1040.05	.05
.9634	298.15	100	1037.033	.05
.9634	308.15	100	1033.327	.05

System: tetramethylurea + water; phases: Liquid
Fixed: Frequency, MHz = 3
Property: Speed of sound, m/s (Liquid); method: Sing-around technique in a fixed-path interferometer
Temperature, K	Molality, mol/kg of tetramethylurea	Pressure, kPa	Speed of sound, m/s	uncertainty
288.15	.05312	100	1471.48	.5
288.15	.08465	100	1474.31	.5
288.15	.1165	100	1477.1	.5
288.15	.1526	100	1480.23	.5
288.15	.2129	100	1485.4	.5
288.15	.2671	100	1489.95	.5
288.15	.3243	100	1494.64	.5
298.15	.05312	100	1500.89	.5
298.15	.08465	100	1503.22	.5
298.15	.1165	100	1505.47	.5
298.15	.1526	100	1508.04	.5
298.15	.2129	100	1512.22	.5
298.15	.2671	100	1515.93	.5
298.15	.3243	100	1519.71	.5
308.15	.05312	100	1523.16	.5
308.15	.08465	100	1525.01	.5
308.15	.1165	100	1526.85	.5
308.15	.1526	100	1528.89	.5
308.15	.2129	100	1532.25	.5
308.15	.2671	100	1535.21	.5
308.15	.3243	100	1538.24	.5

System: tetramethylurea + water; phases: Liquid
Property: Mass density, kg/m3 (Liquid); method: Vibrating tube method
Temperature, K	Molality, mol/kg of tetramethylurea	Pressure, kPa	Mass density, kg/m3	uncertainty
288.15	.05312	100	999.175	.05
288.15	.08465	100	999.224	.05
288.15	.1165	100	999.275	.05
288.15	.1526	100	999.338	.05
288.15	.2129	100	999.46	.05
288.15	.2671	100	999.579	.05
288.15	.3243	100	999.719	.05
298.15	.05312	100	997.09	.05
298.15	.08465	100	997.115	.05
298.15	.1165	100	997.14	.05
298.15	.1526	100	997.175	.05
298.15	.2129	100	997.249	.05
298.15	.2671	100	997.324	.05
298.15	.3243	100	997.417	.05
308.15	.05312	100	994.048	.05
308.15	.08465	100	994.054	.05
308.15	.1165	100	994.06	.05
308.15	.1526	100	994.068	.05
308.15	.2129	100	994.099	.05
308.15	.2671	100	994.135	.05
308.15	.3243	100	994.179	.05
