Measured thermophysical data. The thermodynamic stability of the three isomers of methoxybenzamide: An experimental and computational study
Source: J. Chem. Thermodyn., 2014, 10.1016/j.jct.2013.06.022
Compound 1: o-methoxybenzamide, C8H9NO2, purity 99.9%
Compound 2: m-methoxybenzamide, C8H9NO2, purity 99.7%
Compound 3: p-methoxybenzamide, C8H9NO2, purity 99.6%
Compound 4: carbon dioxide, CO2
Compound 5: nitrogen, N2
Compound 6: water, H2O
Compound 7: oxygen, O2

System: o-methoxybenzamide; phases: Crystal, Liquid, Air at 1 atmosphere
Property: Molar enthalpy of transition or fusion, kJ/mol (Crystal); method: DSC/DTA
Molar enthalpy of transition or fusion, kJ/mol	uncertainty
27.21	

System: o-methoxybenzamide; phases: Crystal, Liquid, Air at 1 atmosphere
Property: Normal melting temperature, K (Crystal); method: DSC/DTA
Normal melting temperature, K	uncertainty
401.66	

System: o-methoxybenzamide; phases: Crystal, Gas
Property: Vapor or sublimation pressure, kPa (Crystal); method: Knudsen effusion method
Temperature, K	Vapor or sublimation pressure, kPa	uncertainty
335.12	.0001	
337.18	.000126	
339.16	.000155	
341.12	.000195	
343.16	.000249	
345.16	.000309	
347.11	.000385	
349.15	.000483	
351.16	.000594	
353.12	.000736	
355.17	.000924	
357.16	.001122	
335.12	.000101	
337.18	.000126	
339.16	.000155	
341.12	.000198	
343.16	.000248	
345.16	.000305	
347.11	.000389	
349.15	.000486	
351.16	.000594	
353.12	.00075	
355.17	.000926	
357.16	.001121	
335.12	.0001	
337.18	.000124	
339.16	.000153	
341.12	.000195	
343.16	.000241	
345.16	.0003	
347.11	.000382	
349.15	.000474	
351.16	.000581	
353.12	.000738	
355.17	.00091	
357.16	.001106	

System: m-methoxybenzamide; phases: Crystal, Liquid, Air at 1 atmosphere
Property: Molar enthalpy of transition or fusion, kJ/mol (Crystal); method: DSC/DTA
Molar enthalpy of transition or fusion, kJ/mol	uncertainty
28.6	

System: m-methoxybenzamide; phases: Crystal, Liquid, Air at 1 atmosphere
Property: Normal melting temperature, K (Crystal); method: DSC/DTA
Normal melting temperature, K	uncertainty
407.15	

System: m-methoxybenzamide; phases: Crystal, Gas
Property: Vapor or sublimation pressure, kPa (Crystal); method: Knudsen effusion method
Temperature, K	Vapor or sublimation pressure, kPa	uncertainty
345.11	.000072	
347.12	.000092	
349.16	.000117	
351.12	.000142	
353.16	.000178	
355.16	.000225	
357.12	.000286	
359.16	.000357	
361.14	.000443	
363.13	.000546	
365.17	.00068	
367.13	.000844	
369.17	.001047	
371.15	.001291	
345.11	.000072	
347.12	.000092	
349.16	.000112	
351.12	.000143	
353.16	.00018	
355.16	.000219	
357.12	.000283	
359.16	.000357	
361.14	.000432	
363.13	.00055	
365.17	.000682	
367.13	.000848	
369.17	.001047	
371.15	.001251	
345.11	.000071	
347.12	.000088	
349.16	.000112	
351.12	.000142	
353.16	.000175	
355.16	.000219	
357.12	.000287	
359.16	.000346	
361.14	.000428	
363.13	.000547	
365.17	.000658	
367.13	.000842	
369.17	.001014	
371.15	.00125	

System: p-methoxybenzamide; phases: Crystal, Liquid, Air at 1 atmosphere
Property: Molar enthalpy of transition or fusion, kJ/mol (Crystal); method: DSC/DTA
Molar enthalpy of transition or fusion, kJ/mol	uncertainty
29.04	

System: p-methoxybenzamide; phases: Crystal, Liquid, Air at 1 atmosphere
Property: Normal melting temperature, K (Crystal); method: DSC/DTA
Normal melting temperature, K	uncertainty
440.64	

System: p-methoxybenzamide; phases: Crystal, Gas
Property: Vapor or sublimation pressure, kPa (Crystal); method: Knudsen effusion method
Temperature, K	Vapor or sublimation pressure, kPa	uncertainty
357.12	.000103	
359.19	.000128	
361.16	.000156	
363.12	.000193	
365.2	.000242	
367.16	.000299	
369.12	.000367	
371.18	.000452	
373.15	.000556	
375.11	.000685	
377.18	.000833	
379.15	.001012	
357.12	.000103	
359.19	.000128	
361.16	.000156	
363.12	.000195	
365.2	.000242	
367.16	.000292	
369.12	.000366	
371.18	.000455	
373.15	.000548	
375.11	.000689	
377.18	.000838	
379.15	.000985	
357.12	.000103	
359.19	.000124	
361.16	.000154	
363.12	.000193	
365.2	.000238	
367.16	.00029	
369.12	.000368	
371.18	.000442	
373.15	.000535	
375.11	.000681	
377.18	.000812	
379.15	.000979	

Reaction: -1 o-methoxybenzamide + 8 carbon dioxide + 0.5 nitrogen + 4.5 water + -9.25 oxygen
Property: Specific internal energy of reaction at constant volume, J/g
-26903.8

Reaction: -1 m-methoxybenzamide + 8 carbon dioxide + 0.5 nitrogen + 4.5 water + -9.25 oxygen
Property: Specific internal energy of reaction at constant volume, J/g
-26838

Reaction: -1 p-methoxybenzamide + 8 carbon dioxide + 0.5 nitrogen + 4.5 water + -9.25 oxygen
Property: Specific internal energy of reaction at constant volume, J/g
-26832.6
