Measured thermophysical data. Thermal stability, specific heats, and surface tensions of ([emim][DCA] + [4empy][Tf2N]) ionic liquid mixtures
Source: J. Chem. Thermodyn., 2014, 10.1016/j.jct.2014.03.023
Compound 1: 1-ethyl-3-methylimidazolium dicyanamide, C8H11N5, purity 98%
Compound 2: 1-ethyl-4-methylpyridinium bis((trifluoromethyl)sulfonyl)amide, C10H12F6N2O4S2, purity 98%

System: 1-ethyl-3-methylimidazolium dicyanamide; phases: Liquid, Air at 1 atmosphere
Property: Surface tension liquid-gas, N/m (Liquid); method: Pendant drop shape
Temperature, K	Surface tension liquid-gas, N/m	uncertainty
298.2	.0564	
303.2	.056	
313.2	.0548	
323.2	.0535	

System: 1-ethyl-4-methylpyridinium bis((trifluoromethyl)sulfonyl)amide; phases: Liquid
Property: Molar heat capacity at constant pressure, J/K/mol (Liquid); method: Small sample (50 mg) scanning calorimetry
Temperature, K	Pressure, kPa	Molar heat capacity at constant pressure, J/K/mol	uncertainty
296.2	101	627	12.54
300.2	101	634	12.68
304.2	101	637	12.74
308.2	101	640	12.8
312.2	101	644	12.88
316.2	101	647	12.94
320.2	101	649	12.98
324.2	101	652	13.04
328.2	101	655	13.1
332.2	101	659	13.18
336.2	101	665	13.3
340.2	101	669	13.38
344.2	101	674	13.48
348.2	101	679	13.58
352.2	101	685	13.7
356.2	101	691	13.82
360.2	101	697	13.94
364.2	101	703	14.06
368.2	101	708	14.16
372.2	101	715	14.3

System: 1-ethyl-4-methylpyridinium bis((trifluoromethyl)sulfonyl)amide; phases: Liquid, Air at 1 atmosphere
Property: Surface tension liquid-gas, N/m (Liquid); method: Pendant drop shape
Temperature, K	Surface tension liquid-gas, N/m	uncertainty
298.2	.0243	
303.2	.0239	
313.2	.0231	
323.2	.0222	

System: 1-ethyl-3-methylimidazolium dicyanamide + 1-ethyl-4-methylpyridinium bis((trifluoromethyl)sulfonyl)amide; phases: Liquid
Fixed: Pressure, kPa = 101
Property: Molar heat capacity at constant pressure, J/K/mol (Liquid); method: Small sample (50 mg) scanning calorimetry
Mass fraction of 1-ethyl-3-methylimidazolium dicyanamide	Temperature, K	Molar heat capacity at constant pressure, J/K/mol	uncertainty
0	296.2	627	12.54
0	300.2	634	12.68
0	304.2	637	12.74
0	308.2	640	12.8
0	312.2	644	12.88
0	316.2	647	12.94
0	320.2	649	12.98
0	324.2	652	13.04
0	328.2	655	13.1
0	332.2	659	13.18
0	336.2	665	13.3
0	340.2	669	13.38
0	344.2	674	13.48
0	348.2	679	13.58
0	352.2	685	13.7
0	356.2	691	13.82
0	360.2	697	13.94
0	364.2	703	14.06
0	368.2	708	14.16
0	372.2	715	14.3
.25	296.2	504	10.08
.25	300.2	509	10.18
.25	304.2	512	10.24
.25	308.2	514	10.28
.25	312.2	517	10.34
.25	316.2	520	10.4
.25	320.2	522	10.44
.25	324.2	524	10.48
.25	328.2	528	10.56
.25	332.2	532	10.64
.25	336.2	537	10.74
.25	340.2	541	10.82
.25	344.2	546	10.92
.25	348.2	550	11
.25	352.2	555	11.1
.25	356.2	560	11.2
.25	360.2	565	11.3
.25	364.2	570	11.4
.25	368.2	576	11.52
.25	372.2	584	11.68
.5	296.2	421	8.42
.5	300.2	425	8.5
.5	304.2	427	8.54
.5	308.2	430	8.6
.5	312.2	433	8.66
.5	316.2	436	8.72
.5	320.2	438	8.76
.5	324.2	441	8.82
.5	328.2	444	8.88
.5	332.2	448	8.96
.5	336.2	451	9.02
.5	340.2	455	9.1
.5	344.2	459	9.18
.5	348.2	463	9.26
.5	352.2	467	9.34
.5	356.2	472	9.44
.5	360.2	477	9.54
.5	364.2	481	9.62
.5	368.2	486	9.72
.5	372.2	492	9.84
.75	296.2	363	7.26
.75	300.2	366	7.32
.75	304.2	369	7.38
.75	308.2	371	7.42
.75	312.2	374	7.48
.75	316.2	376	7.52
.75	320.2	378	7.56
.75	324.2	381	7.62
.75	328.2	383	7.66
.75	332.2	387	7.74
.75	336.2	390	7.8
.75	340.2	393	7.86
.75	344.2	397	7.94
.75	348.2	400	8
.75	352.2	404	8.08
.75	356.2	407	8.14
.75	360.2	411	8.22
.75	364.2	415	8.3
.75	368.2	419	8.38
.75	372.2	424	8.48

System: 1-ethyl-3-methylimidazolium dicyanamide + 1-ethyl-4-methylpyridinium bis((trifluoromethyl)sulfonyl)amide; phases: Liquid, Air at 1 atmosphere
Property: Surface tension liquid-gas, N/m (Liquid); method: Pendant drop shape
Mass fraction of 1-ethyl-3-methylimidazolium dicyanamide	Temperature, K	Surface tension liquid-gas, N/m	uncertainty
0	298.2	.0243	
0	303.2	.0239	
0	313.2	.0231	
0	323.2	.0222	
.25	298.2	.0408	
.25	303.2	.0403	
.25	313.2	.0392	
.25	323.2	.038	
.5	298.2	.0458	
.5	303.2	.0453	
.5	313.2	.0441	
.5	323.2	.0428	
.75	298.2	.052	
.75	303.2	.0515	
.75	313.2	.0503	
.75	323.2	.049	
1	298.2	.0564	
1	303.2	.056	
1	313.2	.0548	
1	323.2	.0535	
