Measured thermophysical data. The molar surface Gibbs free energy and its application 2: Ionic liquids 1-alkyl-3-methylimidazolium threonine salts [Cnmim][Thr] (n = 2, 4) at T = (288.15 to 328.15) K
Source: J. Chem. Thermodyn., 2016, 10.1016/j.jct.2016.01.009
Compound 1: 3-ethyl-1-methyl-1H-imidazolium DL-threoninate, C10H19N3O3
Compound 2: 3-butyl-1-methyl-1H-imidazolium DL-threoninate, C12H23N3O3
Compound 3: water, H2O

System: 3-ethyl-1-methyl-1H-imidazolium DL-threoninate; phases: Liquid
Fixed: Pressure, kPa = 101.325
Property: Mass density, kg/m3 (Liquid); method: Vibrating tube method
Temperature, K	Mass density, kg/m3	uncertainty
288.15	1179.19	
293.15	1175.86	
298.15	1172.46	
303.15	1169.06	
308.15	1165.69	
313.15	1162.42	
318.15	1159.04	
323.15	1155.68	
328.15	1152.27	

System: 3-ethyl-1-methyl-1H-imidazolium DL-threoninate; phases: Liquid
Fixed: Pressure, kPa = 101.325
Property: Refractive index (Na D-line) (Liquid); method: Standard Abbe refractometry
Temperature, K	Refractive index (Na D-line)	uncertainty
288.15	1.517	
293.15	1.5155	
298.15	1.5139	
303.15	1.5125	
308.15	1.5109	
313.15	1.5093	
318.15	1.5078	
323.15	1.506	
328.15	1.5045	

System: 3-ethyl-1-methyl-1H-imidazolium DL-threoninate; phases: Liquid, Air at 1 atmosphere
Property: Surface tension liquid-gas, N/m (Liquid); method: Maximal bubble pressure
Temperature, K	Surface tension liquid-gas, N/m	uncertainty
288.15	.0555	
293.15	.0552	
298.15	.0548	
303.15	.0545	
308.15	.0542	
313.15	.0537	
318.15	.0534	
323.15	.0531	
328.15	.0527	

System: 3-butyl-1-methyl-1H-imidazolium DL-threoninate; phases: Liquid
Fixed: Pressure, kPa = 101.325
Property: Mass density, kg/m3 (Liquid); method: Vibrating tube method
Temperature, K	Mass density, kg/m3	uncertainty
288.15	1128.13	
293.15	1124.73	
298.15	1121.33	
303.15	1117.96	
308.15	1113.84	
313.15	1111.18	
318.15	1107.73	
323.15	1104.39	
328.15	1101.08	

System: 3-butyl-1-methyl-1H-imidazolium DL-threoninate; phases: Liquid
Fixed: Pressure, kPa = 101.325
Property: Refractive index (Na D-line) (Liquid); method: Standard Abbe refractometry
Temperature, K	Refractive index (Na D-line)	uncertainty
288.15	1.5117	
293.15	1.5101	
298.15	1.5086	
303.15	1.507	
308.15	1.5055	
313.15	1.504	
318.15	1.5024	
323.15	1.5009	
328.15	1.4995	

System: 3-butyl-1-methyl-1H-imidazolium DL-threoninate; phases: Liquid, Air at 1 atmosphere
Property: Surface tension liquid-gas, N/m (Liquid); method: Maximal bubble pressure
Temperature, K	Surface tension liquid-gas, N/m	uncertainty
288.15	.0519	
293.15	.0515	
298.15	.0511	
303.15	.0508	
308.15	.0506	
313.15	.0502	
318.15	.0498	
323.15	.0495	
328.15	.0491	

System: 3-ethyl-1-methyl-1H-imidazolium DL-threoninate + water; phases: Liquid
Fixed: Pressure, kPa = 100
Property: Mass density, kg/m3 (Liquid); method: Vibrating tube method
Temperature, K	Mass fraction of water	Mass density, kg/m3	uncertainty
288.15	.0062	1178.27	
293.15	.0062	1174.94	
298.15	.0062	1171.54	
303.15	.0062	1168.13	
308.15	.0062	1164.76	
313.15	.0062	1161.47	
318.15	.0062	1158.08	
323.15	.0062	1154.7	
328.15	.0062	1151.29	
288.15	.0083	1177.94	
293.15	.0083	1174.59	
298.15	.0083	1171.21	
303.15	.0083	1167.78	
308.15	.0083	1164.44	
313.15	.0083	1161.14	
318.15	.0083	1157.71	
323.15	.0083	1154.35	
328.15	.0083	1150.94	
288.15	.0114	1177.51	
293.15	.0114	1174.16	
298.15	.0114	1170.77	
303.15	.0114	1167.34	
308.15	.0114	1164	
313.15	.0114	1160.69	
318.15	.0114	1157.26	
323.15	.0114	1153.89	
328.15	.0114	1150.48	
288.15	.0137	1177.16	
293.15	.0137	1173.81	
298.15	.0137	1170.42	
303.15	.0137	1166.98	
308.15	.0137	1163.64	
313.15	.0137	1160.33	
318.15	.0137	1156.89	
323.15	.0137	1153.51	
328.15	.0137	1150.1	
288.15	.0159	1176.82	
293.15	.0159	1173.47	
298.15	.0159	1170.08	
303.15	.0159	1166.64	
308.15	.0159	1163.3	
313.15	.0159	1159.98	
318.15	.0159	1156.54	
323.15	.0159	1153.15	
328.15	.0159	1149.74	

System: 3-ethyl-1-methyl-1H-imidazolium DL-threoninate + water; phases: Liquid
Fixed: Pressure, kPa = 100
Property: Refractive index (Na D-line) (Liquid); method: Standard Abbe refractometry
Temperature, K	Mass fraction of water	Refractive index (Na D-line)	uncertainty
288.15	.0062	1.5156	
293.15	.0062	1.5142	
298.15	.0062	1.5127	
303.15	.0062	1.5113	
308.15	.0062	1.5097	
313.15	.0062	1.5082	
318.15	.0062	1.5066	
323.15	.0062	1.5049	
328.15	.0062	1.5034	
288.15	.0083	1.5152	
293.15	.0083	1.5138	
298.15	.0083	1.5123	
303.15	.0083	1.5109	
308.15	.0083	1.5092	
313.15	.0083	1.5077	
318.15	.0083	1.5062	
323.15	.0083	1.5045	
328.15	.0083	1.503	
288.15	.0114	1.5145	
293.15	.0114	1.5131	
298.15	.0114	1.5116	
303.15	.0114	1.5102	
308.15	.0114	1.5086	
313.15	.0114	1.507	
318.15	.0114	1.5055	
323.15	.0114	1.5038	
328.15	.0114	1.5023	
288.15	.0137	1.5141	
293.15	.0137	1.5126	
298.15	.0137	1.5112	
303.15	.0137	1.5099	
308.15	.0137	1.5082	
313.15	.0137	1.5067	
318.15	.0137	1.5052	
323.15	.0137	1.5035	
328.15	.0137	1.502	
288.15	.0159	1.5135	
293.15	.0159	1.5122	
298.15	.0159	1.5108	
303.15	.0159	1.5094	
308.15	.0159	1.5078	
313.15	.0159	1.5063	
318.15	.0159	1.5047	
323.15	.0159	1.5031	
328.15	.0159	1.5016	

System: 3-ethyl-1-methyl-1H-imidazolium DL-threoninate + water; phases: Liquid, Air at 1 atmosphere
Property: Surface tension liquid-gas, N/m (Liquid); method: Maximal bubble pressure
Temperature, K	Mass fraction of water	Surface tension liquid-gas, N/m	uncertainty
288.15	.0062	.056	
293.15	.0062	.0557	
298.15	.0062	.0554	
303.15	.0062	.0551	
308.15	.0062	.0548	
313.15	.0062	.0544	
318.15	.0062	.0541	
323.15	.0062	.0538	
328.15	.0062	.0534	
288.15	.0083	.0562	
293.15	.0083	.0559	
298.15	.0083	.0556	
303.15	.0083	.0553	
308.15	.0083	.055	
313.15	.0083	.0546	
318.15	.0083	.0543	
323.15	.0083	.054	
328.15	.0083	.0536	
288.15	.0114	.0565	
293.15	.0114	.0562	
298.15	.0114	.0559	
303.15	.0114	.0556	
308.15	.0114	.0553	
313.15	.0114	.055	
318.15	.0114	.0547	
323.15	.0114	.0544	
328.15	.0114	.054	
288.15	.0137	.0566	
293.15	.0137	.0563	
298.15	.0137	.0561	
303.15	.0137	.0558	
308.15	.0137	.0555	
313.15	.0137	.0552	
318.15	.0137	.0549	
323.15	.0137	.0546	
328.15	.0137	.0543	
288.15	.0159	.0568	
293.15	.0159	.0565	
298.15	.0159	.0563	
303.15	.0159	.056	
308.15	.0159	.0557	
313.15	.0159	.0554	
318.15	.0159	.0551	
323.15	.0159	.0548	
328.15	.0159	.0545	

System: 3-butyl-1-methyl-1H-imidazolium DL-threoninate + water; phases: Liquid
Fixed: Pressure, kPa = 100
Property: Mass density, kg/m3 (Liquid); method: Vibrating tube method
Temperature, K	Mass fraction of water	Mass density, kg/m3	uncertainty
288.15	.0064	1127.5	
293.15	.0064	1124.13	
298.15	.0064	1120.7	
303.15	.0064	1117.34	
308.15	.0064	1113.21	
313.15	.0064	1110.54	
318.15	.0064	1107.08	
323.15	.0064	1103.71	
328.15	.0064	1100.41	
288.15	.0096	1127.21	
293.15	.0096	1123.8	
298.15	.0096	1120.41	
303.15	.0096	1117.06	
308.15	.0096	1112.92	
313.15	.0096	1110.25	
318.15	.0096	1106.78	
323.15	.0096	1103.41	
328.15	.0096	1100.1	
288.15	.012	1126.96	
293.15	.012	1123.59	
298.15	.012	1120.16	
303.15	.012	1116.81	
308.15	.012	1112.67	
313.15	.012	1109.99	
318.15	.012	1106.52	
323.15	.012	1103.14	
328.15	.012	1099.84	
288.15	.0141	1126.76	
293.15	.0141	1123.39	
298.15	.0141	1119.96	
303.15	.0141	1116.61	
308.15	.0141	1112.47	
313.15	.0141	1109.79	
318.15	.0141	1106.31	
323.15	.0141	1102.92	
328.15	.0141	1099.62	
288.15	.0169	1126.49	
293.15	.0169	1123.12	
298.15	.0169	1119.69	
303.15	.0169	1116.34	
308.15	.0169	1112.2	
313.15	.0169	1109.51	
318.15	.0169	1106.03	
323.15	.0169	1102.63	
328.15	.0169	1099.33	

System: 3-butyl-1-methyl-1H-imidazolium DL-threoninate + water; phases: Liquid
Fixed: Pressure, kPa = 100
Property: Refractive index (Na D-line) (Liquid); method: Standard Abbe refractometry
Temperature, K	Mass fraction of water	Refractive index (Na D-line)	uncertainty
288.15	.0064	1.5103	
293.15	.0064	1.5087	
298.15	.0064	1.5072	
303.15	.0064	1.5058	
308.15	.0064	1.5044	
313.15	.0064	1.503	
318.15	.0064	1.5014	
323.15	.0064	1.4999	
328.15	.0064	1.4985	
288.15	.0096	1.5097	
293.15	.0096	1.5081	
298.15	.0096	1.5066	
303.15	.0096	1.5052	
308.15	.0096	1.5039	
313.15	.0096	1.5025	
318.15	.0096	1.501	
323.15	.0096	1.4994	
328.15	.0096	1.4981	
288.15	.012	1.5091	
293.15	.012	1.5075	
298.15	.012	1.506	
303.15	.012	1.5047	
308.15	.012	1.5034	
313.15	.012	1.5022	
318.15	.012	1.5006	
323.15	.012	1.4991	
328.15	.012	1.4977	
288.15	.0141	1.5087	
293.15	.0141	1.5071	
298.15	.0141	1.5056	
303.15	.0141	1.5043	
308.15	.0141	1.5031	
313.15	.0141	1.5018	
318.15	.0141	1.5003	
323.15	.0141	1.4988	
328.15	.0141	1.4974	
288.15	.0169	1.5081	
293.15	.0169	1.5065	
298.15	.0169	1.505	
303.15	.0169	1.5038	
308.15	.0169	1.5026	
313.15	.0169	1.5014	
318.15	.0169	1.4998	
323.15	.0169	1.4983	
328.15	.0169	1.4969	

System: 3-butyl-1-methyl-1H-imidazolium DL-threoninate + water; phases: Liquid, Air at 1 atmosphere
Property: Surface tension liquid-gas, N/m (Liquid); method: Maximal bubble pressure
Temperature, K	Mass fraction of water	Surface tension liquid-gas, N/m	uncertainty
288.15	.0064	.0524	
293.15	.0064	.052	
298.15	.0064	.0517	
303.15	.0064	.0514	
308.15	.0064	.0511	
313.15	.0064	.0508	
318.15	.0064	.0504	
323.15	.0064	.0501	
328.15	.0064	.0498	
288.15	.0096	.0526	
293.15	.0096	.0523	
298.15	.0096	.052	
303.15	.0096	.0517	
308.15	.0096	.0514	
313.15	.0096	.0511	
318.15	.0096	.0507	
323.15	.0096	.0504	
328.15	.0096	.0501	
288.15	.012	.0528	
293.15	.012	.0525	
298.15	.012	.0522	
303.15	.012	.0519	
308.15	.012	.0516	
313.15	.012	.0513	
318.15	.012	.0509	
323.15	.012	.0506	
328.15	.012	.0504	
288.15	.0141	.053	
293.15	.0141	.0527	
298.15	.0141	.0524	
303.15	.0141	.0521	
308.15	.0141	.0518	
313.15	.0141	.0515	
318.15	.0141	.0511	
323.15	.0141	.0508	
328.15	.0141	.0506	
288.15	.0169	.0532	
293.15	.0169	.0529	
298.15	.0169	.0527	
303.15	.0169	.0524	
308.15	.0169	.052	
313.15	.0169	.0518	
318.15	.0169	.0514	
323.15	.0169	.0511	
328.15	.0169	.0509	
