Measured thermophysical data. Experimental investigations for the phase equilibrium of R1234yf and R1234ze(E) with two linear chained pentaerythritol esters
Source: J. Chem. Thermodyn., 2016, 10.1016/j.jct.2015.08.038
Compound 1: R-1234yf, C3H2F4, purity 99.9%
Compound 2: R-1234ze(E), C3H2F4, purity 99.9%
Compound 3: pentaerythritol ester of butyric acid, C21H36O8, purity 98%
Compound 4: pentaerythritol tetrapentanoate, C25H44O8, purity 99%

System: R-1234yf + pentaerythritol ester of butyric acid; phases: Liquid, Gas
Property: Mole fraction of R-1234yf (Liquid); method: Volumetric method
Temperature, K	Pressure, kPa	Mole fraction of R-1234yf	uncertainty
293.15	66	.0801	.002403
293.15	161	.1973	.005919
293.15	244	.3001	.009003
293.15	329	.4092	.012276
293.15	409	.5213	.015639
293.15	478	.6345	.019035
293.15	520	.7226	.021678
293.15	545	.8008	.024024
293.15	562	.8762	.026286
303.15	73	.0685	.002055
303.15	183	.172	.00516
303.15	280	.2648	.007944
303.15	385	.3662	.010986
303.15	492	.4745	.014235
303.15	596	.5918	.017754
303.15	667	.6904	.020712
303.15	713	.782	.02346
303.15	741	.869	.02607
313.15	78	.0586	.001758
313.15	200	.1504	.004512
313.15	313	.2335	.007005
313.15	437	.326	.00978
313.15	570	.4274	.012822
313.15	713	.5422	.016266
313.15	825	.6472	.019416
313.15	909	.7542	.022626
313.15	958	.8587	.025761
323.15	83	.0511	.001533
323.15	218	.132	.00396
323.15	344	.2063	.006189
323.15	484	.2904	.008712
323.15	640	.3834	.011502
323.15	818	.4915	.014745
323.15	977	.5959	.017877
323.15	1122	.7142	.021426
323.15	1237	.8429	.025287
333.15	88	.0449	.001347
333.15	235	.1174	.003522
333.15	371	.1841	.005523
333.15	525	.2605	.007815
333.15	702	.3447	.010341
333.15	912	.4448	.013344
333.15	1113	.5429	.016287
333.15	1363	.6624	.019872
333.15	1582	.8175	.024525
343.15	91	.0399	.001197
343.15	246	.1052	.003156
343.15	396	.1658	.004974
343.15	564	.2346	.007038
343.15	759	.3119	.009357
343.15	996	.4038	.012114
343.15	1233	.4945	.014835
343.15	1513	.6077	.018231
343.15	1913	.7762	.023286
348.15	94	.0379	.001137
348.15	251	.0999	.002997
348.15	400	.1573	.004719
348.15	582	.2237	.006711
348.15	785	.298	.00894
348.15	1034	.386	.01158
348.15	1287	.4736	.014208
348.15	1595	.5823	.017469
348.15	2071	.7495	.022485

System: R-1234yf + pentaerythritol tetrapentanoate; phases: Liquid, Gas
Property: Mole fraction of R-1234yf (Liquid); method: Volumetric method
Temperature, K	Pressure, kPa	Mole fraction of R-1234yf	uncertainty
293.15	79	.1048	.003144
293.15	170	.2248	.006744
293.15	253	.3292	.009876
293.15	338	.437	.01311
293.15	418	.5443	.016329
293.15	488	.6514	.019542
293.15	535	.7486	.022458
293.15	563	.8394	.025182
293.15	574	.9117	.027351
303.15	87	.0884	.002652
303.15	190	.1935	.005805
303.15	286	.2873	.008619
303.15	388	.3861	.011583
303.15	493	.4879	.014637
303.15	597	.5972	.017916
303.15	682	.7067	.021201
303.15	736	.8195	.024585
303.15	756	.906	.02718
313.15	94	.0749	.002247
313.15	208	.1674	.005022
313.15	315	.2513	.007539
313.15	432	.342	.01026
313.15	558	.434	.01302
313.15	695	.5378	.016134
313.15	828	.6512	.019536
313.15	940	.7873	.023619
313.15	980	.8976	.026928
323.15	99	.0645	.001935
323.15	224	.1461	.004383
323.15	341	.2209	.006627
323.15	472	.301	.00903
323.15	615	.3864	.011592
323.15	780	.4813	.014439
323.15	957	.5895	.017685
323.15	1155	.7373	.022119
323.15	1249	.8839	.026517
333.15	104	.0573	.001719
333.15	238	.1292	.003876
333.15	365	.1966	.005898
333.15	507	.2689	.008067
333.15	666	.3457	.010371
333.15	853	.4322	.012966
333.15	1066	.5315	.015945
333.15	1349	.6737	.020211
333.15	1580	.8596	.025788
343.15	109	.0513	.001539
343.15	251	.1158	.003474
343.15	386	.1764	.005292
343.15	540	.2418	.007254
343.15	712	.3116	.009348
343.15	918	.3913	.011739
343.15	1160	.4822	.014466
343.15	1508	.6126	.018378
343.15	1928	.8121	.024363
348.15	112	.0487	.001461
348.15	258	.1102	.003306
348.15	397	.168	.00504
348.15	555	.2302	.006906
348.15	734	.2973	.008919
348.15	948	.3737	.011211
348.15	1203	.4612	.013836
348.15	1577	.5861	.017583
348.15	2087	.7788	.023364

System: pentaerythritol ester of butyric acid + R-1234ze(E); phases: Liquid, Gas
Property: Mole fraction of R-1234ze(E) (Liquid); method: Volumetric method
Temperature, K	Pressure, kPa	Mole fraction of R-1234ze(E)	uncertainty
293.15	54	.1613	.004839
293.15	135	.3686	.011058
293.15	196	.5012	.015036
293.15	252	.6168	.018504
293.15	308	.7256	.021768
293.15	351	.8137	.024411
293.15	379	.8763	.026289
293.15	394	.9156	.027468
303.15	64	.1413	.004239
303.15	167	.3354	.010062
303.15	245	.4662	.013986
303.15	323	.5855	.017565
303.15	404	.7028	.021084
303.15	468	.8004	.024012
303.15	509	.8698	.026094
303.15	532	.9125	.027375
313.15	74	.1226	.003678
313.15	197	.3015	.009045
313.15	296	.4277	.012831
313.15	398	.5484	.016452
313.15	511	.6732	.020196
313.15	607	.7821	.023463
313.15	669	.8607	.025821
313.15	704	.9081	.027243
323.15	84	.1057	.003171
323.15	227	.2686	.008058
323.15	345	.3883	.011649
323.15	472	.5072	.015216
323.15	623	.6367	.019101
323.15	764	.7574	.022722
323.15	859	.848	.02544
323.15	909	.9021	.027063
333.15	93	.0903	.002709
333.15	255	.2378	.007134
333.15	390	.3497	.010491
333.15	543	.4643	.013929
333.15	735	.5946	.017838
333.15	932	.7247	.021741
333.15	1079	.8298	.024894
333.15	1162	.8935	.026805
343.15	98	.0758	.002274
343.15	280	.2103	.006309
343.15	433	.3135	.009405
343.15	609	.4221	.012663
343.15	840	.5496	.016488
343.15	1099	.6844	.020532
343.15	1320	.8038	.024114
343.15	1473	.881	.02643
353.15	104	.0639	.001917
353.15	303	.1859	.005577
353.15	472	.2809	.008427
353.15	669	.3825	.011475
353.15	936	.5047	.015141
353.15	1258	.6393	.019179
353.15	1568	.7685	.023055
353.15	1810	.8618	.025854
