Measured thermophysical data. Thermodynamic study in the Ag-Sb-S system by the EMF method
Source: J. Chem. Thermodyn., 2016, 10.1016/j.jct.2016.03.009
Compound 1: silver, Ag, purity 99.9%
Compound 2: antimony, Sb, purity 99.999%
Compound 3: antimony(III) sulfide, S3Sb2, purity 99.9%
Compound 4: antimony(III) trisilver(I) sulfide, Ag3S3Sb
Compound 5: antimony(III) silver(I) sulfide, AgS2Sb
Compound 6: silver(I) antimonide, Ag3Sb
Compound 7: sulfur, S

System: antimony(III) silver(I) sulfide; phases: Crystal 2, Crystal 1, Air at 1 atmosphere
Property: Triple point temperature, K (Crystal 2); method: DSC
Triple point temperature, K	uncertainty
648.6	1

Reaction: -2 antimony(III) sulfide + -3 silver + 1 antimony + 3 antimony(III) silver(I) sulfide
Property: Molar Gibbs energy of reaction, kJ/mol
463.325	-85.76
473.536	-85.22
483.751	-84.51
504.114	-83.46
575.479	-78.91
524.789	-82.19

Reaction: -6 silver + 1 silver(I) antimonide + -3 antimony(III) silver(I) sulfide + 2 antimony(III) trisilver(I) sulfide
Property: Molar Gibbs energy of reaction, kJ/mol
454.796	-20.03
522.862	-23.91
545.154	-24.83
573.639	-26.02
604.203	-27.27
604.207	-27.27
644.737	-28.94
644.745	-28.94
665.066	-29.86
680.260	-30.60

Reaction: -1 silver + -1 antimony + -2 sulfur + 1 antimony(III) silver(I) sulfide
Property: Molar Gibbs energy of reaction, kJ/mol
463	-120.4
473	-120.0
483	-119.6
493	-119.1
503	-118.7
513	-118.3
523	-117.9
533	-117.5
543	-117.1
553	-116.7
563	-116.3
575	-115.8

Reaction: -3 silver + -1 antimony + -3 sulfur + 1 antimony(III) trisilver(I) sulfide
Property: Molar Gibbs energy of reaction, kJ/mol
455	-186.5
465	-186.1
475	-185.6
485	-185.1
495	-184.6
505	-184.1
515	-183.6
525	-183.1
535	-182.6
545	-182.1
555	-181.6
565	-181.2
575	-180.7
585	-180.2
595	-179.7
605	-179.2
615	-178.7
625	-178.2
635	-177.7
645	-177.2
648.6	-177.1
