Measured thermophysical data. (Liquid + liquid), (solid + liquid), and (solid + liquid + liquid) equilibria of systems containing cyclic ether (tetrahydrofuran or 1,3-dioxolane), water, and a biological buffer MOPS
Source: J. Chem. Thermodyn., 2015, 10.1016/j.jct.2014.11.002
Compound 1: 3-(N-morpholino)propanesulfonic acid, C7H15NO4S, purity 99.5%
Compound 2: tetrahydrofuran, C4H8O, purity 99.99%
Compound 3: 1,3-dioxolane, C3H6O2, purity 99.8%
Compound 4: water, H2O

System: tetrahydrofuran + 3-(N-morpholino)propanesulfonic acid + water; phases: Liquid mixture 1, Liquid mixture 2
Fixed: Pressure, kPa = 101.3
Fixed: Temperature, K = 298.15
Property: Mass fraction of 3-(N-morpholino)propanesulfonic acid (Liquid mixture 1); method: gravimetric method
Mass fraction of tetrahydrofuran	Mass fraction of 3-(N-morpholino)propanesulfonic acid	uncertainty
.1	.484	.0005
.4737	.0528	.0005
.5771	.038	.0005
.6904	.0134	.0005
.794	.0071	.0005
.8572	.0028	.0005

System: tetrahydrofuran + 3-(N-morpholino)propanesulfonic acid + water; phases: Liquid, Crystal
Fixed: Pressure, kPa = 101.3
Fixed: Temperature, K = 298.15
Property: Mass fraction of 3-(N-morpholino)propanesulfonic acid (Liquid); method: from the plateau on the density curve
Mass fraction of tetrahydrofuran	Mass fraction of 3-(N-morpholino)propanesulfonic acid	uncertainty
.041	.589	.005
0	.608	.005

System: tetrahydrofuran + 3-(N-morpholino)propanesulfonic acid + water; phases: Liquid mixture 1, Liquid mixture 2, Crystal
Fixed: Pressure, kPa = 101.3
Property: Mass fraction of tetrahydrofuran (Liquid mixture 1); method: Chromatography
Temperature, K	Mass fraction of tetrahydrofuran	uncertainty
298.15	.9528	.0007

System: tetrahydrofuran + 3-(N-morpholino)propanesulfonic acid + water; phases: Liquid mixture 1, Liquid mixture 2, Crystal
Fixed: Pressure, kPa = 101.3
Property: Mass fraction of 3-(N-morpholino)propanesulfonic acid (Liquid mixture 1); method: gravimetric method
Temperature, K	Mass fraction of 3-(N-morpholino)propanesulfonic acid	uncertainty
298.15	.0016	.0002

System: tetrahydrofuran + 3-(N-morpholino)propanesulfonic acid + water; phases: Liquid mixture 2, Liquid mixture 1, Crystal
Fixed: Pressure, kPa = 101.3
Property: Mass fraction of tetrahydrofuran (Liquid mixture 2); method: Chromatography
Temperature, K	Mass fraction of tetrahydrofuran	uncertainty
298.15	.0564	.0007

System: tetrahydrofuran + 3-(N-morpholino)propanesulfonic acid + water; phases: Liquid mixture 2, Liquid mixture 1, Crystal
Fixed: Pressure, kPa = 101.3
Property: Mass fraction of 3-(N-morpholino)propanesulfonic acid (Liquid mixture 2); method: gravimetric method
Temperature, K	Mass fraction of 3-(N-morpholino)propanesulfonic acid	uncertainty
298.15	.581	.0002

System: tetrahydrofuran + 3-(N-morpholino)propanesulfonic acid + water; phases: Liquid mixture 1, Liquid mixture 2
Property: Mass fraction of 3-(N-morpholino)propanesulfonic acid (Liquid mixture 1); method: Gravimetric method
Property: Mass fraction of 3-(N-morpholino)propanesulfonic acid (Liquid mixture 2); method: Gravimetric method
Property: Mass fraction of tetrahydrofuran (Liquid mixture 2); method: Gravimetric method
Temperature, K	Pressure, kPa	Mass fraction of tetrahydrofuran	Mass fraction of 3-(N-morpholino)propanesulfonic acid	uncertainty	Mass fraction of 3-(N-morpholino)propanesulfonic acid	uncertainty	Mass fraction of tetrahydrofuran	uncertainty
298.15	101.3	.7693	.0086	.0002	.1478	.0002	.2877	.0007
298.15	101.3	.7972	.0058	.0002	.1661	.0002	.2717	.0007
298.15	101.3	.8151	.0051	.0002	.199	.0002	.2435	.0007
298.15	101.3	.8306	.0038	.0002	.2158	.0002	.2271	.0007
298.15	101.3	.8546	.0028	.0002	.2545	.0002	.1945	.0007
298.15	101.3	.8916	.0016	.0002	.3583	.0002	.1318	.0007
298.15	101.3	.9528	.0016	.0002	.581	.0002	.0564	.0007

System: 1,3-dioxolane + 3-(N-morpholino)propanesulfonic acid + water; phases: Liquid mixture 1, Liquid mixture 2
Fixed: Pressure, kPa = 101.3
Fixed: Temperature, K = 298.15
Property: Mass fraction of 3-(N-morpholino)propanesulfonic acid (Liquid mixture 1); method: gravimetric method
Mass fraction of 1,3-dioxolane	Mass fraction of 3-(N-morpholino)propanesulfonic acid	uncertainty
.2092	.4118	.0005
.2892	.2771	.0005
.4071	.186	.0005
.5335	.1109	.0005
.6534	.0659	.0005
.7795	.0256	.0005
.8969	.0034	.0005

System: 1,3-dioxolane + 3-(N-morpholino)propanesulfonic acid + water; phases: Liquid, Crystal
Fixed: Pressure, kPa = 101.3
Fixed: Temperature, K = 298.15
Property: Mass fraction of 3-(N-morpholino)propanesulfonic acid (Liquid); method: from the plateau on the density curve
Mass fraction of 1,3-dioxolane	Mass fraction of 3-(N-morpholino)propanesulfonic acid	uncertainty
.041	.591	.005
.088	.56	.005
0	.608	.005

System: 1,3-dioxolane + 3-(N-morpholino)propanesulfonic acid + water; phases: Liquid mixture 1, Crystal, Liquid mixture 2
Fixed: Pressure, kPa = 101.3
Property: Mass fraction of 1,3-dioxolane (Liquid mixture 1); method: Chromatography
Temperature, K	Mass fraction of 1,3-dioxolane	uncertainty
298.15	.9457	.0007

System: 1,3-dioxolane + 3-(N-morpholino)propanesulfonic acid + water; phases: Liquid mixture 1, Crystal, Liquid mixture 2
Fixed: Pressure, kPa = 101.3
Property: Mass fraction of 3-(N-morpholino)propanesulfonic acid (Liquid mixture 1); method: gravimetric method
Temperature, K	Mass fraction of 3-(N-morpholino)propanesulfonic acid	uncertainty
298.15	.0009	.0002

System: 1,3-dioxolane + 3-(N-morpholino)propanesulfonic acid + water; phases: Liquid mixture 2, Crystal, Liquid mixture 1
Fixed: Pressure, kPa = 101.3
Property: Mass fraction of 1,3-dioxolane (Liquid mixture 2); method: Chromatography
Temperature, K	Mass fraction of 1,3-dioxolane	uncertainty
298.15	.1419	.0007

System: 1,3-dioxolane + 3-(N-morpholino)propanesulfonic acid + water; phases: Liquid mixture 2, Crystal, Liquid mixture 1
Fixed: Pressure, kPa = 101.3
Property: Mass fraction of 3-(N-morpholino)propanesulfonic acid (Liquid mixture 2); method: gravimetric method
Temperature, K	Mass fraction of 3-(N-morpholino)propanesulfonic acid	uncertainty
298.15	.5163	.0002

System: 1,3-dioxolane + 3-(N-morpholino)propanesulfonic acid + water; phases: Liquid mixture 2, Liquid mixture 1
Property: Mass fraction of 3-(N-morpholino)propanesulfonic acid (Liquid mixture 2); method: Gravimetric method
Property: Mass fraction of 1,3-dioxolane (Liquid mixture 1); method: Gravimetric method
Property: Mass fraction of 3-(N-morpholino)propanesulfonic acid (Liquid mixture 1); method: Gravimetric method
Temperature, K	Pressure, kPa	Mass fraction of 1,3-dioxolane	Mass fraction of 3-(N-morpholino)propanesulfonic acid	uncertainty	Mass fraction of 1,3-dioxolane	uncertainty	Mass fraction of 3-(N-morpholino)propanesulfonic acid	uncertainty
298.15	101.3	.3383	.2462	.0002	.8657	.0007	.0048	.0002
298.15	101.3	.3052	.2716	.0002	.8733	.0007	.0042	.0002
298.15	101.3	.2473	.3451	.0002	.9076	.0007	.0023	.0002
298.15	101.3	.2155	.3902	.0002	.9131	.0007	.0018	.0002
298.15	101.3	.2024	.4104	.0002	.9244	.0007	.0016	.0002
298.15	101.3	.1608	.474	.0002	.9375	.0007	.0011	.0002
298.15	101.3	.1419	.5163	.0002	.9457	.0007	.0009	.0002

System: 3-(N-morpholino)propanesulfonic acid + water; phases: Liquid, Crystal
Property: Mass fraction of 3-(N-morpholino)propanesulfonic acid (Liquid); method: from the plateau on the density curve
Temperature, K	Pressure, kPa	Mass fraction of 3-(N-morpholino)propanesulfonic acid	uncertainty
298.15	101.3	.608	.005
