Measured thermophysical data. Determination and correlation of solubility of 4'-bromomethyl-2-cyanobiphenyl in acetone + (ethanol, n-propanol, n-butanol) mixtures
Source: J. Chem. Thermodyn., 2016, 10.1016/j.jct.2016.06.032
Compound 1: 4'-(bromomethyl)-2-cyanobiphenyl, C14H10BrN, purity 99%
Compound 2: acetone, C3H6O, purity 99.7%
Compound 3: ethanol, C2H6O, purity 99.7%
Compound 4: n-propanol, C3H8O, purity 99.7%
Compound 5: n-butanol, C4H10O, purity 99.5%

System: 4'-(bromomethyl)-2-cyanobiphenyl; phases: Crystal, Liquid, Air at 1 atmosphere
Property: Normal melting temperature, K (Crystal); method: DSC/DTA
Normal melting temperature, K	uncertainty
399.05	.5

System: 4'-(bromomethyl)-2-cyanobiphenyl; phases: Crystal, Liquid, Air at 1 atmosphere
Property: Molar enthalpy of transition or fusion, kJ/mol (Crystal); method: DSC
Molar enthalpy of transition or fusion, kJ/mol	uncertainty
29.3	.879

System: ethanol + acetone + 4'-(bromomethyl)-2-cyanobiphenyl; phases: Liquid, Crystal
Fixed: Pressure, kPa = 100
Property: Mole fraction of 4'-(bromomethyl)-2-cyanobiphenyl (Liquid); method: gravimetric method
Temperature, K	Solvent: Mole fraction of acetone	Mole fraction of 4'-(bromomethyl)-2-cyanobiphenyl	uncertainty
278.15	0	.00054	
278.15	.101	.0011	
278.15	.201	.00243	
278.15	.302	.00368	
278.15	.402	.00543	
278.15	.501	.00724	
278.15	.602	.00888	
278.15	.801	.01364	
278.15	1	.01507	
283.15	.101	.00148	
283.15	.201	.00259	
283.15	.302	.00425	
283.15	.402	.00608	
283.15	.501	.0081	
283.15	.602	.0101	
283.15	.801	.01479	
283.15	1	.01688	
288.15	.101	.0017	
288.15	.201	.00375	
288.15	.302	.00475	
288.15	.402	.00776	
288.15	.501	.00926	
288.15	.602	.01223	
288.15	.801	.01734	
288.15	1	.02137	
293.15	.101	.00251	
293.15	.201	.00398	
293.15	.302	.00656	
293.15	.402	.00826	
293.15	.501	.01207	
293.15	.602	.01342	
293.15	.801	.01967	
293.15	1	.02409	
298.15	.101	.00306	
298.15	.201	.0055	
298.15	.302	.00764	
298.15	.402	.01019	
298.15	.501	.01417	
298.15	.602	.01678	
298.15	.801	.02367	
298.15	1	.03062	
303.15	.101	.00361	
303.15	.201	.00651	
303.15	.302	.00903	
303.15	.402	.01166	
303.15	.501	.01635	
303.15	.602	.01887	
303.15	.801	.02804	
303.15	1	.03518	
308.15	.101	.00473	
308.15	.201	.00685	
308.15	.302	.0104	
308.15	.402	.01445	
308.15	.501	.01994	
308.15	.602	.02237	
308.15	.801	.03052	
308.15	1	.04239	
313.15	.101	.00629	
313.15	.201	.00873	
313.15	.302	.01333	
313.15	.402	.01805	
313.15	.501	.02358	
313.15	.602	.02641	
313.15	.801	.03637	
313.15	1	.04922	

System: acetone + n-propanol + 4'-(bromomethyl)-2-cyanobiphenyl; phases: Liquid, Crystal
Fixed: Pressure, kPa = 100
Property: Mole fraction of 4'-(bromomethyl)-2-cyanobiphenyl (Liquid); method: gravimetric method
Temperature, K	Solvent: Mole fraction of acetone	Mole fraction of 4'-(bromomethyl)-2-cyanobiphenyl	uncertainty
278.15	0	.00052	
278.15	.101	.00124	
278.15	.201	.00234	
278.15	.302	.00383	
278.15	.402	.00527	
278.15	.501	.00781	
278.15	.602	.00964	
278.15	.801	.01412	
278.15	1	.01507	
283.15	0	.00075	
283.15	.101	.00164	
283.15	.201	.00293	
283.15	.302	.00472	
283.15	.402	.00675	
283.15	.501	.0088	
283.15	.602	.0116	
283.15	.801	.01652	
283.15	1	.01688	
288.15	0	.00099	
288.15	.101	.00205	
288.15	.201	.00358	
288.15	.302	.00535	
288.15	.402	.00765	
288.15	.501	.01013	
288.15	.602	.01345	
288.15	.801	.01884	
288.15	1	.02137	
293.15	0	.00126	
293.15	.101	.00267	
293.15	.201	.00438	
293.15	.302	.00682	
293.15	.402	.00961	
293.15	.501	.01247	
293.15	.602	.01564	
293.15	.801	.02267	
293.15	1	.02409	
298.15	0	.00181	
298.15	.101	.00321	
298.15	.201	.00523	
298.15	.302	.00788	
298.15	.402	.01102	
298.15	.501	.01453	
298.15	.602	.016	
298.15	.801	.02691	
298.15	1	.03062	
303.15	0	.00226	
303.15	.101	.00407	
303.15	.201	.00672	
303.15	.302	.01028	
303.15	.402	.01357	
303.15	.501	.0176	
303.15	.602	.02226	
303.15	.801	.03186	
303.15	1	.03518	
308.15	0	.0027	
308.15	.101	.00538	
308.15	.201	.00876	
308.15	.302	.01315	
308.15	.402	.01719	
308.15	.501	.02227	
308.15	.602	.02744	
308.15	.801	.03881	
308.15	1	.04239	
313.15	0	.00343	
313.15	.101	.00693	
313.15	.201	.01074	
313.15	.302	.01541	
313.15	.402	.02075	
313.15	.501	.02648	
313.15	.602	.03346	
313.15	.801	.04639	
313.15	1	.04922	

System: acetone + n-butanol + 4'-(bromomethyl)-2-cyanobiphenyl; phases: Liquid, Crystal
Fixed: Pressure, kPa = 100
Property: Mole fraction of 4'-(bromomethyl)-2-cyanobiphenyl (Liquid); method: gravimetric method
Temperature, K	Solvent: Mole fraction of acetone	Mole fraction of 4'-(bromomethyl)-2-cyanobiphenyl	uncertainty
278.15	0	.00033	
278.15	.101	.00134	
278.15	.201	.00243	
278.15	.302	.00363	
278.15	.402	.00527	
278.15	.501	.00754	
278.15	.602	.00823	
278.15	.801	.01449	
278.15	1	.01507	
283.15	.101	.00167	
283.15	.201	.00308	
283.15	.302	.00458	
283.15	.402	.00653	
283.15	.501	.00874	
283.15	.602	.00902	
283.15	.801	.01639	
283.15	1	.01688	
288.15	.101	.00199	
288.15	.201	.00371	
288.15	.302	.00508	
288.15	.402	.00791	
288.15	.501	.0099	
288.15	.602	.01031	
288.15	.801	.01946	
288.15	1	.02137	
293.15	.101	.00297	
293.15	.201	.00475	
293.15	.302	.00711	
293.15	.402	.00926	
293.15	.501	.01338	
293.15	.602	.01475	
293.15	.801	.02276	
293.15	1	.02409	
298.15	.101	.00376	
298.15	.201	.00584	
298.15	.302	.00863	
298.15	.402	.01178	
298.15	.501	.01529	
298.15	.602	.0162	
298.15	.801	.02739	
298.15	1	.03062	
303.15	.101	.0043	
303.15	.201	.00704	
303.15	.302	.00945	
303.15	.402	.01398	
303.15	.501	.01766	
303.15	.602	.02065	
303.15	.801	.03331	
303.15	1	.03518	
308.15	.101	.00593	
308.15	.201	.00914	
308.15	.302	.01279	
308.15	.402	.01777	
308.15	.501	.02209	
308.15	.602	.02547	
308.15	.801	.04018	
308.15	1	.04239	
313.15	.101	.00767	
313.15	.201	.01132	
313.15	.302	.01624	
313.15	.402	.02145	
313.15	.501	.02785	
313.15	.602	.03248	
313.15	.801	.04725	
313.15	1	.04922	

System: ethanol + 4'-(bromomethyl)-2-cyanobiphenyl; phases: Liquid, Crystal
Property: Mole fraction of 4'-(bromomethyl)-2-cyanobiphenyl (Liquid); method: gravimetric method
Temperature, K	Pressure, kPa	Mole fraction of 4'-(bromomethyl)-2-cyanobiphenyl	uncertainty
278.15	100	.00054	

System: acetone + 4'-(bromomethyl)-2-cyanobiphenyl; phases: Liquid, Crystal
Property: Mole fraction of 4'-(bromomethyl)-2-cyanobiphenyl (Liquid); method: gravimetric method
Temperature, K	Pressure, kPa	Mole fraction of 4'-(bromomethyl)-2-cyanobiphenyl	uncertainty
278.15	100	.01507	
283.15	100	.01688	
288.15	100	.02137	
293.15	100	.02409	
298.15	100	.03062	
303.15	100	.03518	
308.15	100	.04239	
313.15	100	.04922	

System: n-propanol + 4'-(bromomethyl)-2-cyanobiphenyl; phases: Liquid, Crystal
Property: Mole fraction of 4'-(bromomethyl)-2-cyanobiphenyl (Liquid); method: gravimetric method
Temperature, K	Pressure, kPa	Mole fraction of 4'-(bromomethyl)-2-cyanobiphenyl	uncertainty
278.15	100	.00052	
283.15	100	.00075	
288.15	100	.00099	
293.15	100	.00126	
298.15	100	.00181	
303.15	100	.00226	
308.15	100	.0027	
313.15	100	.00343	

System: n-butanol + 4'-(bromomethyl)-2-cyanobiphenyl; phases: Liquid, Crystal
Property: Mole fraction of 4'-(bromomethyl)-2-cyanobiphenyl (Liquid); method: gravimetric method
Temperature, K	Pressure, kPa	Mole fraction of 4'-(bromomethyl)-2-cyanobiphenyl	uncertainty
278.15	100	.00033	
