Measured thermophysical data. Evaluation of [bmim][PF6] as an ionic solvent for the extraction of propylbenzene from aliphatic compounds
Source: J. Chem. Thermodyn., 2012, 10.1016/j.jct.2012.05.010
Compound 1: [bmim][PF6], C8H15F6N2P
Compound 2: propylbenzene, C9H12
Compound 3: n-dodecane, C12H26, purity 99%
Compound 4: tetradecane, C14H30, purity 99%

System: [bmim][PF6]; phases: Liquid
Fixed: Pressure, kPa = 101.325
Property: Refractive index (Na D-line) (Liquid); method: Standard Abbe refractometry
Temperature, K	Refractive index (Na D-line)	uncertainty
293.15	1.3803	.0001

System: propylbenzene; phases: Liquid
Fixed: Pressure, kPa = 101.325
Property: Refractive index (Na D-line) (Liquid); method: Standard Abbe refractometry
Temperature, K	Refractive index (Na D-line)	uncertainty
293.15	1.4915	.0001

System: n-dodecane; phases: Liquid
Fixed: Pressure, kPa = 101.325
Property: Refractive index (Na D-line) (Liquid); method: Standard Abbe refractometry
Temperature, K	Refractive index (Na D-line)	uncertainty
293.15	1.422	.0001

System: tetradecane; phases: Liquid
Fixed: Pressure, kPa = 101.325
Property: Refractive index (Na D-line) (Liquid); method: Standard Abbe refractometry
Temperature, K	Refractive index (Na D-line)	uncertainty
293.15	1.4289	.0001

System: propylbenzene + n-dodecane + [bmim][PF6]; phases: Liquid mixture 2, Liquid mixture 1
Property: Mole fraction of n-dodecane (Liquid mixture 2); method: Chromatography
Property: Mole fraction of n-dodecane (Liquid mixture 1); method: Chromatography
Property: Mole fraction of propylbenzene (Liquid mixture 1); method: Chromatography
Temperature, K	Pressure, kPa	Mole fraction of propylbenzene	Mole fraction of n-dodecane	uncertainty	Mole fraction of n-dodecane	uncertainty	Mole fraction of propylbenzene	uncertainty
313	101.325	.0462	.015	.0005	.8863	.0005	.1137	.0005
313	101.325	.0873	.0153	.0005	.7951	.0005	.2049	.0005
313	101.325	.1273	.0156	.0005	.722	.0005	.278	.0005
313	101.325	.1639	.0159	.0005	.6611	.0005	.3389	.0005
313	101.325	.2006	.0162	.0005	.611	.0005	.389	.0005
313	101.325	.2321	.0165	.0005	.5671	.0005	.4329	.0005
313	101.325	.261	.0168	.0005	.5289	.0005	.4711	.0005
313	101.325	.2897	.0171	.0005	.4962	.0005	.5038	.0005
313	101.325	.3137	.0174	.0005	.4663	.0005	.5337	.0005
313	101.325	.3395	.0177	.0005	.441	.0005	.559	.0005
313	101.325	.3644	.018	.0005	.4185	.0005	.5815	.0005
333	101.325	.0478	.0171	.0005	.8872	.0005	.1128	.0005
333	101.325	.0912	.0175	.0005	.7971	.0005	.2029	.0005
333	101.325	.1312	.0181	.0005	.7238	.0005	.2762	.0005
333	101.325	.1722	.0185	.0005	.6648	.0005	.3352	.0005
333	101.325	.2068	.0186	.0005	.6135	.0005	.3865	.0005
333	101.325	.2402	.0188	.0005	.5701	.0005	.4299	.0005
333	101.325	.2687	.019	.0005	.5316	.0005	.4684	.0005
333	101.325	.2991	.0193	.0005	.4994	.0005	.5006	.0005
333	101.325	.327	.0196	.0005	.4708	.0005	.5292	.0005
333	101.325	.3528	.0196	.0005	.4453	.0005	.5547	.0005
333	101.325	.3774	.0199	.0005	.4226	.0005	.5774	.0005

System: propylbenzene + tetradecane + [bmim][PF6]; phases: Liquid mixture 2, Liquid mixture 1
Property: Mole fraction of tetradecane (Liquid mixture 2); method: Chromatography
Property: Mole fraction of tetradecane (Liquid mixture 1); method: Chromatography
Property: Mole fraction of propylbenzene (Liquid mixture 1); method: Chromatography
Temperature, K	Pressure, kPa	Mole fraction of propylbenzene	Mole fraction of tetradecane	uncertainty	Mole fraction of tetradecane	uncertainty	Mole fraction of propylbenzene	uncertainty
313	101.325	.0587	.0086	.0005	.8814	.0005	.1186	.0005
313	101.325	.1104	.0089	.0005	.7875	.0005	.2125	.0005
313	101.325	.1544	.0092	.0005	.7102	.0005	.2898	.0005
313	101.325	.1946	.0095	.0005	.6469	.0005	.3531	.0005
313	101.325	.2281	.0098	.0005	.5924	.0005	.4076	.0005
313	101.325	.2624	.0101	.0005	.5479	.0005	.4521	.0005
313	101.325	.2947	.0104	.0005	.51	.0005	.49	.0005
313	101.325	.326	.0107	.0005	.4777	.0005	.5223	.0005
313	101.325	.3587	.011	.0005	.4509	.0005	.5491	.0005
313	101.325	.3891	.0113	.0005	.4273	.0005	.5727	.0005
313	101.325	.4208	.0116	.0005	.4077	.0005	.5923	.0005
333	101.325	.0607	.0098	.0005	.8828	.0005	.1172	.0005
333	101.325	.1123	.0111	.0005	.7886	.0005	.2114	.0005
333	101.325	.1587	.0117	.0005	.7126	.0005	.2874	.0005
333	101.325	.2001	.0121	.0005	.6496	.0005	.3504	.0005
333	101.325	.2373	.0122	.0005	.5967	.0005	.4033	.0005
333	101.325	.2724	.0124	.0005	.5523	.0005	.4477	.0005
333	101.325	.3031	.0126	.0005	.5135	.0005	.4865	.0005
333	101.325	.3338	.0129	.0005	.4807	.0005	.5193	.0005
333	101.325	.3639	.0132	.0005	.4528	.0005	.5472	.0005
333	101.325	.3941	.0132	.0005	.4291	.0005	.5709	.0005
333	101.325	.4234	.0135	.0005	.4085	.0005	.5915	.0005
