Measured thermophysical data. Density, excess properties, electrical conductivity and viscosity of 1-butyl-3-methylimidazolium bis(trifluoromethylsulfonyl)imide + .gamma.-butyrolactone binary mixtures
Source: J. Chem. Thermodyn., 2014, 10.1016/j.jct.2014.03.025
Compound 1: 1-butyl-3-methylimidazolium bis[(trifluoromethyl)sulfonyl]amide, C10H15F6N3O4S2, purity 99%
Compound 2: .gamma.-butyrolactone, C4H6O2, purity 99%

System: 1-butyl-3-methylimidazolium bis[(trifluoromethyl)sulfonyl]amide; phases: Liquid
Fixed: Pressure, kPa = 101.325
Property: Mass density, kg/m3 (Liquid); method: Vibrating tube method
Temperature, K	Mass density, kg/m3	uncertainty
293.15	1439.27	.05
298.15	1434.3	.05
303.15	1429.4	.05
308.15	1424.57	.05
313.15	1419.61	.05
318.15	1414.67	.05
323.15	1409.65	.05

System: 1-butyl-3-methylimidazolium bis[(trifluoromethyl)sulfonyl]amide; phases: Liquid
Fixed: Pressure, kPa = 101.325
Property: Viscosity, Pa*s (Liquid); method: Cone and plate viscometry
Temperature, K	Viscosity, Pa*s	uncertainty
293.15	.06208	.0006208
298.15	.05005	.0005005
303.15	.04124	.0004124
313.15	.02828	.0002828
323.15	.02064	.0002064
308.15	.03365	.0003365
318.15	.02391	.0002391

System: 1-butyl-3-methylimidazolium bis[(trifluoromethyl)sulfonyl]amide; phases: Liquid
Fixed: Pressure, kPa = 101.325
Property: Electrical conductivity, S/m (Liquid); method: Direct current cell with electrodes
Temperature, K	Electrical conductivity, S/m	uncertainty
293.15	.337	.005055
298.15	.4	.006
303.15	.472	.00708
308.15	.552	.00828
313.15	.64	.0096
318.15	.733	.010995
323.15	.835	.012525

System: .gamma.-butyrolactone; phases: Liquid
Fixed: Pressure, kPa = 101.325
Property: Mass density, kg/m3 (Liquid); method: Vibrating tube method
Temperature, K	Mass density, kg/m3	uncertainty
293.15	1129.2	.05
298.15	1124.26	.05
303.15	1119.33	.05
308.15	1114.31	.05
313.15	1109.23	.05
318.15	1104.1	.05
323.15	1098.88	.05

System: .gamma.-butyrolactone; phases: Liquid
Fixed: Pressure, kPa = 101.325
Property: Viscosity, Pa*s (Liquid); method: Cone and plate viscometry
Temperature, K	Viscosity, Pa*s	uncertainty
293.15	.00192	.0000192
298.15	.00173	.0000173
303.15	.00163	.0000163
308.15	.00152	.0000152
313.15	.00142	.0000142
318.15	.00135	.0000135
323.15	.0013	.000013

System: .gamma.-butyrolactone; phases: Liquid
Property: Electrical conductivity, S/m (Liquid); method: Direct current cell with electrodes
Temperature, K	Pressure, kPa	Electrical conductivity, S/m	uncertainty
293.15	100	.001	.000015
298.15	100	.001	.000015
303.15	100	.001	.000015
308.15	100	.001	.000015
313.15	100	.001	.000015
318.15	100	.001	.000015
323.15	100	.002	.00003

System: .gamma.-butyrolactone + 1-butyl-3-methylimidazolium bis[(trifluoromethyl)sulfonyl]amide; phases: Liquid
Fixed: Pressure, kPa = 100
Property: Mass density, kg/m3 (Liquid); method: Vibrating tube method
Temperature, K	Mole fraction of 1-butyl-3-methylimidazolium bis[(trifluoromethyl)sulfonyl]amide	Mass density, kg/m3	uncertainty
293.15	.0151	1146.51	.05
293.15	.0507	1182.25	.05
293.15	.076	1204.09	.05
293.15	.0954	1219.11	.05
293.15	.2013	1282.69	.05
293.15	.2999	1323.32	.05
293.15	.3511	1339.88	.05
293.15	.3997	1353.48	.05
293.15	.5036	1377.32	.05
293.15	.5975	1394.28	.05
293.15	.6964	1408.78	.05
293.15	.8026	1421.48	.05
293.15	.9067	1431.68	.05
293.15	.9477	1435.17	.05
298.15	.0151	1141.57	.05
298.15	.0507	1177.3	.05
298.15	.076	1199.15	.05
298.15	.0954	1214.17	.05
298.15	.2013	1277.81	.05
298.15	.2999	1318.42	.05
298.15	.3511	1334.99	.05
298.15	.3997	1348.59	.05
298.15	.5036	1372.4	.05
298.15	.5975	1389.35	.05
298.15	.6964	1403.85	.05
298.15	.8026	1416.54	.05
298.15	.9067	1426.74	.05
298.15	.9477	1430.24	.05
303.15	.0151	1136.63	.05
303.15	.0507	1172.34	.05
303.15	.076	1194.17	.05
303.15	.0954	1209.19	.05
303.15	.2013	1272.82	.05
303.15	.2999	1313.44	.05
303.15	.3511	1330.04	.05
303.15	.3997	1343.63	.05
303.15	.5036	1367.47	.05
303.15	.5975	1384.43	.05
303.15	.6964	1398.94	.05
303.15	.8026	1411.63	.05
303.15	.9067	1421.83	.05
303.15	.9477	1425.34	.05
308.15	.0151	1131.61	.05
308.15	.0507	1167.31	.05
308.15	.076	1189.15	.05
308.15	.0954	1204.17	.05
308.15	.2013	1267.84	.05
308.15	.2999	1308.49	.05
308.15	.3511	1325.09	.05
308.15	.3997	1338.7	.05
308.15	.5036	1362.57	.05
308.15	.5975	1379.55	.05
308.15	.6964	1394.08	.05
308.15	.8026	1406.79	.05
308.15	.9067	1417.01	.05
308.15	.9477	1420.51	.05
313.15	.0151	1126.5	.05
313.15	.0507	1162.3	.05
313.15	.076	1184.1	.05
313.15	.0954	1199.1	.05
313.15	.2013	1262.8	.05
313.15	.2999	1303.5	.05
313.15	.3511	1320.1	.05
313.15	.3997	1333.7	.05
313.15	.5036	1357.6	.05
313.15	.5975	1374.6	.05
313.15	.6964	1389.1	.05
313.15	.8026	1401.8	.05
313.15	.9067	1412.1	.05
313.15	.9477	1415.6	.05
318.15	.0151	1121.4	.05
318.15	.0507	1157.1	.05
318.15	.076	1179	.05
318.15	.0954	1194	.05
318.15	.2013	1257.7	.05
318.15	.2999	1298.4	.05
318.15	.3511	1315	.05
318.15	.3997	1328.7	.05
318.15	.5036	1352.6	.05
318.15	.5975	1369.6	.05
318.15	.6964	1384.1	.05
318.15	.8026	1396.9	.05
318.15	.9067	1407.1	.05
318.15	.9477	1410.6	.05
323.15	.0151	1116.18	.05
323.15	.0507	1151.93	.05
323.15	.076	1173.75	.05
323.15	.0954	1188.81	.05
323.15	.2013	1252.6	.05
323.15	.2999	1293.31	.05
323.15	.3511	1309.88	.05
323.15	.3997	1323.55	.05
323.15	.5036	1347.47	.05
323.15	.5975	1364.51	.05
323.15	.6964	1379.08	.05
323.15	.8026	1391.84	.05
323.15	.9067	1402.1	.05
323.15	.9477	1405.6	.05
293.15	1	1439.27	.05
298.15	1	1434.3	.05
303.15	1	1429.4	.05
308.15	1	1424.57	.05
313.15	1	1419.61	.05
318.15	1	1414.67	.05
323.15	1	1409.65	.05
293.15	0	1129.2	.05
298.15	0	1124.26	.05
303.15	0	1119.33	.05
308.15	0	1114.31	.05
313.15	0	1109.23	.05
318.15	0	1104.1	.05
323.15	0	1098.88	.05

System: .gamma.-butyrolactone + 1-butyl-3-methylimidazolium bis[(trifluoromethyl)sulfonyl]amide; phases: Liquid
Fixed: Pressure, kPa = 100
Property: Viscosity, Pa*s (Liquid); method: Cone and plate viscometry
Temperature, K	Mole fraction of 1-butyl-3-methylimidazolium bis[(trifluoromethyl)sulfonyl]amide	Viscosity, Pa*s	uncertainty
293.15	0	.00192	.0000192
293.15	.1005	.00349	.0000349
293.15	.2001	.00553	.0000553
293.15	.2979	.00854	.0000854
293.15	.4021	.01226	.0001226
293.15	.4979	.01737	.0001737
293.15	.5999	.02342	.0002342
293.15	.7008	.02986	.0002986
293.15	.8016	.03716	.0003716
293.15	.8995	.04639	.0004639
293.15	1	.06208	.0006208
298.15	0	.00173	.0000173
298.15	.1005	.00326	.0000326
298.15	.2001	.00504	.0000504
298.15	.2979	.00758	.0000758
298.15	.4021	.0107	.000107
298.15	.4979	.01484	.0001484
298.15	.5999	.01975	.0001975
298.15	.7008	.02497	.0002497
298.15	.8016	.03092	.0003092
298.15	.8995	.03833	.0003833
298.15	1	.05005	.0005005
303.15	0	.00163	.0000163
303.15	.1005	.00297	.0000297
303.15	.2001	.00455	.0000455
303.15	.2979	.00667	.0000667
303.15	.4021	.00932	.0000932
303.15	.4979	.01276	.0001276
303.15	.5999	.01668	.0001668
303.15	.7008	.02099	.0002099
303.15	.8016	.02569	.0002569
303.15	.8995	.0318	.000318
303.15	1	.04124	.0004124
308.15	0	.00152	.0000152
308.15	.1005	.00276	.0000276
308.15	.2001	.00412	.0000412
308.15	.2979	.006	.00006
308.15	.4021	.00818	.0000818
308.15	.4979	.01104	.0001104
308.15	.5999	.01435	.0001435
308.15	.7008	.0179	.000179
308.15	.8016	.02198	.0002198
308.15	.8995	.02688	.0002688
308.15	1	.03365	.0003365
313.15	0	.00142	.0000142
313.15	.1005	.00255	.0000255
313.15	.2001	.00378	.0000378
313.15	.2979	.00541	.0000541
313.15	.4021	.00726	.0000726
313.15	.4979	.00962	.0000962
313.15	.5999	.01232	.0001232
313.15	.7008	.01526	.0001526
313.15	.8016	.01848	.0001848
313.15	.8995	.02269	.0002269
313.15	1	.02828	.0002828
318.15	0	.00135	.0000135
318.15	.1005	.00235	.0000235
318.15	.2001	.00344	.0000344
318.15	.2979	.00484	.0000484
318.15	.4021	.00649	.0000649
318.15	.4979	.00852	.0000852
318.15	.5999	.01082	.0001082
318.15	.7008	.01324	.0001324
318.15	.8016	.01586	.0001586
318.15	.8995	.01931	.0001931
318.15	1	.02391	.0002391
323.15	0	.0013	.000013
323.15	.1005	.00218	.0000218
323.15	.2001	.00311	.0000311
323.15	.2979	.00444	.0000444
323.15	.4021	.00583	.0000583
323.15	.4979	.00751	.0000751
323.15	.5999	.00947	.0000947
323.15	.7008	.01157	.0001157
323.15	.8016	.01386	.0001386
323.15	.8995	.01654	.0001654
323.15	1	.02064	.0002064

System: .gamma.-butyrolactone + 1-butyl-3-methylimidazolium bis[(trifluoromethyl)sulfonyl]amide; phases: Liquid
Fixed: Pressure, kPa = 100
Property: Electrical conductivity, S/m (Liquid); method: Direct current cell with electrodes
Temperature, K	Mole fraction of 1-butyl-3-methylimidazolium bis[(trifluoromethyl)sulfonyl]amide	Electrical conductivity, S/m	uncertainty
293.15	.0151	.411	.006165
293.15	.05	1.039	.015585
293.15	.1005	1.342	.02013
293.15	.1504	1.389	.020835
293.15	.2001	1.34	.0201
293.15	.2979	1.129	.016935
293.15	.4021	.797	.011955
293.15	.4979	.637	.009555
293.15	.5999	.519	.007785
293.15	.7008	.457	.006855
293.15	.8016	.388	.00582
293.15	.8995	.347	.005205
293.15	1	.337	.005055
298.15	.0151	.444	.00666
298.15	.05	1.135	.017025
298.15	.1005	1.476	.02214
298.15	.1504	1.534	.02301
298.15	.2001	1.501	.022515
298.15	.2979	1.295	.019425
298.15	.4021	.928	.01392
298.15	.4979	.744	.01116
298.15	.5999	.618	.00927
298.15	.7008	.546	.00819
298.15	.8016	.469	.007035
298.15	.8995	.428	.00642
298.15	1	.4	.006
303.15	.0151	.477	.007155
303.15	.05	1.23	.01845
303.15	.1005	1.61	.02415
303.15	.1504	1.688	.02532
303.15	.2001	1.653	.024795
303.15	.2979	1.433	.021495
303.15	.4021	1.054	.01581
303.15	.4979	.853	.012795
303.15	.5999	.72	.0108
303.15	.7008	.642	.00963
303.15	.8016	.552	.00828
303.15	.8995	.501	.007515
303.15	1	.472	.00708
308.15	.0151	.509	.007635
308.15	.05	1.32	.0198
308.15	.1005	1.746	.02619
308.15	.1504	1.846	.02769
308.15	.2001	1.812	.02718
308.15	.2979	1.632	.02448
308.15	.4021	1.272	.01908
308.15	.4979	.981	.014715
308.15	.5999	.825	.012375
308.15	.7008	.745	.011175
308.15	.8016	.642	.00963
308.15	.8995	.586	.00879
308.15	1	.552	.00828
313.15	.0151	.542	.00813
313.15	.05	1.417	.021255
313.15	.1005	1.883	.028245
313.15	.1504	2.008	.03012
313.15	.2001	1.981	.029715
313.15	.2979	1.81	.02715
313.15	.4021	1.447	.021705
313.15	.4979	1.202	.01803
313.15	.5999	1.001	.015015
313.15	.7008	.854	.01281
313.15	.8016	.753	.011295
313.15	.8995	.68	.0102
313.15	1	.64	.0096
318.15	.0151	.576	.00864
318.15	.05	1.515	.022725
318.15	.1005	2.023	.030345
318.15	.1504	2.168	.03252
318.15	.2001	2.152	.03228
318.15	.2979	1.99	.02985
318.15	.4021	1.643	.024645
318.15	.4979	1.404	.02106
318.15	.5999	1.187	.017805
318.15	.7008	.965	.014475
318.15	.8016	.85	.01275
318.15	.8995	.768	.01152
318.15	1	.733	.010995
323.15	.0151	.609	.009135
323.15	.05	1.616	.02424
323.15	.1005	2.166	.03249
323.15	.1504	2.336	.03504
323.15	.2001	2.372	.03558
323.15	.2979	2.206	.03309
323.15	.4021	1.911	.028665
323.15	.4979	1.683	.025245
323.15	.5999	1.456	.02184
323.15	.7008	1.241	.018615
323.15	.8016	1.031	.015465
323.15	.8995	.898	.01347
323.15	1	.835	.012525
293.15	0	.001	.000015
298.15	0	.001	.000015
303.15	0	.001	.000015
308.15	0	.001	.000015
313.15	0	.001	.000015
318.15	0	.001	.000015
323.15	0	.002	.00003
