Measured thermophysical data. Solvation of ionic liquids based on N-methyl-N-alkyl morpholinium cations in dimethylsulfoxide - volumetric and compressibility studies
Source: J. Chem. Thermodyn., 2015, 10.1016/j.jct.2015.04.006
Compound 1: dimethyl sulfoxide, C2H6OS, purity 99.9%
Compound 2: 4-ethyl-4-methylmorpholin-4-ium bis((trifluoromethyl)sulfonyl)amide, C9H16F6N2O5S2, purity 99%
Compound 3: 4-butyl-4-methylmorpholin-4-ium bis((trifluoromethyl)sulfonyl)amide, C11H20F6N2O5S2, purity 99%
Compound 4: 4-methyl-4-octylmorpholin-4-ium bis((trifluoromethyl)sulfonyl)amide, C15H28F6N2O5S2, purity 99%
Compound 5: 4-decyl-4-methylmorpholin-4-ium bis((trifluoromethyl)sulfonyl)amide, C17H32F6N2O5S2, purity 99%

System: dimethyl sulfoxide; phases: Liquid
Property: Mass density, kg/m3 (Liquid); method: Vibrating tube method
Temperature, K	Pressure, kPa	Mass density, kg/m3	uncertainty
298.15	100	1095.282	.05
303.15	100	1090.262	.05
308.15	100	1085.243	.05
313.15	100	1080.223	.05
318.15	100	1075.208	.05

System: dimethyl sulfoxide; phases: Liquid
Fixed: Frequency, MHz = 3
Property: Speed of sound, m/s (Liquid); method: Sing-around technique in a fixed-path interferometer
Temperature, K	Pressure, kPa	Speed of sound, m/s	uncertainty
298.15	100	1484.63	.5
303.15	100	1467.69	.5
308.15	100	1450.84	.5
313.15	100	1434.11	.5
318.15	100	1417.52	.5

System: dimethyl sulfoxide + 4-ethyl-4-methylmorpholin-4-ium bis((trifluoromethyl)sulfonyl)amide; phases: Liquid
Fixed: Pressure, kPa = 100
Property: Mass density, kg/m3 (Liquid); method: Vibrating tube method
Temperature, K	Molality, mol/kg of 4-ethyl-4-methylmorpholin-4-ium bis((trifluoromethyl)sulfonyl)amide	Mass density, kg/m3	uncertainty
298.15	0	1095.283	.05
298.15	.01623	1097.169	.05
298.15	.02434	1098.107	.05
298.15	.03937	1099.831	.05
298.15	.04917	1100.947	.05
298.15	.063	1102.513	.05
298.15	.07874	1104.28	.05
298.15	.09932	1106.566	.05
298.15	.1197	1108.804	.05
298.15	.1515	1112.247	.05
303.15	0	1090.262	.05
303.15	.01623	1092.152	.05
303.15	.02434	1093.091	.05
303.15	.03937	1094.816	.05
303.15	.04917	1095.934	.05
303.15	.063	1097.501	.05
303.15	.07874	1099.27	.05
303.15	.09932	1101.559	.05
303.15	.1197	1103.796	.05
303.15	.1515	1107.244	.05
308.15	0	1085.242	.05
308.15	.01623	1087.132	.05
308.15	.02434	1088.072	.05
308.15	.03937	1089.8	.05
308.15	.04917	1090.92	.05
308.15	.063	1092.489	.05
308.15	.07874	1094.261	.05
308.15	.09932	1096.554	.05
308.15	.1197	1098.794	.05
308.15	.1515	1102.244	.05
313.15	0	1080.222	.05
313.15	.01623	1082.118	.05
313.15	.02434	1083.059	.05
313.15	.03937	1084.79	.05
313.15	.04917	1085.91	.05
313.15	.063	1087.482	.05
313.15	.07874	1089.255	.05
313.15	.09932	1091.548	.05
313.15	.1197	1093.792	.05
313.15	.1515	1097.246	.05
318.15	0	1075.208	.05
318.15	.01623	1077.106	.05
318.15	.02434	1078.048	.05
318.15	.03937	1079.78	.05
318.15	.04917	1080.902	.05
318.15	.063	1082.475	.05
318.15	.07874	1084.249	.05
318.15	.09932	1086.546	.05
318.15	.1197	1088.792	.05
318.15	.1515	1092.248	.05

System: dimethyl sulfoxide + 4-ethyl-4-methylmorpholin-4-ium bis((trifluoromethyl)sulfonyl)amide; phases: Liquid
Fixed: Pressure, kPa = 100
Fixed: Frequency, MHz = 3
Property: Speed of sound, m/s (Liquid); method: Sing-around technique in a fixed-path interferometer
Temperature, K	Molality, mol/kg of 4-ethyl-4-methylmorpholin-4-ium bis((trifluoromethyl)sulfonyl)amide	Speed of sound, m/s	uncertainty
298.15	0	1484.63	.5
298.15	.01623	1483.4	.5
298.15	.02434	1482.77	.5
298.15	.03937	1481.62	.5
298.15	.04917	1480.87	.5
298.15	.063	1479.82	.5
298.15	.07874	1478.62	.5
298.15	.09932	1477.05	.5
298.15	.1197	1475.55	.5
298.15	.1515	1473.18	.5
303.15	0	1467.68	.5
303.15	.01623	1466.49	.5
303.15	.02434	1465.89	.5
303.15	.03937	1464.76	.5
303.15	.04917	1464.04	.5
303.15	.063	1462.99	.5
303.15	.07874	1461.85	.5
303.15	.09932	1460.32	.5
303.15	.1197	1458.85	.5
303.15	.1515	1456.54	.5
308.15	0	1450.82	.5
308.15	.01623	1449.67	.5
308.15	.02434	1449.09	.5
308.15	.03937	1448	.5
308.15	.04917	1447.3	.5
308.15	.063	1446.3	.5
308.15	.07874	1445.18	.5
308.15	.09932	1443.69	.5
308.15	.1197	1442.27	.5
308.15	.1515	1440.05	.5
313.15	0	1434.11	.5
313.15	.01623	1432.97	.5
313.15	.02434	1432.4	.5
313.15	.03937	1431.35	.5
313.15	.04917	1430.67	.5
313.15	.063	1429.7	.5
313.15	.07874	1428.61	.5
313.15	.09932	1427.19	.5
313.15	.1197	1425.77	.5
313.15	.1515	1423.63	.5
318.15	0	1417.52	.5
318.15	.01623	1416.44	.5
318.15	.02434	1415.89	.5
318.15	.03937	1414.87	.5
318.15	.04917	1414.22	.5
318.15	.063	1413.28	.5
318.15	.07874	1412.22	.5
318.15	.09932	1410.85	.5
318.15	.1197	1409.49	.5
318.15	.1515	1407.41	.5

System: dimethyl sulfoxide + 4-butyl-4-methylmorpholin-4-ium bis((trifluoromethyl)sulfonyl)amide; phases: Liquid
Fixed: Pressure, kPa = 100
Property: Mass density, kg/m3 (Liquid); method: Vibrating tube method
Temperature, K	Molality, mol/kg of 4-butyl-4-methylmorpholin-4-ium bis((trifluoromethyl)sulfonyl)amide	Mass density, kg/m3	uncertainty
298.15	0	1095.283	.05
298.15	.01276	1096.617	.05
298.15	.01778	1097.139	.05
298.15	.02681	1098.075	.05
298.15	.04025	1099.457	.05
298.15	.05498	1100.959	.05
298.15	.06956	1102.43	.05
298.15	.08753	1104.227	.05
298.15	.1103	1106.473	.05
298.15	.1334	1108.726	.05
298.15	.1687	1112.096	.05
303.15	0	1090.262	.05
303.15	.01276	1091.599	.05
303.15	.01778	1092.122	.05
303.15	.02681	1093.06	.05
303.15	.04025	1094.445	.05
303.15	.05498	1095.95	.05
303.15	.06956	1097.424	.05
303.15	.08753	1099.223	.05
303.15	.1103	1101.475	.05
303.15	.1334	1103.73	.05
303.15	.1687	1107.105	.05
308.15	0	1085.243	.05
308.15	.01276	1086.584	.05
308.15	.01778	1087.108	.05
308.15	.02681	1088.046	.05
308.15	.04025	1089.433	.05
308.15	.05498	1090.94	.05
308.15	.06956	1092.418	.05
308.15	.08753	1094.22	.05
308.15	.1103	1096.475	.05
308.15	.1334	1098.735	.05
308.15	.1687	1102.118	.05
313.15	0	1080.223	.05
313.15	.01276	1081.565	.05
313.15	.01778	1082.09	.05
313.15	.02681	1083.031	.05
313.15	.04025	1084.421	.05
313.15	.05498	1085.93	.05
313.15	.06956	1087.411	.05
313.15	.08753	1089.216	.05
313.15	.1103	1091.478	.05
313.15	.1334	1093.737	.05
313.15	.1687	1097.127	.05
318.15	0	1075.207	.05
318.15	.01276	1076.551	.05
318.15	.01778	1077.077	.05
318.15	.02681	1078.02	.05
318.15	.04025	1079.413	.05
318.15	.05498	1080.926	.05
318.15	.06956	1082.409	.05
318.15	.08753	1084.219	.05
318.15	.1103	1086.483	.05
318.15	.1334	1088.746	.05
318.15	.1687	1092.143	.05

System: dimethyl sulfoxide + 4-butyl-4-methylmorpholin-4-ium bis((trifluoromethyl)sulfonyl)amide; phases: Liquid
Fixed: Pressure, kPa = 100
Fixed: Frequency, MHz = 3
Property: Speed of sound, m/s (Liquid); method: Sing-around technique in a fixed-path interferometer
Temperature, K	Molality, mol/kg of 4-butyl-4-methylmorpholin-4-ium bis((trifluoromethyl)sulfonyl)amide	Speed of sound, m/s	uncertainty
298.15	0	1484.63	.5
298.15	.01276	1483.5	.5
298.15	.01778	1483.05	.5
298.15	.02681	1482.24	.5
298.15	.04025	1481.05	.5
298.15	.05498	1479.74	.5
298.15	.06956	1478.46	.5
298.15	.08753	1476.9	.5
298.15	.1103	1474.96	.5
298.15	.1334	1472.93	.5
298.15	.1687	1470.01	.5
303.15	0	1467.69	.5
303.15	.01276	1466.59	.5
303.15	.01778	1466.15	.5
303.15	.02681	1465.37	.5
303.15	.04025	1464.19	.5
303.15	.05498	1462.93	.5
303.15	.06956	1461.67	.5
303.15	.08753	1460.14	.5
303.15	.1103	1458.24	.5
303.15	.1334	1456.26	.5
303.15	.1687	1453.39	.5
308.15	0	1450.84	.5
308.15	.01276	1449.77	.5
308.15	.01778	1449.34	.5
308.15	.02681	1448.58	.5
308.15	.04025	1447.45	.5
308.15	.05498	1446.2	.5
308.15	.06956	1444.98	.5
308.15	.08753	1443.49	.5
308.15	.1103	1441.64	.5
308.15	.1334	1439.68	.5
308.15	.1687	1436.89	.5
313.15	0	1434.1	.5
313.15	.01276	1433.06	.5
313.15	.01778	1432.64	.5
313.15	.02681	1431.9	.5
313.15	.04025	1430.79	.5
313.15	.05498	1429.58	.5
313.15	.06956	1428.39	.5
313.15	.08753	1426.93	.5
313.15	.1103	1425.09	.5
313.15	.1334	1423.3	.5
313.15	.1687	1420.5	.5
318.15	0	1417.52	.5
318.15	.01276	1416.51	.5
318.15	.01778	1416.11	.5
318.15	.02681	1415.38	.5
318.15	.04025	1414.31	.5
318.15	.05498	1413.13	.5
318.15	.06956	1411.98	.5
318.15	.08753	1410.57	.5
318.15	.1103	1408.81	.5
318.15	.1334	1407.05	.5
318.15	.1687	1404.4	.5

System: dimethyl sulfoxide + 4-methyl-4-octylmorpholin-4-ium bis((trifluoromethyl)sulfonyl)amide; phases: Liquid
Fixed: Pressure, kPa = 100
Property: Mass density, kg/m3 (Liquid); method: Vibrating tube method
Temperature, K	Molality, mol/kg of 4-methyl-4-octylmorpholin-4-ium bis((trifluoromethyl)sulfonyl)amide	Mass density, kg/m3	uncertainty
298.15	0	1095.282	.05
298.15	.0104	1096.189	.05
298.15	.01752	1096.806	.05
298.15	.0266	1097.589	.05
298.15	.03779	1098.547	.05
298.15	.04989	1099.573	.05
298.15	.06889	1101.166	.05
298.15	.08629	1102.604	.05
298.15	.1068	1104.285	.05
298.15	.1403	1106.963	.05
298.15	.1703	1109.308	.05
303.15	0	1090.262	.05
303.15	.0104	1091.173	.05
303.15	.01752	1091.793	.05
303.15	.0266	1092.579	.05
303.15	.03779	1093.541	.05
303.15	.04989	1094.571	.05
303.15	.06889	1096.172	.05
303.15	.08629	1097.617	.05
303.15	.1068	1099.3	.05
303.15	.1403	1101.992	.05
303.15	.1703	1104.341	.05
308.15	0	1085.242	.05
308.15	.0104	1086.157	.05
308.15	.01752	1086.779	.05
308.15	.0266	1087.568	.05
308.15	.03779	1088.534	.05
308.15	.04989	1089.569	.05
308.15	.06889	1091.175	.05
308.15	.08629	1092.625	.05
308.15	.1068	1094.318	.05
308.15	.1403	1097.017	.05
308.15	.1703	1099.375	.05
313.15	0	1080.224	.05
313.15	.0104	1081.143	.05
313.15	.01752	1081.768	.05
313.15	.0266	1082.56	.05
313.15	.03779	1083.53	.05
313.15	.04989	1084.569	.05
313.15	.06889	1086.181	.05
313.15	.08629	1087.637	.05
313.15	.1068	1089.337	.05
313.15	.1403	1092.042	.05
313.15	.1703	1094.41	.05
318.15	0	1075.209	.05
318.15	.0104	1076.132	.05
318.15	.01752	1076.76	.05
318.15	.0266	1077.555	.05
318.15	.03779	1078.529	.05
318.15	.04989	1079.573	.05
318.15	.06889	1081.192	.05
318.15	.08629	1082.655	.05
318.15	.1068	1084.361	.05
318.15	.1403	1087.079	.05
318.15	.1703	1089.455	.05

System: dimethyl sulfoxide + 4-methyl-4-octylmorpholin-4-ium bis((trifluoromethyl)sulfonyl)amide; phases: Liquid
Fixed: Pressure, kPa = 100
Fixed: Frequency, MHz = 3
Property: Speed of sound, m/s (Liquid); method: Sing-around technique in a fixed-path interferometer
Temperature, K	Molality, mol/kg of 4-methyl-4-octylmorpholin-4-ium bis((trifluoromethyl)sulfonyl)amide	Speed of sound, m/s	uncertainty
298.15	0	1484.63	.5
298.15	.0104	1483.49	.5
298.15	.01752	1482.71	.5
298.15	.0266	1481.71	.5
298.15	.03779	1480.5	.5
298.15	.04989	1479.2	.5
298.15	.06889	1477.16	.5
298.15	.08629	1475.32	.5
298.15	.1068	1473.18	.5
298.15	.1403	1469.8	.5
298.15	.1703	1466.84	.5
303.15	0	1467.68	.5
303.15	.0104	1466.58	.5
303.15	.01752	1465.82	.5
303.15	.0266	1464.84	.5
303.15	.03779	1463.66	.5
303.15	.04989	1462.37	.5
303.15	.06889	1460.37	.5
303.15	.08629	1458.57	.5
303.15	.1068	1456.47	.5
303.15	.1403	1453.11	.5
303.15	.1703	1450.16	.5
308.15	0	1450.84	.5
308.15	.0104	1449.76	.5
308.15	.01752	1449.02	.5
308.15	.0266	1448.06	.5
308.15	.03779	1446.91	.5
308.15	.04989	1445.66	.5
308.15	.06889	1443.7	.5
308.15	.08629	1441.94	.5
308.15	.1068	1439.88	.5
308.15	.1403	1436.6	.5
308.15	.1703	1433.76	.5
313.15	0	1434.1	.5
313.15	.0104	1433.05	.5
313.15	.01752	1432.33	.5
313.15	.0266	1431.39	.5
313.15	.03779	1430.25	.5
313.15	.04989	1429.04	.5
313.15	.06889	1427.13	.5
313.15	.08629	1425.42	.5
313.15	.1068	1423.41	.5
313.15	.1403	1420.2	.5
313.15	.1703	1417.4	.5
318.15	0	1417.54	.5
318.15	.0104	1416.52	.5
318.15	.01752	1415.81	.5
318.15	.0266	1414.9	.5
318.15	.03779	1413.8	.5
318.15	.04989	1412.63	.5
318.15	.06889	1410.75	.5
318.15	.08629	1409.08	.5
318.15	.1068	1407.1	.5
318.15	.1403	1404	.5
318.15	.1703	1401.24	.5

System: dimethyl sulfoxide + 4-decyl-4-methylmorpholin-4-ium bis((trifluoromethyl)sulfonyl)amide; phases: Liquid
Fixed: Pressure, kPa = 100
Property: Mass density, kg/m3 (Liquid); method: Vibrating tube method
Temperature, K	Molality, mol/kg of 4-decyl-4-methylmorpholin-4-ium bis((trifluoromethyl)sulfonyl)amide	Mass density, kg/m3	uncertainty
298.15	0	1095.28	.05
298.15	.01176	1096.125	.05
298.15	.01722	1096.516	.05
298.15	.02663	1097.185	.05
298.15	.03854	1098.026	.05
298.15	.04719	1098.631	.05
298.15	.06681	1099.991	.05
298.15	.08548	1101.264	.05
298.15	.1072	1102.728	.05
298.15	.13	1104.238	.05
298.15	.165	1106.501	.05
303.15	0	1090.262	.05
303.15	.01176	1091.112	.05
303.15	.01722	1091.505	.05
303.15	.02663	1092.178	.05
303.15	.03854	1093.024	.05
303.15	.04719	1093.631	.05
303.15	.06681	1094.998	.05
303.15	.08548	1096.28	.05
303.15	.1072	1097.752	.05
303.15	.13	1099.27	.05
303.15	.165	1101.544	.05
308.15	0	1085.242	.05
308.15	.01176	1086.097	.05
308.15	.01722	1086.493	.05
308.15	.02663	1087.17	.05
308.15	.03854	1088.022	.05
308.15	.04719	1088.634	.05
308.15	.06681	1090.008	.05
308.15	.08548	1091.298	.05
308.15	.1072	1092.778	.05
308.15	.13	1094.303	.05
308.15	.165	1096.591	.05
313.15	0	1080.224	.05
313.15	.01176	1081.085	.05
313.15	.01722	1081.483	.05
313.15	.02663	1082.165	.05
313.15	.03854	1083.021	.05
313.15	.04719	1083.637	.05
313.15	.06681	1085.021	.05
313.15	.08548	1086.318	.05
313.15	.1072	1087.805	.05
313.15	.13	1089.34	.05
313.15	.165	1091.641	.05
318.15	0	1075.209	.05
318.15	.01176	1076.075	.05
318.15	.01722	1076.475	.05
318.15	.02663	1077.16	.05
318.15	.03854	1078.021	.05
318.15	.04719	1078.64	.05
318.15	.06681	1080.032	.05
318.15	.08548	1081.338	.05
318.15	.1072	1082.835	.05
318.15	.13	1084.372	.05
318.15	.165	1086.686	.05

System: dimethyl sulfoxide + 4-decyl-4-methylmorpholin-4-ium bis((trifluoromethyl)sulfonyl)amide; phases: Liquid
Fixed: Pressure, kPa = 100
Fixed: Frequency, MHz = 3
Property: Speed of sound, m/s (Liquid); method: Sing-around technique in a fixed-path interferometer
Temperature, K	Molality, mol/kg of 4-decyl-4-methylmorpholin-4-ium bis((trifluoromethyl)sulfonyl)amide	Speed of sound, m/s	uncertainty
298.15	0	1484.65	.5
298.15	.01176	1483.29	.5
298.15	.01722	1482.65	.5
298.15	.02663	1481.57	.5
298.15	.03854	1480.21	.5
298.15	.04719	1479.24	.5
298.15	.06681	1477.04	.5
298.15	.08548	1474.98	.5
298.15	.1072	1472.62	.5
298.15	.13	1470.2	.5
298.15	.165	1466.59	.5
303.15	0	1467.7	.5
303.15	.01176	1466.38	.5
303.15	.01722	1465.76	.5
303.15	.02663	1464.7	.5
303.15	.03854	1463.37	.5
303.15	.04719	1462.41	.5
303.15	.06681	1460.24	.5
303.15	.08548	1458.21	.5
303.15	.1072	1455.91	.5
303.15	.13	1453.56	.5
303.15	.165	1450.01	.5
308.15	0	1450.85	.5
308.15	.01176	1449.55	.5
308.15	.01722	1448.95	.5
308.15	.02663	1447.92	.5
308.15	.03854	1446.62	.5
308.15	.04719	1445.68	.5
308.15	.06681	1443.57	.5
308.15	.08548	1441.59	.5
308.15	.1072	1439.33	.5
308.15	.13	1437.02	.5
308.15	.165	1433.57	.5
313.15	0	1434.11	.5
313.15	.01176	1432.84	.5
313.15	.01722	1432.25	.5
313.15	.02663	1431.25	.5
313.15	.03854	1429.98	.5
313.15	.04719	1429.06	.5
313.15	.06681	1427	.5
313.15	.08548	1425.06	.5
313.15	.1072	1422.85	.5
313.15	.13	1420.61	.5
313.15	.165	1417.22	.5
318.15	0	1417.54	.5
318.15	.01176	1416.35	.5
318.15	.01722	1415.77	.5
318.15	.02663	1414.78	.5
318.15	.03854	1413.52	.5
318.15	.04719	1412.63	.5
318.15	.06681	1410.61	.5
318.15	.08548	1408.71	.5
318.15	.1072	1406.52	.5
318.15	.13	1404.28	.5
318.15	.165	1400.94	.5
