Measured thermophysical data. Isothermal (vapour + liquid) equilibrium data for binary systems of (n-hexane + CO2 or CHF3)
Source: J. Chem. Thermodyn., 2016, 10.1016/j.jct.2015.10.009
Compound 1: carbon dioxide, CO2
Compound 2: trifluoromethane, CHF3
Compound 3: hexane, C6H14, purity 99%

System: carbon dioxide; phases: Liquid, Gas
Property: Vapor or sublimation pressure, kPa (Liquid); method: Closed cell (Static) method
Temperature, K	Vapor or sublimation pressure, kPa	uncertainty
272.78	3476	7
277.83	3958	7
282.87	4487	7
287.92	5069	7
292.95	5705	7
297.99	6404	7
303.03	7176	7

System: trifluoromethane; phases: Liquid, Gas
Property: Vapor or sublimation pressure, kPa (Liquid); method: Closed cell (Static) method
Temperature, K	Vapor or sublimation pressure, kPa	uncertainty
267.81	2176	7
272.86	2497	7
277.9	2881	7
282.96	3269	7
287.99	3707	7
292.02	4084	7
293.04	4180	7
297.07	4605	7

System: hexane; phases: Liquid
Fixed: Pressure, kPa = 101.325
Property: Refractive index (Na D-line) (Liquid); method: Standard Abbe refractometry
Temperature, K	Refractive index (Na D-line)	uncertainty
298.15	1.3724	.0001

System: hexane; phases: Liquid
Fixed: Pressure, kPa = 101.325
Property: Mass density, kg/m3 (Liquid); method: Vibrating tube method
Temperature, K	Mass density, kg/m3	uncertainty
298.15	655.241	.05

System: hexane + carbon dioxide; phases: Liquid, Gas
Property: Vapor or sublimation pressure, kPa (Liquid); method: Closed cell (Static) method
Mole fraction of carbon dioxide	Temperature, K	Vapor or sublimation pressure, kPa	uncertainty
.254	303.08	2201	8
.338	303.08	2873	8
.435	303.09	3516	9
.517	303.09	4029	11
.624	303.09	4628	8
.709	303.1	5051	8
.741	303.1	5228	7
.874	303.1	5929	7
.935	303.1	6374	7
.966	303.09	6703	7
.985	303.1	6982	7
.111	313.11	1100	7
.262	313.13	2466	8
.35	313.11	3241	8
.474	313.12	4216	9
.572	313.11	4965	10
.708	313.12	5907	9
.782	313.13	6391	8
.864	313.1	6974	8
.886	313.11	7170	8
.899	313.11	7269	9
.935	313.11	7636	9
.94	313.12	7694	7
.128	323.05	1405	7
.202	323.06	2166	7
.281	323.04	2957	8
.352	323.07	3656	8
.415	323.03	4257	10
.447	323.06	4551	9
.554	323.05	5516	11
.659	323.05	6391	13
.736	323.05	7031	8
.807	323.04	7621	9
.859	323.03	8083	10
.887	323.05	8334	8

System: hexane + carbon dioxide; phases: Gas, Liquid
Property: Mole fraction of carbon dioxide (Gas); method: Chromatography
Mole fraction of carbon dioxide	Temperature, K	Mole fraction of carbon dioxide	uncertainty
.254	303.08	.9772	.0011
.338	303.08	.9774	.0008
.435	303.09	.9804	.0011
.517	303.09	.9813	.0007
.624	303.09	.9821	.0008
.709	303.1	.9835	.0005
.741	303.1	.9835	.0005
.874	303.1	.9854	.0005
.935	303.1	.9877	.0004
.966	303.09	.9901	.0003
.985	303.1	.9928	.0003
.111	313.11	.9413	.0025
.262	313.13	.9733	.0015
.35	313.11	.9757	.0013
.474	313.12	.9815	.0007
.572	313.11	.9823	.0007
.708	313.12	.9828	.0006
.782	313.13	.9825	.0006
.864	313.1	.9826	.0006
.886	313.11	.9876	.0005
.899	313.11	.985	.0009
.935	313.11	.9876	.0005
.94	313.12	.982	.0006
.128	323.05	.9489	.0018
.202	323.06	.9564	.002
.281	323.04	.965	.0019
.352	323.07	.9724	.0012
.415	323.03	.9731	.0009
.447	323.06	.9762	.0008
.554	323.05	.9735	.0016
.659	323.05	.9771	.0007
.736	323.05	.9744	.0008
.807	323.04	.9784	.0007
.859	323.03	.9816	.0007
.887	323.05	.9794	.0007

System: hexane + carbon dioxide; phases: Liquid, Gas
Property: Vapor or sublimation pressure, kPa (Liquid); method: Closed cell (Static) method
Temperature, K	Mole fraction of carbon dioxide	Vapor or sublimation pressure, kPa	uncertainty
303.18	.2983	2411	12
303.09	.4208	3353	12
303.2	.7884	5473	15
303.2	.9121	6164	15
313.21	.2983	2650	17
313.18	.4208	3777	20
313.23	.7884	6451	13
313.22	.9121	7365	8
323.21	.2983	2913	12
323.19	.4208	4259	18
323.26	.7884	7486	11
323.25	.9121	8617	9

System: trifluoromethane + hexane; phases: Liquid, Gas
Property: Vapor or sublimation pressure, kPa (Liquid); method: Closed cell (Static) method
Mole fraction of trifluoromethane	Temperature, K	Vapor or sublimation pressure, kPa	uncertainty
.173	272.86	1545	10
.243	272.85	1891	10
.255	272.86	1943	11
.335	272.87	2167	9
.444	272.87	2324	6
.873	272.87	2324	6
.953	272.87	2396	7
.98	272.87	2436	7
.987	272.86	2469	7
.101	282.95	1197	11
.162	282.95	1693	10
.225	282.94	2114	11
.237	282.95	2196	8
.432	282.96	2798	9
.616	282.96	2906	7
.68	282.95	2908	7
.885	282.96	2948	7
.952	282.96	3071	7
.981	282.95	3149	7
.986	282.95	3189	7
.088	293.03	1192	7
.107	293.02	1395	8
.13	293.02	1623	9
.195	293	2201	8
.299	293.03	2872	12
.354	293.02	3116	12
.52	293.03	3491	8
.879	293.02	3681	7
.964	293.02	3943	7
.987	293.03	4065	7
.086	303.1	1270	10
.25	303.11	2925	10
.351	303.11	3589	11
.382	303.11	3744	10
.58	303.09	4256	10
.66	303.11	4333	7
.726	303.1	4380	8
.874	303.12	4500	7
.942	303.11	4726	7
.962	303.12	4884	7
.974	303.11	4929	7
.061	313.21	1060	7
.23	313.2	3059	9
.367	313.19	4156	11
.464	313.19	4634	10
.551	313.19	4942	11
.63	313.2	5099	10
.71	313.2	5209	8
.864	313.2	5381	7
.931	313.21	5590	9
.955	313.2	5770	9

System: trifluoromethane + hexane; phases: Gas, Liquid
Property: Mole fraction of trifluoromethane (Gas); method: Chromatography
Mole fraction of trifluoromethane	Temperature, K	Mole fraction of trifluoromethane	uncertainty
.173	272.86	.9886	.0006
.243	272.85	.9888	.0008
.255	272.86	.9865	.0004
.335	272.87	.9889	.0008
.444	272.87	.9896	.0006
.873	272.87	.9896	.0006
.953	272.87	.9919	.0011
.98	272.87	.9949	.0007
.987	272.86	.997	.0005
.101	282.95	.9754	.0012
.162	282.95	.9807	.0007
.225	282.94	.9819	.0007
.237	282.95	.9837	.0011
.432	282.96	.9861	.0005
.616	282.96	.9868	.0007
.68	282.95	.9898	.0008
.885	282.96	.9911	.0003
.952	282.96	.99	.0006
.981	282.95	.9911	.0015
.986	282.95	.9946	.0003
.088	293.03	.9644	.0029
.107	293.02	.965	.0015
.13	293.02	.9624	.0011
.195	293	.9715	.0012
.299	293.03	.9775	.0009
.354	293.02	.9789	.0008
.52	293.03	.9818	.0009
.879	293.02	.9861	.001
.964	293.02	.9918	.0009
.987	293.03	.9951	.0005
.086	303.1	.9625	.0022
.25	303.11	.9793	.0012
.351	303.11	.9807	.0011
.382	303.11	.977	.0013
.58	303.09	.9801	.0007
.66	303.11	.9798	.0012
.726	303.1	.9788	.0007
.874	303.12	.982	.0012
.942	303.11	.981	.0008
.962	303.12	.9859	.0006
.974	303.11	.9914	.0003
.061	313.21	.964	.0016
.23	313.2	.9748	.001
.367	313.19	.9749	.0011
.464	313.19	.9762	.0008
.551	313.19	.973	.0008
.63	313.2	.9706	.0009
.71	313.2	.9722	.0009
.864	313.2	.9735	.0012
.931	313.21	.9688	.0012
.955	313.2	.9615	.0015

System: trifluoromethane + hexane; phases: Liquid, Gas
Property: Vapor or sublimation pressure, kPa (Liquid); method: Closed cell (Static) method
Temperature, K	Mole fraction of trifluoromethane	Vapor or sublimation pressure, kPa	uncertainty
293.17	.1383	1669.2	11
293.15	.4993	3456.9	8
293.14	.7255	3600.3	7
293.16	.8562	3671	5
303.16	.1383	1761	8
303.17	.4993	4075.7	9
303.13	.7255	4373.6	5
303.18	.8562	4503.8	5
313.17	.1383	1904.3	5
313.21	.4993	4721.3	10
313.16	.7255	5233.2	6
313.23	.8562	5425.1	8

System: trifluoromethane + hexane; phases: Liquid mixture 1, Liquid mixture 2
Property: Mole fraction of trifluoromethane (Liquid mixture 1); method: Chromatography
Pressure, kPa	Temperature, K	Mole fraction of trifluoromethane	uncertainty
2324	272.87	.444	.006

System: trifluoromethane + hexane; phases: Liquid mixture 2, Liquid mixture 1
Property: Mole fraction of trifluoromethane (Liquid mixture 2); method: Chromatography
Pressure, kPa	Temperature, K	Mole fraction of trifluoromethane	uncertainty
2324	272.87	.873	.003
