Measured thermophysical data. Thermodynamic properties and behaviour of A2[(UO2)(MoO4)2] compounds with A = Li, Na, K, Rb, and Cs
Source: J. Chem. Thermodyn., 2014, 10.1016/j.jct.2014.07.009
Compound 1: lithium uranyl molybdate (Li2[(UO2)(MoO4)2]), Li2Mo2O10U, purity 99.8%
Compound 2: sodium uranyl molybdate (Na2[(UO2)(MoO4)2]), Mo2Na2O10U, purity 99.8%
Compound 3: potassium uranyl molybdate (K2[(UO2)(MoO4)2]), K2Mo2O10U, purity 99.8%
Compound 4: rubidium uranyl molybdate (Rb2[(UO2)(MoO4)2]), Mo2O10Rb2U, purity 99.8%
Compound 5: cesium uranyl molybdate (Cs2[(UO2)(MoO4)2]), Cs2Mo2O10U, purity 99.8%
Compound 6: oxygen, O2
Compound 7: lithium, Li
Compound 8: molybdenum, Mo
Compound 9: uranium, U

System: lithium uranyl molybdate (Li2[(UO2)(MoO4)2]); phases: Crystal
Fixed: Pressure, kPa = 101.325
Property: Molar heat capacity at constant pressure, J/K/mol (Crystal); method: Small (less than 1 g) adiabatic calorimetry
Temperature, K	Molar heat capacity at constant pressure, J/K/mol	uncertainty
20	8.668	.5
40	40.92	.5
60	78.88	.2
80	111.9	.2
100	142.9	.2
120	170.8	.2
140	194.1	.2
160	214.1	.2
180	231.6	.2
200	247.5	.2
220	261.9	.2
240	276	.2
260	288.7	.2
273.15	296.7	.2
280	300.6	.2
298.15	310.1	.2
300	311.3	.2
320	324.3	.2

System: lithium uranyl molybdate (Li2[(UO2)(MoO4)2]); phases: Crystal
Fixed: Pressure, kPa = 101.325
Property: Molar enthalpy, kJ/mol (Crystal); method: Small (less than 1 g) adiabatic calorimetry
Temperature, K	Molar enthalpy, kJ/mol	uncertainty
20	.04663	1.1
40	.5137	1.1
60	1.708	1.1
80	3.638	1.1
100	6.204	1.1
120	9.354	1.1
140	13.01	1.1
160	17.09	1
180	21.56	1
200	26.35	1
220	31.45	1
240	36.83	1
260	42.48	1
273.15	46.33	1
280	48.37	1
298.15	53.91	1
300	54.49	1
320	60.83	1

System: lithium uranyl molybdate (Li2[(UO2)(MoO4)2]); phases: Crystal
Fixed: Pressure, kPa = 101.325
Property: Molar entropy, J/K/mol (Crystal); method: Small (less than 1 g) adiabatic calorimetry
Temperature, K	Molar entropy, J/K/mol	uncertainty
20	3.094	1.1
40	18	1.1
60	41.69	1.1
80	69.22	1.1
100	97.72	1.1
120	126.4	1.1
140	154.5	1.1
160	181.7	1
180	208	1
200	233.2	1
220	257.5	1
240	280.9	1
260	303.5	1
273.15	318	1
280	325.3	1
298.15	344.5	1
300	346.5	1
320	366.9	1

System: lithium uranyl molybdate (Li2[(UO2)(MoO4)2]); phases: Crystal
Fixed: Pressure, kPa = 101.325
Property: Molar heat capacity at constant pressure, J/K/mol (Crystal); method: Small (less than 1 g) adiabatic calorimetry
Temperature, K	Molar heat capacity at constant pressure, J/K/mol	uncertainty
8.8	.6668	2
9	.7695	2
9.3	.8572	2
9.6	.9789	2
9.9	1.1465	2
10.2	1.3059	2
10.5	1.4703	2
10.8	1.6138	2
11.1	1.803	2
11.5	2.025	2
11.8	2.209	2
12.2	2.408	2
12.5	2.659	2
12.8	2.844	2
13.2	3.024	2
13.5	3.242	2
13.9	3.433	2
14.2	3.713	2
14.6	3.867	2
15	4.116	2
15.3	4.368	.5
15.7	4.613	.5
16	4.833	.5
16.4	5.164	.5
16.7	5.456	.5
17.1	5.716	.5
17.4	6.043	.5
17.8	6.391	.5
18.1	6.758	.5
18.5	7.032	.5
18.9	7.331	.5
19.2	7.695	.5
19.6	8.185	.5
19.9	8.59	.5
21	9.778	.5
22.7	11.88	.5
24.4	14.2	.5
26.2	16.75	.5
28	19.53	.5
31.7	25.51	.5
33.6	28.44	.5
37.7	36.73	.5
39.9	40.71	.5
41.8	44.22	.2
43.8	47.69	.2
45.7	51.4	.2
47.7	55.25	.2
49.7	59.15	.2
51.7	62.74	.2
53.7	66.83	.2
55.7	70.72	.2
57.7	74.55	.2
59.7	78.3	.2
61.7	82.12	.2
63.7	85.93	.2
65.8	89.57	.2
67.8	93.27	.2
69.9	97	.2
72.4	100.8	.2
75.4	105.5	.2
78.4	110.1	.2
86.2	123.3	.2
89.2	127	.2
92.2	131.6	.2
95.2	136	.2
98.2	140.4	.2
101.2	144.7	.2
104.1	150.1	.2
107.1	153.8	.2
110.1	157.8	.2
113.1	161.8	.2
116.1	165.7	.2
119.1	169.6	.2
122.1	173.4	.2
125.1	177.1	.2
128.1	180.7	.2
131.2	184.1	.2
134.2	187.5	.2
137.2	191	.2
140.2	194.3	.2
143.2	197.4	.2
146.3	200.6	.2
149.3	203.7	.2
152.3	206.6	.2
155.3	209.7	.2
158.4	212.6	.2
161.4	215.5	.2
164.4	218.3	.2
167.4	221	.2
170.5	223.7	.2
173.5	226.3	.2
176.6	229	.2
179.6	231.3	.2
182.6	233.9	.2
185.6	236.3	.2
188.7	238.7	.2
191.7	241	.2
194.7	243.5	.2
197.7	245.6	.2
200.8	248.1	.2
203.8	250.3	.2
206.8	252.6	.2
209.8	254.9	.2
212.8	257	.2
215.8	259	.2
218.8	261.1	.2
221.8	263.3	.2
224.8	266	.2
227.8	267.5	.2
230.8	269.8	.2
233.8	271.8	.2
236.7	273.8	.2
239.7	275.8	.2
242.7	277.6	.2
245.6	279.5	.2
248.6	281.5	.2
251.5	283.3	.2
254.5	285.1	.2
257.4	286.9	.2
260.3	288.9	.2
263.2	290.6	.2
266.1	292.3	.2
269	294	.2
271.9	296.2	.2
274.7	297.3	.2
277.6	299	.2
280.5	300.9	.2
283.3	302.4	.2
286.2	304.2	.2
289	305.5	.2
291.8	306.8	.2
294.6	308.5	.2
297.4	309.8	.2
300.2	311.4	.2
303.3	313.9	.2
307	315.3	.2
310.6	317.6	.2
314.2	319.4	.2
317.8	321.1	.2
320.2	324.6	.2

System: sodium uranyl molybdate (Na2[(UO2)(MoO4)2]); phases: Crystal
Fixed: Pressure, kPa = 101.325
Property: Molar heat capacity at constant pressure, J/K/mol (Crystal); method: Small (less than 1 g) adiabatic calorimetry
Temperature, K	Molar heat capacity at constant pressure, J/K/mol	uncertainty
20	11.09	.5
40	50.94	.5
60	93.96	.2
80	129.1	.2
100	160.7	.2
120	185.9	.2
140	208	.2
160	226.7	.2
180	242.3	.2
200	255.8	.2
220	268	.2
240	279.6	.2
260	290	.2
273.15	296.3	.2
280	299.6	.2
298.15	308.6	.2
300	309.4	.2
320	319.1	.2

System: sodium uranyl molybdate (Na2[(UO2)(MoO4)2]); phases: Crystal
Fixed: Pressure, kPa = 101.325
Property: Molar enthalpy, kJ/mol (Crystal); method: Small (less than 1 g) adiabatic calorimetry
Temperature, K	Molar enthalpy, kJ/mol	uncertainty
20	.05809	1.1
40	.6456	1.1
60	2.103	1.1
80	4.343	1.1
100	7.245	1.1
120	10.73	1.1
140	14.68	1.1
160	19.03	1
180	23.72	1
200	28.7	1
220	33.94	1
240	39.42	1
260	45.12	1
273.15	48.97	1
280	51.02	1
298.15	56.53	1
300	57.1	1
320	63.39	1

System: sodium uranyl molybdate (Na2[(UO2)(MoO4)2]); phases: Crystal
Fixed: Pressure, kPa = 101.325
Property: Molar entropy, J/K/mol (Crystal); method: Small (less than 1 g) adiabatic calorimetry
Temperature, K	Molar entropy, J/K/mol	uncertainty
20	3.779	1.1
40	22.55	1.1
60	51.51	1.1
80	83.49	1.1
100	115.7	1.1
120	147.5	1.1
140	177.8	1.1
160	206.8	1
180	234.5	1
200	260.7	1
220	285.6	1
240	309.5	1
260	332.3	1
273.15	346.7	1
280	354.1	1
298.15	373.2	1
300	375.1	1
320	395.4	1

System: sodium uranyl molybdate (Na2[(UO2)(MoO4)2]); phases: Crystal
Fixed: Pressure, kPa = 101.325
Property: Molar heat capacity at constant pressure, J/K/mol (Crystal); method: Small (less than 1 g) adiabatic calorimetry
Temperature, K	Molar heat capacity at constant pressure, J/K/mol	uncertainty
9	.9118	2
9.3	1.037	2
9.6	1.213	2
10.1	1.486	2
10.6	1.897	2
11.1	2.199	2
11.5	2.511	2
11.9	2.718	2
12.3	2.983	2
12.7	3.239	2
13.1	3.559	2
13.5	3.961	2
13.9	4.328	2
14.3	4.621	2
14.8	4.945	2
15.2	5.325	.5
15.6	5.659	.5
16	5.953	.5
16.4	6.451	.5
16.9	7.093	.5
17.3	7.804	.5
17.7	8.3	.5
18.1	8.752	.5
18.6	9.234	.5
19	9.815	.5
19.4	10.33	.5
19.9	10.89	.5
20.8	12.32	.5
22.3	14.54	.5
23.8	16.96	.5
25.4	19.59	.5
26.9	22.32	.5
28.5	25.48	.5
30.1	28.68	.5
31.6	32.06	.5
33.3	35.46	.5
34.9	39.06	.5
36.5	42.86	.5
38.2	46.64	.5
40	50.99	.5
41.7	54.85	.2
43.4	58.42	.2
45.4	63.28	.2
47.6	68.29	.2
49.1	71.08	.2
51.2	75.83	.2
52.5	78.52	.2
55	83.09	.2
57	87.61	.2
59	92.01	.2
61.7	97.02	.2
63.5	100.1	.2
65.8	104.6	.2
67.3	107.3	.2
69.9	111.8	.2
72.3	116.8	.2
75.4	122.3	.2
78.4	125.9	.2
80.2	129.6	.2
83.7	135.1	.2
86.7	140.2	.2
89.7	145	.2
92.7	149.6	.2
95.7	153.9	.2
98.7	158.4	.2
101.7	163.6	.2
104.6	167.6	.2
107.6	171.6	.2
110.6	175.5	.2
113.6	179.3	.2
116.6	182.8	.2
119.6	185.5	.2
122.6	189	.2
125.6	192.5	.2
128.7	196.2	.2
131.7	199.4	.2
134.7	202.1	.2
137.7	205.3	.2
140.8	208.8	.2
143.8	211.6	.2
146.8	214.6	.2
149.9	217.6	.2
152.9	220.4	.2
155.9	223	.2
159	225.8	.2
162	228.3	.2
165.1	230.5	.2
168.1	233.1	.2
171.1	235.5	.2
174.2	238.1	.2
177.2	240.5	.2
180.3	242.5	.2
183.3	244.5	.2
186.4	246.7	.2
189.4	248.8	.2
192.4	251	.2
195.5	252.8	.2
198.5	254.9	.2
201.5	256.8	.2
204.6	258.7	.2
207.6	260.3	.2
210.6	262.3	.2
213.6	264.1	.2
216.6	266.1	.2
219.6	267.8	.2
222.6	269.7	.2
225.7	272.3	.2
228.7	273.4	.2
231.6	275	.2
234.6	276.5	.2
237.6	278.5	.2
240.6	279.8	.2
243.6	281.4	.2
246.6	283.1	.2
249.5	284.6	.2
252.5	285.8	.2
255.4	287.6	.2
258.4	289.3	.2
261.3	290.6	.2
264.2	292.4	.2
267.1	292.9	.2
270	294.7	.2
272.9	296.2	.2
275.7	297.6	.2
278.6	299.3	.2
281.5	300	.2
284.3	301.5	.2
287.1	302.2	.2
290	304.2	.2
292.8	306.5	.2
295.5	307.3	.2
298.3	308.6	.2
301.3	310	.2
305	312.6	.2
308.7	313.6	.2
312.2	315.3	.2
315.7	317.8	.2
319.2	318.7	.2
322.6	320.9	.2
326	321.7	.2

System: potassium uranyl molybdate (K2[(UO2)(MoO4)2]); phases: Crystal
Fixed: Pressure, kPa = 101.325
Property: Molar heat capacity at constant pressure, J/K/mol (Crystal); method: Small (less than 1 g) adiabatic calorimetry
Temperature, K	Molar heat capacity at constant pressure, J/K/mol	uncertainty
20	10.08	.5
40	52.18	.5
60	103	.2
80	143.9	.2
100	172.2	.2
120	197	.2
140	217.7	.2
160	235.2	.2
180	249.8	.2
200	263	.2
220	275.3	.2
240	285.5	.2
260	295.6	.2
273.15	301.5	.2
280	304.2	.2
298.15	311.8	.2
300	312.7	.2
320	319.5	.2

System: potassium uranyl molybdate (K2[(UO2)(MoO4)2]); phases: Crystal
Fixed: Pressure, kPa = 101.325
Property: Molar enthalpy, kJ/mol (Crystal); method: Small (less than 1 g) adiabatic calorimetry
Temperature, K	Molar enthalpy, kJ/mol	uncertainty
20	.0522	1.1
40	.6388	1.1
60	2.195	1.1
80	4.69	1.1
100	7.845	1.1
120	11.54	1.1
140	15.7	1.1
160	20.23	1
180	25.08	1
200	30.22	1
220	35.6	1
240	41.21	1
260	47.02	1
273.15	50.95	1
280	53.02	1
298.15	58.62	1
300	59.2	1
320	65.53	1

System: potassium uranyl molybdate (K2[(UO2)(MoO4)2]); phases: Crystal
Fixed: Pressure, kPa = 101.325
Property: Molar entropy, J/K/mol (Crystal); method: Small (less than 1 g) adiabatic calorimetry
Temperature, K	Molar entropy, J/K/mol	uncertainty
20	3.296	1.1
40	21.95	1.1
60	52.79	1.1
80	88.39	1.1
100	123.5	1.1
120	157.1	1.1
140	189.1	1.1
160	219.3	1
180	247.9	1
200	274.9	1
220	300.6	1
240	325	1
260	348.2	1
273.15	363	1
280	370.5	1
298.15	389.8	1
300	391.8	1
320	412.2	1

System: potassium uranyl molybdate (K2[(UO2)(MoO4)2]); phases: Crystal
Fixed: Pressure, kPa = 101.325
Property: Molar heat capacity at constant pressure, J/K/mol (Crystal); method: Small (less than 1 g) adiabatic calorimetry
Temperature, K	Molar heat capacity at constant pressure, J/K/mol	uncertainty
9.8	1.076	2
10.4	1.303	2
10.9	1.597	2
11.3	1.998	2
11.7	2.306	2
12.1	2.662	2
12.5	3.011	2
12.9	3.308	2
13.3	3.682	2
13.7	3.958	2
14.1	4.24	2
14.5	4.551	2
15	4.906	2
15.4	5.312	.5
15.8	5.591	.5
16.2	5.979	.5
16.6	6.344	.5
17.1	6.736	.5
17.5	7.21	.5
17.9	7.52	.5
18.3	7.974	.5
18.7	8.507	.5
19.2	9.153	.5
19.6	9.539	.5
20	10.113	.5
21	11.661	.5
22.5	13.89	.5
24	16.42	.5
25.5	19.17	.5
27	22.12	.5
28.6	25.43	.5
30.2	28.79	.5
31.8	32.36	.5
33.4	36.05	.5
35	39.86	.5
36.6	43.83	.5
38.2	47.89	.5
39.9	51.89	.5
41.5	55.96	.2
43.2	59.42	.2
45.2	65.69	.2
46.9	70.03	.2
48.6	74.48	.2
50.3	78.76	.2
52	82.75	.2
53.7	87.63	.2
55.4	91.84	.2
57.1	96.15	.2
58.8	100.2	.2
60.6	104.4	.2
62.3	108.5	.2
64	112.3	.2
65.8	116.2	.2
67.5	120.3	.2
69.3	123.7	.2
71.7	127.8	.2
73.7	133.2	.2
75.5	137.1	.2
78.6	141.2	.2
81.4	145.7	.2
82.7	146.7	.2
83.4	148.6	.2
85.4	150.9	.2
87.4	153.9	.2
89.4	156.9	.2
91.4	159.8	.2
93.4	162.7	.2
95.4	165.5	.2
97.4	168.4	.2
99.4	171.2	.2
101.9	175.5	.2
104.9	178.4	.2
107.9	182.3	.2
110.9	186	.2
113.9	189.7	.2
116.9	193.3	.2
119.9	196.9	.2
122.9	200.3	.2
125.9	203.6	.2
129	206.8	.2
132	209.7	.2
135	212.9	.2
138.1	215.7	.2
141.1	218.8	.2
144.1	221.5	.2
147.2	224.3	.2
150.2	226.9	.2
153.3	229.7	.2
156.4	232.2	.2
159.4	234.7	.2
162.5	237	.2
165.6	239.8	.2
168.6	241.7	.2
171.7	244	.2
174.8	246.3	.2
177.8	248.3	.2
180.9	250.5	.2
184	252.6	.2
187	254.7	.2
190.1	256.6	.2
193.2	258.8	.2
196.3	260.7	.2
199.3	262.6	.2
202.9	265	.2
207	267.4	.2
211.1	269.7	.2
215.2	272.1	.2
219.4	275	.2
223.5	276.7	.2
227.6	279	.2
231.7	281.4	.2
235.8	283.6	.2
240	285.5	.2
244.1	287.7	.2
248.2	289.9	.2
252.3	291.8	.2
256.4	293.8	.2
260.6	295.8	.2
264.7	297.6	.2
268.8	299.6	.2
272.9	301.4	.2
277	303.1	.2
281.2	304.9	.2
285.4	308	.2
289.5	308.6	.2
293.6	310.2	.2
297.7	311.7	.2
302.5	313.9	.2
308	316.1	.2
313.4	317.2	.2
318.8	318.9	.2
324.1	321.2	.2
329.4	323	.2
334.7	324	.2

System: rubidium uranyl molybdate (Rb2[(UO2)(MoO4)2]); phases: Crystal
Fixed: Pressure, kPa = 101.325
Property: Molar heat capacity at constant pressure, J/K/mol (Crystal); method: Small (less than 1 g) adiabatic calorimetry
Temperature, K	Molar heat capacity at constant pressure, J/K/mol	uncertainty
20	9.269	.5
40	44.05	.5
60	93.89	.2
80	144.1	.2
100	171.5	.2
120	194.7	.2
140	213.5	.2
160	229.8	.2
180	243.4	.2
200	254	.2
220	265.5	.2
240	275.9	.2
260	285.2	.2
273.15	290.8	.2
280	293.6	.2
298.15	300.7	.2
300	301.5	.2
320	309	.2

System: rubidium uranyl molybdate (Rb2[(UO2)(MoO4)2]); phases: Crystal
Fixed: Pressure, kPa = 101.325
Property: Molar enthalpy, kJ/mol (Crystal); method: Small (less than 1 g) adiabatic calorimetry
Temperature, K	Molar enthalpy, kJ/mol	uncertainty
20	.06567	1.1
40	.5602	1.1
60	1.945	1.1
80	4.357	1.1
100	7.521	1.1
120	11.19	1.1
140	15.28	1.1
160	19.72	1
180	24.45	1
200	29.44	1
220	34.64	1
240	40.06	1
260	45.67	1
273.15	49.45	1
280	51.45	1
298.15	56.85	1
300	57.4	1
320	63.52	1

System: rubidium uranyl molybdate (Rb2[(UO2)(MoO4)2]); phases: Crystal
Fixed: Pressure, kPa = 101.325
Property: Molar entropy, J/K/mol (Crystal); method: Small (less than 1 g) adiabatic calorimetry
Temperature, K	Molar entropy, J/K/mol	uncertainty
20	5.071	1.1
40	20.86	1.1
60	48.26	1.1
80	82.61	1.1
100	117.8	1.1
120	151.2	1.1
140	182.7	1.1
160	212.3	1
180	240.1	1
200	266.4	1
220	291.2	1
240	314.7	1
260	337.2	1
273.15	351.4	1
280	358.6	1
298.15	377.3	1
300	379.2	1
320	398.9	1

System: rubidium uranyl molybdate (Rb2[(UO2)(MoO4)2]); phases: Crystal
Fixed: Pressure, kPa = 101.325
Property: Molar heat capacity at constant pressure, J/K/mol (Crystal); method: Small (less than 1 g) adiabatic calorimetry
Temperature, K	Molar heat capacity at constant pressure, J/K/mol	uncertainty
6.5	1.30286	2
6.8	1.40603	2
7	1.4843	2
7.2	1.5611	2
7.4	1.6396	2
7.8	1.7281	2
8.1	1.8246	2
9.5	2.2635	2
10.1	2.681	2
11.1	3.0551	2
12.2	3.7992	2
13.1	4.2802	2
14.5	5.0093	2
15.4	5.73	.5
16.6	6.653	.5
17	6.906	.5
18.4	7.765	.5
19.3	8.568	.5
20.1	9.332	.5
21.2	10.574	.5
22.1	11.664	.5
24.3	15.236	.5
27	17.993	.5
27.5	18.76	.5
28.3	20.805	.5
29.2	22.178	.5
30.8	26.432	.5
31.1	26.634	.5
32.2	28.238	.5
33.1	30.127	.5
36	35.099	.5
37	37.138	.5
39.1	40.901	.5
41	47.386	.2
42.5	49.895	.2
44.1	55.159	.2
46.9	61.258	.2
49.6	68.03	.2
51.2	72.5	.2
53.8	78.56	.2
55.1	82.39	.2
57.2	86.96	.2
59.7	93.05	.2
61.5	97.83	.2
63.2	103.35	.2
65.2	109.78	.2
67.2	115.11	.2
69.9	121.2	.2
71.8	125.55	.2
73.8	129.48	.2
76.8	137.09	.2
78.7	141.7	.2
81.2	146.1	.2
83.2	149.3	.2
85.2	151.7	.2
87.2	154.5	.2
89.2	157.4	.2
91.2	159.9	.2
93.2	162.4	.2
95.2	165.2	.2
97.2	167.8	.2
99.2	170.4	.2
101.2	173.3	.2
103.2	175.9	.2
105.2	178	.2
107.2	180.4	.2
109.2	182.9	.2
111.2	185.2	.2
113.2	187.3	.2
115.2	189.7	.2
117.2	191.7	.2
119.2	193.8	.2
121.2	196	.2
123.3	197.9	.2
125.3	199.8	.2
127.3	202	.2
129.3	203.7	.2
131.3	205.8	.2
133.4	207.7	.2
135.4	209.7	.2
137.4	211.4	.2
139.5	213	.2
141.5	214.8	.2
143.6	216.9	.2
145.6	218.4	.2
147.7	220.1	.2
149.7	221.7	.2
151.8	223.4	.2
153.8	225.1	.2
155.9	226.7	.2
157.9	228.2	.2
160	229.8	.2
161.5	231	.2
164.1	232.1	.2
166.1	234.3	.2
168.1	235.6	.2
170.2	236.9	.2
172.2	238.4	.2
174.2	239.4	.2
176.2	240.7	.2
178.3	242.1	.2
180.3	243.6	.2
182.3	245.1	.2
184.3	246.2	.2
186.3	247.5	.2
188.3	249	.2
190.4	249.9	.2
192.4	250.6	.2
194.4	251.4	.2
196.4	252.2	.2
198.4	253.3	.2
200.4	254.3	.2
202.9	256.7	.2
205.9	258.2	.2
208.9	259.8	.2
211.9	261.3	.2
214.9	263	.2
217.9	264.4	.2
220.9	266	.2
223.9	267.6	.2
226.9	269.2	.2
229.9	270.8	.2
232.9	272.3	.2
235.9	273.8	.2
238.8	275.5	.2
241.8	276.6	.2
244.8	278	.2
247.8	279.4	.2
250.7	280.7	.2
253.7	282.1	.2
256.6	283.5	.2
259.6	285	.2
262.5	286.1	.2
265.5	287.4	.2
268.4	288.7	.2
271.3	290	.2
274.2	291.2	.2
277.2	292.4	.2
280.1	293.6	.2
282.9	294.6	.2
285.8	295.9	.2
288.6	297.1	.2
291.5	298.2	.2
294.4	299.5	.2
297.2	300.4	.2
300.1	301.5	.2
303.3	303.6	.2
307.1	304.8	.2
310.9	306	.2
314.6	307.1	.2
318.3	308.6	.2
322	309.5	.2
325.7	310.8	.2

System: cesium uranyl molybdate (Cs2[(UO2)(MoO4)2]); phases: Crystal
Fixed: Pressure, kPa = 101.325
Property: Molar heat capacity at constant pressure, J/K/mol (Crystal); method: Small (less than 1 g) adiabatic calorimetry
Temperature, K	Molar heat capacity at constant pressure, J/K/mol	uncertainty
20	15.8	.5
40	54.03	.5
60	104.8	.2
80	146.3	.2
100	174.2	.2
120	196.4	.2
140	215.1	.2
160	230.9	.2
180	244.2	.2
200	256.2	.2
220	265.8	.2
240	275.7	.2
260	285.8	.2
273.15	291.9	.2
280	294.8	.2
298.15	302.5	.2
300	303.5	.2
320	312.5	.2

System: cesium uranyl molybdate (Cs2[(UO2)(MoO4)2]); phases: Crystal
Fixed: Pressure, kPa = 101.325
Property: Molar enthalpy, kJ/mol (Crystal); method: Small (less than 1 g) adiabatic calorimetry
Temperature, K	Molar enthalpy, kJ/mol	uncertainty
20	.1061	1.1
40	.7681	1.1
60	2.354	1.1
80	4.896	1.1
100	8.123	1.1
120	11.84	1.1
140	15.96	1.1
160	20.42	1
180	25.18	1
200	30.19	1
220	35.41	1
240	40.83	1
260	46.44	1
273.15	50.24	1
280	52.25	1
298.15	57.67	1
300	58.23	1
320	64.4	1

System: cesium uranyl molybdate (Cs2[(UO2)(MoO4)2]); phases: Crystal
Fixed: Pressure, kPa = 101.325
Property: Molar entropy, J/K/mol (Crystal); method: Small (less than 1 g) adiabatic calorimetry
Temperature, K	Molar entropy, J/K/mol	uncertainty
20	7.856	1.1
40	29.3	1.1
60	60.73	1.1
80	97.01	1.1
100	132.9	1.1
120	166.7	1.1
140	198.4	1.1
160	228.2	1
180	256.2	1
200	282.6	1
220	307.5	1
240	331	1
260	353.5	1
273.15	367.7	1
280	375	1
298.15	393.8	1
300	395.6	1
320	415.5	1

System: cesium uranyl molybdate (Cs2[(UO2)(MoO4)2]); phases: Crystal
Fixed: Pressure, kPa = 101.325
Property: Molar heat capacity at constant pressure, J/K/mol (Crystal); method: Small (less than 1 g) adiabatic calorimetry
Temperature, K	Molar heat capacity at constant pressure, J/K/mol	uncertainty
5.8	1.238	2
6	1.283	2
6.2	1.404	2
6.6	1.529	2
7	1.665	2
7.2	1.736	2
7.5	1.811	2
7.8	1.98	2
8.1	2.101	2
8.5	2.237	2
8.8	2.311	2
9	2.425	2
9.6	2.878	2
10.5	4.022	2
11.7	5.247	2
13	6.919	2
15.5	9.827	.5
16.4	11	.5
17.1	12.08	.5
18.2	13.34	.5
20.1	15.95	.5
21.6	17.77	.5
22.6	19.71	.5
23.3	21.1	.5
24	22.24	.5
26.8	25.5	.5
27.1	26.2	.5
28.1	27.75	.5
29.4	32.13	.5
30.1	33.28	.5
31.4	35.49	.5
32	36.7	.5
35.9	44.26	.5
36.3	44.74	.5
37.4	47.01	.5
38.1	48.6	.5
39.5	52.82	.5
41.4	56.97	.2
43.2	60.5	.2
45.2	66.88	.2
46.9	71.29	.2
48.6	75.83	.2
50.3	80.18	.2
52	84.25	.2
53.7	89.21	.2
55.4	93.5	.2
57.1	97.89	.2
58.8	102	.2
60.6	106.2	.2
62.3	110.4	.2
64.1	114.3	.2
65.8	118.3	.2
67.6	122.5	.2
69.2	125.9	.2
71.8	131.4	.2
73.7	135.6	.2
75.5	139.6	.2
78.6	143.7	.2
81.6	149.6	.2
83.6	152.7	.2
85.6	155.4	.2
87.6	157.9	.2
89.6	161.2	.2
91.6	164	.2
93.6	166.6	.2
95.6	169	.2
97.6	172.4	.2
99.6	173.8	.2
101.6	176.7	.2
103.6	178.6	.2
105.6	180.8	.2
107.6	183.2	.2
109.6	185.5	.2
111.6	187.7	.2
113.6	189.5	.2
115.6	191.7	.2
117.6	193.9	.2
119.6	196	.2
121.6	198.2	.2
123.6	200.1	.2
125.7	201.9	.2
127.7	203.9	.2
129.7	205.8	.2
131.7	207.4	.2
133.7	209.4	.2
135.8	211.1	.2
137.8	213.2	.2
139.8	215	.2
141.9	216.2	.2
143.9	218.5	.2
146	219.7	.2
148	221.7	.2
150	223.4	.2
152.1	225.1	.2
154.1	227	.2
156.1	228.1	.2
158.2	229.7	.2
160.2	231.1	.2
162.3	232.8	.2
164.3	233.9	.2
166.4	235.4	.2
168.4	236.8	.2
170.5	238	.2
172.5	239.7	.2
174.6	241.2	.2
176.6	242.7	.2
178.7	243.5	.2
180.7	244.7	.2
182.8	246.4	.2
184.8	247.6	.2
186.9	248.7	.2
188.9	250	.2
191	250.9	.2
193	252.4	.2
195.1	253.5	.2
197.1	254.7	.2
199.2	255.7	.2
201.7	257.2	.2
204.8	258.4	.2
207.8	260.1	.2
210.9	261.5	.2
214	263.1	.2
217.1	264.8	.2
220.1	265.8	.2
223.2	267.5	.2
226.2	268.9	.2
229.3	270.4	.2
232.3	271.9	.2
235.4	273.5	.2
238.4	275	.2
241.4	276.5	.2
244.5	278.3	.2
247.5	279.6	.2
250.5	281.1	.2
253.5	282.4	.2
256.6	284	.2
259.6	285.6	.2
262.6	287.2	.2
265.6	288.4	.2
268.6	289.7	.2
271.6	291.1	.2
274.6	292.6	.2
277.5	293.7	.2
280.5	295	.2
283.5	296	.2
286.4	297.7	.2
289.3	298.9	.2
292.3	300.1	.2
295.2	301.6	.2
298.1	302.4	.2
301.4	304.5	.2
305.2	306.7	.2
309.1	307.9	.2
312.8	309.3	.2
316.6	311.1	.2
320.2	312.6	.2
323.9	314.2	.2
327.5	316.1	.2
331.1	317.4	.2
334.6	319.2	.2

Reaction: -2 lithium + -2 molybdenum + -1 uranium + 1 lithium uranyl molybdate (Li2[(UO2)(MoO4)2]) + -5 oxygen
Property: Molar enthalpy of reaction, kJ/mol
-3456
