Measured thermophysical data. Physicochemical properties and activity coefficients at infinite dilution  for organic solutes and water in a novel bicyclic guanidinium superbase-derived  protic ionic liquid
Source: J. Chem. Thermodyn., 2013, 10.1016/j.jct.2012.09.033
Compound 1: 1,3,4,6,7,8-hexahydro-1-methyl-2H-pyrimido[1,2-a]pyrimidonium bis(pentafluoroethyl)sulfonamide, C12H16F10N4O4S2
Compound 2: n-hexane, C6H14, purity 99%
Compound 3: 3-methylpentane, C6H14, purity 99%
Compound 4: neohexane, C6H14, purity 99%
Compound 5: n-heptane, C7H16, purity 99%
Compound 6: n-octane, C8H18, purity 99%
Compound 7: 2,2,4-trimethylpentane, C8H18, purity 99%
Compound 8: n-nonane, C9H20, purity 99%
Compound 9: n-decane, C10H22, purity 99%
Compound 10: cyclopentane, C5H10, purity 99%
Compound 11: cyclohexane, C6H12, purity 99%
Compound 12: cyclohexane, methyl-, C7H14, purity 99%
Compound 13: cycloheptane, C7H14, purity 99%
Compound 14: cyclooctane, C8H16, purity 99%
Compound 15: 1-pentene, C5H10, purity 99%
Compound 16: 1-hexene, C6H12, purity 99%
Compound 17: benzene tetrahydride, C6H10, purity 99%
Compound 18: 1-heptene, C7H14, purity 99%
Compound 19: 1-octene, C8H16, purity 99%
Compound 20: 1-decene, C10H20, purity 99%
Compound 21: 1-pentyne, C5H8, purity 99%
Compound 22: n-butylacetylene, C6H10, purity 99%
Compound 23: 1-heptyne, C7H12, purity 99%
Compound 24: 1-octyne, C8H14, purity 99%
Compound 25: benzene, C6H6, purity 99%
Compound 26: methylbenzene, C7H8, purity 99%
Compound 27: .alpha.-methyltoluene, C8H10, purity 99%
Compound 28: 1,2-xylene, C8H10, purity 99%
Compound 29: m-xylene, C8H10, purity 99%
Compound 30: 1,4-xylene, C8H10, purity 99%
Compound 31: phenylethene, C8H8, purity 99%
Compound 32: (1-methylethenyl)benzene, C9H10, purity 99%
Compound 33: methyl alcohol, CH4O, purity 99%
Compound 34: ethanol, C2H6O, purity 99%
Compound 35: n-propyl alcohol, C3H8O, purity 99%
Compound 36: n-butanol, C4H10O, purity 99%
Compound 37: water, H2O, purity 99%
Compound 38: thiophene, C4H4S, purity 99%
Compound 39: oxacyclopentane, C4H8O, purity 99%
Compound 40: p-dioxane, C4H8O2, purity 99%
Compound 41: 1,1-dimethyl-1-methoxyethane, C5H12O, purity 99%
Compound 42: methyl tert-amyl ether, C6H14O, purity 99%
Compound 43: ether, C4H10O, purity 99%
Compound 44: 4-oxaheptane, C6H14O, purity 99%
Compound 45: butane, 1,1'-oxybis-, C8H18O, purity 99%
Compound 46: 2-ethoxy-2-methylpropane, C6H14O, purity 99%
Compound 47: acetone, C3H6O, purity 99%
Compound 48: propyl methyl ketone, C5H10O, purity 99%
Compound 49: 3-pentanone, C5H10O, purity 99%
Compound 50: methyl n-butyl ketone, C6H12O, purity 99%
Compound 51: ethyl propyl ketone, C6H12O, purity 99%
Compound 52: cyclohexanone, C6H10O, purity 99%
Compound 53: acetonitrile, C2H3N, purity 99%
Compound 54: pyridine, C5H5N, purity 99%
Compound 55: 1-nitropropane, C3H7NO2, purity 99%

System: n-hexane + 1,3,4,6,7,8-hexahydro-1-methyl-2H-pyrimido[1,2-a]pyrimidonium bis(pentafluoroethyl)sulfonamide; phases: Liquid
Fixed: Pressure, kPa = 101
Fixed: Mole fraction of 1,3,4,6,7,8-hexahydro-1-methyl-2H-pyrimido[1,2-a]pyrimidonium bis(pentafluoroethyl)sulfonamide = 0
Property: Activity coefficient of 1,3,4,6,7,8-hexahydro-1-methyl-2H-pyrimido[1,2-a]pyrimidonium bis(pentafluoroethyl)sulfonamide (Liquid); method: Chromatography
Temperature, K	Activity coefficient of 1,3,4,6,7,8-hexahydro-1-methyl-2H-pyrimido[1,2-a]pyrimidonium bis(pentafluoroethyl)sulfonamide	uncertainty
308.15	14.7	.441
318.15	13.2	.396
328.15	12	.36
338.15	11.1	.333
348.15	10.4	.312

System: 3-methylpentane + 1,3,4,6,7,8-hexahydro-1-methyl-2H-pyrimido[1,2-a]pyrimidonium bis(pentafluoroethyl)sulfonamide; phases: Liquid
Fixed: Pressure, kPa = 101
Fixed: Mole fraction of 1,3,4,6,7,8-hexahydro-1-methyl-2H-pyrimido[1,2-a]pyrimidonium bis(pentafluoroethyl)sulfonamide = 0
Property: Activity coefficient of 1,3,4,6,7,8-hexahydro-1-methyl-2H-pyrimido[1,2-a]pyrimidonium bis(pentafluoroethyl)sulfonamide (Liquid); method: Chromatography
Temperature, K	Activity coefficient of 1,3,4,6,7,8-hexahydro-1-methyl-2H-pyrimido[1,2-a]pyrimidonium bis(pentafluoroethyl)sulfonamide	uncertainty
308.15	13.9	.417
318.15	12.4	.372
328.15	11.1	.333
338.15	10.1	.303
348.15	9.47	.2841

System: neohexane + 1,3,4,6,7,8-hexahydro-1-methyl-2H-pyrimido[1,2-a]pyrimidonium bis(pentafluoroethyl)sulfonamide; phases: Liquid
Fixed: Pressure, kPa = 101
Fixed: Mole fraction of 1,3,4,6,7,8-hexahydro-1-methyl-2H-pyrimido[1,2-a]pyrimidonium bis(pentafluoroethyl)sulfonamide = 0
Property: Activity coefficient of 1,3,4,6,7,8-hexahydro-1-methyl-2H-pyrimido[1,2-a]pyrimidonium bis(pentafluoroethyl)sulfonamide (Liquid); method: Chromatography
Temperature, K	Activity coefficient of 1,3,4,6,7,8-hexahydro-1-methyl-2H-pyrimido[1,2-a]pyrimidonium bis(pentafluoroethyl)sulfonamide	uncertainty
308.15	15	.45
318.15	13.2	.396
328.15	11.5	.345
338.15	10.3	.309
348.15	9.42	.2826

System: n-heptane + 1,3,4,6,7,8-hexahydro-1-methyl-2H-pyrimido[1,2-a]pyrimidonium bis(pentafluoroethyl)sulfonamide; phases: Liquid
Fixed: Pressure, kPa = 101
Fixed: Mole fraction of 1,3,4,6,7,8-hexahydro-1-methyl-2H-pyrimido[1,2-a]pyrimidonium bis(pentafluoroethyl)sulfonamide = 0
Property: Activity coefficient of 1,3,4,6,7,8-hexahydro-1-methyl-2H-pyrimido[1,2-a]pyrimidonium bis(pentafluoroethyl)sulfonamide (Liquid); method: Chromatography
Temperature, K	Activity coefficient of 1,3,4,6,7,8-hexahydro-1-methyl-2H-pyrimido[1,2-a]pyrimidonium bis(pentafluoroethyl)sulfonamide	uncertainty
308.15	19.3	.579
318.15	17.4	.522
328.15	15.9	.477
338.15	14.7	.441
348.15	13.5	.405

System: n-octane + 1,3,4,6,7,8-hexahydro-1-methyl-2H-pyrimido[1,2-a]pyrimidonium bis(pentafluoroethyl)sulfonamide; phases: Liquid
Fixed: Pressure, kPa = 101
Fixed: Mole fraction of 1,3,4,6,7,8-hexahydro-1-methyl-2H-pyrimido[1,2-a]pyrimidonium bis(pentafluoroethyl)sulfonamide = 0
Property: Activity coefficient of 1,3,4,6,7,8-hexahydro-1-methyl-2H-pyrimido[1,2-a]pyrimidonium bis(pentafluoroethyl)sulfonamide (Liquid); method: Chromatography
Temperature, K	Activity coefficient of 1,3,4,6,7,8-hexahydro-1-methyl-2H-pyrimido[1,2-a]pyrimidonium bis(pentafluoroethyl)sulfonamide	uncertainty
308.15	27.2	.816
318.15	24	.72
328.15	21.9	.657
338.15	19.8	.594
348.15	18.1	.543

System: 2,2,4-trimethylpentane + 1,3,4,6,7,8-hexahydro-1-methyl-2H-pyrimido[1,2-a]pyrimidonium bis(pentafluoroethyl)sulfonamide; phases: Liquid
Fixed: Pressure, kPa = 101
Fixed: Mole fraction of 1,3,4,6,7,8-hexahydro-1-methyl-2H-pyrimido[1,2-a]pyrimidonium bis(pentafluoroethyl)sulfonamide = 0
Property: Activity coefficient of 1,3,4,6,7,8-hexahydro-1-methyl-2H-pyrimido[1,2-a]pyrimidonium bis(pentafluoroethyl)sulfonamide (Liquid); method: Chromatography
Temperature, K	Activity coefficient of 1,3,4,6,7,8-hexahydro-1-methyl-2H-pyrimido[1,2-a]pyrimidonium bis(pentafluoroethyl)sulfonamide	uncertainty
308.15	19.4	.582
318.15	17.5	.525
328.15	15.8	.474
338.15	14.5	.435
348.15	13.5	.405

System: n-nonane + 1,3,4,6,7,8-hexahydro-1-methyl-2H-pyrimido[1,2-a]pyrimidonium bis(pentafluoroethyl)sulfonamide; phases: Liquid
Fixed: Pressure, kPa = 101
Fixed: Mole fraction of 1,3,4,6,7,8-hexahydro-1-methyl-2H-pyrimido[1,2-a]pyrimidonium bis(pentafluoroethyl)sulfonamide = 0
Property: Activity coefficient of 1,3,4,6,7,8-hexahydro-1-methyl-2H-pyrimido[1,2-a]pyrimidonium bis(pentafluoroethyl)sulfonamide (Liquid); method: Chromatography
Temperature, K	Activity coefficient of 1,3,4,6,7,8-hexahydro-1-methyl-2H-pyrimido[1,2-a]pyrimidonium bis(pentafluoroethyl)sulfonamide	uncertainty
308.15	37.2	1.116
318.15	32.4	.972
328.15	29	.87
338.15	26.5	.795
348.15	24.1	.723

System: n-decane + 1,3,4,6,7,8-hexahydro-1-methyl-2H-pyrimido[1,2-a]pyrimidonium bis(pentafluoroethyl)sulfonamide; phases: Liquid
Fixed: Pressure, kPa = 101
Fixed: Mole fraction of 1,3,4,6,7,8-hexahydro-1-methyl-2H-pyrimido[1,2-a]pyrimidonium bis(pentafluoroethyl)sulfonamide = 0
Property: Activity coefficient of 1,3,4,6,7,8-hexahydro-1-methyl-2H-pyrimido[1,2-a]pyrimidonium bis(pentafluoroethyl)sulfonamide (Liquid); method: Chromatography
Temperature, K	Activity coefficient of 1,3,4,6,7,8-hexahydro-1-methyl-2H-pyrimido[1,2-a]pyrimidonium bis(pentafluoroethyl)sulfonamide	uncertainty
308.15	51.3	1.539
318.15	45	1.35
328.15	40	1.2
338.15	36.3	1.089
348.15	32.8	.984

System: cyclopentane + 1,3,4,6,7,8-hexahydro-1-methyl-2H-pyrimido[1,2-a]pyrimidonium bis(pentafluoroethyl)sulfonamide; phases: Liquid
Fixed: Pressure, kPa = 101
Fixed: Mole fraction of 1,3,4,6,7,8-hexahydro-1-methyl-2H-pyrimido[1,2-a]pyrimidonium bis(pentafluoroethyl)sulfonamide = 0
Property: Activity coefficient of 1,3,4,6,7,8-hexahydro-1-methyl-2H-pyrimido[1,2-a]pyrimidonium bis(pentafluoroethyl)sulfonamide (Liquid); method: Chromatography
Temperature, K	Activity coefficient of 1,3,4,6,7,8-hexahydro-1-methyl-2H-pyrimido[1,2-a]pyrimidonium bis(pentafluoroethyl)sulfonamide	uncertainty
308.15	6.86	.2058
318.15	6.11	.1833
328.15	5.51	.1653
338.15	5.07	.1521
348.15	4.65	.1395

System: cyclohexane + 1,3,4,6,7,8-hexahydro-1-methyl-2H-pyrimido[1,2-a]pyrimidonium bis(pentafluoroethyl)sulfonamide; phases: Liquid
Fixed: Pressure, kPa = 101
Fixed: Mole fraction of 1,3,4,6,7,8-hexahydro-1-methyl-2H-pyrimido[1,2-a]pyrimidonium bis(pentafluoroethyl)sulfonamide = 0
Property: Activity coefficient of 1,3,4,6,7,8-hexahydro-1-methyl-2H-pyrimido[1,2-a]pyrimidonium bis(pentafluoroethyl)sulfonamide (Liquid); method: Chromatography
Temperature, K	Activity coefficient of 1,3,4,6,7,8-hexahydro-1-methyl-2H-pyrimido[1,2-a]pyrimidonium bis(pentafluoroethyl)sulfonamide	uncertainty
308.15	9.27	.2781
318.15	8.21	.2463
328.15	7.35	.2205
338.15	6.81	.2043
348.15	6.1	.183

System: cyclohexane, methyl- + 1,3,4,6,7,8-hexahydro-1-methyl-2H-pyrimido[1,2-a]pyrimidonium bis(pentafluoroethyl)sulfonamide; phases: Liquid
Fixed: Pressure, kPa = 101
Fixed: Mole fraction of 1,3,4,6,7,8-hexahydro-1-methyl-2H-pyrimido[1,2-a]pyrimidonium bis(pentafluoroethyl)sulfonamide = 0
Property: Activity coefficient of 1,3,4,6,7,8-hexahydro-1-methyl-2H-pyrimido[1,2-a]pyrimidonium bis(pentafluoroethyl)sulfonamide (Liquid); method: Chromatography
Temperature, K	Activity coefficient of 1,3,4,6,7,8-hexahydro-1-methyl-2H-pyrimido[1,2-a]pyrimidonium bis(pentafluoroethyl)sulfonamide	uncertainty
308.15	11.5	.345
318.15	10.2	.306
328.15	9.25	.2775
338.15	8.6	.258
348.15	7.73	.2319

System: cycloheptane + 1,3,4,6,7,8-hexahydro-1-methyl-2H-pyrimido[1,2-a]pyrimidonium bis(pentafluoroethyl)sulfonamide; phases: Liquid
Fixed: Pressure, kPa = 101
Fixed: Mole fraction of 1,3,4,6,7,8-hexahydro-1-methyl-2H-pyrimido[1,2-a]pyrimidonium bis(pentafluoroethyl)sulfonamide = 0
Property: Activity coefficient of 1,3,4,6,7,8-hexahydro-1-methyl-2H-pyrimido[1,2-a]pyrimidonium bis(pentafluoroethyl)sulfonamide (Liquid); method: Chromatography
Temperature, K	Activity coefficient of 1,3,4,6,7,8-hexahydro-1-methyl-2H-pyrimido[1,2-a]pyrimidonium bis(pentafluoroethyl)sulfonamide	uncertainty

System: cyclooctane + 1,3,4,6,7,8-hexahydro-1-methyl-2H-pyrimido[1,2-a]pyrimidonium bis(pentafluoroethyl)sulfonamide; phases: Liquid
Fixed: Pressure, kPa = 101
Fixed: Mole fraction of 1,3,4,6,7,8-hexahydro-1-methyl-2H-pyrimido[1,2-a]pyrimidonium bis(pentafluoroethyl)sulfonamide = 0
Property: Activity coefficient of 1,3,4,6,7,8-hexahydro-1-methyl-2H-pyrimido[1,2-a]pyrimidonium bis(pentafluoroethyl)sulfonamide (Liquid); method: Chromatography
Temperature, K	Activity coefficient of 1,3,4,6,7,8-hexahydro-1-methyl-2H-pyrimido[1,2-a]pyrimidonium bis(pentafluoroethyl)sulfonamide	uncertainty
308.15	14.2	.426
318.15	12.9	.387
328.15	11.9	.357
338.15	10.9	.327
348.15	9.86	.2958

System: 1-pentene + 1,3,4,6,7,8-hexahydro-1-methyl-2H-pyrimido[1,2-a]pyrimidonium bis(pentafluoroethyl)sulfonamide; phases: Liquid
Fixed: Pressure, kPa = 101
Fixed: Mole fraction of 1,3,4,6,7,8-hexahydro-1-methyl-2H-pyrimido[1,2-a]pyrimidonium bis(pentafluoroethyl)sulfonamide = 0
Property: Activity coefficient of 1,3,4,6,7,8-hexahydro-1-methyl-2H-pyrimido[1,2-a]pyrimidonium bis(pentafluoroethyl)sulfonamide (Liquid); method: Chromatography
Temperature, K	Activity coefficient of 1,3,4,6,7,8-hexahydro-1-methyl-2H-pyrimido[1,2-a]pyrimidonium bis(pentafluoroethyl)sulfonamide	uncertainty

System: 1-hexene + 1,3,4,6,7,8-hexahydro-1-methyl-2H-pyrimido[1,2-a]pyrimidonium bis(pentafluoroethyl)sulfonamide; phases: Liquid
Fixed: Pressure, kPa = 101
Fixed: Mole fraction of 1,3,4,6,7,8-hexahydro-1-methyl-2H-pyrimido[1,2-a]pyrimidonium bis(pentafluoroethyl)sulfonamide = 0
Property: Activity coefficient of 1,3,4,6,7,8-hexahydro-1-methyl-2H-pyrimido[1,2-a]pyrimidonium bis(pentafluoroethyl)sulfonamide (Liquid); method: Chromatography
Temperature, K	Activity coefficient of 1,3,4,6,7,8-hexahydro-1-methyl-2H-pyrimido[1,2-a]pyrimidonium bis(pentafluoroethyl)sulfonamide	uncertainty
308.15	7.92	.2376
318.15	7.25	.2175
328.15	6.73	.2019
338.15	6.33	.1899
348.15	5.91	.1773

System: benzene tetrahydride + 1,3,4,6,7,8-hexahydro-1-methyl-2H-pyrimido[1,2-a]pyrimidonium bis(pentafluoroethyl)sulfonamide; phases: Liquid
Fixed: Pressure, kPa = 101
Fixed: Mole fraction of 1,3,4,6,7,8-hexahydro-1-methyl-2H-pyrimido[1,2-a]pyrimidonium bis(pentafluoroethyl)sulfonamide = 0
Property: Activity coefficient of 1,3,4,6,7,8-hexahydro-1-methyl-2H-pyrimido[1,2-a]pyrimidonium bis(pentafluoroethyl)sulfonamide (Liquid); method: Chromatography
Temperature, K	Activity coefficient of 1,3,4,6,7,8-hexahydro-1-methyl-2H-pyrimido[1,2-a]pyrimidonium bis(pentafluoroethyl)sulfonamide	uncertainty
308.15	5.11	.1533
318.15	4.69	.1407
328.15	4.41	.1323
338.15	4.22	.1266
348.15	3.92	.1176

System: 1-heptene + 1,3,4,6,7,8-hexahydro-1-methyl-2H-pyrimido[1,2-a]pyrimidonium bis(pentafluoroethyl)sulfonamide; phases: Liquid
Fixed: Pressure, kPa = 101
Fixed: Mole fraction of 1,3,4,6,7,8-hexahydro-1-methyl-2H-pyrimido[1,2-a]pyrimidonium bis(pentafluoroethyl)sulfonamide = 0
Property: Activity coefficient of 1,3,4,6,7,8-hexahydro-1-methyl-2H-pyrimido[1,2-a]pyrimidonium bis(pentafluoroethyl)sulfonamide (Liquid); method: Chromatography
Temperature, K	Activity coefficient of 1,3,4,6,7,8-hexahydro-1-methyl-2H-pyrimido[1,2-a]pyrimidonium bis(pentafluoroethyl)sulfonamide	uncertainty
308.15	10.4	.312
318.15	9.52	.2856
328.15	8.94	.2682
338.15	8.52	.2556
348.15	7.86	.2358

System: 1-octene + 1,3,4,6,7,8-hexahydro-1-methyl-2H-pyrimido[1,2-a]pyrimidonium bis(pentafluoroethyl)sulfonamide; phases: Liquid
Fixed: Pressure, kPa = 101
Fixed: Mole fraction of 1,3,4,6,7,8-hexahydro-1-methyl-2H-pyrimido[1,2-a]pyrimidonium bis(pentafluoroethyl)sulfonamide = 0
Property: Activity coefficient of 1,3,4,6,7,8-hexahydro-1-methyl-2H-pyrimido[1,2-a]pyrimidonium bis(pentafluoroethyl)sulfonamide (Liquid); method: Chromatography
Temperature, K	Activity coefficient of 1,3,4,6,7,8-hexahydro-1-methyl-2H-pyrimido[1,2-a]pyrimidonium bis(pentafluoroethyl)sulfonamide	uncertainty
308.15	14.2	.426
318.15	13.2	.396
328.15	12.3	.369
338.15	11.5	.345
348.15	10.7	.321

System: 1-decene + 1,3,4,6,7,8-hexahydro-1-methyl-2H-pyrimido[1,2-a]pyrimidonium bis(pentafluoroethyl)sulfonamide; phases: Liquid
Fixed: Pressure, kPa = 101
Fixed: Mole fraction of 1,3,4,6,7,8-hexahydro-1-methyl-2H-pyrimido[1,2-a]pyrimidonium bis(pentafluoroethyl)sulfonamide = 0
Property: Activity coefficient of 1,3,4,6,7,8-hexahydro-1-methyl-2H-pyrimido[1,2-a]pyrimidonium bis(pentafluoroethyl)sulfonamide (Liquid); method: Chromatography
Temperature, K	Activity coefficient of 1,3,4,6,7,8-hexahydro-1-methyl-2H-pyrimido[1,2-a]pyrimidonium bis(pentafluoroethyl)sulfonamide	uncertainty
308.15	26.5	.795
318.15	24.4	.732
328.15	22.6	.678
338.15	21.1	.633
348.15	19.1	.573

System: 1-pentyne + 1,3,4,6,7,8-hexahydro-1-methyl-2H-pyrimido[1,2-a]pyrimidonium bis(pentafluoroethyl)sulfonamide; phases: Liquid
Fixed: Pressure, kPa = 101
Fixed: Mole fraction of 1,3,4,6,7,8-hexahydro-1-methyl-2H-pyrimido[1,2-a]pyrimidonium bis(pentafluoroethyl)sulfonamide = 0
Property: Activity coefficient of 1,3,4,6,7,8-hexahydro-1-methyl-2H-pyrimido[1,2-a]pyrimidonium bis(pentafluoroethyl)sulfonamide (Liquid); method: Chromatography
Temperature, K	Activity coefficient of 1,3,4,6,7,8-hexahydro-1-methyl-2H-pyrimido[1,2-a]pyrimidonium bis(pentafluoroethyl)sulfonamide	uncertainty
308.15	2.08	.0624
318.15	2.06	.0618
328.15	2.03	.0609
338.15	2.02	.0606
348.15	1.99	.0597

System: n-butylacetylene + 1,3,4,6,7,8-hexahydro-1-methyl-2H-pyrimido[1,2-a]pyrimidonium bis(pentafluoroethyl)sulfonamide; phases: Liquid
Fixed: Pressure, kPa = 101
Fixed: Mole fraction of 1,3,4,6,7,8-hexahydro-1-methyl-2H-pyrimido[1,2-a]pyrimidonium bis(pentafluoroethyl)sulfonamide = 0
Property: Activity coefficient of 1,3,4,6,7,8-hexahydro-1-methyl-2H-pyrimido[1,2-a]pyrimidonium bis(pentafluoroethyl)sulfonamide (Liquid); method: Chromatography
Temperature, K	Activity coefficient of 1,3,4,6,7,8-hexahydro-1-methyl-2H-pyrimido[1,2-a]pyrimidonium bis(pentafluoroethyl)sulfonamide	uncertainty
308.15	2.8	.084
318.15	2.77	.0831
328.15	2.74	.0822
338.15	2.7	.081
348.15	2.65	.0795

System: 1-heptyne + 1,3,4,6,7,8-hexahydro-1-methyl-2H-pyrimido[1,2-a]pyrimidonium bis(pentafluoroethyl)sulfonamide; phases: Liquid
Fixed: Pressure, kPa = 101
Fixed: Mole fraction of 1,3,4,6,7,8-hexahydro-1-methyl-2H-pyrimido[1,2-a]pyrimidonium bis(pentafluoroethyl)sulfonamide = 0
Property: Activity coefficient of 1,3,4,6,7,8-hexahydro-1-methyl-2H-pyrimido[1,2-a]pyrimidonium bis(pentafluoroethyl)sulfonamide (Liquid); method: Chromatography
Temperature, K	Activity coefficient of 1,3,4,6,7,8-hexahydro-1-methyl-2H-pyrimido[1,2-a]pyrimidonium bis(pentafluoroethyl)sulfonamide	uncertainty
308.15	3.81	.1143
318.15	3.73	.1119
328.15	3.67	.1101
338.15	3.59	.1077
348.15	3.51	.1053

System: 1-octyne + 1,3,4,6,7,8-hexahydro-1-methyl-2H-pyrimido[1,2-a]pyrimidonium bis(pentafluoroethyl)sulfonamide; phases: Liquid
Fixed: Pressure, kPa = 101
Fixed: Mole fraction of 1,3,4,6,7,8-hexahydro-1-methyl-2H-pyrimido[1,2-a]pyrimidonium bis(pentafluoroethyl)sulfonamide = 0
Property: Activity coefficient of 1,3,4,6,7,8-hexahydro-1-methyl-2H-pyrimido[1,2-a]pyrimidonium bis(pentafluoroethyl)sulfonamide (Liquid); method: Chromatography
Temperature, K	Activity coefficient of 1,3,4,6,7,8-hexahydro-1-methyl-2H-pyrimido[1,2-a]pyrimidonium bis(pentafluoroethyl)sulfonamide	uncertainty
308.15	5.24	.1572
318.15	5.11	.1533
328.15	5.01	.1503
338.15	4.83	.1449
348.15	4.71	.1413

System: benzene + 1,3,4,6,7,8-hexahydro-1-methyl-2H-pyrimido[1,2-a]pyrimidonium bis(pentafluoroethyl)sulfonamide; phases: Liquid
Fixed: Pressure, kPa = 101
Fixed: Mole fraction of 1,3,4,6,7,8-hexahydro-1-methyl-2H-pyrimido[1,2-a]pyrimidonium bis(pentafluoroethyl)sulfonamide = 0
Property: Activity coefficient of 1,3,4,6,7,8-hexahydro-1-methyl-2H-pyrimido[1,2-a]pyrimidonium bis(pentafluoroethyl)sulfonamide (Liquid); method: Chromatography
Temperature, K	Activity coefficient of 1,3,4,6,7,8-hexahydro-1-methyl-2H-pyrimido[1,2-a]pyrimidonium bis(pentafluoroethyl)sulfonamide	uncertainty
308.15	.821	.02463
318.15	.836	.02508
328.15	.854	.02562
338.15	.872	.02616
348.15	.887	.02661

System: methylbenzene + 1,3,4,6,7,8-hexahydro-1-methyl-2H-pyrimido[1,2-a]pyrimidonium bis(pentafluoroethyl)sulfonamide; phases: Liquid
Fixed: Pressure, kPa = 101
Fixed: Mole fraction of 1,3,4,6,7,8-hexahydro-1-methyl-2H-pyrimido[1,2-a]pyrimidonium bis(pentafluoroethyl)sulfonamide = 0
Property: Activity coefficient of 1,3,4,6,7,8-hexahydro-1-methyl-2H-pyrimido[1,2-a]pyrimidonium bis(pentafluoroethyl)sulfonamide (Liquid); method: Chromatography
Temperature, K	Activity coefficient of 1,3,4,6,7,8-hexahydro-1-methyl-2H-pyrimido[1,2-a]pyrimidonium bis(pentafluoroethyl)sulfonamide	uncertainty
308.15	1.18	.0354
318.15	1.2	.036
328.15	1.23	.0369
338.15	1.25	.0375
348.15	1.27	.0381

System: .alpha.-methyltoluene + 1,3,4,6,7,8-hexahydro-1-methyl-2H-pyrimido[1,2-a]pyrimidonium bis(pentafluoroethyl)sulfonamide; phases: Liquid
Fixed: Pressure, kPa = 101
Fixed: Mole fraction of 1,3,4,6,7,8-hexahydro-1-methyl-2H-pyrimido[1,2-a]pyrimidonium bis(pentafluoroethyl)sulfonamide = 0
Property: Activity coefficient of 1,3,4,6,7,8-hexahydro-1-methyl-2H-pyrimido[1,2-a]pyrimidonium bis(pentafluoroethyl)sulfonamide (Liquid); method: Chromatography
Temperature, K	Activity coefficient of 1,3,4,6,7,8-hexahydro-1-methyl-2H-pyrimido[1,2-a]pyrimidonium bis(pentafluoroethyl)sulfonamide	uncertainty
308.15	1.69	.0507
318.15	1.71	.0513
328.15	1.73	.0519
338.15	1.75	.0525
348.15	1.76	.0528

System: 1,2-xylene + 1,3,4,6,7,8-hexahydro-1-methyl-2H-pyrimido[1,2-a]pyrimidonium bis(pentafluoroethyl)sulfonamide; phases: Liquid
Fixed: Pressure, kPa = 101
Fixed: Mole fraction of 1,3,4,6,7,8-hexahydro-1-methyl-2H-pyrimido[1,2-a]pyrimidonium bis(pentafluoroethyl)sulfonamide = 0
Property: Activity coefficient of 1,3,4,6,7,8-hexahydro-1-methyl-2H-pyrimido[1,2-a]pyrimidonium bis(pentafluoroethyl)sulfonamide (Liquid); method: Chromatography
Temperature, K	Activity coefficient of 1,3,4,6,7,8-hexahydro-1-methyl-2H-pyrimido[1,2-a]pyrimidonium bis(pentafluoroethyl)sulfonamide	uncertainty
308.15	1.59	.0477
318.15	1.61	.0483
328.15	1.64	.0492
338.15	1.66	.0498
348.15	1.68	.0504

System: m-xylene + 1,3,4,6,7,8-hexahydro-1-methyl-2H-pyrimido[1,2-a]pyrimidonium bis(pentafluoroethyl)sulfonamide; phases: Liquid
Fixed: Pressure, kPa = 101
Fixed: Mole fraction of 1,3,4,6,7,8-hexahydro-1-methyl-2H-pyrimido[1,2-a]pyrimidonium bis(pentafluoroethyl)sulfonamide = 0
Property: Activity coefficient of 1,3,4,6,7,8-hexahydro-1-methyl-2H-pyrimido[1,2-a]pyrimidonium bis(pentafluoroethyl)sulfonamide (Liquid); method: Chromatography
Temperature, K	Activity coefficient of 1,3,4,6,7,8-hexahydro-1-methyl-2H-pyrimido[1,2-a]pyrimidonium bis(pentafluoroethyl)sulfonamide	uncertainty
308.15	1.74	.0522
318.15	1.76	.0528
328.15	1.8	.054
338.15	1.82	.0546
348.15	1.83	.0549

System: 1,4-xylene + 1,3,4,6,7,8-hexahydro-1-methyl-2H-pyrimido[1,2-a]pyrimidonium bis(pentafluoroethyl)sulfonamide; phases: Liquid
Fixed: Pressure, kPa = 101
Fixed: Mole fraction of 1,3,4,6,7,8-hexahydro-1-methyl-2H-pyrimido[1,2-a]pyrimidonium bis(pentafluoroethyl)sulfonamide = 0
Property: Activity coefficient of 1,3,4,6,7,8-hexahydro-1-methyl-2H-pyrimido[1,2-a]pyrimidonium bis(pentafluoroethyl)sulfonamide (Liquid); method: Chromatography
Temperature, K	Activity coefficient of 1,3,4,6,7,8-hexahydro-1-methyl-2H-pyrimido[1,2-a]pyrimidonium bis(pentafluoroethyl)sulfonamide	uncertainty
308.15	1.78	.0534
318.15	1.8	.054
328.15	1.81	.0543
338.15	1.84	.0552
348.15	1.86	.0558

System: phenylethene + 1,3,4,6,7,8-hexahydro-1-methyl-2H-pyrimido[1,2-a]pyrimidonium bis(pentafluoroethyl)sulfonamide; phases: Liquid
Fixed: Pressure, kPa = 101
Fixed: Mole fraction of 1,3,4,6,7,8-hexahydro-1-methyl-2H-pyrimido[1,2-a]pyrimidonium bis(pentafluoroethyl)sulfonamide = 0
Property: Activity coefficient of 1,3,4,6,7,8-hexahydro-1-methyl-2H-pyrimido[1,2-a]pyrimidonium bis(pentafluoroethyl)sulfonamide (Liquid); method: Chromatography
Temperature, K	Activity coefficient of 1,3,4,6,7,8-hexahydro-1-methyl-2H-pyrimido[1,2-a]pyrimidonium bis(pentafluoroethyl)sulfonamide	uncertainty
318.15	.993	.02979
328.15	1.02	.0306
338.15	1.05	.0315
348.15	1.08	.0324

System: (1-methylethenyl)benzene + 1,3,4,6,7,8-hexahydro-1-methyl-2H-pyrimido[1,2-a]pyrimidonium bis(pentafluoroethyl)sulfonamide; phases: Liquid
Fixed: Pressure, kPa = 101
Fixed: Mole fraction of 1,3,4,6,7,8-hexahydro-1-methyl-2H-pyrimido[1,2-a]pyrimidonium bis(pentafluoroethyl)sulfonamide = 0
Property: Activity coefficient of 1,3,4,6,7,8-hexahydro-1-methyl-2H-pyrimido[1,2-a]pyrimidonium bis(pentafluoroethyl)sulfonamide (Liquid); method: Chromatography
Temperature, K	Activity coefficient of 1,3,4,6,7,8-hexahydro-1-methyl-2H-pyrimido[1,2-a]pyrimidonium bis(pentafluoroethyl)sulfonamide	uncertainty
318.15	1.45	.0435
328.15	1.49	.0447
338.15	1.556	.04668
348.15	1.62	.0486

System: methyl alcohol + 1,3,4,6,7,8-hexahydro-1-methyl-2H-pyrimido[1,2-a]pyrimidonium bis(pentafluoroethyl)sulfonamide; phases: Liquid
Fixed: Pressure, kPa = 101
Fixed: Mole fraction of 1,3,4,6,7,8-hexahydro-1-methyl-2H-pyrimido[1,2-a]pyrimidonium bis(pentafluoroethyl)sulfonamide = 0
Property: Activity coefficient of 1,3,4,6,7,8-hexahydro-1-methyl-2H-pyrimido[1,2-a]pyrimidonium bis(pentafluoroethyl)sulfonamide (Liquid); method: Chromatography
Temperature, K	Activity coefficient of 1,3,4,6,7,8-hexahydro-1-methyl-2H-pyrimido[1,2-a]pyrimidonium bis(pentafluoroethyl)sulfonamide	uncertainty
308.15	1.09	.0327
318.15	1.02	.0306
328.15	.978	.02934
338.15	.941	.02823
348.15	.907	.02721

System: ethanol + 1,3,4,6,7,8-hexahydro-1-methyl-2H-pyrimido[1,2-a]pyrimidonium bis(pentafluoroethyl)sulfonamide; phases: Liquid
Fixed: Pressure, kPa = 101
Fixed: Mole fraction of 1,3,4,6,7,8-hexahydro-1-methyl-2H-pyrimido[1,2-a]pyrimidonium bis(pentafluoroethyl)sulfonamide = 0
Property: Activity coefficient of 1,3,4,6,7,8-hexahydro-1-methyl-2H-pyrimido[1,2-a]pyrimidonium bis(pentafluoroethyl)sulfonamide (Liquid); method: Chromatography
Temperature, K	Activity coefficient of 1,3,4,6,7,8-hexahydro-1-methyl-2H-pyrimido[1,2-a]pyrimidonium bis(pentafluoroethyl)sulfonamide	uncertainty
308.15	1.37	.0411
318.15	1.28	.0384
328.15	1.2	.036
338.15	1.16	.0348
348.15	1.1	.033

System: n-propyl alcohol + 1,3,4,6,7,8-hexahydro-1-methyl-2H-pyrimido[1,2-a]pyrimidonium bis(pentafluoroethyl)sulfonamide; phases: Liquid
Fixed: Pressure, kPa = 101
Fixed: Mole fraction of 1,3,4,6,7,8-hexahydro-1-methyl-2H-pyrimido[1,2-a]pyrimidonium bis(pentafluoroethyl)sulfonamide = 0
Property: Activity coefficient of 1,3,4,6,7,8-hexahydro-1-methyl-2H-pyrimido[1,2-a]pyrimidonium bis(pentafluoroethyl)sulfonamide (Liquid); method: Chromatography
Temperature, K	Activity coefficient of 1,3,4,6,7,8-hexahydro-1-methyl-2H-pyrimido[1,2-a]pyrimidonium bis(pentafluoroethyl)sulfonamide	uncertainty
308.15	1.69	.0507
318.15	1.57	.0471
328.15	1.45	.0435
338.15	1.39	.0417
348.15	1.32	.0396

System: n-butanol + 1,3,4,6,7,8-hexahydro-1-methyl-2H-pyrimido[1,2-a]pyrimidonium bis(pentafluoroethyl)sulfonamide; phases: Liquid
Fixed: Pressure, kPa = 101
Fixed: Mole fraction of 1,3,4,6,7,8-hexahydro-1-methyl-2H-pyrimido[1,2-a]pyrimidonium bis(pentafluoroethyl)sulfonamide = 0
Property: Activity coefficient of 1,3,4,6,7,8-hexahydro-1-methyl-2H-pyrimido[1,2-a]pyrimidonium bis(pentafluoroethyl)sulfonamide (Liquid); method: Chromatography
Temperature, K	Activity coefficient of 1,3,4,6,7,8-hexahydro-1-methyl-2H-pyrimido[1,2-a]pyrimidonium bis(pentafluoroethyl)sulfonamide	uncertainty
308.15	2.1	.063
318.15	1.95	.0585
328.15	1.79	.0537
338.15	1.7	.051
348.15	1.6	.048

System: water + 1,3,4,6,7,8-hexahydro-1-methyl-2H-pyrimido[1,2-a]pyrimidonium bis(pentafluoroethyl)sulfonamide; phases: Liquid
Fixed: Pressure, kPa = 101
Fixed: Mole fraction of 1,3,4,6,7,8-hexahydro-1-methyl-2H-pyrimido[1,2-a]pyrimidonium bis(pentafluoroethyl)sulfonamide = 0
Property: Activity coefficient of 1,3,4,6,7,8-hexahydro-1-methyl-2H-pyrimido[1,2-a]pyrimidonium bis(pentafluoroethyl)sulfonamide (Liquid); method: Chromatography
Temperature, K	Activity coefficient of 1,3,4,6,7,8-hexahydro-1-methyl-2H-pyrimido[1,2-a]pyrimidonium bis(pentafluoroethyl)sulfonamide	uncertainty
308.15	3.39	.1017
318.15	2.87	.0861
328.15	2.49	.0747
338.15	2.02	.0606
348.15	1.78	.0534

System: thiophene + 1,3,4,6,7,8-hexahydro-1-methyl-2H-pyrimido[1,2-a]pyrimidonium bis(pentafluoroethyl)sulfonamide; phases: Liquid
Fixed: Pressure, kPa = 101
Fixed: Mole fraction of 1,3,4,6,7,8-hexahydro-1-methyl-2H-pyrimido[1,2-a]pyrimidonium bis(pentafluoroethyl)sulfonamide = 0
Property: Activity coefficient of 1,3,4,6,7,8-hexahydro-1-methyl-2H-pyrimido[1,2-a]pyrimidonium bis(pentafluoroethyl)sulfonamide (Liquid); method: Chromatography
Temperature, K	Activity coefficient of 1,3,4,6,7,8-hexahydro-1-methyl-2H-pyrimido[1,2-a]pyrimidonium bis(pentafluoroethyl)sulfonamide	uncertainty
308.15	.765	.02295
318.15	.776	.02328
328.15	.785	.02355
338.15	.795	.02385
348.15	.805	.02415

System: oxacyclopentane + 1,3,4,6,7,8-hexahydro-1-methyl-2H-pyrimido[1,2-a]pyrimidonium bis(pentafluoroethyl)sulfonamide; phases: Liquid
Fixed: Pressure, kPa = 101
Fixed: Mole fraction of 1,3,4,6,7,8-hexahydro-1-methyl-2H-pyrimido[1,2-a]pyrimidonium bis(pentafluoroethyl)sulfonamide = 0
Property: Activity coefficient of 1,3,4,6,7,8-hexahydro-1-methyl-2H-pyrimido[1,2-a]pyrimidonium bis(pentafluoroethyl)sulfonamide (Liquid); method: Chromatography
Temperature, K	Activity coefficient of 1,3,4,6,7,8-hexahydro-1-methyl-2H-pyrimido[1,2-a]pyrimidonium bis(pentafluoroethyl)sulfonamide	uncertainty
308.15	.558	.01674
318.15	.574	.01722
328.15	.59	.0177
338.15	.603	.01809
348.15	.611	.01833

System: p-dioxane + 1,3,4,6,7,8-hexahydro-1-methyl-2H-pyrimido[1,2-a]pyrimidonium bis(pentafluoroethyl)sulfonamide; phases: Liquid
Fixed: Pressure, kPa = 101
Fixed: Mole fraction of 1,3,4,6,7,8-hexahydro-1-methyl-2H-pyrimido[1,2-a]pyrimidonium bis(pentafluoroethyl)sulfonamide = 0
Property: Activity coefficient of 1,3,4,6,7,8-hexahydro-1-methyl-2H-pyrimido[1,2-a]pyrimidonium bis(pentafluoroethyl)sulfonamide (Liquid); method: Chromatography
Temperature, K	Activity coefficient of 1,3,4,6,7,8-hexahydro-1-methyl-2H-pyrimido[1,2-a]pyrimidonium bis(pentafluoroethyl)sulfonamide	uncertainty
318.15	.609	.01827
328.15	.624	.01872
338.15	.638	.01914
348.15	.656	.01968

System: 1,1-dimethyl-1-methoxyethane + 1,3,4,6,7,8-hexahydro-1-methyl-2H-pyrimido[1,2-a]pyrimidonium bis(pentafluoroethyl)sulfonamide; phases: Liquid
Fixed: Pressure, kPa = 101
Fixed: Mole fraction of 1,3,4,6,7,8-hexahydro-1-methyl-2H-pyrimido[1,2-a]pyrimidonium bis(pentafluoroethyl)sulfonamide = 0
Property: Activity coefficient of 1,3,4,6,7,8-hexahydro-1-methyl-2H-pyrimido[1,2-a]pyrimidonium bis(pentafluoroethyl)sulfonamide (Liquid); method: Chromatography
Temperature, K	Activity coefficient of 1,3,4,6,7,8-hexahydro-1-methyl-2H-pyrimido[1,2-a]pyrimidonium bis(pentafluoroethyl)sulfonamide	uncertainty
308.15	1.89	.0567
318.15	1.86	.0558
328.15	1.84	.0552
338.15	1.83	.0549
348.15	1.82	.0546

System: methyl tert-amyl ether + 1,3,4,6,7,8-hexahydro-1-methyl-2H-pyrimido[1,2-a]pyrimidonium bis(pentafluoroethyl)sulfonamide; phases: Liquid
Fixed: Pressure, kPa = 101
Fixed: Mole fraction of 1,3,4,6,7,8-hexahydro-1-methyl-2H-pyrimido[1,2-a]pyrimidonium bis(pentafluoroethyl)sulfonamide = 0
Property: Activity coefficient of 1,3,4,6,7,8-hexahydro-1-methyl-2H-pyrimido[1,2-a]pyrimidonium bis(pentafluoroethyl)sulfonamide (Liquid); method: Chromatography
Temperature, K	Activity coefficient of 1,3,4,6,7,8-hexahydro-1-methyl-2H-pyrimido[1,2-a]pyrimidonium bis(pentafluoroethyl)sulfonamide	uncertainty
308.15	2.63	.0789
318.15	2.59	.0777
328.15	2.56	.0768
338.15	2.53	.0759
348.15	2.5	.075

System: ether + 1,3,4,6,7,8-hexahydro-1-methyl-2H-pyrimido[1,2-a]pyrimidonium bis(pentafluoroethyl)sulfonamide; phases: Liquid
Fixed: Pressure, kPa = 101
Fixed: Mole fraction of 1,3,4,6,7,8-hexahydro-1-methyl-2H-pyrimido[1,2-a]pyrimidonium bis(pentafluoroethyl)sulfonamide = 0
Property: Activity coefficient of 1,3,4,6,7,8-hexahydro-1-methyl-2H-pyrimido[1,2-a]pyrimidonium bis(pentafluoroethyl)sulfonamide (Liquid); method: Chromatography
Temperature, K	Activity coefficient of 1,3,4,6,7,8-hexahydro-1-methyl-2H-pyrimido[1,2-a]pyrimidonium bis(pentafluoroethyl)sulfonamide	uncertainty
308.15	1.92	.0576
318.15	1.89	.0567
328.15	1.86	.0558
338.15	1.83	.0549
348.15	1.8	.054

System: 4-oxaheptane + 1,3,4,6,7,8-hexahydro-1-methyl-2H-pyrimido[1,2-a]pyrimidonium bis(pentafluoroethyl)sulfonamide; phases: Liquid
Fixed: Pressure, kPa = 101
Fixed: Mole fraction of 1,3,4,6,7,8-hexahydro-1-methyl-2H-pyrimido[1,2-a]pyrimidonium bis(pentafluoroethyl)sulfonamide = 0
Property: Activity coefficient of 1,3,4,6,7,8-hexahydro-1-methyl-2H-pyrimido[1,2-a]pyrimidonium bis(pentafluoroethyl)sulfonamide (Liquid); method: Chromatography
Temperature, K	Activity coefficient of 1,3,4,6,7,8-hexahydro-1-methyl-2H-pyrimido[1,2-a]pyrimidonium bis(pentafluoroethyl)sulfonamide	uncertainty
308.15	4.62	.1386
318.15	4.43	.1329
328.15	4.28	.1284
338.15	4.13	.1239
348.15	4	.12

System: butane, 1,1'-oxybis- + 1,3,4,6,7,8-hexahydro-1-methyl-2H-pyrimido[1,2-a]pyrimidonium bis(pentafluoroethyl)sulfonamide; phases: Liquid
Fixed: Pressure, kPa = 101
Fixed: Mole fraction of 1,3,4,6,7,8-hexahydro-1-methyl-2H-pyrimido[1,2-a]pyrimidonium bis(pentafluoroethyl)sulfonamide = 0
Property: Activity coefficient of 1,3,4,6,7,8-hexahydro-1-methyl-2H-pyrimido[1,2-a]pyrimidonium bis(pentafluoroethyl)sulfonamide (Liquid); method: Chromatography
Temperature, K	Activity coefficient of 1,3,4,6,7,8-hexahydro-1-methyl-2H-pyrimido[1,2-a]pyrimidonium bis(pentafluoroethyl)sulfonamide	uncertainty
308.15	9.41	.2823
318.15	8.89	.2667
328.15	8.32	.2496
338.15	7.86	.2358
348.15	7.42	.2226

System: 2-ethoxy-2-methylpropane + 1,3,4,6,7,8-hexahydro-1-methyl-2H-pyrimido[1,2-a]pyrimidonium bis(pentafluoroethyl)sulfonamide; phases: Liquid
Fixed: Pressure, kPa = 101
Fixed: Mole fraction of 1,3,4,6,7,8-hexahydro-1-methyl-2H-pyrimido[1,2-a]pyrimidonium bis(pentafluoroethyl)sulfonamide = 0
Property: Activity coefficient of 1,3,4,6,7,8-hexahydro-1-methyl-2H-pyrimido[1,2-a]pyrimidonium bis(pentafluoroethyl)sulfonamide (Liquid); method: Chromatography
Temperature, K	Activity coefficient of 1,3,4,6,7,8-hexahydro-1-methyl-2H-pyrimido[1,2-a]pyrimidonium bis(pentafluoroethyl)sulfonamide	uncertainty
308.15	3.72	.1116
318.15	3.62	.1086
328.15	3.55	.1065
338.15	3.47	.1041
348.15	3.39	.1017

System: acetone + 1,3,4,6,7,8-hexahydro-1-methyl-2H-pyrimido[1,2-a]pyrimidonium bis(pentafluoroethyl)sulfonamide; phases: Liquid
Fixed: Pressure, kPa = 101
Fixed: Mole fraction of 1,3,4,6,7,8-hexahydro-1-methyl-2H-pyrimido[1,2-a]pyrimidonium bis(pentafluoroethyl)sulfonamide = 0
Property: Activity coefficient of 1,3,4,6,7,8-hexahydro-1-methyl-2H-pyrimido[1,2-a]pyrimidonium bis(pentafluoroethyl)sulfonamide (Liquid); method: Chromatography
Temperature, K	Activity coefficient of 1,3,4,6,7,8-hexahydro-1-methyl-2H-pyrimido[1,2-a]pyrimidonium bis(pentafluoroethyl)sulfonamide	uncertainty
308.15	.399	.01197
318.15	.41	.0123
328.15	.422	.01266
338.15	.432	.01296
348.15	.443	.01329

System: propyl methyl ketone + 1,3,4,6,7,8-hexahydro-1-methyl-2H-pyrimido[1,2-a]pyrimidonium bis(pentafluoroethyl)sulfonamide; phases: Liquid
Fixed: Pressure, kPa = 101
Fixed: Mole fraction of 1,3,4,6,7,8-hexahydro-1-methyl-2H-pyrimido[1,2-a]pyrimidonium bis(pentafluoroethyl)sulfonamide = 0
Property: Activity coefficient of 1,3,4,6,7,8-hexahydro-1-methyl-2H-pyrimido[1,2-a]pyrimidonium bis(pentafluoroethyl)sulfonamide (Liquid); method: Chromatography
Temperature, K	Activity coefficient of 1,3,4,6,7,8-hexahydro-1-methyl-2H-pyrimido[1,2-a]pyrimidonium bis(pentafluoroethyl)sulfonamide	uncertainty
308.15	.634	.01902
318.15	.652	.01956
328.15	.672	.02016
338.15	.686	.02058
348.15	.705	.02115

System: 3-pentanone + 1,3,4,6,7,8-hexahydro-1-methyl-2H-pyrimido[1,2-a]pyrimidonium bis(pentafluoroethyl)sulfonamide; phases: Liquid
Fixed: Pressure, kPa = 101
Fixed: Mole fraction of 1,3,4,6,7,8-hexahydro-1-methyl-2H-pyrimido[1,2-a]pyrimidonium bis(pentafluoroethyl)sulfonamide = 0
Property: Activity coefficient of 1,3,4,6,7,8-hexahydro-1-methyl-2H-pyrimido[1,2-a]pyrimidonium bis(pentafluoroethyl)sulfonamide (Liquid); method: Chromatography
Temperature, K	Activity coefficient of 1,3,4,6,7,8-hexahydro-1-methyl-2H-pyrimido[1,2-a]pyrimidonium bis(pentafluoroethyl)sulfonamide	uncertainty
308.15	.651	.01953
318.15	.676	.02028
328.15	.7	.021
338.15	.716	.02148
348.15	.735	.02205

System: methyl n-butyl ketone + 1,3,4,6,7,8-hexahydro-1-methyl-2H-pyrimido[1,2-a]pyrimidonium bis(pentafluoroethyl)sulfonamide; phases: Liquid
Fixed: Pressure, kPa = 101
Fixed: Mole fraction of 1,3,4,6,7,8-hexahydro-1-methyl-2H-pyrimido[1,2-a]pyrimidonium bis(pentafluoroethyl)sulfonamide = 0
Property: Activity coefficient of 1,3,4,6,7,8-hexahydro-1-methyl-2H-pyrimido[1,2-a]pyrimidonium bis(pentafluoroethyl)sulfonamide (Liquid); method: Chromatography
Temperature, K	Activity coefficient of 1,3,4,6,7,8-hexahydro-1-methyl-2H-pyrimido[1,2-a]pyrimidonium bis(pentafluoroethyl)sulfonamide	uncertainty
308.15	.836	.02508
318.15	.854	.02562
328.15	.874	.02622
338.15	.888	.02664
348.15	.905	.02715

System: ethyl propyl ketone + 1,3,4,6,7,8-hexahydro-1-methyl-2H-pyrimido[1,2-a]pyrimidonium bis(pentafluoroethyl)sulfonamide; phases: Liquid
Fixed: Pressure, kPa = 101
Fixed: Mole fraction of 1,3,4,6,7,8-hexahydro-1-methyl-2H-pyrimido[1,2-a]pyrimidonium bis(pentafluoroethyl)sulfonamide = 0
Property: Activity coefficient of 1,3,4,6,7,8-hexahydro-1-methyl-2H-pyrimido[1,2-a]pyrimidonium bis(pentafluoroethyl)sulfonamide (Liquid); method: Chromatography
Temperature, K	Activity coefficient of 1,3,4,6,7,8-hexahydro-1-methyl-2H-pyrimido[1,2-a]pyrimidonium bis(pentafluoroethyl)sulfonamide	uncertainty
308.15	.901	.02703
318.15	.919	.02757
328.15	.937	.02811
338.15	.952	.02856
348.15	.97	.0291

System: cyclohexanone + 1,3,4,6,7,8-hexahydro-1-methyl-2H-pyrimido[1,2-a]pyrimidonium bis(pentafluoroethyl)sulfonamide; phases: Liquid
Fixed: Pressure, kPa = 101
Fixed: Mole fraction of 1,3,4,6,7,8-hexahydro-1-methyl-2H-pyrimido[1,2-a]pyrimidonium bis(pentafluoroethyl)sulfonamide = 0
Property: Activity coefficient of 1,3,4,6,7,8-hexahydro-1-methyl-2H-pyrimido[1,2-a]pyrimidonium bis(pentafluoroethyl)sulfonamide (Liquid); method: Chromatography
Temperature, K	Activity coefficient of 1,3,4,6,7,8-hexahydro-1-methyl-2H-pyrimido[1,2-a]pyrimidonium bis(pentafluoroethyl)sulfonamide	uncertainty
308.15	.488	.01464
318.15	.501	.01503
328.15	.514	.01542
338.15	.523	.01569
348.15	.537	.01611

System: acetonitrile + 1,3,4,6,7,8-hexahydro-1-methyl-2H-pyrimido[1,2-a]pyrimidonium bis(pentafluoroethyl)sulfonamide; phases: Liquid
Fixed: Pressure, kPa = 101
Fixed: Mole fraction of 1,3,4,6,7,8-hexahydro-1-methyl-2H-pyrimido[1,2-a]pyrimidonium bis(pentafluoroethyl)sulfonamide = 0
Property: Activity coefficient of 1,3,4,6,7,8-hexahydro-1-methyl-2H-pyrimido[1,2-a]pyrimidonium bis(pentafluoroethyl)sulfonamide (Liquid); method: Chromatography
Temperature, K	Activity coefficient of 1,3,4,6,7,8-hexahydro-1-methyl-2H-pyrimido[1,2-a]pyrimidonium bis(pentafluoroethyl)sulfonamide	uncertainty
308.15	.486	.01458
318.15	.489	.01467
328.15	.486	.01458
338.15	.489	.01467
348.15	.49	.0147

System: pyridine + 1,3,4,6,7,8-hexahydro-1-methyl-2H-pyrimido[1,2-a]pyrimidonium bis(pentafluoroethyl)sulfonamide; phases: Liquid
Fixed: Pressure, kPa = 101
Fixed: Mole fraction of 1,3,4,6,7,8-hexahydro-1-methyl-2H-pyrimido[1,2-a]pyrimidonium bis(pentafluoroethyl)sulfonamide = 0
Property: Activity coefficient of 1,3,4,6,7,8-hexahydro-1-methyl-2H-pyrimido[1,2-a]pyrimidonium bis(pentafluoroethyl)sulfonamide (Liquid); method: Chromatography
Temperature, K	Activity coefficient of 1,3,4,6,7,8-hexahydro-1-methyl-2H-pyrimido[1,2-a]pyrimidonium bis(pentafluoroethyl)sulfonamide	uncertainty
308.15	.269	.00807
318.15	.29	.0087
328.15	.312	.00936
338.15	.332	.00996
348.15	.354	.01062

System: 1-nitropropane + 1,3,4,6,7,8-hexahydro-1-methyl-2H-pyrimido[1,2-a]pyrimidonium bis(pentafluoroethyl)sulfonamide; phases: Liquid
Fixed: Pressure, kPa = 101
Fixed: Mole fraction of 1,3,4,6,7,8-hexahydro-1-methyl-2H-pyrimido[1,2-a]pyrimidonium bis(pentafluoroethyl)sulfonamide = 0
Property: Activity coefficient of 1,3,4,6,7,8-hexahydro-1-methyl-2H-pyrimido[1,2-a]pyrimidonium bis(pentafluoroethyl)sulfonamide (Liquid); method: Chromatography
Temperature, K	Activity coefficient of 1,3,4,6,7,8-hexahydro-1-methyl-2H-pyrimido[1,2-a]pyrimidonium bis(pentafluoroethyl)sulfonamide	uncertainty
308.15	.809	.02427
318.15	.804	.02412
328.15	.796	.02388
338.15	.791	.02373
348.15	.786	.02358
