Measured thermophysical data. Solubility and thermodynamic properties of sulfuryl fluoride in water
Source: J. Chem. Thermodyn., 2016, 10.1016/j.jct.2015.12.013
Compound 1: sulfuryl fluoride, F2O2S, purity 99.9%
Compound 2: water, H2O

System: sulfuryl fluoride + water; phases: Liquid, Gas
Property: Molality, mol/kg of sulfuryl fluoride (Liquid); method: volumetric
Temperature, K	Pressure, kPa	Molality, mol/kg of sulfuryl fluoride	uncertainty
283.15	124.2	.0156	.0003
283.15	223.3	.0281	.0003
283.15	323.7	.0397	.0003
283.15	425.6	.0513	.0003
283.15	525.7	.0625	.0003
288.15	123.3	.013	.0003
288.15	228	.0237	.0003
288.15	326.9	.0335	.0003
288.15	429.4	.0436	.0003
288.15	529.9	.053	.0003
293.15	127.6	.0116	.0003
293.15	230.3	.0198	.0003
293.15	328.7	.0276	.0003
293.15	427.1	.0353	.0003
293.15	528.9	.043	.0003
298.15	130	.0098	.0003
298.15	232	.0169	.0003
298.15	332.6	.0237	.0003
298.15	430.5	.0303	.0003
298.15	531.3	.037	.0003
303.15	135.3	.0079	.0003
303.15	236.4	.0139	.0003
303.15	333.3	.0199	.0003
303.15	432	.0256	.0003
303.15	531.3	.0308	.0003
308.15	132.7	.0068	.0003
308.15	236.7	.0121	.0003
308.15	335.5	.0168	.0003
308.15	434.8	.0215	.0003
308.15	536.7	.0262	.0003
