Measured thermophysical data. Solubility measurements of hydrogen in 1-butyl-3-methylimidazolium  tetrafluoroborate and the effect of carbon dioxide and a selected catalyst  on the hydrogen solubility in the ionic liquid
Source: J. Chem. Thermodyn., 2013, 10.1016/j.jct.2012.12.013
Compound 1: hydrogen, H2, purity 99.999%
Compound 2: carbon dioxide, CO2, purity 99.995%
Compound 3: 1-butyl-3-methylimidazolium tetrafluoroborate, C8H15BF4N2, purity 99.5%
Compound 4: rhodium(1+), [(1,2,5,6-.nu.)-1,5-cyclooctadiene][(2R,2'R,5R,5'R)-1,1'-(1,2-phenylene)bis[2,5-dimethylphospholane-kP]]-, tetrafluoroborate(1-) (1:1), C26H40BF4P2Rh, purity 99%

System: hydrogen + 1-butyl-3-methylimidazolium tetrafluoroborate; phases: Gas, Liquid
Property: Vapor or sublimation pressure, kPa (Gas); method: Isochoric PVT apparatus
Temperature, K	Mole fraction of hydrogen	Vapor or sublimation pressure, kPa	uncertainty
333.61	.0526	25800	10.32
338.39	.0526	25400	10.16
343.06	.0526	24500	9.8
348.01	.0526	23800	9.52
314.31	.075	42100	16.84
318.93	.075	41000	16.4
323.69	.075	39900	15.96
328.35	.075	39100	15.64
314.09	.0996	55200	22.08
318.82	.0996	53800	21.52
323.77	.0996	52600	21.04
328.58	.0996	51500	20.6
352.67	.0526	23100	9.24
357.46	.0526	22400	8.96
361.96	.0526	21800	8.72
333.09	.075	38100	15.24
337.93	.075	37400	14.96
342.75	.075	36500	14.6
347.74	.075	35700	14.28
333.39	.0996	50400	20.16
338.21	.0996	49300	19.72
343.05	.0996	48100	19.24
347.69	.0996	47200	18.88
353.61	.075	35000	14
357.32	.075	34600	13.84
361.67	.075	33800	13.52
365.79	.075	33400	13.36
352.62	.0996	46500	18.6
357.26	.0996	45900	18.36
362.21	.0996	45200	18.08
365.86	.0996	44500	17.8

System: carbon dioxide + hydrogen + 1-butyl-3-methylimidazolium tetrafluoroborate; phases: Gas, Liquid
Property: Vapor or sublimation pressure, kPa (Gas); method: Isochoric PVT apparatus
Mole fraction of hydrogen	Mole fraction of carbon dioxide	Temperature, K	Vapor or sublimation pressure, kPa	uncertainty
.0704	.302	314.33	52000	20.8
.0704	.302	318.86	51300	20.52
.0704	.302	323.84	50600	20.24
.0704	.302	328.26	50100	20.04
.0704	.302	333.25	49400	19.76
.0704	.302	338.03	48900	19.56
.0704	.302	342.85	48700	19.48
.0704	.302	347.56	48400	19.36
.0704	.302	352.46	48300	19.32
.0704	.302	357.07	48300	19.32
.0704	.302	361.55	48200	19.28
.0704	.302	365.52	48100	19.24
.0602	.4004	314.29	48700	19.48
.0602	.4004	318.94	48500	19.4
.0602	.4004	323.79	48400	19.36
.0602	.4004	328.36	48300	19.32
.0602	.4004	333.34	48700	19.48
.0602	.4004	338.1	48900	19.56
.0602	.4004	342.82	49100	19.64
.0602	.4004	347.67	49700	19.88
.0602	.4004	352.79	50400	20.16
.0602	.4004	357.84	51200	20.48
.0602	.4004	361.18	51700	20.68
.0602	.4004	364.83	52500	21
.0352	.2999	314.2	26290	10.516
.0352	.2999	318.9	26090	10.436
.0352	.2999	323.46	25990	10.396
.0352	.2999	328.44	25890	10.356
.0352	.2999	333.12	25790	10.316
.0352	.2999	337.87	25890	10.356
.0352	.2999	342.83	25890	10.356
.0352	.2999	347.57	25990	10.396
.0352	.2999	352.5	26090	10.436
.0352	.2999	357.9	26290	10.516
.0352	.2999	361.41	26390	10.556
.0352	.2999	364.89	26490	10.596

System: hydrogen + 1-butyl-3-methylimidazolium tetrafluoroborate + rhodium(1+), [(1,2,5,6-.nu.)-1,5-cyclooctadiene][(2R,2'R,5R,5'R)-1,1'-(1,2-phenylene)bis[2,5-dimethylphospholane-kP]]-, tetrafluoroborate(1-) (1:1); phases: Gas, Liquid
Property: Vapor or sublimation pressure, kPa (Gas); method: Isochoric PVT apparatus
Mole fraction of hydrogen	Mole fraction of rhodium(1+), [(1,2,5,6-.nu.)-1,5-cyclooctadiene][(2R,2'R,5R,5'R)-1,1'-(1,2-phenylene)bis[2,5-dimethylphospholane-kP]]-, tetrafluoroborate(1-) (1:1)	Temperature, K	Vapor or sublimation pressure, kPa	uncertainty
.1005	.0003	314.1	52300	20.92
.1005	.0003	318.95	51000	20.4
.1005	.0003	323.76	49800	19.92
.1005	.0003	328.41	48700	19.48
.1005	.0003	333.44	47600	19.04
.1005	.0003	338.02	46500	18.6
.1005	.0003	342.85	45400	18.16
.1005	.0003	347.58	44500	17.8
.1005	.0003	353.07	43700	17.48
.1005	.0003	356.98	43400	17.36
.1005	.0003	361.62	42900	17.16
.1005	.0003	365.85	42600	17.04
