Measured thermophysical data. Relative hydrophobicity of equilibrium phases in biphasic systems  (ionic liquid + water)
Source: J. Chem. Thermodyn., 2012, 10.1016/j.jct.2011.12.025
Compound 1: water, H2O, purity 99.8%
Compound 2: 1-hexyl-3-methylimidazolium tetrafluoroborate, C10H19BF4N2, purity 98%
Compound 3: 1-methyl-3-octylimidazolium tetrafluoroborate, C12H23BF4N2, purity 98%
Compound 4: 1-decyl-3-methylimidazolium tetrafluoroborate, C14H27BF4N2, purity 98%
Compound 5: 2,4-dinitrophenylglycine, C8H7N3O6, purity 98%
Compound 6: L-alanine, N-(2,4-dinitrophenyl)-, C9H9N3O6, purity 98%
Compound 7: N-(2,4-dinitrophenyl)-L-valine, C11H13N3O6, purity 98%
Compound 8: N-(2,4-dinitrophenyl)-leucine, C12H15N3O6, purity 98%

System: water + 1-hexyl-3-methylimidazolium tetrafluoroborate; phases: Liquid
Fixed: Temperature, K = 296.15
Fixed: Pressure, kPa = 101
Property: Electrical conductivity, S/m (Liquid); method: WTW LF538 Conductivity Meter
Mass fraction of 1-hexyl-3-methylimidazolium tetrafluoroborate	Electrical conductivity, S/m	uncertainty
.00654	.231	.00462
.00994	.329	.00658
.01323	.419	.00838
.01659	.505	.0101
.01988	.584	.01168
.02316	.663	.01326
.02651	.74	.0148
.02981	.812	.01624
.03312	.875	.0175
.03642	.949	.01898
.03976	1.014	.02028
.04305	1.073	.02146
.04637	1.126	.02252
.05299	1.251	.02502
.05958	1.356	.02712
.06623	1.447	.02894

System: water + 1-methyl-3-octylimidazolium tetrafluoroborate; phases: Liquid
Fixed: Temperature, K = 296.15
Fixed: Pressure, kPa = 101
Property: Electrical conductivity, S/m (Liquid); method: WTW LF538 Conductivity Meter
Mass fraction of 1-methyl-3-octylimidazolium tetrafluoroborate	Electrical conductivity, S/m	uncertainty
.00171	.067	.00134
.00256	.095	.0019
.00342	.123	.00246
.00427	.149	.00298
.00509	.172	.00344
.00599	.196	.00392
.00683	.22	.0044
.00768	.24	.0048
.00854	.262	.00524
.0094	.284	.00568
.01025	.305	.0061
.0111	.326	.00652
.01196	.346	.00692
.01366	.386	.00772
.01537	.424	.00848
.01708	.463	.00926

System: water + 1-decyl-3-methylimidazolium tetrafluoroborate; phases: Liquid mixture 1, Liquid mixture 2
Fixed: Pressure, kPa = 101.325
Property: Mass fraction of 1-decyl-3-methylimidazolium tetrafluoroborate (Liquid mixture 1); method: Mass of residual ionic liquid after drying
Temperature, K	Mass fraction of 1-decyl-3-methylimidazolium tetrafluoroborate	uncertainty
278.15	.853	.0018766
283.15	.8434	.00185548
288.15	.8327	.00183194
293.15	.8191	.00180202
296.15	.8118	.00178596
298.15	.808	.0017776
303.15	.7989	.00175758
308.15	.7803	.00171666
313.15	.7652	.00168344
318.15	.7256	.00159632
323.15	.679	.0014938
325.15	.52	.001144

System: water + 1-decyl-3-methylimidazolium tetrafluoroborate; phases: Liquid mixture 2, Liquid mixture 1
Fixed: Pressure, kPa = 101.325
Property: Mass fraction of 1-decyl-3-methylimidazolium tetrafluoroborate (Liquid mixture 2); method: Mass of residual ionic liquid after drying
Temperature, K	Mass fraction of 1-decyl-3-methylimidazolium tetrafluoroborate	uncertainty
278.15	.0039	.00000858
283.15	.0045	.0000099
288.15	.0047	.00001034
293.15	.0052	.00001144
296.15	.0053	.00001166
298.15	.0067	.00001474
303.15	.0164	.00003608
308.15	.0602	.00013244
313.15	.1181	.00025982
318.15	.1434	.00031548
323.15	.28	.000616
325.15	.33	.000726

System: water + 1-decyl-3-methylimidazolium tetrafluoroborate; phases: Liquid
Fixed: Temperature, K = 296.15
Fixed: Pressure, kPa = 101
Property: Electrical conductivity, S/m (Liquid); method: WTW LF538 Conductivity Meter
Mass fraction of 1-decyl-3-methylimidazolium tetrafluoroborate	Electrical conductivity, S/m	uncertainty
.00044	.018	.00036
.00066	.026	.00052
.00088	.034	.00068
.0011	.042	.00084
.00132	.049	.00098
.00154	.056	.00112
.00176	.063	.00126
.00197	.07	.0014
.0022	.076	.00152
.00239	.082	.00164
.00263	.089	.00178
.00285	.096	.00192
.00307	.101	.00202
.00351	.113	.00226
.00395	.125	.0025
.00439	.137	.00274

System: 2,4-dinitrophenylglycine + water + 1-hexyl-3-methylimidazolium tetrafluoroborate; phases: Liquid mixture 1, Liquid mixture 2
Fixed: Pressure, kPa = 101
Fixed: Mass fraction of 2,4-dinitrophenylglycine = 0
Property: Mass fraction of 2,4-dinitrophenylglycine (Liquid mixture 1); method: UV-Vis Spectroscopy
Temperature, K	Mass fraction of 2,4-dinitrophenylglycine	uncertainty
296.15	.0493	.0014

System: 2,4-dinitrophenylglycine + water + 1-methyl-3-octylimidazolium tetrafluoroborate; phases: Liquid mixture 1, Liquid mixture 2
Fixed: Pressure, kPa = 101
Fixed: Mass fraction of 2,4-dinitrophenylglycine = 0
Property: Mass fraction of 2,4-dinitrophenylglycine (Liquid mixture 1); method: UV-Vis spectroscopy
Temperature, K	Mass fraction of 2,4-dinitrophenylglycine	uncertainty
296.15	.0284	.0008

System: 2,4-dinitrophenylglycine + water + 1-decyl-3-methylimidazolium tetrafluoroborate; phases: Liquid mixture 1, Liquid mixture 2
Fixed: Pressure, kPa = 101
Fixed: Mass fraction of 2,4-dinitrophenylglycine = 0
Property: Mass fraction of 2,4-dinitrophenylglycine (Liquid mixture 1); method: UV-Vis spectroscopy
Temperature, K	Mass fraction of 2,4-dinitrophenylglycine	uncertainty
296.15	.00556	.0002

System: L-alanine, N-(2,4-dinitrophenyl)- + water + 1-hexyl-3-methylimidazolium tetrafluoroborate; phases: Liquid mixture 1, Liquid mixture 2
Fixed: Pressure, kPa = 101
Fixed: Mass fraction of L-alanine, N-(2,4-dinitrophenyl)- = 0
Property: Mass fraction of L-alanine, N-(2,4-dinitrophenyl)- (Liquid mixture 1); method: UV-Vis spectroscopy
Temperature, K	Mass fraction of L-alanine, N-(2,4-dinitrophenyl)-	uncertainty
296.15	.0185	.0009

System: L-alanine, N-(2,4-dinitrophenyl)- + water + 1-methyl-3-octylimidazolium tetrafluoroborate; phases: Liquid mixture 1, Liquid mixture 2
Fixed: Pressure, kPa = 101
Fixed: Mass fraction of L-alanine, N-(2,4-dinitrophenyl)- = 0
Property: Mass fraction of L-alanine, N-(2,4-dinitrophenyl)- (Liquid mixture 1); method: UV-Vis spectroscopy
Temperature, K	Mass fraction of L-alanine, N-(2,4-dinitrophenyl)-	uncertainty
296.15	.0109	.0005

System: L-alanine, N-(2,4-dinitrophenyl)- + water + 1-decyl-3-methylimidazolium tetrafluoroborate; phases: Liquid mixture 1, Liquid mixture 2
Fixed: Pressure, kPa = 101
Fixed: Mass fraction of L-alanine, N-(2,4-dinitrophenyl)- = 0
Property: Mass fraction of L-alanine, N-(2,4-dinitrophenyl)- (Liquid mixture 1); method: UV-Vis spectroscopy
Temperature, K	Mass fraction of L-alanine, N-(2,4-dinitrophenyl)-	uncertainty
296.15	.00231	.00006

System: N-(2,4-dinitrophenyl)-L-valine + water + 1-hexyl-3-methylimidazolium tetrafluoroborate; phases: Liquid mixture 1, Liquid mixture 2
Fixed: Pressure, kPa = 101
Fixed: Mass fraction of N-(2,4-dinitrophenyl)-L-valine = 0
Property: Mass fraction of N-(2,4-dinitrophenyl)-L-valine (Liquid mixture 1); method: UV-Vis spectroscopy
Temperature, K	Mass fraction of N-(2,4-dinitrophenyl)-L-valine	uncertainty
296.15	.00849	.0003

System: N-(2,4-dinitrophenyl)-L-valine + water + 1-methyl-3-octylimidazolium tetrafluoroborate; phases: Liquid mixture 1, Liquid mixture 2
Fixed: Pressure, kPa = 101
Fixed: Mass fraction of N-(2,4-dinitrophenyl)-L-valine = 0
Property: Mass fraction of N-(2,4-dinitrophenyl)-L-valine (Liquid mixture 1); method: UV-Vis spectroscopy
Temperature, K	Mass fraction of N-(2,4-dinitrophenyl)-L-valine	uncertainty
296.15	.00369	.00015

System: N-(2,4-dinitrophenyl)-L-valine + water + 1-decyl-3-methylimidazolium tetrafluoroborate; phases: Liquid mixture 1, Liquid mixture 2
Fixed: Pressure, kPa = 101
Fixed: Mass fraction of N-(2,4-dinitrophenyl)-L-valine = 0
Property: Mass fraction of N-(2,4-dinitrophenyl)-L-valine (Liquid mixture 1); method: UV-Vis spectroscopy
Temperature, K	Mass fraction of N-(2,4-dinitrophenyl)-L-valine	uncertainty
296.15	.000828	.000018

System: water + N-(2,4-dinitrophenyl)-leucine + 1-hexyl-3-methylimidazolium tetrafluoroborate; phases: Liquid mixture 1, Liquid mixture 2
Fixed: Pressure, kPa = 101
Fixed: Mass fraction of water = 0
Property: Mass fraction of water (Liquid mixture 1); method: UV-Vis spectroscopy
Temperature, K	Mass fraction of water	uncertainty
296.15	.00409	.00023

System: water + N-(2,4-dinitrophenyl)-leucine + 1-methyl-3-octylimidazolium tetrafluoroborate; phases: Liquid mixture 1, Liquid mixture 2
Fixed: Pressure, kPa = 101
Fixed: Mass fraction of water = 0
Property: Mass fraction of water (Liquid mixture 1); method: UV-Vis spectroscopy
Temperature, K	Mass fraction of water	uncertainty
296.15	.00122	.00003

System: water + N-(2,4-dinitrophenyl)-leucine + 1-decyl-3-methylimidazolium tetrafluoroborate; phases: Liquid mixture 1, Liquid mixture 2
Fixed: Pressure, kPa = 101
Fixed: Mass fraction of water = 0
Property: Mass fraction of water (Liquid mixture 1); method: UV-Vis spectroscopy
Temperature, K	Mass fraction of water	uncertainty
296.15	.000334	.000016
