Measured thermophysical data. Surface tension of four binary systems containing (1-ethyl-3-methyl imidazolium alkyl sulphate ionic liquid + water or + ethanol)
Source: J. Chem. Thermodyn., 2012, 10.1016/j.jct.2012.01.023
Compound 1: 1-ethyl-3-methylimidazolium ethyl sulfate, C8H16N2O4S, purity 99%
Compound 2: 3-ethyl-1-methylimidazolium butyl sulfate, C10H20N2O4S, purity 98%
Compound 3: 1-ethyl-3-methylimidazolium hexylsulfate, C12H24N2O4S, purity 98%
Compound 4: 1-ethyl-3-methylimidazolium octyl sulfate, C14H28N2O4S, purity 98%
Compound 5: ethanol, C2H6O, purity 99.5%
Compound 6: water, H2O, purity 99.8%

System: 1-ethyl-3-methylimidazolium ethyl sulfate; phases: Liquid
Fixed: Pressure, kPa = 101.325
Property: Mass density, kg/m3 (Liquid); method: Vibrating tube method
Temperature, K	Mass density, kg/m3	uncertainty
298.15	1238.3	.5

System: 1-ethyl-3-methylimidazolium ethyl sulfate; phases: Liquid, Air at 1 atmosphere
Property: Surface tension liquid-gas, N/m (Liquid); method: Drop volume
Temperature, K	Surface tension liquid-gas, N/m	uncertainty
298.15	.04713	.0001

System: 3-ethyl-1-methylimidazolium butyl sulfate; phases: Liquid
Fixed: Pressure, kPa = 101.325
Property: Mass density, kg/m3 (Liquid); method: Vibrating tube method
Temperature, K	Mass density, kg/m3	uncertainty
298.15	1175.65	.5

System: 3-ethyl-1-methylimidazolium butyl sulfate; phases: Liquid, Air at 1 atmosphere
Property: Surface tension liquid-gas, N/m (Liquid); method: Drop volume
Temperature, K	Surface tension liquid-gas, N/m	uncertainty
298.15	.03964	.0001

System: 1-ethyl-3-methylimidazolium hexylsulfate; phases: Liquid
Fixed: Pressure, kPa = 101.325
Property: Mass density, kg/m3 (Liquid); method: Vibrating tube method
Temperature, K	Mass density, kg/m3	uncertainty
298.15	1129.6	.5

System: 1-ethyl-3-methylimidazolium hexylsulfate; phases: Liquid, Air at 1 atmosphere
Property: Surface tension liquid-gas, N/m (Liquid); method: Drop volume
Temperature, K	Surface tension liquid-gas, N/m	uncertainty
298.15	.03477	.0001

System: 1-ethyl-3-methylimidazolium octyl sulfate; phases: Liquid
Fixed: Pressure, kPa = 101.325
Property: Mass density, kg/m3 (Liquid); method: Vibrating tube method
Temperature, K	Mass density, kg/m3	uncertainty
298.15	1093.75	.5

System: 1-ethyl-3-methylimidazolium octyl sulfate; phases: Liquid, Air at 1 atmosphere
Property: Surface tension liquid-gas, N/m (Liquid); method: Drop volume
Temperature, K	Surface tension liquid-gas, N/m	uncertainty
298.15	.03129	.0001

System: ethanol; phases: Liquid
Fixed: Pressure, kPa = 101.325
Property: Mass density, kg/m3 (Liquid); method: Vibrating tube method
Temperature, K	Mass density, kg/m3	uncertainty
298.15	785.85	.5

System: ethanol; phases: Liquid, Air at 1 atmosphere
Property: Surface tension liquid-gas, N/m (Liquid); method: Drop volume
Temperature, K	Surface tension liquid-gas, N/m	uncertainty
298.15	.02201	.0001

System: water; phases: Liquid
Fixed: Pressure, kPa = 101.325
Property: Mass density, kg/m3 (Liquid); method: Vibrating tube method
Temperature, K	Mass density, kg/m3	uncertainty
298.15	997	.5

System: water; phases: Liquid, Air at 1 atmosphere
Property: Surface tension liquid-gas, N/m (Liquid); method: Drop volume
Temperature, K	Surface tension liquid-gas, N/m	uncertainty
298.15	.07135	.0001

System: water + 1-ethyl-3-methylimidazolium ethyl sulfate; phases: Liquid, Air at 1 atmosphere
Fixed: Temperature, K = 298.15
Property: Surface tension liquid-gas, N/m (Liquid); method: Drop volume
Mole fraction of 1-ethyl-3-methylimidazolium ethyl sulfate	Surface tension liquid-gas, N/m	uncertainty
1	.04716	.0001
.9041	.04739	.0001
.7939	.04772	.0001
.6957	.04794	.0001
.6066	.0483	.0001
.5026	.04879	.0001
.4046	.04942	.0001
.3017	.05045	.0001
.202	.05223	.0001
.1006	.05564	.0001
.06	.05764	.0001
.0402	.05968	.0001
.0199	.06242	.0001
.005	.06723	.0001
0	.07135	.0001

System: water + 3-ethyl-1-methylimidazolium butyl sulfate; phases: Liquid, Air at 1 atmosphere
Fixed: Temperature, K = 298.15
Property: Surface tension liquid-gas, N/m (Liquid); method: Drop volume
Mole fraction of 3-ethyl-1-methylimidazolium butyl sulfate	Surface tension liquid-gas, N/m	uncertainty
1	.03962	.0001
.9034	.03967	.0001
.7997	.03977	.0001
.703	.03982	.0001
.5868	.03989	.0001
.4992	.04001	.0001
.4764	.03993	.0001
.4017	.04031	.0001
.3957	.04004	.0001
.2973	.04081	.0001
.2585	.04083	.0001
.2004	.04148	.0001
.1947	.04159	.0001
.1716	.04183	.0001
.1464	.04085	.0001
.133	.04029	.0001
.12	.03974	.0001
.101	.03984	.0001
.1004	.03942	.0001
.0987	.03917	.0001
.0934	.03908	.0001
.0805	.03996	.0001
.0758	.03985	.0001
.0602	.0417	.0001
.0579	.04083	.0001
.0403	.04593	.0001
.0389	.04448	.0001

System: water + 1-ethyl-3-methylimidazolium hexylsulfate; phases: Liquid, Air at 1 atmosphere
Fixed: Temperature, K = 298.15
Property: Surface tension liquid-gas, N/m (Liquid); method: Drop volume
Mole fraction of 1-ethyl-3-methylimidazolium hexylsulfate	Surface tension liquid-gas, N/m	uncertainty
1	.03477	.0001
.8997	.03477	.0001
.7893	.03482	.0001
.705	.03487	.0001
.5943	.03495	.0001
.4957	.03505	.0001
.4034	.03525	.0001
.3009	.03559	.0001
.1997	.03616	.0001
.0997	.03779	.0001
.0797	.03825	.0001
.0602	.03888	.0001
.0396	.03955	.0001
.0196	.04027	.0001
.005	.04213	.0001
.002	.04954	.0001
.0008	.05845	.0001
.0005	.06258	.0001

System: water + 1-ethyl-3-methylimidazolium octyl sulfate; phases: Liquid, Air at 1 atmosphere
Fixed: Temperature, K = 298.15
Property: Surface tension liquid-gas, N/m (Liquid); method: Drop volume
Mole fraction of 1-ethyl-3-methylimidazolium octyl sulfate	Surface tension liquid-gas, N/m	uncertainty
1	.03091	.0001
.8904	.03079	.0001
.8287	.03071	.0001
.766	.03081	.0001
.7373	.0307	.0001
.7018	.03077	.0001
.6934	.03074	.0001
.6347	.03071	.0001
.5677	.03067	.0001
.5127	.03072	.0001
.4	.03048	.0001
.2846	.03101	.0001
.0937	.03362	.0001
.0774	.03387	.0001
.0506	.03496	.0001
.0349	.0353	.0001
.0198	.03669	.0001
.011	.03719	.0001
.005	.03784	.0001
.0007	.04245	.0001
.0002	.05692	.0001

System: ethanol + 1-ethyl-3-methylimidazolium ethyl sulfate; phases: Liquid, Air at 1 atmosphere
Fixed: Temperature, K = 298.15
Property: Surface tension liquid-gas, N/m (Liquid); method: Drop volume
Mole fraction of 1-ethyl-3-methylimidazolium ethyl sulfate	Surface tension liquid-gas, N/m	uncertainty
1	.04716	.0001
.9048	.04381	.0001
.8252	.04148	.0001
.703	.03812	.0001
.5984	.0354	.0001
.4999	.03299	.0001
.3989	.03068	.0001
.3025	.02852	.0001
.2056	.02637	.0001
.0988	.02418	.0001
0	.02201	.0001

System: ethanol + 3-ethyl-1-methylimidazolium butyl sulfate; phases: Liquid, Air at 1 atmosphere
Fixed: Temperature, K = 298.15
Property: Surface tension liquid-gas, N/m (Liquid); method: Drop volume
Mole fraction of 3-ethyl-1-methylimidazolium butyl sulfate	Surface tension liquid-gas, N/m	uncertainty
1	.03962	.0001
.8794	.03735	.0001
.7916	.03575	.0001
.6866	.03399	.0001
.4993	.03105	.0001
.4691	.03063	.0001
.2904	.02776	.0001
.1536	.02536	.0001
.1347	.02501	.0001
.066	.0236	.0001

System: ethanol + 1-ethyl-3-methylimidazolium hexylsulfate; phases: Liquid, Air at 1 atmosphere
Fixed: Temperature, K = 298.15
Property: Surface tension liquid-gas, N/m (Liquid); method: Drop volume
Mole fraction of 1-ethyl-3-methylimidazolium hexylsulfate	Surface tension liquid-gas, N/m	uncertainty
1	.03477	.0001
.9409	.03431	.0001
.7951	.03284	.0001
.7189	.03208	.0001
.5946	.03086	.0001
.4691	.02948	.0001
.386	.0286	.0001
.3138	.02769	.0001
.2267	.02653	.0001
.1253	.025	.0001
.0977	.02448	.0001
.0679	.02387	.0001
.03	.02298	.0001

System: ethanol + 1-ethyl-3-methylimidazolium octyl sulfate; phases: Liquid, Air at 1 atmosphere
Fixed: Temperature, K = 298.15
Property: Surface tension liquid-gas, N/m (Liquid); method: Drop volume
Mole fraction of 1-ethyl-3-methylimidazolium octyl sulfate	Surface tension liquid-gas, N/m	uncertainty
1	.03091	.0001
.953	.03082	.0001
.9432	.03079	.0001
.9164	.0308	.0001
.8317	.0305	.0001
.7387	.02996	.0001
.6269	.0296	.0001
.5059	.02914	.0001
.4582	.02892	.0001
.4002	.02861	.0001
.3506	.02818	.0001
.2985	.02764	.0001
.2445	.02701	.0001
.215	.02662	.0001
.1595	.02582	.0001
.098	.02448	.0001
.0712	.02371	.0001
.0399	.02289	.0001
