Measured thermophysical data. (Liquid + liquid) equilibrium data for the system (propylene glycol + water + tetraoctyl ammonium 2-methyl-1-naphthoate)
Source: J. Chem. Thermodyn., 2012, 10.1016/j.jct.2012.04.002
Compound 1: tetraoctylammonium 2-methyl-1-naphthoate, C44H77NO2, purity 95%
Compound 2: propylene glycol, C3H8O2, purity 99.9%
Compound 3: water, H2O, purity 99.8%

System: propylene glycol + water + tetraoctylammonium 2-methyl-1-naphthoate; phases: Liquid mixture 1, Liquid mixture 2
Fixed: Pressure, kPa = 101.3
Property: Mass fraction of tetraoctylammonium 2-methyl-1-naphthoate (Liquid mixture 1); method: UV-Vis
Property: Mass fraction of propylene glycol (Liquid mixture 2); method: UV-Vis
Property: Mass fraction of tetraoctylammonium 2-methyl-1-naphthoate (Liquid mixture 2); method: UV-Vis
Temperature, K	Mass fraction of propylene glycol	Mass fraction of tetraoctylammonium 2-methyl-1-naphthoate	uncertainty	Mass fraction of propylene glycol	uncertainty	Mass fraction of tetraoctylammonium 2-methyl-1-naphthoate	uncertainty
313.2	0	.896	.002	0	.001	.001	.002
313.2	.023	.877	.002	.027	.001	.001	.002
313.2	.071	.837	.002	.136	.001	.004	.002
313.2	.115	.804	.002	.336	.001	.007	.002
313.2	.168	.762	.002	.543	.001	.011	.002
313.2	.229	.716	.002	.76	.001	.014	.002
313.2	.262	.695	.002	.871	.001	.017	.002
333.2	0	.91	.002	0	.001	.001	.002
333.2	.022	.891	.002	.03	.001	.001	.002
333.2	.06	.862	.002	.15	.001	.003	.002
333.2	.106	.825	.002	.363	.001	.006	.002
333.2	.154	.787	.002	.568	.001	.009	.002
333.2	.201	.748	.002	.771	.001	.013	.002
333.2	.227	.732	.002	.877	.001	.015	.002
353.2	0	.92	.002	0	.001	.001	.002
353.2	.02	.904	.002	.032	.001	.001	.002
353.2	.052	.881	.002	.162	.001	.003	.002
353.2	.085	.856	.002	.371	.001	.006	.002
353.2	.115	.836	.002	.581	.001	.012	.002
353.2	.134	.823	.002	.691	.001	.014	.002

System: water + tetraoctylammonium 2-methyl-1-naphthoate; phases: Liquid mixture 1, Liquid mixture 2
Property: Mass fraction of tetraoctylammonium 2-methyl-1-naphthoate (Liquid mixture 1); method: UV-Vis
Temperature, K	Pressure, kPa	Mass fraction of tetraoctylammonium 2-methyl-1-naphthoate	uncertainty
313.2	101.3	.896	.002
333.2	101.3	.91	.002
353.2	101.3	.92	.002

System: water + tetraoctylammonium 2-methyl-1-naphthoate; phases: Liquid mixture 2, Liquid mixture 1
Property: Mass fraction of tetraoctylammonium 2-methyl-1-naphthoate (Liquid mixture 2); method: UV-Vis
Temperature, K	Pressure, kPa	Mass fraction of tetraoctylammonium 2-methyl-1-naphthoate	uncertainty
313.2	101.3	.001	.002
333.2	101.3	.001	.002
353.2	101.3	.001	.002
