Measured thermophysical data. Experimental study on the calorimetric data of 2-butoxyethanol with aliphatic alcohols (C1-C4) and correlation with the Wilson, NRTL and UNIQUAC models at T = 298 K
Source: J. Chem. Thermodyn., 2016, 10.1016/j.jct.2016.08.003
Compound 1: 2-butoxyethanol, C6H14O2, purity 99%
Compound 2: methanol, CH4O, purity 99.8%
Compound 3: ethanol, C2H6O, purity 99.9%
Compound 4: propan-1-ol, C3H8O, purity 99.8%
Compound 5: propan-2-ol, C3H8O, purity 99.5%
Compound 6: butan-1-ol, C4H10O, purity 99.8%
Compound 7: butan-2-ol, C4H10O, purity 99%

System: 2-butoxyethanol; phases: Liquid
Fixed: Pressure, kPa = 101.325
Property: Mass density, kg/m3 (Liquid); method: Vibrating tube method
Temperature, K	Mass density, kg/m3	uncertainty
298.15	896.16	.5

System: 2-butoxyethanol; phases: Liquid
Fixed: Pressure, kPa = 101.325
Property: Refractive index (Na D-line) (Liquid); method: Standard Abbe refractometry
Temperature, K	Refractive index (Na D-line)	uncertainty
298.15	1.417764	.0002

System: methanol; phases: Liquid
Fixed: Pressure, kPa = 101.325
Property: Mass density, kg/m3 (Liquid); method: Vibrating tube method
Temperature, K	Mass density, kg/m3	uncertainty
298.15	786.97	.5

System: methanol; phases: Liquid
Fixed: Pressure, kPa = 101.325
Property: Refractive index (Na D-line) (Liquid); method: Standard Abbe refractometry
Temperature, K	Refractive index (Na D-line)	uncertainty
298.15	1.32683	.0002

System: ethanol; phases: Liquid
Fixed: Pressure, kPa = 101.325
Property: Mass density, kg/m3 (Liquid); method: Vibrating tube method
Temperature, K	Mass density, kg/m3	uncertainty
298.15	785.11	.5

System: ethanol; phases: Liquid
Fixed: Pressure, kPa = 101.325
Property: Refractive index (Na D-line) (Liquid); method: Standard Abbe refractometry
Temperature, K	Refractive index (Na D-line)	uncertainty
298.15	1.359348	.0002

System: propan-1-ol; phases: Liquid
Fixed: Pressure, kPa = 101.325
Property: Mass density, kg/m3 (Liquid); method: Vibrating tube method
Temperature, K	Mass density, kg/m3	uncertainty
298.15	799.61	.5

System: propan-1-ol; phases: Liquid
Fixed: Pressure, kPa = 101.325
Property: Refractive index (Na D-line) (Liquid); method: Standard Abbe refractometry
Temperature, K	Refractive index (Na D-line)	uncertainty
298.15	1.383237	.0002

System: propan-2-ol; phases: Liquid
Fixed: Pressure, kPa = 101.325
Property: Mass density, kg/m3 (Liquid); method: Vibrating tube method
Temperature, K	Mass density, kg/m3	uncertainty
298.15	781.11	.5

System: propan-2-ol; phases: Liquid
Fixed: Pressure, kPa = 101.325
Property: Refractive index (Na D-line) (Liquid); method: Standard Abbe refractometry
Temperature, K	Refractive index (Na D-line)	uncertainty
298.15	1.37515	.0002

System: butan-1-ol; phases: Liquid
Fixed: Pressure, kPa = 101.325
Property: Mass density, kg/m3 (Liquid); method: Vibrating tube method
Temperature, K	Mass density, kg/m3	uncertainty
298.15	805.8	.5

System: butan-1-ol; phases: Liquid
Fixed: Pressure, kPa = 101.325
Property: Refractive index (Na D-line) (Liquid); method: Standard Abbe refractometry
Temperature, K	Refractive index (Na D-line)	uncertainty
298.15	1.397394	.0002

System: butan-2-ol; phases: Liquid
Fixed: Pressure, kPa = 101.325
Property: Mass density, kg/m3 (Liquid); method: Vibrating tube method
Temperature, K	Mass density, kg/m3	uncertainty
298.15	802.51	.5

System: butan-2-ol; phases: Liquid
Fixed: Pressure, kPa = 101.325
Property: Refractive index (Na D-line) (Liquid); method: Standard Abbe refractometry
Temperature, K	Refractive index (Na D-line)	uncertainty
298.15	1.395329	.0002

System: methanol + 2-butoxyethanol; phases: Liquid
Fixed: Pressure, kPa = 81.5
Fixed: Temperature, K = 298
Property: Excess molar enthalpy (molar enthalpy of mixing), kJ/mol (Liquid); method: Isoperibol calorimetry
Mole fraction of 2-butoxyethanol	Excess molar enthalpy (molar enthalpy of mixing), kJ/mol	uncertainty
.0486	-.0195	
.0974	-.0331	
.1456	-.0443	
.1941	-.0524	
.2468	-.0602	
.2998	-.0694	
.3614	-.0742	
.4557	-.0748	
.5615	-.0678	
.6594	-.0571	
.7544	-.0441	
.8781	-.0231	

System: ethanol + 2-butoxyethanol; phases: Liquid
Fixed: Pressure, kPa = 81.5
Fixed: Temperature, K = 298
Property: Excess molar enthalpy (molar enthalpy of mixing), kJ/mol (Liquid); method: Isoperibol calorimetry
Mole fraction of 2-butoxyethanol	Excess molar enthalpy (molar enthalpy of mixing), kJ/mol	uncertainty
.0538	.0273	
.1057	.0514	
.1544	.0721	
.2069	.0916	
.2584	.1079	
.3078	.1216	
.3822	.1375	
.4818	.1467	
.583	.145	
.6858	.1289	
.7864	.1033	
.8926	.0603	

System: propan-1-ol + 2-butoxyethanol; phases: Liquid
Fixed: Pressure, kPa = 81.5
Fixed: Temperature, K = 298
Property: Excess molar enthalpy (molar enthalpy of mixing), kJ/mol (Liquid); method: Isoperibol calorimetry
Mole fraction of 2-butoxyethanol	Excess molar enthalpy (molar enthalpy of mixing), kJ/mol	uncertainty
.1019	.1055	
.2052	.1802	
.3118	.2279	
.4085	.2526	
.4754	.2608	
.577	.253	
.6791	.2228	
.7832	.1715	
.8853	.1019	

System: propan-2-ol + 2-butoxyethanol; phases: Liquid
Fixed: Pressure, kPa = 81.5
Fixed: Temperature, K = 298
Property: Excess molar enthalpy (molar enthalpy of mixing), kJ/mol (Liquid); method: Isoperibol calorimetry
Mole fraction of 2-butoxyethanol	Excess molar enthalpy (molar enthalpy of mixing), kJ/mol	uncertainty
.1046	.1861	
.2088	.312	
.3148	.3866	
.3711	.4164	
.4778	.4279	
.5822	.4034	
.6855	.3463	
.7846	.2631	
.8855	.1531	

System: butan-1-ol + 2-butoxyethanol; phases: Liquid
Fixed: Pressure, kPa = 81.5
Fixed: Temperature, K = 298
Property: Excess molar enthalpy (molar enthalpy of mixing), kJ/mol (Liquid); method: Isoperibol calorimetry
Mole fraction of 2-butoxyethanol	Excess molar enthalpy (molar enthalpy of mixing), kJ/mol	uncertainty
.1055	.1303	
.2108	.2219	
.3096	.2773	
.3836	.3162	
.4868	.3245	
.5886	.3048	
.687	.2637	
.7924	.1966	
.898	.1049	

System: butan-2-ol + 2-butoxyethanol; phases: Liquid
Fixed: Pressure, kPa = 81.5
Fixed: Temperature, K = 298
Property: Excess molar enthalpy (molar enthalpy of mixing), kJ/mol (Liquid); method: Isoperibol calorimetry
Mole fraction of 2-butoxyethanol	Excess molar enthalpy (molar enthalpy of mixing), kJ/mol	uncertainty
.1044	.2114	
.2051	.3592	
.3102	.4546	
.3835	.506	
.4841	.5162	
.5873	.4776	
.6892	.406	
.7936	.2971	
.8964	.1656	
