Measured thermophysical data. Thermodynamic models for determination of the solubility of 4-(4-aminophenyl)-3-morpholinone in different pure solvents and (1,4-dioxane + ethyl acetate) binary mixtures with temperatures from (278.15 to 333.15) K
Source: J. Chem. Thermodyn., 2016, 10.1016/j.jct.2016.01.022
Compound 1: 4-(4-aminophenyl)-3-morpholinone, C10H12N2O2, purity 98%
Compound 2: methanol, CH4O, purity 99.7%
Compound 3: ethanol, C2H6O, purity 99.0%
Compound 4: 1,4-dioxane, C4H8O2, purity 99.5%
Compound 5: ethyl acetate, C4H8O2, purity 99.5%
Compound 6: tetrahydrofuran, C4H8O, purity 99.0%
Compound 7: n-propanol, C3H8O, purity 99.5%

System: 1,4-dioxane + 4-(4-aminophenyl)-3-morpholinone; phases: Liquid, Crystal
Fixed: Pressure, kPa = 100
Property: Mole fraction of 4-(4-aminophenyl)-3-morpholinone (Liquid); method: gravimetric method
Temperature, K	Mole fraction of 4-(4-aminophenyl)-3-morpholinone	uncertainty
278.15	.00411	
283.15	.00529	
288.15	.006651	
293.15	.0083	
298.15	.010235	
303.15	.01249	
308.15	.01491	
313.15	.01784	
318.15	.02091	
323.15	.02442	
328.15	.02819	
333.15	.03204	

System: methanol + 4-(4-aminophenyl)-3-morpholinone; phases: Liquid, Crystal
Fixed: Pressure, kPa = 100
Property: Mole fraction of 4-(4-aminophenyl)-3-morpholinone (Liquid); method: gravimetric method
Temperature, K	Mole fraction of 4-(4-aminophenyl)-3-morpholinone	uncertainty
278.15	.00172	
283.15	.002212	
288.15	.002855	
293.15	.00367	
298.15	.00463	
303.15	.005889	
308.15	.007513	
313.15	.009552	
318.15	.012089	
323.15	.015257	
328.15	.019016	
333.15	.02391	

System: tetrahydrofuran + 4-(4-aminophenyl)-3-morpholinone; phases: Liquid, Crystal
Fixed: Pressure, kPa = 100
Property: Mole fraction of 4-(4-aminophenyl)-3-morpholinone (Liquid); method: gravimetric method
Temperature, K	Mole fraction of 4-(4-aminophenyl)-3-morpholinone	uncertainty
278.15	.00138	
283.15	.00182	
288.15	.00245	
293.15	.003233	
298.15	.004234	
303.15	.00542	
308.15	.006868	
313.15	.008648	
318.15	.01073	
323.15	.0132	
328.15	.015939	
333.15	.01905	

System: ethanol + 4-(4-aminophenyl)-3-morpholinone; phases: Liquid, Crystal
Fixed: Pressure, kPa = 100
Property: Mole fraction of 4-(4-aminophenyl)-3-morpholinone (Liquid); method: gravimetric method
Temperature, K	Mole fraction of 4-(4-aminophenyl)-3-morpholinone	uncertainty
278.15	.001267	
283.15	.001623	
288.15	.002078	
293.15	.002595	
298.15	.003212	
303.15	.003927	
308.15	.004749	
313.15	.005671	
318.15	.006716	
323.15	.007921	
328.15	.009281	
333.15	.010687	

System: ethyl acetate + 4-(4-aminophenyl)-3-morpholinone; phases: Liquid, Crystal
Fixed: Pressure, kPa = 100
Property: Mole fraction of 4-(4-aminophenyl)-3-morpholinone (Liquid); method: gravimetric method
Temperature, K	Mole fraction of 4-(4-aminophenyl)-3-morpholinone	uncertainty
278.15	.000559	
283.15	.000794	
288.15	.001095	
293.15	.001494	
298.15	.00196	
303.15	.002569	
308.15	.003258	
313.15	.004116	
318.15	.005095	
323.15	.006203	
328.15	.007427	
333.15	.008733	

System: n-propanol + 4-(4-aminophenyl)-3-morpholinone; phases: Liquid, Crystal
Fixed: Pressure, kPa = 100
Property: Mole fraction of 4-(4-aminophenyl)-3-morpholinone (Liquid); method: gravimetric method
Temperature, K	Mole fraction of 4-(4-aminophenyl)-3-morpholinone	uncertainty
278.15	.000322	
283.15	.000404	
288.15	.000506	
293.15	.000649	
298.15	.000825	
303.15	.001053	
308.15	.001334	
313.15	.001702	
318.15	.00216	
323.15	.002739	
328.15	.003485	
333.15	.004433	

System: 1,4-dioxane + ethyl acetate + 4-(4-aminophenyl)-3-morpholinone; phases: Liquid, Crystal
Fixed: Pressure, kPa = 100
Property: Mole fraction of 4-(4-aminophenyl)-3-morpholinone (Liquid); method: gravimetric method
Temperature, K	Solvent: Mole fraction of 1,4-dioxane	Mole fraction of 4-(4-aminophenyl)-3-morpholinone	uncertainty
278.15	0	.000559	
278.15	.15	.000686	
278.15	.3	.000967	
278.15	.45	.001367	
278.15	.6	.001929	
278.15	.75	.002603	
278.15	.9	.003359	
278.15	1	.00411	
283.15	0	.000794	
283.15	.15	.000941	
283.15	.3	.001297	
283.15	.45	.001799	
283.15	.6	.002477	
283.15	.75	.003297	
283.15	.9	.004217	
283.15	1	.00529	
288.15	0	.001095	
288.15	.15	.001274	
288.15	.3	.001713	
288.15	.45	.002319	
288.15	.6	.003143	
288.15	.75	.004148	
288.15	.9	.005284	
288.15	1	.006651	
293.15	0	.001494	
293.15	.15	.001679	
293.15	.3	.002207	
293.15	.45	.00295	
293.15	.6	.003944	
293.15	.75	.005169	
293.15	.9	.006528	
293.15	1	.0083	
298.15	0	.00196	
298.15	.15	.00221	
298.15	.3	.002821	
298.15	.45	.003686	
298.15	.6	.00484	
298.15	.75	.006137	
298.15	.9	.007986	
298.15	1	.010235	
303.15	0	.002569	
303.15	.15	.002813	
303.15	.3	.003544	
303.15	.45	.004551	
303.15	.6	.005996	
303.15	.75	.007677	
303.15	.9	.009768	
303.15	1	.01249	
308.15	0	.003258	
308.15	.15	.003582	
308.15	.3	.004437	
308.15	.45	.005625	
308.15	.6	.007262	
308.15	.75	.009296	
308.15	.9	.011737	
308.15	1	.01491	
313.15	0	.004116	
313.15	.15	.004401	
313.15	.3	.005372	
313.15	.45	.00679	
313.15	.6	.008694	
313.15	.75	.011096	
313.15	.9	.013964	
313.15	1	.01784	
318.15	0	.005095	
318.15	.15	.005419	
318.15	.3	.00658	
318.15	.45	.008175	
318.15	.6	.010403	
318.15	.75	.013196	
318.15	.9	.016407	
318.15	1	.02091	
323.15	0	.006203	
323.15	.15	.006547	
323.15	.3	.007848	
323.15	.45	.009674	
323.15	.6	.012257	
323.15	.75	.015614	
323.15	.9	.01938	
323.15	1	.02442	
328.15	0	.007427	
328.15	.15	.008016	
328.15	.3	.009334	
328.15	.45	.011443	
328.15	.6	.014354	
328.15	.75	.018294	
328.15	.9	.022908	
328.15	1	.02819	
333.15	0	.008733	
333.15	.15	.009442	
333.15	.3	.010954	
333.15	.45	.013363	
333.15	.6	.016777	
333.15	.75	.021268	
333.15	.9	.026498	
333.15	1	.03204	
