Measured thermophysical data. Liquid density of oxygenated additive 2,4-dimethyl-3-oxapentane at pressures up to 140 MPa and temperatures from (293.15 to 393.29) K
Source: J. Chem. Thermodyn., 2015, 10.1016/j.jct.2014.08.023
Compound 1: diisopropyl ether, C6H14O, purity 99.5%

System: diisopropyl ether; phases: Liquid
Property: Mass density, kg/m3 (Liquid); method: Vibrating tube method
Pressure, kPa	Temperature, K	Mass density, kg/m3	uncertainty
100	293.15	723.5	.7
1000	293.15	724.3	.7
5000	293.15	729.1	.7
10000	293.15	734.5	.7
15000	293.15	739.6	.7
20000	293.15	744.5	.7
25000	293.15	749	.7
30000	293.15	753.3	.7
35000	293.15	757.4	.7
40000	293.15	761.3	.7
45000	293.15	765	.7
50000	293.15	768.6	.7
55000	293.15	772.1	.7
60000	293.15	775.4	.7
65000	293.15	778.6	.7
70000	293.15	781.7	.7
80000	293.15	787.6	.7
90000	293.15	793.2	.7
100000	293.15	798.5	.7
110000	293.15	803.6	.7
120000	293.15	808.4	.7
130000	293.15	812.9	.7
140000	293.15	817.3	.7
100	298.15	718.3	.7
1000	298.15	719.5	.7
5000	298.15	724.5	.7
10000	298.15	730.2	.7
15000	298.15	735.6	.7
20000	298.15	740.5	.7
25000	298.15	745.2	.7
30000	298.15	749.6	.7
35000	298.15	753.7	.7
40000	298.15	757.7	.7
45000	298.15	761.6	.7
50000	298.15	765.2	.7
55000	298.15	768.7	.7
60000	298.15	772.1	.7
65000	298.15	775.4	.7
70000	298.15	778.5	.7
80000	298.15	784.5	.7
90000	298.15	790.3	.7
100000	298.15	795.6	.7
110000	298.15	800.8	.7
120000	298.15	805.6	.7
130000	298.15	810.3	.7
140000	298.15	814.6	.7
100	313.15	702.4	.7
1000	313.15	703.7	.7
5000	313.15	709.3	.7
10000	313.15	715.7	.7
15000	313.15	721.6	.7
20000	313.15	727.1	.7
25000	313.15	732	.7
30000	313.15	737.1	.7
35000	313.15	741.5	.7
40000	313.15	745.8	.7
45000	313.15	749.9	.7
50000	313.15	753.8	.7
55000	313.15	757.6	.7
60000	313.15	761.3	.7
65000	313.15	764.8	.7
70000	313.15	768.1	.7
80000	313.15	774.3	.7
90000	313.15	780.4	.7
100000	313.15	786	.7
110000	313.15	791.4	.7
120000	313.15	796.4	.7
130000	313.15	801.3	.7
140000	313.15	806	.7
100	333.15	680.4	.7
1000	333.15	682	.7
5000	333.15	688.8	.7
10000	333.15	696.3	.7
15000	333.15	703.1	.7
20000	333.15	709.3	.7
25000	333.15	715	.7
30000	333.15	720.4	.7
35000	333.15	725.5	.7
40000	333.15	730.2	.7
45000	333.15	734.7	.7
50000	333.15	739	.7
55000	333.15	743.1	.7
60000	333.15	747	.7
65000	333.15	750.8	.7
70000	333.15	754.3	.7
80000	333.15	761.2	.7
90000	333.15	767.7	.7
100000	333.15	773.6	.7
110000	333.15	779.3	.7
120000	333.15	784.6	.7
130000	333.15	789.8	.7
140000	333.15	794.7	.7
1000	353.19	659.5	.7
5000	353.19	667.5	.7
10000	353.19	676.4	.7
15000	353.19	684.4	.7
20000	353.19	691.5	.7
25000	353.19	698	.7
30000	353.19	704	.7
35000	353.19	709.6	.7
40000	353.19	714.8	.7
45000	353.19	719.7	.7
50000	353.19	724.5	.7
55000	353.19	728.9	.7
60000	353.19	733.1	.7
65000	353.19	737.2	.7
70000	353.19	741.1	.7
80000	353.19	748.4	.7
90000	353.19	755.3	.7
100000	353.19	761.6	.7
110000	353.19	767.7	.7
120000	353.19	773.4	.7
130000	353.19	778.8	.7
140000	353.19	784	.7
1000	373.24	635.5	.7
5000	373.24	645.5	.7
10000	373.24	656.1	.7
15000	373.24	665.3	.7
20000	373.24	673.4	.7
25000	373.24	680.8	.7
30000	373.24	687.6	.7
35000	373.24	693.8	.7
40000	373.24	699.6	.7
45000	373.24	705	.7
50000	373.24	710.1	.7
55000	373.24	714.9	.7
60000	373.24	719.5	.7
65000	373.24	723.9	.7
70000	373.24	728.1	.7
80000	373.24	735.9	.7
90000	373.24	743.2	.7
100000	373.24	750	.7
110000	373.24	756.3	.7
120000	373.24	762.3	.7
130000	373.24	768	.7
140000	373.24	773.3	.7
1000	393.29	609.5	.7
5000	393.29	622.1	.7
10000	393.29	634.9	.7
15000	393.29	645.7	.7
20000	393.29	655.1	.7
25000	393.29	663.4	.7
30000	393.29	671	.7
35000	393.29	677.9	.7
40000	393.29	684.3	.7
45000	393.29	690.2	.7
50000	393.29	695.7	.7
55000	393.29	701	.7
60000	393.29	705.9	.7
65000	393.29	710.6	.7
70000	393.29	715.1	.7
80000	393.29	723.5	.7
90000	393.29	731.3	.7
100000	393.29	738.3	.7
110000	393.29	745.2	.7
120000	393.29	751.3	.7
130000	393.29	757.4	.7
140000	393.29	763	.7
