Measured thermophysical data. Experimental measurements and predictions of density, viscosity,  and carbon dioxide solubility in methanol, ethanol, and 1-propanol
Source: J. Chem. Thermodyn., 2013, 10.1016/j.jct.2012.10.002
Compound 1: carbon dioxide, CO2, purity 99.998%
Compound 2: methyl alcohol, CH4O, purity 99.8%
Compound 3: ethanol, C2H6O, purity 99.7%
Compound 4: n-propyl alcohol, C3H8O, purity 99.9%

System: methyl alcohol; phases: Liquid
Property: Mass density, kg/m3 (Liquid); method: Isochoric PVT measurement
Pressure, kPa	Temperature, K	Mass density, kg/m3	uncertainty
1000	303.2	783	.1
2000	303.2	784	.1
3000	303.2	785	.1
4000	303.2	786	.1
5000	303.2	787	.1
6000	303.2	788	.1
7000	303.2	788.9	.1
8000	303.2	789.9	.1
9000	303.2	790.9	.1
10000	303.2	791.8	.1
1000	323.2	762.8	.1
2000	323.2	763.9	.1
3000	323.2	765	.1
4000	323.2	766.2	.1
5000	323.2	767.3	.1
6000	323.2	768.3	.1
7000	323.2	769.4	.1
8000	323.2	770.5	.1
9000	323.2	771.5	.1
10000	323.2	772.6	.1

System: ethanol; phases: Liquid
Property: Mass density, kg/m3 (Liquid); method: Isochoric PVT measurement
Temperature, K	Pressure, kPa	Mass density, kg/m3	uncertainty
303.2	1000	782.2	.1
303.2	2000	783.1	.1
303.2	3000	784	.1
303.2	4000	784.8	.1
303.2	5000	785.7	.1
303.2	6000	786.5	.1
303.2	7000	787.5	.1
303.2	8000	788.3	.1
303.2	9000	789.2	.1
303.2	10000	790.1	.1
323.2	1000	763.2	.1
323.2	2000	764.3	.1
323.2	3000	765.3	.1
323.2	4000	766.4	.1
323.2	5000	767.4	.1
323.2	6000	768.4	.1
323.2	7000	769.3	.1
323.2	8000	770.3	.1
323.2	9000	771.3	.1
323.2	10000	772.3	.1

System: n-propyl alcohol; phases: Liquid
Property: Mass density, kg/m3 (Liquid); method: Isochoric PVT measurement
Temperature, K	Pressure, kPa	Mass density, kg/m3	uncertainty
303.2	1000	796.7	.1
303.2	2000	797.5	.1
303.2	3000	798.3	.1
303.2	4000	799.2	.1
303.2	5000	799.9	.1
303.2	6000	800.7	.1
303.2	7000	801.5	.1
303.2	8000	802.3	.1
303.2	9000	803.1	.1
303.2	10000	803.9	.1
323.2	1000	779	.1
323.2	2000	779.9	.1
323.2	3000	780.8	.1
323.2	4000	781.7	.1
323.2	5000	782.6	.1
323.2	6000	783.5	.1
323.2	7000	784.4	.1
323.2	8000	785.3	.1
323.2	9000	786.2	.1
323.2	10000	787	.1

System: methyl alcohol + carbon dioxide; phases: Liquid, Gas
Property: Mole fraction of carbon dioxide (Liquid); method: Samples were flashed at atmospheric pressure. The volume of the evolved gas was measured by the Chandler Engineering Gasometer. Solubility was then calculated from density.
Temperature, K	Pressure, kPa	Mole fraction of carbon dioxide	uncertainty
303.2	1020	.071	.002
303.2	1980	.144	.002
303.2	3080	.235	.002
303.2	4010	.321	.002
303.2	5050	.439	.002
323.2	1110	.054	.002
323.2	2010	.104	.002
323.2	3030	.161	.002
323.2	3950	.21	.002
323.2	5050	.293	.002
323.2	5950	.345	.002

System: methyl alcohol + carbon dioxide; phases: Liquid, Gas
Property: Mass density, kg/m3 (Liquid); method: Isochoric PVT measurement
Temperature, K	Pressure, kPa	Mass density, kg/m3	uncertainty
303.2	1020	797	1
303.2	1980	811	1
303.2	3080	826	1
303.2	4010	837	1
303.2	5050	849	1
323.2	1110	772	1
323.2	2010	780	1
323.2	3030	789	1
323.2	3950	796	1
323.2	5050	803	1
323.2	5950	808	1

System: methyl alcohol + carbon dioxide; phases: Liquid, Gas
Property: Viscosity, Pa*s (Liquid); method: Moving piston method
Temperature, K	Pressure, kPa	Viscosity, Pa*s	uncertainty
303.2	1020	.0000225	
303.2	1980	.00002	
303.2	3080	.0000185	
303.2	4010	.000016	
303.2	5050	.000013	
323.2	1110	.0000175	
323.2	2010	.0000165	
323.2	3030	.0000145	
323.2	3950	.000014	
323.2	5050	.0000125	
323.2	5950	.0000115	

System: ethanol + carbon dioxide; phases: Liquid, Gas
Property: Mole fraction of carbon dioxide (Liquid); method: Samples were flashed at atmospheric pressure. The volume of the evolved gas was measured by the Chandler Engineering Gasometer. Solubility was then calculated from density.
Temperature, K	Pressure, kPa	Mole fraction of carbon dioxide	uncertainty
303.2	1140	.076	.002
303.2	2130	.151	.002
303.2	3080	.238	.002
303.2	3940	.295	.002
303.2	4980	.414	.002
303.2	5940	.589	.002
323.2	1020	.049	.002
323.2	1980	.101	.002
323.2	3060	.161	.002
323.2	4020	.218	.002
323.2	5110	.282	.002
323.2	6080	.358	.002

System: ethanol + carbon dioxide; phases: Liquid, Gas
Property: Mass density, kg/m3 (Liquid); method: Isochoric PVT measurement
Temperature, K	Pressure, kPa	Mass density, kg/m3	uncertainty
303.2	1140	793	1
303.2	2130	802	1
303.2	3080	812	1
303.2	3940	821	1
303.2	4980	832	1
303.2	5940	840	1
323.2	1020	769	1
323.2	1980	775	1
323.2	3060	782	1
323.2	4020	787	1
323.2	5110	794	1
323.2	6080	798	1

System: ethanol + carbon dioxide; phases: Liquid, Gas
Property: Viscosity, Pa*s (Liquid); method: Moving piston method
Temperature, K	Pressure, kPa	Viscosity, Pa*s	uncertainty
303.2	1140	.000039	
303.2	2130	.0000335	
303.2	3080	.000029	
303.2	3940	.000024	
303.2	4980	.0000185	
303.2	5940	.000012	
323.2	1020	.000029	
323.2	1980	.000025	
323.2	3060	.000022	
323.2	4020	.0000195	
323.2	5110	.0000165	
323.2	6080	.0000145	

System: n-propyl alcohol + carbon dioxide; phases: Liquid, Gas
Property: Mole fraction of carbon dioxide (Liquid); method: Samples were flashed at atmospheric pressure. The volume of the evolved gas was measured by the Chandler Engineering Gasometer. Solubility was then calculated from density.
Temperature, K	Pressure, kPa	Mole fraction of carbon dioxide	uncertainty
303.2	900	.054	.002
303.2	2110	.136	.002
303.2	2940	.192	.002
303.2	3940	.27	.002
303.2	4990	.37	.002
323.2	770	.034	.002
323.2	1880	.089	.002
323.2	3160	.161	.002
323.2	4030	.207	.002
323.2	5020	.27	.002
323.2	6000	.33	.002

System: n-propyl alcohol + carbon dioxide; phases: Liquid, Gas
Property: Mass density, kg/m3 (Liquid); method: Isochoric PVT measurement
Temperature, K	Pressure, kPa	Mass density, kg/m3	uncertainty
303.2	900	802	1
303.2	2110	811	1
303.2	2940	817	1
303.2	3940	825	1
303.2	4990	834	1
323.2	770	782	1
323.2	1880	787	1
323.2	3160	793	1
323.2	4030	797	1
323.2	5020	801	1
323.2	6000	805	1

System: n-propyl alcohol + carbon dioxide; phases: Liquid, Gas
Property: Viscosity, Pa*s (Liquid); method: Moving piston method
Temperature, K	Pressure, kPa	Viscosity, Pa*s	uncertainty
303.2	900	.000072	
303.2	2110	.000057	
303.2	2940	.000049	
303.2	3940	.000038	
303.2	4990	.0000285	
323.2	770	.000047	
323.2	1880	.0000405	
323.2	3160	.000033	
323.2	4030	.000029	
323.2	5020	.000025	
323.2	6000	.0000205	
