Measured thermophysical data. Thermochemistry of 1,3-diethylbarbituric and 1,3-diethyl-2-thiobarbituric acids: Experimental and computational study
Source: J. Chem. Thermodyn., 2014, 10.1016/j.jct.2014.06.001
Compound 1: 1,3-diethylbarbituric acid, C8H12N2O3
Compound 2: 1,3-diethyl-2-thiobarbituric acid, C8H12N2O2S
Compound 3: carbon dioxide, CO2
Compound 4: nitrogen, N2
Compound 5: water, H2O
Compound 6: oxygen, O2
Compound 7: sulfuric acid, H2O4S

System: 1,3-diethylbarbituric acid; phases: Crystal
Fixed: Pressure, kPa = 101.325
Property: Mass density, kg/m3 (Crystal); method: Pycnometric method
Temperature, K	Mass density, kg/m3	uncertainty
293	1320	10

System: 1,3-diethylbarbituric acid; phases: Liquid, Gas
Property: Vapor or sublimation pressure, kPa (Liquid); method: Transpiration method
Temperature, K	Vapor or sublimation pressure, kPa	uncertainty
328.9	.00282	.0000846
339.1	.00675	.0002025
333.8	.00441	.0001323
346	.0115	.000345
351.2	.01744	.0005232
356.2	.02535	.0007605
360.3	.03131	.0009393
366	.04999	.0014997
371.3	.07142	.0021426
376.8	.09721	.0029163
380.7	.13274	.0039822

System: 1,3-diethyl-2-thiobarbituric acid; phases: Crystal
Fixed: Pressure, kPa = 101.325
Property: Mass density, kg/m3 (Crystal); method: Pycnometric method
Temperature, K	Mass density, kg/m3	uncertainty
293	1610	10

System: 1,3-diethyl-2-thiobarbituric acid; phases: Crystal, Gas
Property: Vapor or sublimation pressure, kPa (Crystal); method: Transpiration method
Temperature, K	Vapor or sublimation pressure, kPa	uncertainty
327.3	.00039	.0000117
333.6	.00074	.0000222
337.7	.0011	.000033
340	.00135	.0000405
343	.00185	.0000555
348	.00293	.0000879
349.1	.0034	.000102
351	.00384	.0001152
353.3	.00489	.0001467
354.1	.00551	.0001653
355.3	.00634	.0001902
358.1	.00756	.0002268
362.4	.01184	.0003552
367.7	.01865	.0005595
368.6	.02034	.0006102
370.7	.02408	.0007224
372.2	.02684	.0008052
375.7	.03524	.0010572
375.9	.03465	.0010395

Reaction: -1 1,3-diethylbarbituric acid + 8 carbon dioxide + 1 nitrogen + 6 water + -9.5 oxygen
Property: Specific internal energy of reaction at constant volume, J/g
-22533.3

Reaction: -1 1,3-diethyl-2-thiobarbituric acid + 1 sulfuric acid + 8 carbon dioxide + 1 nitrogen + 5 water + -11.5 oxygen
Property: Specific internal energy of reaction at constant volume, J/g
-25051.3
