Measured thermophysical data. Thermodynamic properties of 1-phenylnaphthalene and 2-phenylnaphthalene
Source: J. Chem. Thermodyn., 2014, 10.1016/j.jct.2014.01.006
Compound 1: 1-phenylnaphthalene, C16H12
Compound 2: 2-phenylnaphthalene, C16H12
Compound 3: oxygen, O2
Compound 4: carbon dioxide, CO2
Compound 5: water, H2O

System: 1-phenylnaphthalene; phases: Crystal, Liquid, Gas
Property: Triple point temperature, K (Crystal); method: Adiabatic calorimetry
Triple point temperature, K	uncertainty
297.473	.01

System: 1-phenylnaphthalene; phases: Crystal, Liquid, Gas
Property: Molar enthalpy of transition or fusion, kJ/mol (Crystal); method: Adiabatic calorimetry
Molar enthalpy of transition or fusion, kJ/mol	uncertainty
15.548	

System: 1-phenylnaphthalene; phases: Glass, Liquid, Gas
Property: Triple point temperature, K (Glass); method: Adiabatic calorimetry
Triple point temperature, K	uncertainty
220	

System: 1-phenylnaphthalene; phases: Crystal, Gas
Property: Molar heat capacity at saturation pressure, J/K/mol (Crystal); method: Vacuum adiabatic calorimetry
Temperature, K	Molar heat capacity at saturation pressure, J/K/mol	uncertainty
4.666	.4323520292	24.9433863
5.509	.6901003543	24.9433863
6.425	1.1307668456	24.9433863
7.372	1.6712068821	24.9433863
8.352	2.3696216985	24.9433863
9.357	3.242640219	24.9433863
10.418	4.3484636783	4.15723105
11.583	5.5124883723	4.15723105
12.87	7.1338084818	4.15723105
14.3	8.9214178333	4.15723105
15.895	11.1912659866	4.15723105
17.675	13.7604347755	4.15723105
19.661	16.6954398968	4.15723105
21.86	20.0129102747	4.15723105
24.295	23.7128459092	4.15723105
26.974	27.687158793	4.15723105
29.935	31.8776476914	4.15723105
33.231	36.3092559907	.83144621
36.922	40.9404113804	.83144621
41.048	45.6297680048	.83144621
45.648	50.6267597269	.83144621
50.772	55.4990345175	.83144621
56.481	60.5874853227	.83144621
57.014	60.7870324131	.83144621
57.982	61.8013967893	.83144621
61.923	65.0772948567	.83144621
63.685	66.183118316	.83144621
66.855	68.5859978629	.83144621
70.04	70.9971918719	.83144621
71.832	72.2194178006	.83144621
76.823	75.66160511	.83144621
77.081	75.911038973	.83144621
81.769	79.1619936541	.83144621
84.847	81.066005475	.83144621
86.699	82.3048603279	.83144621
93.503	86.6865818546	.83144621
102.858	92.6314222561	.83144621
112.568	98.858954369	.83144621
122.362	105.1530021787	.83144621
132.221	111.6133392304	.83144621
142.616	118.5808584702	.83144621
153.972	126.3548805337	.83144621
165.781	135.0185500419	.83144621
177.525	143.5159303081	.83144621
183.802	148.2551737051	.83144621
189.343	152.487234914	.83144621
195.078	157.0435601448	.83144621
201.236	161.7578601555	.83144621
206.162	165.7238585772	.83144621
217.015	174.7367354936	.83144621
227.569	183.3754616155	.83144621
238.353	192.4465397666	.83144621
249.845	202.2243471962	.83144621
261.656	212.6257392833	.83144621
273.406	223.077018143	.83144621
285.162	237.0536289331	.83144621

System: 1-phenylnaphthalene; phases: Liquid, Gas
Property: Molar heat capacity at saturation pressure, J/K/mol (Liquid); method: Vacuum adiabatic calorimetry
Temperature, K	Molar heat capacity at saturation pressure, J/K/mol	uncertainty
224.638	274.6349976251	.83144621
230.273	276.9214747026	.83144621
233.283	278.0854993966	.83144621
239.398	280.7876995791	.83144621
242.59	282.1845292119	.83144621
252.376	286.682653208	.83144621
252.838	286.9986027678	.83144621
284.544	303.1619170902	.83144621
293.304	308.0425063429	.83144621
304.209	314.1868938348	.83144621
305.106	314.6691326366	.83144621
305.83	315.1347425142	.83144621
306.217	315.3592329909	.83144621
314.201	319.9987028427	.83144621
321.376	324.180877279	.83144621
337.19	333.493074831	.83144621
352.74	342.7720145346	.83144621
368.542	352.1590422455	.83144621
384.764	361.8370761299	.83144621
400.586	371.1825315303	.83144621
415.692	380.054062591	.83144621
428.683	387.4123615495	.83144621
439.15	393.3987742615	.83144621

System: 1-phenylnaphthalene; phases: Glass, Gas
Property: Molar heat capacity at saturation pressure, J/K/mol (Glass); method: Vacuum adiabatic calorimetry
Temperature, K	Molar heat capacity at saturation pressure, J/K/mol	uncertainty
92.699	86.969273566	.83144621
102.164	93.0305164369	.83144621
111.984	99.3328787087	.83144621
122.484	106.1590520928	.83144621
133.239	113.2762316504	.83144621
144.863	121.2414863422	.83144621
158.225	130.6700863636	.83144621
172.315	140.9883338297	.83144621
184.398	150.1342421397	.83144621
193.62	157.1350192279	.83144621
198.882	161.7911180039	.83144621
201.339	162.4313315856	.83144621
212.825	180.9310097581	.83144621

System: 1-phenylnaphthalene; phases: Liquid, Gas
Property: Molar heat capacity at saturation pressure, J/K/mol (Liquid); method: Small sample (50 mg) DSC
Temperature, K	Molar heat capacity at saturation pressure, J/K/mol	uncertainty
410	374.566517605	3.74566517605
430	385.458462956	3.85458462956
450	402.087387156	4.02087387156
470	407.159209037	4.07159209037
490	419.04888984	4.1904888984
510	429.109388981	4.29109388981
530	438.671020396	4.38671020396
550	447.068627117	4.47068627117
570	460.454911098	4.60454911098
590	471.097422586	4.71097422586
610	480.825343243	4.80825343243
410	371.905889733	3.71905889733
430	384.12814902	3.8412814902
450	395.103238992	3.95103238992
470	403.25141185	4.0325141185
490	411.482729329	4.11482729329
510	426.199327246	4.26199327246
530	435.095801693	4.35095801693
550	444.657433108	4.44657433108
570	452.805605966	4.52805605966
590	466.275034568	4.66275034568
610	476.501822951	4.76501822951
410	371.074443523	3.71074443523
430	382.548401221	3.82548401221
450	393.856069677	3.93856069677
470	404.831159649	4.04831159649
490	416.138828105	4.16138828105
510	428.361087392	4.28361087392
530	439.086743501	4.39086743501
550	449.81239961	4.4981239961
570	460.62120034	4.6062120034
590	469.101951682	4.69101951682
610	479.245595444	4.79245595444

System: 1-phenylnaphthalene; phases: Liquid, Gas
Property: Vapor or sublimation pressure, kPa (Liquid); method: Ebulliometric method (Recirculating still)
Temperature, K	Vapor or sublimation pressure, kPa	uncertainty
375.005	.0218	.0004
385.002	.0404	.0004
395.002	.0732	.0004
405.002	.1265	.0004
415.002	.2126	.0004
425.008	.3464	.0006
434.994	.549	.0006
445.004	.849	.0006
455	1.2829	.0008
465.001	1.8964	.001
466.359	1.9995	.0006
475.004	2.7467	.0012
479.998	3.2812	.0014
485.686	4.0021	.001
494.306	5.336	.0012
507.127	8.0046	.0016
516.73	10.67	.002
524.516	13.34	.002
532.527	16.645	.004
539.267	19.926	.004
548.097	25.014	.006
548.11	25.022	.004
556.999	31.175	.006
565.958	38.574	.008
574.939	47.359	.008
584.016	57.819	.01
593.13	70.114	.012
602.325	84.545	.014
611.559	101.34	.02
620.849	120.8	.02
630.2	143.27	.02

System: 1-phenylnaphthalene; phases: Liquid, Gas
Property: Mass density, kg/m3 (Liquid); method: Vibrating tube method
Temperature, K	Mass density, kg/m3	uncertainty
323.136	1082.7	.54135
348.131	1064.6	.5323
373.124	1045.5	.52275
423.113	1006.3	.50315
448.111	986.7	.49335
473.111	967	.4835
498.108	945	.4725
523.11	921.4	.4607

System: 1-phenylnaphthalene; phases: Crystal, Gas
Property: Molar heat capacity at saturation pressure, J/K/mol (Crystal); method: Vacuum adiabatic calorimetry
Temperature, K	Molar heat capacity at saturation pressure, J/K/mol	uncertainty
5	.5238111123	24.9433863
10	3.8994827249	4.15723105
20	17.2026220849	4.15723105
30	31.9691067745	4.15723105
40	44.4740577729	.83144621
50	54.8172486253	.83144621
60	63.3894590504	.83144621
70	70.9306761751	.83144621
80	77.8732520286	.83144621
90	84.4499915497	.83144621
100	90.8188695183	.83144621
120	103.6314556144	.83144621
140	116.8098780429	.83144621
160	130.7366020604	.83144621
180	145.336797508	.83144621
200	160.7268668551	.83144621
220	177.0814138058	.83144621
240	193.6853946195	.83144621
260	210.6718406898	.83144621
280	228.0324375546	.83144621
297.47	243.7550853857	.83144621

System: 1-phenylnaphthalene; phases: Crystal, Gas
Property: Molar entropy, J/K/mol (Crystal); method: Vacuum adiabatic calorimetry
Temperature, K	Molar entropy, J/K/mol	uncertainty
5	.1746037041	24.9433863
10	1.3718862465	4.15723105
20	7.8488522224	4.15723105
30	17.6682319625	4.15723105
40	28.6433219345	.83144621
50	39.7181854517	.83144621
60	50.4937283333	.83144621
70	60.8369191857	.83144621
80	70.7643869331	.83144621
90	80.3260183481	.83144621
100	89.5550712791	.83144621
120	107.2399321658	.83144621
140	124.1931203877	.83144621
160	140.6890131941	.83144621
180	156.9271576754	.83144621
200	173.0322707631	.83144621
220	189.1124404645	.83144621
240	205.2258680143	.83144621
260	221.3974967988	.83144621
280	237.6439557422	.83144621
297.47	251.9198871679	.83144621

System: 1-phenylnaphthalene; phases: Crystal, Gas
Property: Molar enthalpy function {Hm(T)-Hm(0)}/T, J/K/mol (Crystal); method: Vacuum adiabatic calorimetry
Temperature, K	Molar enthalpy function {Hm(T)-Hm(0)}/T, J/K/mol	uncertainty
5	.1330313936	24.9433863
10	1.0226788383	4.15723105
20	5.570689607	4.15723105
30	11.9478820377	4.15723105
40	18.5745083314	.83144621
50	24.8269838306	.83144621
60	30.5556482175	.83144621
70	35.7937593405	.83144621
80	40.6244618206	.83144621
90	45.1309002788	.83144621
100	49.387904874	.83144621
120	57.3531595658	.83144621
140	64.9026911526	.83144621
160	72.2443611869	.83144621
180	79.5527733728	.83144621
200	86.8944434071	.83144621
220	94.3442014487	.83144621
240	101.9269908839	.83144621
260	109.6344972506	.83144621
280	117.4750350109	.83144621
297.47	124.4259253265	.83144621

System: 1-phenylnaphthalene; phases: Liquid, Gas
Property: Molar heat capacity at saturation pressure, J/K/mol (Liquid); method: Vacuum adiabatic calorimetry
Temperature, K	Molar heat capacity at saturation pressure, J/K/mol	uncertainty
297.47	310.3622412688	.3103622412688
298.15	310.7447065254	.3107447065254
300	311.8006432121	.3118006432121
320	323.3743744553	.3233743744553
340	335.1725961752	.3351725961752
360	347.0872203645	.3470872203645
380	359.0018445538	.3590018445538
400	370.8499530463	.3708499530463
420	382.5068289105	.3825068289105
440	393.6398936624	.3936398936624
460	401.9543557624	.4019543557624
480	412.2060875317	.4122060875317
500	422.4162469905	.4224162469905
520	432.6264064493	.4326264064493
540	442.8365659081	.4428365659081
560	453.0051530564	.4530051530564
580	463.2153125152	.4632153125152
600	473.425471974	.473425471974
620	483.6356314328	.4836356314328
640	493.8291619674	.4938291619674
650	498.9092983105	.4989092983105

System: 1-phenylnaphthalene; phases: Liquid, Gas
Property: Molar entropy, J/K/mol (Liquid); method: Vacuum adiabatic calorimetry
Temperature, K	Molar entropy, J/K/mol	uncertainty
297.47	304.201221194	.304201221194
298.15	304.907950464	.304907950464
300	306.828591186	.306828591186
320	327.323740016	.327323740016
340	347.278448816	.347278448816
360	366.775862206	.366775862206
380	385.857552496	.385857552496
400	404.573406458	.404573406458
420	422.95668194	.42295668194
440	441.007378942	.441007378942
460	458.692239616	.458692239616
480	476.011263962	.476011263962
500	493.0475966	.4930475966
520	509.809551992	.509809551992
540	526.330387986	.526330387986
560	542.618419044	.542618419044
580	558.698588552	.558698588552
600	574.57089651	.57457089651
620	590.260286304	.590260286304
640	605.775072396	.605775072396
650	613.474264208	.613474264208

System: 1-phenylnaphthalene; phases: Liquid, Gas
Property: Molar enthalpy function {Hm(T)-Hm(0)}/T, J/K/mol (Liquid); method: Vacuum adiabatic calorimetry
Temperature, K	Molar enthalpy function {Hm(T)-Hm(0)}/T, J/K/mol	uncertainty
297.47	176.7072630113	.1767072630113
298.15	177.014898109	.177014898109
300	177.8380298569	.1778380298569
320	186.5682150619	.1865682150619
340	194.9658217829	.1949658217829
360	203.0890512546	.2030890512546
380	210.9794757875	.2109794757875
400	218.6786676921	.2186786676921
420	226.2032558926	.2262032558926
440	233.5615548511	.2335615548511
460	240.703677795	.240703677795
480	247.6379391864	.2476379391864
500	254.42254026	.25442254026
520	261.0824244021	.2610824244021
540	267.6259060748	.2676259060748
560	274.0612997402	.2740612997402
580	280.4052343225	.2804052343225
600	286.6743387459	.2866743387459
620	292.8602985483	.2928602985483
640	298.9797426539	.2989797426539
650	302.0145213204	.3020145213204

System: 2-phenylnaphthalene; phases: Crystal, Liquid, Gas
Property: Triple point temperature, K (Crystal); method: Adiabatic calorimetry
Triple point temperature, K	uncertainty
374.767	.01

System: 2-phenylnaphthalene; phases: Crystal, Liquid, Gas
Property: Molar enthalpy of transition or fusion, kJ/mol (Crystal); method: Adiabatic calorimetry
Molar enthalpy of transition or fusion, kJ/mol	uncertainty
22.618	

System: 2-phenylnaphthalene; phases: Metastable crystal, Crystal, Gas
Property: Triple point temperature, K (Metastable crystal); method: Adiabatic calorimetry
Triple point temperature, K	uncertainty
331.4	

System: 2-phenylnaphthalene; phases: Metastable crystal, Gas
Property: Molar heat capacity at saturation pressure, J/K/mol (Metastable crystal); method: Vacuum adiabatic calorimetry
Temperature, K	Molar heat capacity at saturation pressure, J/K/mol	uncertainty
5.559	.7316726648	24.9433863
6.48	1.1723391561	24.9433863
7.437	1.8208671999	24.9433863
8.415	2.5192820163	24.9433863
9.445	3.4837596199	24.9433863
10.547	4.6394698518	4.15723105
11.764	5.9115825531	4.15723105
13.121	7.5412171247	4.15723105
14.583	9.3038830899	4.15723105
16.16	11.4240709254	4.15723105
17.893	13.635717844	4.15723105
19.784	16.130056474	4.15723105
21.836	18.8572000428	4.15723105
24.08	21.7922051641	4.15723105
26.553	25.0431598452	4.15723105
29.304	28.5352339272	4.15723105
32.36	32.3349431069	.83144621
35.767	36.3508283012	.83144621
39.574	40.6161473585	.83144621
43.812	45.1641581272	.83144621
48.554	49.7454267443	.83144621
53.865	54.709160618	.83144621
54.566	55.2412861924	.83144621
59.817	59.780982499	.83144621
59.833	59.8225548095	.83144621
65.643	64.4204523508	.83144621
66.409	64.9941502357	.83144621
72.14	69.3592428382	.83144621
79.329	74.5225238023	.83144621
84.658	78.2557172852	.83144621
87.375	80.0183832504	.83144621
91.534	82.895187137	.83144621
96.286	86.1877141286	.83144621
100.11	88.7069961449	.83144621
109.666	95.0675596514	.83144621
119.509	101.6692425588	.83144621
129.293	108.337441163	.83144621
139.127	115.1469856229	.83144621
149.037	122.22259287	.83144621
159.052	129.4478604349	.83144621
169.135	137.0389643322	.83144621
179.218	144.6882694642	.83144621
189.277	152.5537506108	.83144621
199.329	160.5772065373	.83144621
210.426	169.6316557642	.83144621
222.542	179.6672115189	.83144621
234.704	190.1184903786	.83144621
246.897	200.4866246173	.83144621
260.129	212.1102426331	.83144621
274.337	224.8147407219	.83144621
281.755	231.6159707197	.83144621
287.175	236.8707107669	.83144621
288.455	238.0014776125	.83144621
288.88	238.2841693239	.83144621
289.672	239.3151626243	.83144621
290.857	240.7701934918	.83144621
297.621	247.2554739298	.83144621
302.221	251.8117991606	.83144621
303.659	253.4580626564	.83144621
304.26	253.8155845267	.83144621
305.951	255.7279108097	.83144621
316.274	265.7385231781	.83144621
319.322	269.0726224802	.83144621
319.626	269.4301443505	.83144621
323.177	273.5125452416	.83144621
328.64	281.6524036375	.83144621

System: 2-phenylnaphthalene; phases: Crystal, Gas
Property: Molar heat capacity at saturation pressure, J/K/mol (Crystal); method: Vacuum adiabatic calorimetry
Temperature, K	Molar heat capacity at saturation pressure, J/K/mol	uncertainty
334.104	295.4544107235	.83144621
339.547	300.3017421278	.83144621
340.548	301.8316031542	.83144621
345.849	308.6577765383	.83144621
346.701	310.378870193	.83144621
352.895	319.9820739185	.83144621
354.521	323.8067264845	.83144621
355.252	323.5074058489	.83144621
356.408	326.010058941	.83144621
360.854	334.7069862976	.83144621
364.778	343.220995488	.83144621
365.472	344.5679383482	.83144621
365.991	347.2535096065	.83144621
368.758	353.1734066217	.83144621

System: 2-phenylnaphthalene; phases: Liquid, Gas
Property: Molar heat capacity at saturation pressure, J/K/mol (Liquid); method: Vacuum adiabatic calorimetry
Temperature, K	Molar heat capacity at saturation pressure, J/K/mol	uncertainty
381.146	364.0570375106	.83144621
381.641	364.1817544421	.83144621
382.947	365.0630874247	.83144621
388.394	368.0479793186	.83144621
390.223	369.1288593916	.83144621
405.186	377.5098371884	.83144621
422.042	386.8636070509	.83144621
436.242	394.7207737354	.83144621

System: 2-phenylnaphthalene; phases: Liquid, Gas
Property: Molar heat capacity at saturation pressure, J/K/mol (Liquid); method: Small sample (50 mg) DSC
Temperature, K	Molar heat capacity at saturation pressure, J/K/mol	uncertainty
410.1	380.303496454	3.80303496454
430	391.029152563	3.91029152563
450	401.505374809	4.01505374809
470.1	413.478200233	4.13478200233
490	423.455554753	4.23455554753
510	427.36335194	4.2736335194
530.1	444.241710003	4.44241710003
550.1	455.965101564	4.55965101564
570.1	467.27277002	4.6727277002
590.1	476.086099846	4.76086099846
610.1	484.483706567	4.84483706567
410.1	382.631545842	3.82631545842
430	394.604371266	3.94604371266
450	405.579461238	4.05579461238
470.1	411.150150845	4.11150150845
490	424.702724068	4.24702724068
510	434.929512451	4.34929512451
530.1	446.819193254	4.46819193254
550.1	457.212270879	4.57212270879
570.1	468.270505472	4.68270505472
590.1	477.915281508	4.77915281508
610.1	484.151128083	4.84151128083

System: 2-phenylnaphthalene; phases: Liquid, Gas
Property: Vapor or sublimation pressure, kPa (Liquid); method: Ebulliometric method (Recirculating still)
Temperature, K	Vapor or sublimation pressure, kPa	uncertainty
482.85	1.996	.0006
502.827	3.9975	.001
511.75	5.3352	.0012
524.935	7.9928	.0016
534.903	10.672	.002
542.892	13.331	.002
551.198	16.656	.004
558.161	19.949	.004
567.231	25.028	.004
576.353	31.163	.006
585.573	38.564	.008
594.822	47.364	.008
604.125	57.796	.01

Reaction: -1 1-phenylnaphthalene + 16 carbon dioxide + 6 water + -19 oxygen
Property: Specific internal energy of reaction at constant volume, J/g
-39994.7
