Measured thermophysical data. Densities and viscosities of binary and ternary mixtures of cyclohexanone, 1,4-dioxane and isooctane from T = (288.15 to 313.15) K
Source: J. Chem. Thermodyn., 2012, 10.1016/j.jct.2012.05.005
Compound 1: cyclohexanone, C6H10O, purity 99%
Compound 2: 1,4-dioxane, C4H8O2, purity 99%
Compound 3: isooctane, C8H18, purity 99.5%

System: cyclohexanone; phases: Liquid
Fixed: Pressure, kPa = 101.325
Property: Mass density, kg/m3 (Liquid); method: Vibrating tube method
Temperature, K	Mass density, kg/m3	uncertainty
288.15	953.7	.2
293.15	949.5	.2
298.15	945.2	.2
303.15	940.3	.2
308.15	935.7	.2
313.15	931.1	.2

System: cyclohexanone; phases: Liquid
Fixed: Pressure, kPa = 101.325
Property: Viscosity, Pa*s (Liquid); method: Capillary tube (Ostwald; Ubbelohde) method
Temperature, K	Viscosity, Pa*s	uncertainty
288.15	.002599	.0000002
293.15	.0023318	.0000002
298.15	.0021016	.0000002
303.15	.0019045	.0000002
308.15	.0017338	.0000002
313.15	.0015842	.0000002

System: 1,4-dioxane; phases: Liquid
Fixed: Pressure, kPa = 101.325
Property: Mass density, kg/m3 (Liquid); method: Vibrating tube method
Temperature, K	Mass density, kg/m3	uncertainty
288.15	1039.1	.2
293.15	1033.7	.2
298.15	1028.1	.2
303.15	1022.3	.2
308.15	1017	.2
313.15	1010.6	.2

System: 1,4-dioxane; phases: Liquid
Fixed: Pressure, kPa = 101.325
Property: Viscosity, Pa*s (Liquid); method: Capillary tube (Ostwald; Ubbelohde) method
Temperature, K	Viscosity, Pa*s	uncertainty
288.15	.0014381	.0000002
293.15	.0013111	.0000002
298.15	.0012023	.0000002
303.15	.0011065	.0000002
308.15	.0010219	.0000002
313.15	.0009477	.0000002

System: isooctane; phases: Liquid
Fixed: Pressure, kPa = 101.325
Property: Mass density, kg/m3 (Liquid); method: Vibrating tube method
Temperature, K	Mass density, kg/m3	uncertainty
288.15	696.2	.2
293.15	692.1	.2
298.15	688.3	.2
303.15	684.2	.2
308.15	679.6	.2
313.15	675.5	.2

System: isooctane; phases: Liquid
Fixed: Pressure, kPa = 101.325
Property: Viscosity, Pa*s (Liquid); method: Capillary tube (Ostwald; Ubbelohde) method
Temperature, K	Viscosity, Pa*s	uncertainty
288.15	.0005439	.0000002
293.15	.0005125	.0000002
298.15	.0004844	.0000002
303.15	.0004586	.0000002
308.15	.0004216	.0000002
313.15	.000413	.0000002

System: cyclohexanone + 1,4-dioxane + isooctane; phases: Liquid
Fixed: Pressure, kPa = 101
Property: Mass density, kg/m3 (Liquid); method: Vibrating tube method
Temperature, K	Mole fraction of cyclohexanone	Mole fraction of 1,4-dioxane	Mass density, kg/m3	uncertainty
288.15	.1041	.4632	827.1	.2
288.15	.1102	.7695	956.6	.2
288.15	.1133	.3211	787.7	.2
288.15	.12	.6555	903.6	.2
288.15	.1215	.1966	759.4	.2
288.15	.1291	.5487	866.8	.2
288.15	.1301	.8212	992	.2
288.15	.2221	.5008	877.8	.2
288.15	.2221	.674	976.2	.2
288.15	.2323	.188	782.8	.2
288.15	.2401	.3748	840.6	.2
288.15	.2556	.266	811.8	.2
288.15	.2556	.4655	878.7	.2
288.15	.2691	.5445	939.4	.2
288.15	.2763	.6375	960.9	.2
288.15	.2822	.2998	830.1	.2
288.15	.2841	.4599	887.1	.2
288.15	.3009	.3654	856.2	.2
288.15	.301	.1827	802.4	.2
288.15	.403	.4893	945.6	.2
288.15	.4273	.1729	829.5	.2
288.15	.43	.2811	869.2	.2
288.15	.4324	.375	903.7	.2
288.15	.4819	.4474	954.4	.2
288.15	.5102	.271	887.7	.2
288.15	.5165	.332	915.5	.2
288.15	.5408	.1641	857.2	.2
288.15	.6086	.2586	916.8	.2
288.15	.6101	.3174	945.5	.2
288.15	.6185	.1581	883.8	.2
288.15	.6783	.1871	911.5	.2
288.15	.6886	.2181	929.6	.2
288.15	.7448	.1809	938.2	.2
293.15	.1041	.4632	822.2	.2
293.15	.1102	.7695	950.8	.2
293.15	.1133	.3211	783	.2
293.15	.12	.6555	898	.2
293.15	.1215	.1966	755.1	.2
293.15	.1291	.5487	862	.2
293.15	.1301	.8212	986.6	.2
293.15	.2221	.5008	873.2	.2
293.15	.2221	.674	970.7	.2
293.15	.2323	.188	778	.2
293.15	.2401	.3748	835.7	.2
293.15	.2556	.266	807.1	.2
293.15	.2556	.4655	874	.2
293.15	.2691	.5445	934.1	.2
293.15	.2763	.6375	955.6	.2
293.15	.2822	.2998	825.5	.2
293.15	.2841	.4599	881.6	.2
293.15	.3009	.3654	851.5	.2
293.15	.301	.1827	797.6	.2
293.15	.403	.4893	940.4	.2
293.15	.4273	.1729	824.8	.2
293.15	.43	.2811	864.7	.2
293.15	.4324	.375	899.1	.2
293.15	.4819	.4474	949.6	.2
293.15	.5102	.271	883	.2
293.15	.5165	.332	910.8	.2
293.15	.5408	.1641	852.6	.2
293.15	.6086	.2586	912.3	.2
293.15	.6101	.3174	940.6	.2
293.15	.6185	.1581	879.4	.2
293.15	.6783	.1871	906.9	.2
293.15	.6886	.2181	925.1	.2
293.15	.7448	.1809	933.7	.2
298.15	.1041	.4632	817.7	.2
298.15	.1102	.7695	945.1	.2
298.15	.1133	.3211	778.6	.2
298.15	.12	.6555	893.1	.2
298.15	.1215	.1966	750.5	.2
298.15	.1291	.5487	857	.2
298.15	.1301	.8212	980.7	.2
298.15	.2221	.5008	868.5	.2
298.15	.2221	.674	966.1	.2
298.15	.2323	.188	773.4	.2
298.15	.2401	.3748	831.1	.2
298.15	.2556	.266	802.6	.2
298.15	.2556	.4655	869.2	.2
298.15	.2691	.5445	928.5	.2
298.15	.2763	.6375	950.2	.2
298.15	.2822	.2998	820.8	.2
298.15	.2841	.4599	877.2	.2
298.15	.3009	.3654	848.3	.2
298.15	.301	.1827	792.8	.2
298.15	.403	.4893	935.6	.2
298.15	.4273	.1729	820.3	.2
298.15	.43	.2811	860.4	.2
298.15	.4324	.375	894	.2
298.15	.4819	.4474	944.4	.2
298.15	.5102	.271	878.6	.2
298.15	.5165	.332	906.4	.2
298.15	.5408	.1641	848.3	.2
298.15	.6086	.2586	907.7	.2
298.15	.6101	.3174	935.6	.2
298.15	.6185	.1581	874.7	.2
298.15	.6783	.1871	902.5	.2
298.15	.6886	.2181	920.5	.2
298.15	.7448	.1809	929.1	.2
303.15	.1041	.4632	813.1	.2
303.15	.1102	.7695	940.6	.2
303.15	.1133	.3211	774.2	.2
303.15	.12	.6555	888.4	.2
303.15	.1215	.1966	746.5	.2
303.15	.1291	.5487	852.7	.2
303.15	.1301	.8212	976.2	.2
303.15	.2221	.5008	863.8	.2
303.15	.2221	.674	960.7	.2
303.15	.2323	.188	769.4	.2
303.15	.2401	.3748	825.8	.2
303.15	.2556	.266	797.5	.2
303.15	.2556	.4655	864.1	.2
303.15	.2691	.5445	923.7	.2
303.15	.2763	.6375	945.6	.2
303.15	.2822	.2998	816.2	.2
303.15	.2841	.4599	873.3	.2
303.15	.3009	.3654	843	.2
303.15	.301	.1827	788.2	.2
303.15	.403	.4893	930.6	.2
303.15	.4273	.1729	816.4	.2
303.15	.43	.2811	856	.2
303.15	.4324	.375	889.3	.2
303.15	.4819	.4474	940.1	.2
303.15	.5102	.271	874.6	.2
303.15	.5165	.332	902	.2
303.15	.5408	.1641	843.8	.2
303.15	.6086	.2586	903	.2
303.15	.6101	.3174	931.7	.2
303.15	.6185	.1581	870.4	.2
303.15	.6783	.1871	898.4	.2
303.15	.6886	.2181	916	.2
303.15	.7448	.1809	924.6	.2
308.15	.1041	.4632	808.9	.2
308.15	.1102	.7695	935.9	.2
308.15	.1133	.3211	769.8	.2
308.15	.12	.6555	883.6	.2
308.15	.1215	.1966	742	.2
308.15	.1291	.5487	848.3	.2
308.15	.1301	.8212	971.1	.2
308.15	.2221	.5008	859	.2
308.15	.2221	.674	955.6	.2
308.15	.2323	.188	765.2	.2
308.15	.2401	.3748	821.8	.2
308.15	.2556	.266	794.1	.2
308.15	.2556	.4655	869.9	.2
308.15	.2691	.5445	919.4	.2
308.15	.2763	.6375	940.6	.2
308.15	.2822	.2998	811.9	.2
308.15	.2841	.4599	869.2	.2
308.15	.3009	.3654	838.6	.2
308.15	.301	.1827	784	.2
308.15	.403	.4893	925.6	.2
308.15	.4273	.1729	812	.2
308.15	.43	.2811	851.3	.2
308.15	.4324	.375	885.2	.2
308.15	.4819	.4474	935.8	.2
308.15	.5102	.271	869.9	.2
308.15	.5165	.332	897.4	.2
308.15	.5408	.1641	839.6	.2
308.15	.6086	.2586	898.4	.2
308.15	.6101	.3174	927.4	.2
308.15	.6185	.1581	866.6	.2
308.15	.6783	.1871	893.9	.2
308.15	.6886	.2181	911.7	.2
308.15	.7448	.1809	920.4	.2
313.15	.1041	.4632	803.6	.2
313.15	.1102	.7695	930.5	.2
313.15	.1133	.3211	764.8	.2
313.15	.12	.6555	878.6	.2
313.15	.1215	.1966	737.7	.2
313.15	.1291	.5487	844.3	.2
313.15	.1301	.8212	965.4	.2
313.15	.2221	.5008	853.8	.2
313.15	.2221	.674	950.3	.2
313.15	.2323	.188	760.7	.2
313.15	.2401	.3748	817.1	.2
313.15	.2556	.266	789.3	.2
313.15	.2556	.4655	855.4	.2
313.15	.2691	.5445	914.4	.2
313.15	.2763	.6375	936	.2
313.15	.2822	.2998	807.5	.2
313.15	.2841	.4599	863.9	.2
313.15	.3009	.3654	833.4	.2
313.15	.301	.1827	779.7	.2
313.15	.403	.4893	921.5	.2
313.15	.4273	.1729	807.4	.2
313.15	.43	.2811	847.3	.2
313.15	.4324	.375	880.4	.2
313.15	.4819	.4474	930.9	.2
313.15	.5102	.271	865	.2
313.15	.5165	.332	892.8	.2
313.15	.5408	.1641	835.2	.2
313.15	.6086	.2586	893.8	.2
313.15	.6101	.3174	922.4	.2
313.15	.6185	.1581	861.8	.2
313.15	.6783	.1871	889.3	.2
313.15	.6886	.2181	906.8	.2
313.15	.7448	.1809	915.8	.2

System: cyclohexanone + 1,4-dioxane + isooctane; phases: Liquid
Fixed: Pressure, kPa = 101
Property: Viscosity, Pa*s (Liquid); method: Capillary tube (Ostwald; Ubbelohde) method
Temperature, K	Mole fraction of cyclohexanone	Mole fraction of 1,4-dioxane	Viscosity, Pa*s	uncertainty
288.15	.1041	.4632	.000783	.0000002
288.15	.1102	.7695	.0011542	.0000002
288.15	.1133	.3211	.0007062	.0000002
288.15	.12	.6555	.0009891	.0000002
288.15	.1215	.1966	.000658	.0000002
288.15	.1291	.5487	.0008853	.0000002
288.15	.1301	.8212	.0012527	.0000002
288.15	.2221	.5008	.0009661	.0000002
288.15	.2221	.674	.0012483	.0000002
288.15	.2323	.188	.0007546	.0000002
288.15	.2401	.3748	.0008824	.0000002
288.15	.2556	.266	.0008232	.0000002
288.15	.2556	.4655	.0009868	.0000002
288.15	.2691	.5445	.0011441	.0000002
288.15	.2763	.6375	.0012933	.0000002
288.15	.2822	.2998	.0008757	.0000002
288.15	.2841	.4599	.0010377	.0000002
288.15	.3009	.3654	.0009472	.0000002
288.15	.301	.1827	.0008293	.0000002
288.15	.403	.4893	.001355	.0000002
288.15	.4273	.1729	.0009902	.0000002
288.15	.43	.2811	.0010946	.0000002
288.15	.4324	.375	.0012265	.0000002
288.15	.4819	.4474	.001485	.0000002
288.15	.5102	.271	.0012482	.0000002
288.15	.5165	.332	.0013573	.0000002
288.15	.5408	.1641	.001191	.0000002
288.15	.6086	.2586	.0014894	.0000002
288.15	.6101	.3174	.0016046	.0000002
288.15	.6185	.1581	.001366	.0000002
288.15	.6783	.1871	.0015986	.0000002
288.15	.6886	.2181	.0016648	.0000002
288.15	.7448	.1809	.0017939	.0000002
293.15	.1041	.4632	.0007335	.0000002
293.15	.1102	.7695	.0010623	.0000002
293.15	.1133	.3211	.0006603	.0000002
293.15	.12	.6555	.0009183	.0000002
293.15	.1215	.1966	.0006172	.0000002
293.15	.1291	.5487	.0008227	.0000002
293.15	.1301	.8212	.0012028	.0000002
293.15	.2221	.5008	.0008973	.0000002
293.15	.2221	.674	.0011615	.0000002
293.15	.2323	.188	.0007063	.0000002
293.15	.2401	.3748	.0008232	.0000002
293.15	.2556	.266	.0007668	.0000002
293.15	.2556	.4655	.0009155	.0000002
293.15	.2691	.5445	.0010644	.0000002
293.15	.2763	.6375	.001191	.0000002
293.15	.2822	.2998	.0008196	.0000002
293.15	.2841	.4599	.000963	.0000002
293.15	.3009	.3654	.0008773	.0000002
293.15	.301	.1827	.0007723	.0000002
293.15	.403	.4893	.0012425	.0000002
293.15	.4273	.1729	.0009125	.0000002
293.15	.43	.2811	.0010132	.0000002
293.15	.4324	.375	.0011291	.0000002
293.15	.4819	.4474	.0013585	.0000002
293.15	.5102	.271	.0011511	.0000002
293.15	.5165	.332	.0012469	.0000002
293.15	.5408	.1641	.001102	.0000002
293.15	.6086	.2586	.0013618	.0000002
293.15	.6101	.3174	.0014665	.0000002
293.15	.6185	.1581	.0012499	.0000002
293.15	.6783	.1871	.0014529	.0000002
293.15	.6886	.2181	.0015286	.0000002
293.15	.7448	.1809	.001637	.0000002
298.15	.1041	.4632	.000684	.0000002
298.15	.1102	.7695	.0009883	.0000002
298.15	.1133	.3211	.0006199	.0000002
298.15	.12	.6555	.0008514	.0000002
298.15	.1215	.1966	.00058	.0000002
298.15	.1291	.5487	.0007695	.0000002
298.15	.1301	.8212	.0011071	.0000002
298.15	.2221	.5008	.0008348	.0000002
298.15	.2221	.674	.0010732	.0000002
298.15	.2323	.188	.000662	.0000002
298.15	.2401	.3748	.0007668	.0000002
298.15	.2556	.266	.0007191	.0000002
298.15	.2556	.4655	.0008552	.0000002
298.15	.2691	.5445	.0009789	.0000002
298.15	.2763	.6375	.0010988	.0000002
298.15	.2822	.2998	.0007635	.0000002
298.15	.2841	.4599	.0008943	.0000002
298.15	.3009	.3654	.0008214	.0000002
298.15	.301	.1827	.0007227	.0000002
298.15	.403	.4893	.001144	.0000002
298.15	.4273	.1729	.0008488	.0000002
298.15	.43	.2811	.0009451	.0000002
298.15	.4324	.375	.0010471	.0000002
298.15	.4819	.4474	.0012467	.0000002
298.15	.5102	.271	.0010681	.0000002
298.15	.5165	.332	.0011518	.0000002
298.15	.5408	.1641	.0010088	.0000002
298.15	.6086	.2586	.0012533	.0000002
298.15	.6101	.3174	.0013456	.0000002
298.15	.6185	.1581	.0011505	.0000002
298.15	.6783	.1871	.0013316	.0000002
298.15	.6886	.2181	.0013969	.0000002
298.15	.7448	.1809	.0015014	.0000002
303.15	.1041	.4632	.0006425	.0000002
303.15	.1102	.7695	.0009166	.0000002
303.15	.1133	.3211	.0005828	.0000002
303.15	.12	.6555	.0007953	.0000002
303.15	.1215	.1966	.0005469	.0000002
303.15	.1291	.5487	.0007184	.0000002
303.15	.1301	.8212	.0010238	.0000002
303.15	.2221	.5008	.0007803	.0000002
303.15	.2221	.674	.0009976	.0000002
303.15	.2323	.188	.0006223	.0000002
303.15	.2401	.3748	.0007195	.0000002
303.15	.2556	.266	.0006734	.0000002
303.15	.2556	.4655	.000798	.0000002
303.15	.2691	.5445	.0009157	.0000002
303.15	.2763	.6375	.0010179	.0000002
303.15	.2822	.2998	.0007162	.0000002
303.15	.2841	.4599	.0008385	.0000002
303.15	.3009	.3654	.0007656	.0000002
303.15	.301	.1827	.0006766	.0000002
303.15	.403	.4893	.0010593	.0000002
303.15	.4273	.1729	.0007924	.0000002
303.15	.43	.2811	.0008802	.0000002
303.15	.4324	.375	.0009714	.0000002
303.15	.4819	.4474	.001153	.0000002
303.15	.5102	.271	.0009901	.0000002
303.15	.5165	.332	.0010659	.0000002
303.15	.5408	.1641	.0009355	.0000002
303.15	.6086	.2586	.001156	.0000002
303.15	.6101	.3174	.001241	.0000002
303.15	.6185	.1581	.0010592	.0000002
303.15	.6783	.1871	.0012178	.0000002
303.15	.6886	.2181	.0012842	.0000002
303.15	.7448	.1809	.0013712	.0000002
308.15	.1041	.4632	.0006029	.0000002
308.15	.1102	.7695	.0008535	.0000002
308.15	.1133	.3211	.0005493	.0000002
308.15	.12	.6555	.0007448	.0000002
308.15	.1215	.1966	.0005165	.0000002
308.15	.1291	.5487	.0006741	.0000002
308.15	.1301	.8212	.0009507	.0000002
308.15	.2221	.5008	.0007305	.0000002
308.15	.2221	.674	.0009278	.0000002
308.15	.2323	.188	.0005856	.0000002
308.15	.2401	.3748	.0006737	.0000002
308.15	.2556	.266	.0006331	.0000002
308.15	.2556	.4655	.0007567	.0000002
308.15	.2691	.5445	.0008569	.0000002
308.15	.2763	.6375	.0009461	.0000002
308.15	.2822	.2998	.0006716	.0000002
308.15	.2841	.4599	.0007843	.0000002
308.15	.3009	.3654	.0007195	.0000002
308.15	.301	.1827	.0006372	.0000002
308.15	.403	.4893	.0009828	.0000002
308.15	.4273	.1729	.0007409	.0000002
308.15	.43	.2811	.0008302	.0000002
308.15	.4324	.375	.0009064	.0000002
308.15	.4819	.4474	.0010684	.0000002
308.15	.5102	.271	.0009247	.0000002
308.15	.5165	.332	.0009929	.0000002
308.15	.5408	.1641	.0008526	.0000002
308.15	.6086	.2586	.0010704	.0000002
308.15	.6101	.3174	.0011484	.0000002
308.15	.6185	.1581	.0009868	.0000002
308.15	.6783	.1871	.001131	.0000002
308.15	.6886	.2181	.0012094	.0000002
308.15	.7448	.1809	.0012827	.0000002
313.15	.1041	.4632	.000568	.0000002
313.15	.1102	.7695	.0007966	.0000002
313.15	.1133	.3211	.0005189	.0000002
313.15	.12	.6555	.0006999	.0000002
313.15	.1215	.1966	.0004901	.0000002
313.15	.1291	.5487	.0006338	.0000002
313.15	.1301	.8212	.0008857	.0000002
313.15	.2221	.5008	.000685	.0000002
313.15	.2221	.674	.0008679	.0000002
313.15	.2323	.188	.0005531	.0000002
313.15	.2401	.3748	.000635	.0000002
313.15	.2556	.266	.0005957	.0000002
313.15	.2556	.4655	.0007012	.0000002
313.15	.2691	.5445	.0008013	.0000002
313.15	.2763	.6375	.0008822	.0000002
313.15	.2822	.2998	.0006331	.0000002
313.15	.2841	.4599	.000737	.0000002
313.15	.3009	.3654	.0006768	.0000002
313.15	.301	.1827	.0006	.0000002
313.15	.403	.4893	.0009158	.0000002
313.15	.4273	.1729	.0006945	.0000002
313.15	.43	.2811	.0007715	.0000002
313.15	.4324	.375	.0008461	.0000002
313.15	.4819	.4474	.0009904	.0000002
313.15	.5102	.271	.0008529	.0000002
313.15	.5165	.332	.0009264	.0000002
313.15	.5408	.1641	.0007932	.0000002
313.15	.6086	.2586	.0009952	.0000002
313.15	.6101	.3174	.0010728	.0000002
313.15	.6185	.1581	.000912	.0000002
313.15	.6783	.1871	.0010401	.0000002
313.15	.6886	.2181	.0011114	.0000002
313.15	.7448	.1809	.0011903	.0000002
