Measured thermophysical data. Measurement and correlation of the solubility of 3,4-bis(3-nitrofurazan-4-yl)furoxan (DNTF) in different solvents
Source: J. Chem. Thermodyn., 2015, 10.1016/j.jct.2015.06.003
Compound 1: 3,4-bis(3-nitrofurazan-4-yl)furoxan, C6N8O8
Compound 2: methanol, CH4O, purity 99.5%
Compound 3: ethanol, C2H6O, purity 99.7%
Compound 4: acetic acid, C2H4O2, purity 99.5%
Compound 5: benzene, C6H6, purity 99.5%
Compound 6: toluene, C7H8, purity 99.5%
Compound 7: n-butanol, C4H10O, purity 99.5%
Compound 8: acetamide, C2H5NO, purity 99.5%

System: acetamide + ethanol; phases: Liquid, Crystal
Fixed: Pressure, kPa = 100
Property: Mole fraction of acetamide (Liquid); method: Titration method
Temperature, K	Mole fraction of acetamide	uncertainty
298.15	.383	.002
303.15	.432	.001
308.15	.482	.002
313.15	.534	.002
318.15	.587	.002
323.15	.643	.002
328.15	.702	.003
333.15	.768	.003
338.15	.828	.003

System: acetic acid + 3,4-bis(3-nitrofurazan-4-yl)furoxan; phases: Liquid, Crystal
Fixed: Pressure, kPa = 100
Property: Mole fraction of 3,4-bis(3-nitrofurazan-4-yl)furoxan (Liquid); method: Titration method
Temperature, K	Mole fraction of 3,4-bis(3-nitrofurazan-4-yl)furoxan	uncertainty
298.15	.0414	.0023
303.15	.0481	.0017
308.15	.0552	.001
313.15	.0638	.0018
318.15	.0747	.0022
323.15	.0874	.0029
328.15	.1027	.0031
333.15	.1225	.0008
338.15	.1448	.0021

System: methanol + 3,4-bis(3-nitrofurazan-4-yl)furoxan; phases: Liquid, Crystal
Fixed: Pressure, kPa = 100
Property: Mole fraction of 3,4-bis(3-nitrofurazan-4-yl)furoxan (Liquid); method: Titration method
Temperature, K	Mole fraction of 3,4-bis(3-nitrofurazan-4-yl)furoxan	uncertainty
298.15	.0167	.0021
303.15	.0184	.0008
308.15	.0212	.0007
313.15	.0245	.0007
318.15	.0277	.0009
323.15	.0325	.0011
328.15	.0382	.001
333.15	.0461	.0008
338.15	.0547	.0016

System: benzene + 3,4-bis(3-nitrofurazan-4-yl)furoxan; phases: Liquid, Crystal
Fixed: Pressure, kPa = 100
Property: Mole fraction of 3,4-bis(3-nitrofurazan-4-yl)furoxan (Liquid); method: Titration method
Temperature, K	Mole fraction of 3,4-bis(3-nitrofurazan-4-yl)furoxan	uncertainty
298.15	.0128	.0018
303.15	.0157	.0012
308.15	.0193	.0008
313.15	.025	.0003
318.15	.0318	.0011
323.15	.0412	.0015
328.15	.0533	.0023
333.15	.0708	.0004
338.15	.0916	.001

System: ethanol + 3,4-bis(3-nitrofurazan-4-yl)furoxan; phases: Liquid, Crystal
Fixed: Pressure, kPa = 100
Property: Mole fraction of 3,4-bis(3-nitrofurazan-4-yl)furoxan (Liquid); method: Titration method
Temperature, K	Mole fraction of 3,4-bis(3-nitrofurazan-4-yl)furoxan	uncertainty
298.15	.0081	.0009
303.15	.0094	.0005
308.15	.011	.0002
313.15	.0129	.0002
318.15	.0152	.0006
323.15	.0185	.0005
328.15	.0223	.0006
333.15	.0273	.0002
338.15	.0335	.0007

System: toluene + 3,4-bis(3-nitrofurazan-4-yl)furoxan; phases: Liquid, Crystal
Fixed: Pressure, kPa = 100
Property: Mole fraction of 3,4-bis(3-nitrofurazan-4-yl)furoxan (Liquid); method: Titration method
Temperature, K	Mole fraction of 3,4-bis(3-nitrofurazan-4-yl)furoxan	uncertainty
298.15	.011	.0013
303.15	.0139	.001
308.15	.0174	.0006
313.15	.0217	.0002
318.15	.028	.0003
323.15	.0351	.0012
328.15	.0446	.002
333.15	.0592	.0003
338.15	.0757	.0009

System: n-butanol + 3,4-bis(3-nitrofurazan-4-yl)furoxan; phases: Liquid, Crystal
Fixed: Pressure, kPa = 100
Property: Mole fraction of 3,4-bis(3-nitrofurazan-4-yl)furoxan (Liquid); method: Titration method
Temperature, K	Mole fraction of 3,4-bis(3-nitrofurazan-4-yl)furoxan	uncertainty
298.15	.0045	.0002
303.15	.0055	.0009
308.15	.0069	.001
313.15	.0083	.0007
318.15	.0103	.0006
323.15	.0129	.0007
328.15	.0167	.0006
333.15	.0217	.0008
338.15	.028	.0011
