Measured thermophysical data. Solubility of rosuvastatin calcium in different neat solvents at different temperatures
Source: J. Chem. Thermodyn., 2016, 10.1016/j.jct.2015.11.019
Compound 1: Rosuvastatin calcium, C44H54CaF2N6O12S2, purity 99.3%
Compound 2: ethanol, C2H6O, purity 99.9%
Compound 3: ethylene glycol, C2H6O2, purity 99.4%
Compound 4: propylene glycol, C3H8O2, purity 99.5%
Compound 5: isopropyl alcohol, C3H8O, purity 99.7%
Compound 6: 1-butanol, C4H10O, purity 99.5%
Compound 7: 2-butanol, C4H10O, purity 99.3%
Compound 8: water, H2O, purity 99.8%

System: water + Rosuvastatin calcium; phases: Liquid, Crystal
Fixed: Pressure, kPa = 100
Property: Mole fraction of Rosuvastatin calcium (Liquid); method: Spectrophotometry
Temperature, K	Mole fraction of Rosuvastatin calcium	uncertainty
298.15	.0000054	.0000000648
303.15	.00000702	.00000008424
308.15	.000009	.000000108
313.15	.0000113	.0000001356
318.15	.000014	.000000168

System: ethanol + Rosuvastatin calcium; phases: Liquid, Crystal
Fixed: Pressure, kPa = 100
Property: Mole fraction of Rosuvastatin calcium (Liquid); method: Spectrophotometry
Temperature, K	Mole fraction of Rosuvastatin calcium	uncertainty
298.15	.000337	.000004044
303.15	.000392	.000004704
308.15	.000469	.000005628
313.15	.00057	.00000684
318.15	.000681	.000008172

System: propylene glycol + Rosuvastatin calcium; phases: Liquid, Crystal
Fixed: Pressure, kPa = 100
Property: Mole fraction of Rosuvastatin calcium (Liquid); method: Spectrophotometry
Temperature, K	Mole fraction of Rosuvastatin calcium	uncertainty
298.15	.0156	.0001872
303.15	.0164	.0001968
308.15	.0173	.0002076
313.15	.0181	.0002172
318.15	.0189	.0002268

System: ethylene glycol + Rosuvastatin calcium; phases: Liquid, Crystal
Fixed: Pressure, kPa = 100
Property: Mole fraction of Rosuvastatin calcium (Liquid); method: Spectrophotometry
Temperature, K	Mole fraction of Rosuvastatin calcium	uncertainty
298.15	.000255	.00000306
303.15	.000311	.000003732
308.15	.000374	.000004488
313.15	.00044	.00000528
318.15	.000503	.000006036

System: isopropyl alcohol + Rosuvastatin calcium; phases: Liquid, Crystal
Fixed: Pressure, kPa = 100
Property: Mole fraction of Rosuvastatin calcium (Liquid); method: Spectrophotometry
Temperature, K	Mole fraction of Rosuvastatin calcium	uncertainty
298.15	.000304	.000003648
303.15	.000366	.000004392
308.15	.000432	.000005184
313.15	.000499	.000005988
318.15	.000566	.000006792

System: 1-butanol + Rosuvastatin calcium; phases: Liquid, Crystal
Fixed: Pressure, kPa = 100
Property: Mole fraction of Rosuvastatin calcium (Liquid); method: Spectrophotometry
Temperature, K	Mole fraction of Rosuvastatin calcium	uncertainty
298.15	.000429	.000005148
303.15	.000511	.000006132
308.15	.000614	.000007368
313.15	.00071	.00000852
318.15	.00082	.00000984

System: 2-butanol + Rosuvastatin calcium; phases: Liquid, Crystal
Fixed: Pressure, kPa = 100
Property: Mole fraction of Rosuvastatin calcium (Liquid); method: Spectrophotometry
Temperature, K	Mole fraction of Rosuvastatin calcium	uncertainty
298.15	.0000717	.0000008604
303.15	.00008	.00000096
308.15	.0000896	.0000010752
313.15	.0000992	.0000011904
318.15	.000108	.000001296
