Measured thermophysical data. An accurate determination of the triple point temperature of pure 20Ne and 22Ne
Source: J. Chem. Thermodyn., 2010, 10.1016/j.jct.2010.04.024
Compound 1: neon-20, Ne
Compound 2: neon-22, Ne

System: neon-20; phases: Crystal, Liquid, Gas
Property: Triple point temperature, K (Crystal); method: Adiabatic calorimetry
Triple point temperature, K	uncertainty
24.542442	.00005

System: neon-22; phases: Crystal, Liquid, Gas
Property: Triple point temperature, K (Crystal); method: Adiabatic calorimetry
Triple point temperature, K	uncertainty
24.689039	.000052
