Measured thermophysical data. Apparent molar volumes and compressibilities of electrolytes and ions in gamma-butyrolactone
Source: J. Chem. Thermodyn., 2012, 10.1016/j.jct.2012.05.026
Compound 1: tetraphenylphosphorane bromide, C24H20BrP, purity 99%
Compound 2: sodium tetraphenylboron, C24H20BNa, purity 99.5%
Compound 3: perchloric acid, sodium salt, ClNaO4, purity 99%
Compound 4: perchloric acid, lithium salt, ClLiO4, purity 99.99%
Compound 5: lithium monobromide, BrLi, purity 99.9%
Compound 6: oxolan-2-one, C4H6O2, purity 99%

System: oxolan-2-one; phases: Liquid
Fixed: Pressure, kPa = 101.325
Property: Mass density, kg/m3 (Liquid); method: Pycnometric method
Temperature, K	Mass density, kg/m3	uncertainty
288.15	1134.1	.005
293.15	1129.185	.005
298.15	1124.279	.005
303.15	1119.375	.005
308.15	1114.472	.005
313.15	1109.565	.005

System: oxolan-2-one + tetraphenylphosphorane bromide; phases: Liquid
Fixed: Pressure, kPa = 101.3
Property: Mass density, kg/m3 (Liquid); method: Vibrating tube method
Temperature, K	Molality, mol/kg of tetraphenylphosphorane bromide	Mass density, kg/m3	uncertainty
288.15	.02684	1136.362	.005
288.15	.03575	1137.099	.005
288.15	.04242	1137.648	.005
288.15	.0482	1138.125	.005
288.15	.05405	1138.593	.005
288.15	.06028	1139.101	.005
288.15	.07282	1140.109	.005
288.15	.08425	1141.029	.005
288.15	.1029	1142.493	.005
288.15	.1224	1144	.005
293.15	.02684	1131.469	.005
293.15	.03575	1132.213	.005
293.15	.04242	1132.77	.005
293.15	.0482	1133.246	.005
293.15	.05405	1133.728	.005
293.15	.06028	1134.242	.005
293.15	.07282	1135.259	.005
293.15	.08425	1136.183	.005
293.15	.1029	1137.658	.005
293.15	.1224	1139.189	.005
298.15	.02684	1126.582	.005
298.15	.03575	1127.333	.005
298.15	.04242	1127.891	.005
298.15	.0482	1128.375	.005
298.15	.05405	1128.861	.005
298.15	.06028	1129.375	.005
298.15	.07282	1130.4	.005
298.15	.08425	1131.333	.005
298.15	.1029	1132.826	.005
298.15	.1224	1134.362	.005
303.15	.02684	1121.698	.005
303.15	.03575	1122.456	.005
303.15	.04242	1123.018	.005
303.15	.0482	1123.507	.005
303.15	.05405	1123.998	.005
303.15	.06028	1124.518	.005
303.15	.07282	1125.548	.005
303.15	.08425	1126.492	.005
303.15	.1029	1127.996	.005
303.15	.1224	1129.544	.005
308.15	.02684	1116.814	.005
308.15	.03575	1117.578	.005
308.15	.04242	1118.149	.005
308.15	.0482	1118.641	.005
308.15	.05405	1119.136	.005
308.15	.06028	1119.655	.005
308.15	.07282	1120.699	.005
308.15	.08425	1121.65	.005
308.15	.1029	1123.167	.005
308.15	.1224	1124.729	.005
313.15	.02684	1111.93	.005
313.15	.03575	1112.703	.005
313.15	.04242	1113.275	.005
313.15	.0482	1113.773	.005
313.15	.05405	1114.273	.005
313.15	.06028	1114.802	.005
313.15	.07282	1115.855	.005
313.15	.08425	1116.81	.005
313.15	.1029	1118.342	.005
313.15	.1224	1119.923	.005

System: oxolan-2-one + tetraphenylphosphorane bromide; phases: Liquid
Fixed: Pressure, kPa = 101.3
Fixed: Temperature, K = 298.15
Property: Speed of sound, m/s (Liquid); method: Sound Analyzer OPTIME 1.0 from Optel
Molality, mol/kg of tetraphenylphosphorane bromide	Speed of sound, m/s	uncertainty
.02684	1521.68	.1
.03575	1522.56	.1
.0482	1523.8	.1
.06028	1524.96	.1
.07282	1526.18	.1
.08425	1527.24	.1
.1029	1529.07	.1
.1224	1530.85	.1

System: oxolan-2-one + sodium tetraphenylboron; phases: Liquid
Fixed: Pressure, kPa = 101.3
Property: Mass density, kg/m3 (Liquid); method: Vibrating tube method
Temperature, K	Molality, mol/kg of sodium tetraphenylboron	Mass density, kg/m3	uncertainty
288.15	.04003	1135.304	.005
288.15	.04722	1135.51	.005
288.15	.05556	1135.751	.005
288.15	.06258	1135.956	.005
288.15	.07047	1136.185	.005
288.15	.08354	1136.553	.005
288.15	.098	1136.963	.005
288.15	.1114	1137.335	.005
288.15	.127	1137.744	.005
288.15	.1421	1138.173	.005
293.15	.04003	1130.425	.005
293.15	.04722	1130.639	.005
293.15	.05556	1130.889	.005
293.15	.06258	1131.096	.005
293.15	.07047	1131.33	.005
293.15	.08354	1131.71	.005
293.15	.098	1132.133	.005
293.15	.1114	1132.514	.005
293.15	.127	1132.945	.005
293.15	.1421	1133.382	.005
298.15	.04003	1125.553	.005
298.15	.04722	1125.774	.005
298.15	.05556	1126.029	.005
298.15	.06258	1126.245	.005
298.15	.07047	1126.485	.005
298.15	.08354	1126.877	.005
298.15	.098	1127.308	.005
298.15	.1114	1127.703	.005
298.15	.127	1128.142	.005
298.15	.1421	1128.595	.005
303.15	.04003	1120.686	.005
303.15	.04722	1120.915	.005
303.15	.05556	1121.174	.005
303.15	.06258	1121.395	.005
303.15	.07047	1121.643	.005
303.15	.08354	1122.047	.005
303.15	.098	1122.489	.005
303.15	.1114	1122.894	.005
303.15	.127	1123.357	.005
303.15	.1421	1123.815	.005
308.15	.04003	1115.817	.005
308.15	.04722	1116.054	.005
308.15	.05556	1116.319	.005
308.15	.06258	1116.547	.005
308.15	.07047	1116.801	.005
308.15	.08354	1117.217	.005
308.15	.098	1117.671	.005
308.15	.1114	1118.088	.005
308.15	.127	1118.558	.005
308.15	.1421	1119.03	.005
313.15	.04003	1110.945	.005
313.15	.04722	1111.186	.005
313.15	.05556	1111.462	.005
313.15	.06258	1111.699	.005
313.15	.07047	1111.959	.005
313.15	.08354	1112.388	.005
313.15	.098	1112.854	.005
313.15	.1114	1113.282	.005
313.15	.127	1113.761	.005
313.15	.1421	1114.238	.005

System: oxolan-2-one + sodium tetraphenylboron; phases: Liquid
Fixed: Pressure, kPa = 101.3
Fixed: Temperature, K = 298.15
Property: Speed of sound, m/s (Liquid); method: Sound Analyzer OPTIME 1.0 from Optel
Molality, mol/kg of sodium tetraphenylboron	Speed of sound, m/s	uncertainty
.04003	1523.69	.1
.05556	1525.47	.1
.07047	1527.14	.1
.08354	1528.59	.1
.098	1530.2	.1
.1114	1531.66	.1
.127	1533.38	.1
.1421	1534.95	.1

System: oxolan-2-one + perchloric acid, sodium salt; phases: Liquid
Fixed: Pressure, kPa = 101.3
Property: Mass density, kg/m3 (Liquid); method: Vibrating tube method
Temperature, K	Molality, mol/kg of perchloric acid, sodium salt	Mass density, kg/m3	uncertainty
288.15	.0455	1138.061	.005
288.15	.05778	1139.112	.005
288.15	.06937	1140.111	.005
288.15	.07663	1140.728	.005
288.15	.08845	1141.725	.005
288.15	.09556	1142.338	.005
288.15	.1172	1144.17	.005
288.15	.1367	1145.817	.005
288.15	.1649	1148.19	.005
288.15	.1949	1150.67	.005
293.15	.0455	1133.154	.005
293.15	.05778	1134.22	.005
293.15	.06937	1135.215	.005
293.15	.07663	1135.83	.005
293.15	.08845	1136.845	.005
293.15	.09556	1137.451	.005
293.15	.1172	1139.289	.005
293.15	.1367	1140.936	.005
293.15	.1649	1143.31	.005
293.15	.1949	1145.799	.005
298.15	.0455	1128.259	.005
298.15	.05778	1129.322	.005
298.15	.06937	1130.325	.005
298.15	.07663	1130.942	.005
298.15	.08845	1131.953	.005
298.15	.09556	1132.561	.005
298.15	.1172	1134.404	.005
298.15	.1367	1136.055	.005
298.15	.1649	1138.435	.005
298.15	.1949	1140.922	.005
303.15	.0455	1123.365	.005
303.15	.05778	1124.433	.005
303.15	.06937	1125.437	.005
303.15	.07663	1126.06	.005
303.15	.08845	1127.071	.005
303.15	.09556	1127.683	.005
303.15	.1172	1129.525	.005
303.15	.1367	1131.176	.005
303.15	.1649	1133.565	.005
303.15	.1949	1136.058	.005
308.15	.0455	1118.475	.005
308.15	.05778	1119.548	.005
308.15	.06937	1120.552	.005
308.15	.07663	1121.178	.005
308.15	.08845	1122.188	.005
308.15	.09556	1122.806	.005
308.15	.1172	1124.65	.005
308.15	.1367	1126.309	.005
308.15	.1649	1128.694	.005
308.15	.1949	1131.196	.005
313.15	.0455	1113.582	.005
313.15	.05778	1114.654	.005
313.15	.06937	1115.664	.005
313.15	.07663	1116.295	.005
313.15	.08845	1117.303	.005
313.15	.09556	1117.924	.005
313.15	.1172	1119.772	.005
313.15	.1367	1121.436	.005
313.15	.1649	1123.808	.005
313.15	.1949	1126.334	.005

System: oxolan-2-one + perchloric acid, sodium salt; phases: Liquid
Fixed: Pressure, kPa = 101.3
Fixed: Temperature, K = 298.15
Property: Speed of sound, m/s (Liquid); method: Sound Analyzer OPTIME 1.0 from Optel
Molality, mol/kg of perchloric acid, sodium salt	Speed of sound, m/s	uncertainty
.04024	1521.4	.1
.05103	1522.02	.1
.06752	1522.95	.1
.08401	1523.9	.1
.1027	1524.95	.1
.1196	1525.9	.1
.1438	1527.3	.1
.1693	1528.81	.1

System: oxolan-2-one + perchloric acid, lithium salt; phases: Liquid
Fixed: Pressure, kPa = 101.3
Property: Mass density, kg/m3 (Liquid); method: Vibrating tube method
Temperature, K	Molality, mol/kg of perchloric acid, lithium salt	Mass density, kg/m3	uncertainty
288.15	.05475	1138.203	.005
288.15	.0626	1138.787	.005
288.15	.07446	1139.654	.005
288.15	.08182	1140.195	.005
288.15	.09565	1141.22	.005
288.15	.1028	1141.732	.005
288.15	.1252	1143.378	.005
288.15	.1466	1144.947	.005
288.15	.1758	1147.044	.005
288.15	.2089	1149.435	.005
293.15	.05475	1133.305	.005
293.15	.0626	1133.891	.005
293.15	.07446	1134.775	.005
293.15	.08182	1135.317	.005
293.15	.09565	1136.337	.005
293.15	.1028	1136.857	.005
293.15	.1252	1138.511	.005
293.15	.1466	1140.073	.005
293.15	.1758	1142.176	.005
293.15	.2089	1144.573	.005
298.15	.05475	1128.424	.005
298.15	.0626	1129.007	.005
298.15	.07446	1129.888	.005
298.15	.08182	1130.439	.005
298.15	.09565	1131.46	.005
298.15	.1028	1131.989	.005
298.15	.1252	1133.642	.005
298.15	.1466	1135.211	.005
298.15	.1758	1137.333	.005
298.15	.2089	1139.725	.005
303.15	.05475	1123.541	.005
303.15	.0626	1124.132	.005
303.15	.07446	1125.024	.005
303.15	.08182	1125.568	.005
303.15	.09565	1126.605	.005
303.15	.1028	1127.135	.005
303.15	.1252	1128.798	.005
303.15	.1466	1130.368	.005
303.15	.1758	1132.494	.005
303.15	.2089	1134.909	.005
308.15	.05475	1118.667	.005
308.15	.0626	1119.26	.005
308.15	.07446	1120.152	.005
308.15	.08182	1120.699	.005
308.15	.09565	1121.739	.005
308.15	.1028	1122.265	.005
308.15	.1252	1123.939	.005
308.15	.1466	1125.516	.005
308.15	.1758	1127.653	.005
308.15	.2089	1130.079	.005
313.15	.05475	1113.78	.005
313.15	.0626	1114.379	.005
313.15	.07446	1115.275	.005
313.15	.08182	1115.825	.005
313.15	.09565	1116.868	.005
313.15	.1028	1117.394	.005
313.15	.1252	1119.083	.005
313.15	.1466	1120.676	.005
313.15	.1758	1122.811	.005
313.15	.2089	1125.227	.005

System: oxolan-2-one + perchloric acid, lithium salt; phases: Liquid
Fixed: Pressure, kPa = 101.3
Fixed: Temperature, K = 298.15
Property: Speed of sound, m/s (Liquid); method: Sound Analyzer OPTIME 1.0 from Optel
Molality, mol/kg of perchloric acid, lithium salt	Speed of sound, m/s	uncertainty
.05475	1521.73	.1
.0626	1522.13	.1
.08182	1523.1	.1
.1028	1524.17	.1
.1252	1525.31	.1
.1466	1526.41	.1
.1758	1527.92	.1
.2089	1529.64	.1

System: oxolan-2-one + lithium monobromide; phases: Liquid
Fixed: Pressure, kPa = 101.3
Property: Mass density, kg/m3 (Liquid); method: Vibrating tube method
Temperature, K	Molality, mol/kg of lithium monobromide	Mass density, kg/m3	uncertainty
288.15	.0281	1136.393	.005
288.15	.03742	1137.152	.005
288.15	.04789	1137.984	.005
288.15	.06124	1139.061	.005
288.15	.0765	1140.26	.005
288.15	.09642	1141.828	.005
288.15	.1237	1143.978	.005
288.15	.1503	1146.035	.005
288.15	.1769	1148.11	.005
288.15	.2084	1150.529	.005
288.15	.2348	1152.541	.005
293.15	.0281	1131.487	.005
293.15	.03742	1132.248	.005
293.15	.04789	1133.083	.005
293.15	.06124	1134.167	.005
293.15	.0765	1135.369	.005
293.15	.09642	1136.944	.005
293.15	.1237	1139.094	.005
293.15	.1503	1141.159	.005
293.15	.1769	1143.238	.005
293.15	.2084	1145.663	.005
293.15	.2348	1147.683	.005
298.15	.0281	1126.59	.005
298.15	.03742	1127.349	.005
298.15	.04789	1128.195	.005
298.15	.06124	1129.273	.005
298.15	.0765	1130.486	.005
298.15	.09642	1132.066	.005
298.15	.1237	1134.223	.005
298.15	.1503	1136.304	.005
298.15	.1769	1138.376	.005
298.15	.2084	1140.808	.005
298.15	.2348	1142.823	.005
303.15	.0281	1121.702	.005
303.15	.03742	1122.47	.005
303.15	.04789	1123.308	.005
303.15	.06124	1124.393	.005
303.15	.0765	1125.607	.005
303.15	.09642	1127.19	.005
303.15	.1237	1129.352	.005
303.15	.1503	1131.427	.005
303.15	.1769	1133.515	.005
303.15	.2084	1135.954	.005
303.15	.2348	1137.983	.005
308.15	.0281	1116.812	.005
308.15	.03742	1117.581	.005
308.15	.04789	1118.421	.005
308.15	.06124	1119.505	.005
308.15	.0765	1120.725	.005
308.15	.09642	1122.313	.005
308.15	.1237	1124.483	.005
308.15	.1503	1126.563	.005
308.15	.1769	1128.657	.005
308.15	.2084	1131.101	.005
308.15	.2348	1133.136	.005
313.15	.0281	1111.912	.005
313.15	.03742	1112.683	.005
313.15	.04789	1113.537	.005
313.15	.06124	1114.617	.005
313.15	.0765	1115.845	.005
313.15	.09642	1117.438	.005
313.15	.1237	1119.614	.005
313.15	.1503	1121.701	.005
313.15	.1769	1123.799	.005
313.15	.2084	1126.238	.005
313.15	.2348	1128.253	.005

System: oxolan-2-one + lithium monobromide; phases: Liquid
Fixed: Pressure, kPa = 101.3
Fixed: Temperature, K = 298.15
Property: Speed of sound, m/s (Liquid); method: Sound Analyzer OPTIME 1.0 from Optel
Molality, mol/kg of lithium monobromide	Speed of sound, m/s	uncertainty
.02493	1520.39	.1
.03318	1520.81	.1
.04243	1521.3	.1
.0542	1521.88	.1
.06762	1522.51	.1
.08509	1523.32	.1
.1089	1524.35	.1
.1321	1525.36	.1
.1551	1526.35	.1
.1823	1527.52	.1
.2049	1528.42	.1
