Measured thermophysical data. Kinetics of the (solid + solid) transformations for the piracetam trimorphic system: Incidence on the construction of the p-T equilibrium phase diagram
Source: J. Chem. Thermodyn., 2016, 10.1016/j.jct.2016.01.016
Compound 1: piracetam, C6H10N2O2, purity 99.5%

System: piracetam; phases: Crystal 1
Fixed: Pressure, kPa = 101.325
Property: Mass density, kg/m3 (Crystal 1); method: X-ray diffraction
Temperature, K	Mass density, kg/m3	uncertainty
400	1281	1

System: piracetam; phases: Metastable crystal
Fixed: Pressure, kPa = 101.325
Property: Mass density, kg/m3 (Metastable crystal); method: X-ray diffraction
Temperature, K	Mass density, kg/m3	uncertainty
300	1365	1

System: piracetam; phases: Crystal 2
Fixed: Pressure, kPa = 101.325
Property: Mass density, kg/m3 (Crystal 2); method: X-ray diffraction
Temperature, K	Mass density, kg/m3	uncertainty
300	1373	1

System: piracetam; phases: Crystal 1, Liquid, Air at 1 atmosphere
Property: Triple point temperature, K (Crystal 1); method: DSC
Triple point temperature, K	uncertainty
422.95	2.5

System: piracetam; phases: Crystal 2, Liquid, Air at 1 atmosphere
Property: Triple point temperature, K (Crystal 2); method: DSC
Triple point temperature, K	uncertainty
412.55	2.5

System: piracetam; phases: Crystal 1, Liquid, Air at 1 atmosphere
Property: Molar enthalpy of transition or fusion, kJ/mol (Crystal 1); method: DSC
Molar enthalpy of transition or fusion, kJ/mol	uncertainty
26.58314956	.28431176

System: piracetam; phases: Crystal 2, Liquid, Air at 1 atmosphere
Property: Molar enthalpy of transition or fusion, kJ/mol (Crystal 2); method: DSC
Molar enthalpy of transition or fusion, kJ/mol	uncertainty
30.037537444	.28431176

System: piracetam; phases: Crystal 2, Crystal 1, Air at 1 atmosphere
Property: Triple point temperature, K (Crystal 2); method: DSC
Triple point temperature, K	uncertainty
374.05	2.5

System: piracetam; phases: Crystal 2, Crystal 1, Air at 1 atmosphere
Property: Molar enthalpy of transition or fusion, kJ/mol (Crystal 2); method: DSC
Molar enthalpy of transition or fusion, kJ/mol	uncertainty
3.809777584	.42646764

System: piracetam; phases: Metastable crystal, Crystal 1, Air at 1 atmosphere
Property: Triple point temperature, K (Metastable crystal); method: DSC
Triple point temperature, K	uncertainty
365.05	2.5

System: piracetam; phases: Metastable crystal, Crystal 1, Air at 1 atmosphere
Property: Molar enthalpy of transition or fusion, kJ/mol (Metastable crystal); method: DSC
Molar enthalpy of transition or fusion, kJ/mol	uncertainty
3.525465824	.42646764

System: piracetam; phases: Crystal 2, Crystal 1, Air at 1 atmosphere
Property: Triple point temperature, K (Crystal 2); method: X-ray diffraction (XRD)
Triple point temperature, K	uncertainty
370.15	3

System: piracetam; phases: Metastable crystal, Crystal 1, Air at 1 atmosphere
Property: Triple point temperature, K (Metastable crystal); method: X-ray diffraction (XRD)
Triple point temperature, K	uncertainty
360.15	3

System: piracetam; phases: Crystal 1, Gas
Property: Molar volume, m3/mol (Crystal 1); method: Other
Temperature, K	Molar volume, m3/mol	uncertainty
370	.00011041	
375	.00011054	
380	.0001106	
385	.00011077	
390	.00011084	
395	.00011098	
400	.000111	
405	.00011119	
410	.00011121	

System: piracetam; phases: Metastable crystal, Gas
Property: Molar volume, m3/mol (Metastable crystal); method: Other
Temperature, K	Molar volume, m3/mol	uncertainty
300	.00010423	
310	.00010441	
320	.0001045	
330	.00010493	
340	.00010507	
350	.0001054	
355	.0001054	
360	.00010545	

System: piracetam; phases: Crystal 2, Gas
Property: Molar volume, m3/mol (Crystal 2); method: Other
Temperature, K	Molar volume, m3/mol	uncertainty
300	.00010358	
310	.00010313	
320	.00010385	
330	.0001036	
340	.00010425	
350	.0001042	
360	.00010469	
370	.00010485	

System: piracetam; phases: Liquid, Gas
Property: Molar volume, m3/mol (Liquid); method: Other
Temperature, K	Molar volume, m3/mol	uncertainty
423	.00012282	
428	.00012315	
433	.00012347	
438	.00012385	
443	.00012414	
448	.00012451	
453	.00012483	
458	.0001252	
463	.00012554	
468	.00012589	
473	.00012624	
