Measured thermophysical data. Study of the effects of pressure on the viscosity and density of diisodecyl phthalate
Source: J. Chem. Thermodyn., 2009, 10.1016/j.jct.2009.04.002
Compound 1: 3-methylnonyl 1,2-benzenedioate, C28H46O4

System: 3-methylnonyl 1,2-benzenedioate; phases: Liquid
Property: Mass density, kg/m3 (Liquid); method: Vibrating tube method
Temperature, K	Pressure, kPa	Mass density, kg/m3	uncertainty
283.15	100	973.5	.7
283.15	1000	974	.7
283.15	5000	976.2	.7
283.15	10000	978.8	.7
283.15	20000	983.9	.7
283.15	30000	988.6	.7
283.15	40000	993.1	.7
283.15	50000	997.5	.7
283.15	60000	1001.7	.7
283.15	70000	1005.8	.7
298.15	100	963.2	.7
298.15	1000	963.8	.7
298.15	5000	966.1	.7
298.15	10000	968.9	.7
298.15	20000	974.2	.7
298.15	30000	979.1	.7
298.15	40000	983.8	.7
298.15	50000	988.3	.7
298.15	60000	992.8	.7
298.15	70000	997	.7
323.15	100	945.7	.7
323.15	1000	946.3	.7
323.15	5000	948.8	.7
323.15	10000	951.9	.7
323.15	20000	957.9	.7
323.15	30000	963.3	.7
323.15	40000	968.5	.7
323.15	50000	973.4	.7
323.15	60000	978.1	.7
323.15	70000	982.6	.7
333.15	100	938.7	.7
333.15	1000	939.3	.7
333.15	5000	942	.7
333.15	10000	945.3	.7
333.15	20000	951.5	.7
333.15	30000	957.1	.7
333.15	40000	962.5	.7
333.15	50000	967.6	.7
333.15	60000	972.5	.7
333.15	70000	977.1	.7
348.15	100	928.3	.7
348.15	1000	929	.7
348.15	5000	931.8	.7
348.15	10000	935.3	.7
348.15	20000	941.8	.7
348.15	30000	947.8	.7
348.15	40000	953.5	.7
348.15	50000	958.9	.7
348.15	60000	964	.7
348.15	70000	968.8	.7
373.15	100	910	5
373.15	1000	911.6	5
373.15	5000	914.8	5
373.15	10000	918.6	5
373.15	20000	925.9	5
373.15	30000	932.5	5
373.15	40000	938.7	5
373.15	50000	944.6	5
373.15	60000	950.1	5
373.15	70000	955.2	5
398.15	100	892.8	5
398.15	1000	893.5	5
398.15	5000	896.9	5
398.15	10000	901.1	5
398.15	20000	909.1	5
398.15	30000	916.4	5
398.15	40000	923.2	5
398.15	50000	929.5	5
398.15	60000	935.5	5
398.15	70000	941	5

System: 3-methylnonyl 1,2-benzenedioate; phases: Liquid, Air at 1 atmosphere
Property: Mass density, kg/m3 (Liquid); method: SVM3000 rotational viscometer
Temperature, K	Mass density, kg/m3	uncertainty
278.15	977.5	6.8425
283.15	974	6.818
288.15	970.4	6.7928
293.15	966.9	6.7683
298.15	963.4	6.7438
303.15	959.8	6.7186
308.15	956.3	6.6941
313.15	952.8	6.6696
318.15	949.3	6.6451
323.15	945.8	6.6206
328.15	942.2	6.5954
333.15	938.7	6.5709
338.15	935.1	6.5457
343.15	931.6	6.5212
348.15	928	6.496
353.15	924.4	6.4708
358.15	920.9	6.4463
363.15	917.4	6.4218
368.15	913.9	6.3973
373.15	910.5	6.3735

System: 3-methylnonyl 1,2-benzenedioate; phases: Liquid, Air at 1 atmosphere
Property: Viscosity, Pa*s (Liquid); method: Rotational Automated Viscometer
Temperature, K	Viscosity, Pa*s	uncertainty
278.15	.4046	.004046
283.15	.2612	.002612
288.15	.1759	.001759
293.15	.1223	.001223
298.15	.08752	.0008752
303.15	.06431	.0006431
308.15	.04846	.0004846
313.15	.03735	.0003735
318.15	.02938	.0002938
323.15	.02351	.0002351
328.15	.01913	.0001913
333.15	.01579	.0001579
338.15	.01321	.0001321
343.15	.01118	.0001118
348.15	.009561	.00009561
353.15	.008257	.00008257
358.15	.007193	.00007193
363.15	.006329	.00006329
368.15	.005602	.00005602
373.15	.004989	.00004989

System: 3-methylnonyl 1,2-benzenedioate; phases: Liquid
Property: Viscosity, Pa*s (Liquid); method: Falling or rolling sphere viscometry
Temperature, K	Pressure, kPa	Viscosity, Pa*s	uncertainty
303.15	100	.065	.0026
303.15	1000	.0664	.002656
303.15	5000	.0729	.002916
303.15	10000	.082	.00328
303.15	20000	.103	.00412
303.15	30000	.13	.0052
303.15	40000	.162	.00648
303.15	50000	.202	.00808
303.15	60000	.251	.01004
313.15	100	.038	.00152
313.15	1000	.0387	.001548
313.15	5000	.0422	.001688
313.15	10000	.0469	.001876
313.15	20000	.0578	.002312
313.15	30000	.0711	.002844
313.15	40000	.0872	.003488
313.15	50000	.107	.00428
313.15	60000	.13	.0052
333.15	100	.0155	.00062
333.15	1000	.0157	.000628
333.15	5000	.017	.00068
333.15	10000	.0186	.000744
333.15	20000	.0224	.000896
333.15	30000	.0268	.001072
333.15	40000	.0319	.001276
333.15	50000	.0378	.001512
333.15	60000	.0445	.00178
353.15	100	.00804	.0003216
353.15	1000	.00816	.0003264
353.15	5000	.0087	.000348
353.15	10000	.00943	.0003772
353.15	20000	.011	.00044
353.15	30000	.0129	.000516
353.15	40000	.0151	.000604
353.15	50000	.0175	.0007
353.15	60000	.0203	.000812
373.15	100	.0048	.000192
373.15	1000	.00487	.0001948
373.15	5000	.00517	.0002068
373.15	10000	.00557	.0002228
373.15	20000	.00644	.0002576
373.15	30000	.00742	.0002968
373.15	40000	.00852	.0003408
373.15	50000	.00975	.00039
373.15	60000	.0111	.000444

System: 3-methylnonyl 1,2-benzenedioate; phases: Liquid
Property: Mass density, kg/m3 (Liquid); method: Vibrating tube method
Temperature, K	Pressure, kPa	Mass density, kg/m3	uncertainty
283.15	100	973.1	.7
283.15	1000	973.6	.7
283.15	5000	975.7	.7
283.15	10000	978.3	.7
283.15	20000	983.4	.7
283.15	30000	988.1	.7
283.15	40000	992.7	.7
283.15	50000	997	.7
283.15	60000	1001.3	.7
283.15	70000	1005.4	.7
298.15	100	962.8	.7
298.15	1000	963.3	.7
298.15	5000	965.7	.7
298.15	10000	968.5	.7
298.15	20000	973.8	.7
298.15	30000	978.7	.7
298.15	40000	983.4	.7
298.15	50000	987.9	.7
298.15	60000	992.3	.7
298.15	70000	996.6	.7
323.15	100	945.2	.7
323.15	1000	945.8	.7
323.15	5000	948.3	.7
323.15	10000	951.4	.7
323.15	20000	957.4	.7
323.15	30000	962.8	.7
323.15	40000	968	.7
323.15	50000	973	.7
323.15	60000	977.7	.7
323.15	70000	982.2	.7
333.15	100	938.2	.7
333.15	1000	938.8	.7
333.15	5000	941.5	.7
333.15	10000	944.8	.7
333.15	20000	950.9	.7
333.15	30000	956.6	.7
333.15	40000	962	.7
333.15	50000	967.1	.7
333.15	60000	972	.7
333.15	70000	976.6	.7
348.15	100	927.7	.7
348.15	1000	928.4	.7
348.15	5000	931.2	.7
348.15	10000	934.7	.7
348.15	20000	941.2	.7
348.15	30000	947.3	.7
348.15	40000	952.9	.7
348.15	50000	958.4	.7
348.15	60000	963.5	.7
348.15	70000	968.3	.7
373.15	100	909.4	5
373.15	1000	911	5
373.15	5000	914.2	5
373.15	10000	918	5
373.15	20000	925.2	5
373.15	30000	931.9	5
373.15	40000	938.1	5
373.15	50000	944	5
373.15	60000	949.5	5
373.15	70000	954.6	5
398.15	100	892.2	5
398.15	1000	892.9	5
398.15	5000	896.3	5
398.15	10000	900.5	5
398.15	20000	908.5	5
398.15	30000	915.8	5
398.15	40000	922.6	5
398.15	50000	928.9	5
398.15	60000	934.9	5
398.15	70000	940.4	5

System: 3-methylnonyl 1,2-benzenedioate; phases: Liquid, Air at 1 atmosphere
Property: Mass density, kg/m3 (Liquid); method: SVM3000 rotational viscometer
Temperature, K	Mass density, kg/m3	uncertainty
278.15	977.1	6.8397
283.15	973.5	6.8145
288.15	969.9	6.7893
293.15	966.4	6.7648
298.15	962.9	6.7403
303.15	959.4	6.7158
308.15	955.9	6.6913
313.15	952.4	6.6668
318.15	948.9	6.6423
323.15	945.3	6.6171
328.15	941.8	6.5926
333.15	938.3	6.5681
338.15	934.7	6.5429
343.15	931.1	6.5177
348.15	927.6	6.4932
353.15	924.1	6.4687
358.15	920.6	6.4442
363.15	917	6.419
368.15	913.5	6.3945
373.15	910	6.37

System: 3-methylnonyl 1,2-benzenedioate; phases: Liquid, Air at 1 atmosphere
Property: Viscosity, Pa*s (Liquid); method: Rotational Automated Viscometer
Temperature, K	Viscosity, Pa*s	uncertainty
278.15	.4131	.004131
283.15	.267	.00267
288.15	.1794	.001794
293.15	.1245	.001245
298.15	.08906	.0008906
303.15	.06545	.0006545
308.15	.04929	.0004929
313.15	.03797	.0003797
318.15	.02983	.0002983
323.15	.02387	.0002387
328.15	.01941	.0001941
333.15	.01602	.0001602
338.15	.0134	.000134
343.15	.01134	.0001134
348.15	.009696	.00009696
353.15	.008376	.00008376
358.15	.0073	.000073
363.15	.006414	.00006414
368.15	.005677	.00005677
373.15	.005059	.00005059

System: 3-methylnonyl 1,2-benzenedioate; phases: Liquid
Property: Viscosity, Pa*s (Liquid); method: Falling or rolling sphere viscometry
Temperature, K	Pressure, kPa	Viscosity, Pa*s	uncertainty
303.15	100	.0646	.002584
303.15	1000	.066	.00264
303.15	5000	.0726	.002904
303.15	10000	.0817	.003268
303.15	20000	.103	.00412
303.15	30000	.129	.00516
303.15	40000	.162	.00648
303.15	50000	.201	.00804
303.15	60000	.25	.01
313.15	100	.0385	.00154
313.15	1000	.0393	.001572
313.15	5000	.0428	.001712
313.15	10000	.0476	.001904
313.15	20000	.0588	.002352
313.15	30000	.0724	.002896
313.15	40000	.0888	.003552
313.15	50000	.109	.00436
313.15	60000	.132	.00528
333.15	100	.016	.00064
333.15	1000	.0163	.000652
333.15	5000	.0176	.000704
333.15	10000	.0193	.000772
333.15	20000	.0232	.000928
333.15	30000	.0278	.001112
333.15	40000	.0331	.001324
333.15	50000	.0393	.001572
333.15	60000	.0466	.001864
353.15	100	.00835	.000334
353.15	1000	.00848	.0003392
353.15	5000	.00906	.0003624
353.15	10000	.00983	.0003932
353.15	20000	.0115	.00046
353.15	30000	.0135	.00054
353.15	40000	.0158	.000632
353.15	50000	.0183	.000732
353.15	60000	.0212	.000848
373.15	100	.00509	.0002036
373.15	1000	.00516	.0002064
373.15	5000	.00547	.0002188
373.15	10000	.00589	.0002356
373.15	20000	.0068	.000272
373.15	30000	.00783	.0003132
373.15	40000	.00898	.0003592
373.15	50000	.0103	.000412
373.15	60000	.0117	.000468

System: 3-methylnonyl 1,2-benzenedioate; phases: Liquid
Property: Mass density, kg/m3 (Liquid); method: Vibrating tube method
Temperature, K	Pressure, kPa	Mass density, kg/m3	uncertainty
283.15	100	973.4	.7
283.15	1000	973.7	.7
283.15	5000	975.9	.7
283.15	10000	978.4	.7
283.15	20000	983.5	.7
283.15	30000	988.3	.7
283.15	40000	992.8	.7
283.15	50000	997.2	.7
283.15	60000	1001.4	.7
283.15	70000	1005.4	.7
298.15	100	963	.7
298.15	1000	963.4	.7
298.15	5000	965.7	.7
298.15	10000	968.4	.7
298.15	20000	973.7	.7
298.15	30000	978.7	.7
298.15	40000	983.4	.7
298.15	50000	988	.7
298.15	60000	992.4	.7
298.15	70000	996.6	.7
323.15	100	945.4	.7
323.15	1000	945.8	.7
323.15	5000	948.4	.7
323.15	10000	951.5	.7
323.15	20000	957.4	.7
323.15	30000	962.9	.7
323.15	40000	968.1	.7
323.15	50000	973.1	.7
323.15	60000	977.8	.7
323.15	70000	982.3	.7
333.15	100	938.4	.7
333.15	1000	938.9	.7
333.15	5000	941.6	.7
333.15	10000	944.8	.7
333.15	20000	951	.7
333.15	30000	956.7	.7
333.15	40000	962.1	.7
333.15	50000	967.2	.7
333.15	60000	972.1	.7
333.15	70000	976.7	.7
348.15	100	927.9	.7
348.15	1000	928.5	.7
348.15	5000	931.4	.7
348.15	10000	934.8	.7
348.15	20000	941.3	.7
348.15	30000	947.3	.7
348.15	40000	953	.7
348.15	50000	958.4	.7
348.15	60000	963.6	.7
348.15	70000	968.4	.7
373.15	100	909.5	5
373.15	1000	911	5
373.15	5000	914.3	5
373.15	10000	918.1	5
373.15	20000	925.3	5
373.15	30000	931.9	5
373.15	40000	938.1	5
373.15	50000	943.9	5
373.15	60000	949.5	5
373.15	70000	954.7	5
398.15	100	892.2	5
398.15	1000	892.8	5
398.15	5000	896.4	5
398.15	10000	900.6	5
398.15	20000	908.6	5
398.15	30000	915.8	5
398.15	40000	922.5	5
398.15	50000	928.8	5
398.15	60000	934.8	5
398.15	70000	940.4	5

System: 3-methylnonyl 1,2-benzenedioate; phases: Liquid, Air at 1 atmosphere
Property: Mass density, kg/m3 (Liquid); method: SVM3000 rotational viscometer
Temperature, K	Mass density, kg/m3	uncertainty
278.15	977.3	6.8411
283.15	973.8	6.8166
288.15	970.2	6.7914
293.15	966.7	6.7669
298.15	963.2	6.7424
303.15	959.7	6.7179
308.15	956.2	6.6934
313.15	952.7	6.6689
318.15	949.2	6.6444
323.15	945.7	6.6199
328.15	942.2	6.5954
333.15	938.7	6.5709
338.15	935.1	6.5457
343.15	931.6	6.5212
348.15	928	6.496
353.15	924.4	6.4708
358.15	920.7	6.4449
363.15	917.2	6.4204
368.15	913.7	6.3959
373.15	910.3	6.3721

System: 3-methylnonyl 1,2-benzenedioate; phases: Liquid, Air at 1 atmosphere
Property: Viscosity, Pa*s (Liquid); method: Rotational Automated Viscometer
Temperature, K	Viscosity, Pa*s	uncertainty
278.15	.4122	.004122
283.15	.2662	.002662
288.15	.1789	.001789
293.15	.1244	.001244
298.15	.08894	.0008894
303.15	.06532	.0006532
308.15	.04916	.0004916
313.15	.03787	.0003787
318.15	.02975	.0002975
323.15	.02379	.0002379
328.15	.01935	.0001935
333.15	.01597	.0001597
338.15	.01336	.0001336
343.15	.01131	.0001131
348.15	.009685	.00009685
353.15	.00837	.0000837
358.15	.007297	.00007297
363.15	.006412	.00006412
368.15	.005675	.00005675
373.15	.005057	.00005057

System: 3-methylnonyl 1,2-benzenedioate; phases: Liquid
Property: Viscosity, Pa*s (Liquid); method: Falling or rolling sphere viscometry
Temperature, K	Pressure, kPa	Viscosity, Pa*s	uncertainty
333.15	100	.0161	.000644
333.15	1000	.0164	.000656
333.15	5000	.0177	.000708
333.15	10000	.0195	.00078
333.15	20000	.0235	.00094
333.15	30000	.0282	.001128
333.15	40000	.0337	.001348
333.15	50000	.04	.0016
333.15	60000	.0475	.0019
353.15	100	.00842	.0003368
353.15	1000	.00854	.0003416
353.15	5000	.00914	.0003656
353.15	10000	.00992	.0003968
353.15	20000	.0117	.000468
353.15	30000	.0137	.000548
353.15	40000	.016	.00064
353.15	50000	.0185	.00074
353.15	60000	.0215	.00086
373.15	100	.00505	.000202
373.15	1000	.00512	.0002048
373.15	5000	.00544	.0002176
373.15	10000	.00586	.0002344
373.15	20000	.00679	.0002716
373.15	30000	.00783	.0003132
373.15	40000	.009	.00036
373.15	50000	.0103	.000412
373.15	60000	.0117	.000468
