Measured thermophysical data. Synthesis, thermophysical properties and COSMO-RS study of DBU based protic ionic liquids
Source: J. Chem. Thermodyn., 2017, 10.1016/j.jct.2016.10.021
Compound 1: 1,8-diazabicyclo[5.4.0]undec-7-enium acetate, C11H20N2O2
Compound 2: 1,8-diazabicyclo[5.4.0]undec-7-enium trifluoroacetate, C11H17F3N2O2
Compound 3: 1,8-diazabicyclo[5.4.0]undec-7-enium methanesulfonate, C10H20N2O3S
Compound 4: 1,8-diazabicyclo[5.4.0]undec-7-enium trifluoromethanesulfonate, C10H17F3N2O3S
Compound 5: water, H2O

System: 1,8-diazabicyclo[5.4.0]undec-7-enium acetate; phases: Liquid
Fixed: Pressure, kPa = 101.325
Property: Mass density, kg/m3 (Liquid); method: Vibrating tube method
Temperature, K	Mass density, kg/m3	uncertainty
293.15	1076	
303.15	1069.1	
313.15	1062.3	
323.15	1055.6	
333.15	1048.7	
343.15	1041.8	
353.15	1034.9	
363.15	1028	

System: 1,8-diazabicyclo[5.4.0]undec-7-enium acetate; phases: Liquid
Fixed: Pressure, kPa = 101.325
Property: Viscosity, Pa*s (Liquid); method: Concentric cylinders viscometry
Temperature, K	Viscosity, Pa*s	uncertainty
293.15	.16474	
303.15	.084727	
313.15	.048339	
323.15	.030375	
333.15	.02036	
343.15	.014388	
353.15	.010588	
363.15	.008052	

System: 1,8-diazabicyclo[5.4.0]undec-7-enium acetate; phases: Liquid, Air at 1 atmosphere
Property: Surface tension liquid-gas, N/m (Liquid); method: Pendant drop shape
Temperature, K	Surface tension liquid-gas, N/m	uncertainty
293.15	.03688	
303.15	.03594	
313.15	.0346	
323.15	.03347	
333.15	.03238	
343.15	.03146	
353.15	.03063	

System: 1,8-diazabicyclo[5.4.0]undec-7-enium trifluoroacetate; phases: Liquid
Fixed: Pressure, kPa = 101.325
Property: Mass density, kg/m3 (Liquid); method: Vibrating tube method
Temperature, K	Mass density, kg/m3	uncertainty
293.15	1264.6	
303.15	1256.6	
313.15	1248.9	
323.15	1241.4	
333.15	1234	
343.15	1226.6	
353.15	1219.2	
363.15	1211.9	

System: 1,8-diazabicyclo[5.4.0]undec-7-enium trifluoroacetate; phases: Liquid
Fixed: Pressure, kPa = 101.325
Property: Viscosity, Pa*s (Liquid); method: Concentric cylinders viscometry
Temperature, K	Viscosity, Pa*s	uncertainty
293.15	1.1932	
303.15	.49376	
313.15	.23697	
323.15	.12792	
333.15	.07572	
343.15	.04846	
353.15	.03294	
363.15	.02343	

System: 1,8-diazabicyclo[5.4.0]undec-7-enium trifluoroacetate; phases: Liquid, Air at 1 atmosphere
Property: Surface tension liquid-gas, N/m (Liquid); method: Pendant drop shape
Temperature, K	Surface tension liquid-gas, N/m	uncertainty
293.15	.03247	
303.15	.03198	
313.15	.03152	
323.15	.03105	
333.15	.03065	
343.15	.03015	
353.15	.02974	

System: 1,8-diazabicyclo[5.4.0]undec-7-enium methanesulfonate; phases: Liquid
Fixed: Pressure, kPa = 101.325
Property: Mass density, kg/m3 (Liquid); method: Vibrating tube method
Temperature, K	Mass density, kg/m3	uncertainty
293.15	1226.6	
303.15	1219.8	
313.15	1212.9	
323.15	1206.1	
333.15	1199.5	
343.15	1193	
353.15	1186.5	
363.15	1180.2	

System: 1,8-diazabicyclo[5.4.0]undec-7-enium methanesulfonate; phases: Liquid
Fixed: Pressure, kPa = 101.325
Property: Viscosity, Pa*s (Liquid); method: Concentric cylinders viscometry
Temperature, K	Viscosity, Pa*s	uncertainty
293.15	3.3101	
303.15	1.177	
313.15	.49753	
323.15	.24149	
333.15	.1316	
343.15	.07846	
353.15	.05026	
363.15	.03412	

System: 1,8-diazabicyclo[5.4.0]undec-7-enium methanesulfonate; phases: Liquid, Air at 1 atmosphere
Property: Surface tension liquid-gas, N/m (Liquid); method: Pendant drop shape
Temperature, K	Surface tension liquid-gas, N/m	uncertainty
293.15	.04184	
303.15	.04135	
313.15	.04049	
323.15	.03958	
333.15	.03879	
343.15	.03823	
353.15	.03754	

System: 1,8-diazabicyclo[5.4.0]undec-7-enium trifluoromethanesulfonate; phases: Liquid
Fixed: Pressure, kPa = 101.325
Property: Mass density, kg/m3 (Liquid); method: Vibrating tube method
Temperature, K	Mass density, kg/m3	uncertainty
293.15	1361	
303.15	1352.7	
313.15	1344.5	
323.15	1336.7	
333.15	1329	
343.15	1321.2	
353.15	1313.5	
363.15	1305.9	

System: 1,8-diazabicyclo[5.4.0]undec-7-enium trifluoromethanesulfonate; phases: Liquid
Fixed: Pressure, kPa = 101.325
Property: Viscosity, Pa*s (Liquid); method: Concentric cylinders viscometry
Temperature, K	Viscosity, Pa*s	uncertainty
293.15	1.1131	
303.15	.52423	
313.15	.276	
323.15	.15889	
333.15	.09825	
343.15	.0644	
353.15	.04429	
363.15	.03175	

System: 1,8-diazabicyclo[5.4.0]undec-7-enium trifluoromethanesulfonate; phases: Liquid, Air at 1 atmosphere
Property: Surface tension liquid-gas, N/m (Liquid); method: Pendant drop shape
Temperature, K	Surface tension liquid-gas, N/m	uncertainty
293.15	.03039	
303.15	.0298	
313.15	.02927	
323.15	.02883	
333.15	.02831	
343.15	.02771	
353.15	.02715	

System: water + 1,8-diazabicyclo[5.4.0]undec-7-enium acetate; phases: Liquid
Fixed: Pressure, kPa = 100
Fixed: Temperature, K = 303.15
Property: Mass density, kg/m3 (Liquid); method: Vibrating tube method
Mass fraction of water	Mass density, kg/m3	uncertainty
.001127	1069.1	
.002156	1068.4	
.003932	1066.9	
.005106	1065.9	
.006373	1065	

System: water + 1,8-diazabicyclo[5.4.0]undec-7-enium acetate; phases: Liquid
Fixed: Pressure, kPa = 100
Fixed: Temperature, K = 303.15
Property: Viscosity, Pa*s (Liquid); method: Concentric cylinders viscometry
Mass fraction of water	Viscosity, Pa*s	uncertainty
.001127	.084727	
.002156	.084699	
.003932	.084658	
.005106	.084622	
.006373	.084586	

System: water + 1,8-diazabicyclo[5.4.0]undec-7-enium acetate; phases: Liquid, Air at 1 atmosphere
Fixed: Temperature, K = 303.15
Property: Surface tension liquid-gas, N/m (Liquid); method: Pendant drop shape
Mass fraction of water	Surface tension liquid-gas, N/m	uncertainty
.001127	.03594	
.002156	.03599	
.003932	.03609	
.005106	.03615	
.006373	.03623	

System: water + 1,8-diazabicyclo[5.4.0]undec-7-enium trifluoroacetate; phases: Liquid
Fixed: Pressure, kPa = 100
Fixed: Temperature, K = 303.15
Property: Mass density, kg/m3 (Liquid); method: Vibrating tube method
Mass fraction of water	Mass density, kg/m3	uncertainty
.001118	1256.6	
.002196	1256.2	
.003948	1255.7	
.005067	1255.2	
.006935	1254.6	

System: water + 1,8-diazabicyclo[5.4.0]undec-7-enium trifluoroacetate; phases: Liquid
Fixed: Pressure, kPa = 100
Fixed: Temperature, K = 303.15
Property: Viscosity, Pa*s (Liquid); method: Concentric cylinders viscometry
Mass fraction of water	Viscosity, Pa*s	uncertainty
.001118	.49376	
.002196	.49359	
.003948	.49333	
.005067	.49317	
.006935	.49285	

System: water + 1,8-diazabicyclo[5.4.0]undec-7-enium trifluoroacetate; phases: Liquid, Air at 1 atmosphere
Fixed: Temperature, K = 303.15
Property: Surface tension liquid-gas, N/m (Liquid); method: Pendant drop shape
Mass fraction of water	Surface tension liquid-gas, N/m	uncertainty
.001118	.03198	
.002196	.03201	
.003948	.03206	
.005067	.03209	
.006935	.03214	

System: water + 1,8-diazabicyclo[5.4.0]undec-7-enium methanesulfonate; phases: Liquid
Fixed: Pressure, kPa = 100
Fixed: Temperature, K = 303.15
Property: Mass density, kg/m3 (Liquid); method: Vibrating tube method
Mass fraction of water	Mass density, kg/m3	uncertainty
.001054	1219.8	
.001987	1219.37	
.003524	1218.75	
.004663	1218.3	
.005967	1217.81	

System: water + 1,8-diazabicyclo[5.4.0]undec-7-enium methanesulfonate; phases: Liquid
Fixed: Pressure, kPa = 100
Fixed: Temperature, K = 303.15
Property: Viscosity, Pa*s (Liquid); method: Concentric cylinders viscometry
Mass fraction of water	Viscosity, Pa*s	uncertainty
.001054	1.177	
.001987	1.17683	
.003524	1.17655	
.004663	1.17633	
.005967	1.17608	

System: water + 1,8-diazabicyclo[5.4.0]undec-7-enium methanesulfonate; phases: Liquid, Air at 1 atmosphere
Fixed: Temperature, K = 303.15
Property: Surface tension liquid-gas, N/m (Liquid); method: Pendant drop shape
Mass fraction of water	Surface tension liquid-gas, N/m	uncertainty
.001054	.04135	
.001987	.04143	
.003524	.04156	
.004663	.04169	
.005967	.04178	

System: water + 1,8-diazabicyclo[5.4.0]undec-7-enium trifluoromethanesulfonate; phases: Liquid
Fixed: Pressure, kPa = 100
Fixed: Temperature, K = 303.15
Property: Mass density, kg/m3 (Liquid); method: Vibrating tube method
Mass fraction of water	Mass density, kg/m3	uncertainty
.001106	1352.7	
.002067	1352.2	
.003286	1351.6	
.004194	1351.1	
.005671	1350.5	

System: water + 1,8-diazabicyclo[5.4.0]undec-7-enium trifluoromethanesulfonate; phases: Liquid
Fixed: Pressure, kPa = 100
Fixed: Temperature, K = 303.15
Property: Viscosity, Pa*s (Liquid); method: Concentric cylinders viscometry
Mass fraction of water	Viscosity, Pa*s	uncertainty
.001106	.52423	
.002067	.52418	
.003286	.52411	
.004194	.52406	
.005671	.52399	

System: water + 1,8-diazabicyclo[5.4.0]undec-7-enium trifluoromethanesulfonate; phases: Liquid, Air at 1 atmosphere
Fixed: Temperature, K = 303.15
Property: Surface tension liquid-gas, N/m (Liquid); method: Pendant drop shape
Mass fraction of water	Surface tension liquid-gas, N/m	uncertainty
.001106	.0298	
.002067	.02974	
.003286	.02966	
.004194	.0296	
.005671	.02951	
