Measured thermophysical data. Thermodynamic properties of binary mixtures combining two pyridinium-based ionic liquids and two alkanols
Source: J. Chem. Thermodyn., 2012, 10.1016/j.jct.2012.02.023
Compound 1: methanol, CH4O, purity 99.8%
Compound 2: ethanol, C2H6O, purity 99.5%
Compound 3: 1-butyl-3-methylpyridinium tetrafluoroborate, C10H16BF4N, purity 99%
Compound 4: N-butyl-4-methylpyridinium tetrafluoroborate, C10H16BF4N, purity 99%

System: methanol; phases: Liquid
Fixed: Pressure, kPa = 101.325
Property: Mass density, kg/m3 (Liquid); method: Vibrating tube method
Temperature, K	Mass density, kg/m3	uncertainty
293.15	791.243	.005
303.15	781.813	.005
313.15	772.287	.005
323.15	762.628	.005

System: methanol; phases: Liquid
Fixed: Pressure, kPa = 101.325
Property: Speed of sound, m/s (Liquid); method: Sing-around technique in a fixed-path interferometer
Temperature, K	Speed of sound, m/s	uncertainty
293.15	1118.83	.5
303.15	1085.99	.5
313.15	1053.55	.5
323.15	1021.53	.5

System: methanol; phases: Liquid, Gas
Property: Vapor or sublimation pressure, kPa (Liquid); method: Closed cell (Static) method
Temperature, K	Vapor or sublimation pressure, kPa	uncertainty
303.15	21.93	.002193
323.15	55.785	.0055785

System: ethanol; phases: Liquid
Fixed: Pressure, kPa = 101.325
Property: Mass density, kg/m3 (Liquid); method: Vibrating tube method
Temperature, K	Mass density, kg/m3	uncertainty
293.15	789.481	.005
303.15	781.302	.005
313.15	772.569	.005
323.15	763.647	.005

System: ethanol; phases: Liquid
Fixed: Pressure, kPa = 101.325
Property: Speed of sound, m/s (Liquid); method: Sing-around technique in a fixed-path interferometer
Temperature, K	Speed of sound, m/s	uncertainty
293.15	1160.07	.5
303.15	1127.2	.5
313.15	1093.64	.5
323.15	1060.44	.5

System: ethanol; phases: Liquid, Gas
Property: Vapor or sublimation pressure, kPa (Liquid); method: Closed cell (Static) method
Temperature, K	Vapor or sublimation pressure, kPa	uncertainty
303.15	10.475	.0010475
323.15	29.565	.0029565

System: 1-butyl-3-methylpyridinium tetrafluoroborate; phases: Liquid
Fixed: Pressure, kPa = 101.325
Property: Mass density, kg/m3 (Liquid); method: Vibrating tube method
Temperature, K	Mass density, kg/m3	uncertainty
293.15	1185.655	.005
303.15	1178.864	.005
313.15	1172.11	.005
323.15	1165.371	.005

System: 1-butyl-3-methylpyridinium tetrafluoroborate; phases: Liquid
Fixed: Pressure, kPa = 101.325
Property: Speed of sound, m/s (Liquid); method: Sing-around technique in a fixed-path interferometer
Temperature, K	Speed of sound, m/s	uncertainty
293.15	1598.46	.5
303.15	1573.79	.5
313.15	1550.11	.5
323.15	1526.97	.5

System: N-butyl-4-methylpyridinium tetrafluoroborate; phases: Liquid
Fixed: Pressure, kPa = 101.325
Property: Mass density, kg/m3 (Liquid); method: Vibrating tube method
Temperature, K	Mass density, kg/m3	uncertainty
293.15	1185.924	.005
303.15	1179.122	.005
313.15	1172.12	.005
323.15	1165.517	.005

System: N-butyl-4-methylpyridinium tetrafluoroborate; phases: Liquid
Fixed: Pressure, kPa = 101.325
Property: Speed of sound, m/s (Liquid); method: Sing-around technique in a fixed-path interferometer
Temperature, K	Speed of sound, m/s	uncertainty
293.15	1611.85	.5
303.15	1586.74	.5
313.15	1562.78	.5
323.15	1539.35	.5

System: methanol + 1-butyl-3-methylpyridinium tetrafluoroborate; phases: Liquid
Fixed: Pressure, kPa = 101
Property: Mass density, kg/m3 (Liquid); method: Vibrating tube method
Temperature, K	Mole fraction of 1-butyl-3-methylpyridinium tetrafluoroborate	Mass density, kg/m3	uncertainty
293.15	.0481	876.902	.005
293.15	.1001	940.659	.005
293.15	.1548	988.767	.005
293.15	.2003	1019.303	.005
293.15	.2487	1045.529	.005
293.15	.297	1066.651	.005
293.15	.4013	1101.037	.005
293.15	.4969	1123.815	.005
293.15	.5974	1142.036	.005
293.15	.6972	1156.176	.005
293.15	.8437	1172.391	.005
293.15	.8984	1177.432	.005
293.15	.9692	1183.294	.005
303.15	.0481	868.149	.005
303.15	.1001	932.121	.005
303.15	.1548	980.512	.005
303.15	.2003	1011.19	.005
303.15	.2487	1037.613	.005
303.15	.297	1058.608	.005
303.15	.4013	1093.308	.005
303.15	.4969	1116.425	.005
303.15	.5974	1134.728	.005
303.15	.6972	1149.173	.005
303.15	.8437	1165.509	.005
303.15	.8984	1170.571	.005
303.15	.9692	1176.481	.005
313.15	.0481	858.994	.005
313.15	.1001	923.594	.005
313.15	.1548	972.213	.005
313.15	.2003	1003.349	.005
313.15	.2487	1029.561	.005
313.15	.297	1050.836	.005
313.15	.4013	1085.477	.005
313.15	.4969	1108.811	.005
313.15	.5974	1127.474	.005
313.15	.6972	1142.077	.005
313.15	.8437	1158.689	.005
313.15	.8984	1163.789	.005
313.15	.9692	1169.741	.005
323.15	.0481	850.146	.005
323.15	.1001	915.022	.005
323.15	.1548	964.125	.005
323.15	.2003	995.225	.005
323.15	.2487	1021.631	.005
323.15	.297	1042.817	.005
323.15	.4013	1077.897	.005
323.15	.4969	1101.289	.005
323.15	.5974	1120.245	.005
323.15	.6972	1135	.005
323.15	.8437	1151.774	.005
323.15	.8984	1156.962	.005
323.15	.9692	1162.98	.005

System: methanol + 1-butyl-3-methylpyridinium tetrafluoroborate; phases: Liquid
Fixed: Pressure, kPa = 101
Property: Speed of sound, m/s (Liquid); method: Sing-around technique in a fixed-path interferometer
Temperature, K	Mole fraction of 1-butyl-3-methylpyridinium tetrafluoroborate	Speed of sound, m/s	uncertainty
293.15	.0481	1203.11	.5
293.15	.1001	1270.97	.5
293.15	.1548	1330.88	.5
293.15	.2003	1370.02	.5
293.15	.2487	1407.22	.5
293.15	.297	1433.62	.5
293.15	.4013	1482.71	.5
293.15	.4969	1514.2	.5
293.15	.5974	1538.73	.5
293.15	.6972	1557.92	.5
293.15	.8437	1580.4	.5
293.15	.8984	1587.17	.5
293.15	.9692	1595.62	.5
303.15	.0481	1173.37	.5
303.15	.1001	1243.28	.5
303.15	.1548	1304.19	.5
303.15	.2003	1343.99	.5
303.15	.2487	1381.56	.5
303.15	.297	1408.14	.5
303.15	.4013	1457.88	.5
303.15	.4969	1489.34	.5
303.15	.5974	1514.12	.5
303.15	.6972	1533.55	.5
303.15	.8437	1556.21	.5
303.15	.8984	1562.83	.5
303.15	.9692	1571.3	.5
313.15	.0481	1143.93	.5
313.15	.1001	1215.68	.5
313.15	.1548	1277.62	.5
313.15	.2003	1318.13	.5
313.15	.2487	1356.05	.5
313.15	.297	1382.91	.5
313.15	.4013	1432.96	.5
313.15	.4969	1464.89	.5
313.15	.5974	1489.94	.5
313.15	.6972	1509.53	.5
313.15	.8437	1532.58	.5
313.15	.8984	1539.32	.5
313.15	.9692	1547.46	.5
323.15	.0481	1114.73	.5
323.15	.1001	1188.32	.5
323.15	.1548	1251.73	.5
323.15	.2003	1292.44	.5
323.15	.2487	1330.84	.5
323.15	.297	1358.05	.5
323.15	.4013	1414.99	.5
323.15	.4969	1443.12	.5
323.15	.5974	1466.17	.5
323.15	.6972	1485.85	.5
323.15	.8437	1509.18	.5
323.15	.8984	1515.99	.5
323.15	.9692	1524.5	.5

System: methanol + 1-butyl-3-methylpyridinium tetrafluoroborate; phases: Liquid, Gas
Property: Vapor or sublimation pressure, kPa (Liquid); method: Closed cell (Static) method
Temperature, K	Mole fraction of 1-butyl-3-methylpyridinium tetrafluoroborate	Vapor or sublimation pressure, kPa	uncertainty
303.15	.0235	21.38	.02138
303.15	.0398	21.185	.021185
303.15	.0594	20.925	.020925
303.15	.0727	20.815	.020815
303.15	.0908	20.605	.020605
303.15	.1105	20.302	.020302
303.15	.1301	20.045	.020045
303.15	.169	19.5	.0195
303.15	.2022	19.25	.01925
303.15	.2329	18.65	.01865
303.15	.2652	18.165	.018165
303.15	.2868	17.765	.017765
303.15	.3171	17.165	.017165
303.15	.3398	16.55	.01655
303.15	.3842	15.905	.015905
303.15	.4296	14.5	.0145
303.15	.4796	13.405	.013405
303.15	.5212	12.615	.012615
303.15	.5791	11.14	.01114
303.15	.6185	10.05	.01005
303.15	.6402	9.62	.00962
303.15	.695	8.135	.008135
323.15	.0236	54.51	.05451
323.15	.0371	54.255	.054255
323.15	.0589	53.375	.053375
323.15	.0727	52.99	.05299
323.15	.0936	52.03	.05203
323.15	.1104	51.405	.051405
323.15	.1321	50.735	.050735
323.15	.1735	49.37	.04937
323.15	.2083	47.595	.047595
323.15	.2321	46.52	.04652
323.15	.2597	45.355	.045355
323.15	.2761	44.23	.04423
323.15	.3185	42.37	.04237
323.15	.3442	40.72	.04072
323.15	.3859	38.46	.03846
323.15	.4086	37.02	.03702
323.15	.478	32.87	.03287
323.15	.5282	29.665	.029665
323.15	.5701	27.225	.027225
323.15	.6145	24.435	.024435
323.15	.6495	22.04	.02204
323.15	.6925	19.49	.01949

System: ethanol + 1-butyl-3-methylpyridinium tetrafluoroborate; phases: Liquid
Fixed: Pressure, kPa = 101
Property: Mass density, kg/m3 (Liquid); method: Vibrating tube method
Temperature, K	Mole fraction of 1-butyl-3-methylpyridinium tetrafluoroborate	Mass density, kg/m3	uncertainty
293.15	.0572	861.245	.005
293.15	.0964	900.833	.005
293.15	.1466	942.807	.005
293.15	.1964	977.495	.005
293.15	.2431	1004.659	.005
293.15	.2998	1032.24	.005
293.15	.3966	1069.965	.005
293.15	.4984	1100.016	.005
293.15	.5931	1122.42	.005
293.15	.691	1141.632	.005
293.15	.8022	1159.848	.005
293.15	.8923	1172.563	.005
293.15	.9517	1180.054	.005
303.15	.0572	852.837	.005
303.15	.0964	892.417	.005
303.15	.1466	934.902	.005
303.15	.1964	969.562	.005
303.15	.2431	996.702	.005
303.15	.2998	1024.755	.005
303.15	.3966	1062.418	.005
303.15	.4984	1092.797	.005
303.15	.5931	1115.36	.005
313.15	.0572	844.506	.005
313.15	.0964	884.287	.005
313.15	.1466	926.796	.005
313.15	.1964	961.571	.005
313.15	.2431	988.807	.005
313.15	.2998	1016.855	.005
313.15	.3966	1054.998	.005
313.15	.4984	1085.545	.005
313.15	.5931	1108.058	.005
313.15	.691	1127.503	.005
313.15	.8022	1145.948	.005
313.15	.8923	1158.835	.005
313.15	.9517	1166.436	.005
323.15	.0572	835.724	.005
323.15	.0964	875.61	.005
323.15	.1466	918.466	.005
323.15	.1964	953.451	.005
323.15	.2431	980.836	.005
323.15	.2998	1009.222	.005
323.15	.3966	1047.458	.005
323.15	.4984	1078.031	.005
323.15	.5931	1100.947	.005
323.15	.691	1120.363	.005
323.15	.8022	1138.975	.005
323.15	.8923	1151.943	.005
323.15	.9517	1159.615	.005

System: ethanol + 1-butyl-3-methylpyridinium tetrafluoroborate; phases: Liquid
Fixed: Pressure, kPa = 101
Property: Speed of sound, m/s (Liquid); method: Sing-around technique in a fixed-path interferometer
Temperature, K	Mole fraction of 1-butyl-3-methylpyridinium tetrafluoroborate	Speed of sound, m/s	uncertainty
293.15	.0572	1206	.5
293.15	.0964	1239.44	.5
293.15	.1466	1280.97	.5
293.15	.1964	1320.02	.5
293.15	.2431	1355.11	.5
293.15	.2998	1390.6	.5
293.15	.3966	1442.66	.5
293.15	.4984	1484.24	.5
293.15	.5931	1515.86	.5
293.15	.691	1543.7	.5
293.15	.8022	1566.18	.5
293.15	.8923	1582.63	.5
293.15	.9517	1591.68	.5
303.15	.0572	1177	.5
303.15	.0964	1212.44	.5
303.15	.1466	1254.51	.5
303.15	.1964	1294.75	.5
303.15	.2431	1329.98	.5
303.15	.2998	1365.53	.5
303.15	.3966	1417.44	.5
303.15	.4984	1459.16	.5
303.15	.5931	1490.96	.5
313.15	.0572	1146.47	.5
313.15	.0964	1183.57	.5
313.15	.1466	1228.4	.5
313.15	.1964	1269.06	.5
313.15	.2431	1304.62	.5
313.15	.2998	1340.42	.5
313.15	.3966	1392.4	.5
313.15	.4984	1434.33	.5
313.15	.5931	1466.38	.5
313.15	.691	1494.94	.5
313.15	.8022	1517.17	.5
313.15	.8923	1534.68	.5
313.15	.9517	1543.73	.5
323.15	.0572	1116.44	.5
323.15	.0964	1155.2	.5
323.15	.1466	1202.04	.5
323.15	.1964	1244.19	.5
323.15	.2431	1279.27	.5
323.15	.2998	1315.4	.5
323.15	.3966	1366.22	.5
323.15	.4984	1409.88	.5
323.15	.5931	1442.2	.5
323.15	.691	1471.17	.5
323.15	.8022	1493.75	.5
323.15	.8923	1511.34	.5
323.15	.9517	1519.55	.5

System: ethanol + 1-butyl-3-methylpyridinium tetrafluoroborate; phases: Liquid, Gas
Property: Vapor or sublimation pressure, kPa (Liquid); method: Closed cell (Static) method
Temperature, K	Mole fraction of 1-butyl-3-methylpyridinium tetrafluoroborate	Vapor or sublimation pressure, kPa	uncertainty
303.15	.0296	10.305	.010305
303.15	.0412	10.24	.01024
303.15	.0623	10.235	.010235
303.15	.0762	10.23	.01023
303.15	.0838	10.21	.01021
303.15	.098	10.205	.010205
303.15	.1294	10.17	.01017
303.15	.159	10.085	.010085
303.15	.2123	9.995	.009995
303.15	.2422	9.95	.00995
303.15	.2803	9.625	.009625
303.15	.3142	9.545	.009545
303.15	.3632	9.265	.009265
303.15	.4121	8.8	.0088
303.15	.4695	8.25	.00825
303.15	.4922	8.005	.008005
303.15	.513	7.86	.00786
303.15	.5435	7.635	.007635
303.15	.589	6.905	.006905
303.15	.6308	6.25	.00625
303.15	.7005	5.485	.005485
323.15	.0287	29.15	.02915
323.15	.0417	28.975	.028975
323.15	.0609	28.935	.028935
323.15	.0693	28.9	.0289
323.15	.0862	28.73	.02873
323.15	.0967	28.72	.02872
323.15	.1266	28.485	.028485
323.15	.1567	28.27	.02827
323.15	.2123	27.775	.027775
323.15	.2339	27.375	.027375
323.15	.2726	26.715	.026715
323.15	.3214	25.755	.025755
323.15	.3662	24.555	.024555
323.15	.426	23.315	.023315
323.15	.4705	21.815	.021815
323.15	.5013	21.11	.02111
323.15	.5173	20.32	.02032
323.15	.562	18.885	.018885
323.15	.5871	17.865	.017865
323.15	.635	16.275	.016275
323.15	.7015	13.695	.013695

System: methanol + N-butyl-4-methylpyridinium tetrafluoroborate; phases: Liquid
Fixed: Pressure, kPa = 101
Property: Mass density, kg/m3 (Liquid); method: Vibrating tube method
Temperature, K	Mole fraction of N-butyl-4-methylpyridinium tetrafluoroborate	Mass density, kg/m3	uncertainty
293.15	.0507	881.091	.005
293.15	.0989	939.26	.005
293.15	.1922	1013.582	.005
293.15	.2934	1064.119	.005
293.15	.3877	1096.327	.005
293.15	.4839	1120.563	.005
293.15	.5909	1140.919	.005
293.15	.6925	1155.909	.005
293.15	.8001	1168.52	.005
293.15	.9042	1178.4	.005
293.15	.9535	1182.436	.005
303.15	.0507	872.29	.005
303.15	.0989	930.783	.005
303.15	.1922	1005.457	.005
303.15	.2934	1056.343	.005
303.15	.3877	1088.904	.005
303.15	.4839	1113.325	.005
303.15	.5909	1133.826	.005
303.15	.6925	1148.927	.005
303.15	.8001	1161.617	.005
303.15	.9042	1171.562	.005
303.15	.9535	1175.618	.005
313.15	.0507	863.158	.005
313.15	.0989	922.085	.005
313.15	.1922	997.343	.005
313.15	.2934	1048.538	.005
313.15	.3877	1081.215	.005
313.15	.4839	1105.846	.005
313.15	.5909	1126.566	.005
313.15	.6925	1141.789	.005
313.15	.8001	1154.585	.005
313.15	.9042	1164.563	.005
313.15	.9535	1168.618	.005
323.15	.0507	854.017	.005
323.15	.1922	989.026	.005
323.15	.2934	1040.725	.005
323.15	.3877	1073.753	.005
323.15	.4839	1098.72	.005
323.15	.5909	1119.634	.005
323.15	.6925	1134.989	.005
323.15	.8001	1147.873	.005
323.15	.9042	1157.923	.005
323.15	.9535	1162.005	.005

System: methanol + N-butyl-4-methylpyridinium tetrafluoroborate; phases: Liquid
Fixed: Pressure, kPa = 101
Property: Speed of sound, m/s (Liquid); method: Sing-around technique in a fixed-path interferometer
Temperature, K	Mole fraction of N-butyl-4-methylpyridinium tetrafluoroborate	Speed of sound, m/s	uncertainty
293.15	.0507	1208.6	.5
293.15	.0989	1271.77	.5
293.15	.1922	1364.27	.5
293.15	.2934	1433.1	.5
293.15	.3877	1479.92	.5
293.15	.4839	1516.96	.5
293.15	.5909	1546.93	.5
293.15	.6925	1568.28	.5
293.15	.8001	1587.9	.5
293.15	.9042	1602.53	.5
293.15	.9535	1607.75	.5
303.15	.0507	1178.07	.5
303.15	.0989	1242.34	.5
303.15	.1922	1337.76	.5
303.15	.2934	1409.54	.5
303.15	.3877	1455.86	.5
303.15	.4839	1490.91	.5
303.15	.5909	1521.27	.5
303.15	.6925	1543.53	.5
303.15	.8001	1563.15	.5
303.15	.9042	1577.56	.5
303.15	.9535	1583.09	.5
313.15	.0507	1148.07	.5
313.15	.0989	1214.23	.5
313.15	.1922	1311.27	.5
313.15	.2934	1381.39	.5
313.15	.3877	1431.15	.5
313.15	.4839	1464.39	.5
313.15	.5909	1494.57	.5
313.15	.6925	1518.23	.5
313.15	.8001	1538.44	.5
313.15	.9042	1553.57	.5
313.15	.9535	1558.92	.5
323.15	.0507	1119.48	.5
323.15	.1922	1288.99	.5
323.15	.2934	1361.45	.5
323.15	.3877	1407.77	.5
323.15	.4839	1439.75	.5
323.15	.5909	1471.48	.5
323.15	.6925	1494.57	.5
323.15	.8001	1515.95	.5
323.15	.9042	1531.3	.5
323.15	.9535	1536.31	.5

System: ethanol + N-butyl-4-methylpyridinium tetrafluoroborate; phases: Liquid
Fixed: Pressure, kPa = 101
Property: Mass density, kg/m3 (Liquid); method: Vibrating tube method
Temperature, K	Mole fraction of N-butyl-4-methylpyridinium tetrafluoroborate	Mass density, kg/m3	uncertainty
293.15	.0507	854.988	.005
293.15	.1	904.491	.005
293.15	.1971	976.866	.005
293.15	.2912	1026.693	.005
293.15	.3903	1066.096	.005
293.15	.4876	1096.194	.005
293.15	.5825	1119.751	.005
293.15	.6879	1141.237	.005
293.15	.7938	1159.019	.005
293.15	.8927	1173.003	.005
293.15	.9284	1177.537	.005
303.15	.0507	846.802	.005
303.15	.1	896.578	.005
303.15	.1971	969.284	.005
303.15	.2912	1019.313	.005
303.15	.3903	1058.836	.005
303.15	.4876	1088.981	.005
303.15	.5825	1112.716	.005
303.15	.6879	1134.289	.005
303.15	.7938	1152.181	.005
303.15	.8927	1166.2	.005
303.15	.9284	1170.735	.005
313.15	.0507	838.56	.005
313.15	.1	888.401	.005
313.15	.1971	961.403	.005
313.15	.2912	1011.462	.005
313.15	.3903	1051.304	.005
313.15	.4876	1081.754	.005
313.15	.5825	1105.577	.005
313.15	.7938	1145.032	.005
313.15	.8927	1159.134	.005
313.15	.9284	1163.691	.005
323.15	.0507	830.183	.005
323.15	.1	880.152	.005
323.15	.1971	953.269	.005
323.15	.2912	1003.862	.005
323.15	.3903	1043.954	.005
323.15	.4876	1074.658	.005
323.15	.5825	1098.503	.005
323.15	.6879	1120.3	.005
323.15	.7938	1138.276	.005
323.15	.8927	1152.424	.005
323.15	.9284	1157.002	.005

System: ethanol + N-butyl-4-methylpyridinium tetrafluoroborate; phases: Liquid
Fixed: Pressure, kPa = 101
Property: Speed of sound, m/s (Liquid); method: Sing-around technique in a fixed-path interferometer
Temperature, K	Mole fraction of N-butyl-4-methylpyridinium tetrafluoroborate	Speed of sound, m/s	uncertainty
293.15	.0507	1206.52	.5
293.15	.1	1246.19	.5
293.15	.1971	1321.9	.5
293.15	.2912	1384.82	.5
293.15	.3903	1440.76	.5
293.15	.4876	1483.75	.5
293.15	.5825	1522.45	.5
293.15	.6879	1548.47	.5
293.15	.7938	1576.06	.5
293.15	.8927	1594.17	.5
293.15	.9284	1601.86	.5
303.15	.0507	1176.71	.5
303.15	.1	1218.98	.5
303.15	.1971	1296.33	.5
303.15	.2912	1359.19	.5
303.15	.3903	1414.99	.5
303.15	.4876	1457.87	.5
303.15	.5825	1496.75	.5
303.15	.6879	1525.31	.5
303.15	.7938	1556.01	.5
303.15	.8927	1569.1	.5
303.15	.9284	1579.31	.5
313.15	.0507	1147.07	.5
313.15	.1	1189.88	.5
313.15	.1971	1268.89	.5
313.15	.2912	1333.75	.5
313.15	.3903	1389.66	.5
313.15	.4876	1432.45	.5
313.15	.5825	1471.65	.5
313.15	.6879	1499.54	.5
323.15	.0507	1117.3	.5
323.15	.1	1162.1	.5
323.15	.1971	1240.4	.5
323.15	.2912	1308.51	.5
323.15	.3903	1364.76	.5
323.15	.4876	1408	.5
323.15	.5825	1446.67	.5
323.15	.6879	1475.85	.5
323.15	.7938	1502.9	.5
323.15	.8927	1522.33	.5
323.15	.9284	1530.55	.5
