Measured thermophysical data. Comparing Composition- and Temperature-Dependent Viscosities of Binary Systems Involving Ionic Liquids
Source: J. Chem. Eng. Data, 2015, 10.1021/acs.jced.5b00503
Compound 1: 1-hexyl-3-methylimidazolium bis(trifluoromethylsulfonyl)imide, C12H19F6N3O4S2, purity 99%
Compound 2: trichloromethane, CHCl3, purity 99%

System: 1-hexyl-3-methylimidazolium bis(trifluoromethylsulfonyl)imide; phases: Liquid
Property: Viscosity, Pa*s (Liquid); method: Falling or rolling sphere viscometry
Temperature, K	Pressure, kPa	Viscosity, Pa*s	uncertainty
288.2	101	.1178	.002
298.2	101	.0704	.002
308.2	101	.0454	.002
318.2	101	.03123	.002

System: trichloromethane + 1-hexyl-3-methylimidazolium bis(trifluoromethylsulfonyl)imide; phases: Liquid
Fixed: Pressure, kPa = 101
Property: Viscosity, Pa*s (Liquid); method: Falling or rolling sphere viscometry
Mole fraction of 1-hexyl-3-methylimidazolium bis(trifluoromethylsulfonyl)imide	Temperature, K	Viscosity, Pa*s	uncertainty
1	288.2	.1178	.002
.906	288.2	.0957	.002
.805	288.2	.0784	.002
.707	288.2	.0606	.002
.651	288.2	.0506	.002
.565	288.2	.038	.002
.511	288.2	.03016	.002
.418	288.2	.02036	.002
.266	288.2	.00857	.002
.186	288.2	.004556	.003
.074	288.2	.001701	.003
1	298.2	.0704	.002
.906	298.2	.0591	.002
.805	298.2	.0496	.002
.707	298.2	.0389	.002
.651	298.2	.0333	.002
.565	298.2	.02555	.002
.511	298.2	.02092	.002
.418	298.2	.01463	.002
.266	298.2	.00663	.002
.186	298.2	.003667	.003
.074	298.2	.001462	.003
1	308.2	.0454	.002
.906	308.2	.0395	.002
.805	308.2	.0337	.002
.707	308.2	.0266	.002
.651	308.2	.0231	.002
.565	308.2	.01818	.002
.511	308.2	.01519	.002
.418	308.2	.01096	.002
.266	308.2	.00525	.002
.186	308.2	.003002	.003
.074	308.2	.001265	.003
1	318.2	.03123	.002
.906	318.2	.0277	.002
.805	318.2	.024	.002
.707	318.2	.01916	.002
.651	318.2	.01697	.002
.565	318.2	.01358	.002
.511	318.2	.01149	.002
.418	318.2	.0085	.002
.266	318.2	.00429	.002
.186	318.2	.0025	.003
.074	318.2	.001104	.003
