Measured thermophysical data. Solubilities and Thermodynamic Properties of Carbon Dioxide in Some Biobased Solvents
Source: J. Chem. Eng. Data, 2016, 10.1021/acs.jced.6b00399
Compound 1: carbon dioxide, CO2, purity 99.9%
Compound 2: glyceryl triacetate, C9H14O6, purity 98.5%
Compound 3: 2,2-dimethyl-1,3-dioxolane-4-methanol, C6H12O3, purity 98.0%
Compound 4: triethyl citrate, C12H20O7, purity 98.0%
Compound 5: triethyl acetyl citrate, C14H22O8, purity 97.0%
Compound 6: 1,3-dioxolane-4-methanol, C4H8O3, purity 98.0%
Compound 7: 1,3-dioxan-5-ol, C4H8O3, purity 98.0%

System: glyceryl triacetate; phases: Liquid
Fixed: Pressure, kPa = 101.325
Property: Viscosity, Pa*s (Liquid); method: Capillary tube (Ostwald; Ubbelohde) method
Temperature, K	Viscosity, Pa*s	uncertainty
298.15	.01636	

System: glyceryl triacetate; phases: Liquid
Property: Mass density, kg/m3 (Liquid); method: Pycnometric method
Temperature, K	Pressure, kPa	Mass density, kg/m3	uncertainty
293.15	101.3	1158.3	
303.15	101.3	1147.3	
313.15	101.3	1136.6	
323.15	101.3	1125.7	

System: 2,2-dimethyl-1,3-dioxolane-4-methanol; phases: Liquid
Fixed: Pressure, kPa = 101.325
Property: Viscosity, Pa*s (Liquid); method: Capillary tube (Ostwald; Ubbelohde) method
Temperature, K	Viscosity, Pa*s	uncertainty
298.15	.01006	

System: 2,2-dimethyl-1,3-dioxolane-4-methanol; phases: Liquid
Property: Mass density, kg/m3 (Liquid); method: Pycnometric method
Temperature, K	Pressure, kPa	Mass density, kg/m3	uncertainty
293.15	101.3	1067.8	
303.15	101.3	1058.9	
313.15	101.3	1049.9	
323.15	101.3	1040.8	

System: triethyl citrate; phases: Liquid
Fixed: Pressure, kPa = 101.325
Property: Viscosity, Pa*s (Liquid); method: Capillary tube (Ostwald; Ubbelohde) method
Temperature, K	Viscosity, Pa*s	uncertainty
298.15	.0321	

System: triethyl citrate; phases: Liquid
Property: Mass density, kg/m3 (Liquid); method: Pycnometric method
Temperature, K	Pressure, kPa	Mass density, kg/m3	uncertainty
293.15	101.3	1137.1	
303.15	101.3	1131.3	
313.15	101.3	1122.4	
323.15	101.3	1114	

System: triethyl acetyl citrate; phases: Liquid
Fixed: Pressure, kPa = 101.325
Property: Viscosity, Pa*s (Liquid); method: Capillary tube (Ostwald; Ubbelohde) method
Temperature, K	Viscosity, Pa*s	uncertainty
298.15	.04655	

System: triethyl acetyl citrate; phases: Liquid
Property: Mass density, kg/m3 (Liquid); method: Pycnometric method
Temperature, K	Pressure, kPa	Mass density, kg/m3	uncertainty
293.15	101.3	1142.1	
303.15	101.3	1134.1	
313.15	101.3	1124.2	
323.15	101.3	1112.9	

System: glyceryl triacetate + carbon dioxide; phases: Liquid, Gas
Property: Mole fraction of carbon dioxide (Liquid); method: Phase equilibration
Temperature, K	Pressure, kPa	Mole fraction of carbon dioxide	uncertainty
293.15	55.3	.0162	
293.15	99.3	.0285	
293.15	179.9	.0512	
293.15	264.9	.0746	
293.15	361.7	.1001	
293.15	455.1	.1239	
293.15	532.4	.1431	
303.15	62	.0148	
303.15	115.4	.0272	
303.15	195.9	.0458	
303.15	287.4	.0663	
303.15	383.4	.0873	
303.15	481.2	.1083	
303.15	547.9	.1222	
313.15	62.8	.0125	
313.15	123.4	.0241	
313.15	205.7	.0401	
313.15	291	.0564	
313.15	386.3	.074	
313.15	492.2	.0931	
313.15	565.6	.1062	
323.15	70.9	.0116	
323.15	126.4	.0205	
323.15	208	.0337	
323.15	297.5	.048	
323.15	397	.0639	
323.15	504.5	.0801	
323.15	554.2	.0875	

System: 2,2-dimethyl-1,3-dioxolane-4-methanol + carbon dioxide; phases: Liquid, Gas
Property: Mole fraction of carbon dioxide (Liquid); method: Phase equilibration
Temperature, K	Pressure, kPa	Mole fraction of carbon dioxide	uncertainty
293.15	70.9	.0102	
293.15	156	.0229	
293.15	218.1	.032	
293.15	294.5	.0429	
293.15	402.7	.0585	
293.15	499	.072	
293.15	559.2	.0803	
303.15	72.2	.0086	
303.15	120.5	.0142	
303.15	215.7	.0255	
303.15	311.2	.037	
303.15	413.9	.049	
303.15	511.6	.0602	
303.15	573.2	.0672	
313.15	81.4	.0081	
313.15	140.3	.014	
313.15	225.1	.0224	
313.15	320.7	.0319	
313.15	416.4	.0427	
313.15	523.7	.0536	
313.15	584.5	.0597	
323.15	80.9	.0068	
323.15	138	.0117	
323.15	229.1	.0192	
323.15	365.4	.0308	
323.15	430.1	.0362	
323.15	517.6	.0434	
323.15	577.9	.0481	

System: triethyl citrate + carbon dioxide; phases: Liquid, Gas
Property: Mole fraction of carbon dioxide (Liquid); method: Phase equilibration
Temperature, K	Pressure, kPa	Mole fraction of carbon dioxide	uncertainty
293.15	70.7	.0207	
293.15	137.5	.0395	
293.15	203.4	.0574	
293.15	300.5	.0836	
293.15	421.3	.1144	
293.15	510.2	.1364	
293.15	566.9	.1499	
303.15	76.3	.0197	
303.15	131.7	.0336	
303.15	222.2	.0553	
303.15	314.2	.0755	
303.15	451.6	.1042	
303.15	522.1	.1188	
303.15	576.8	.1304	
313.15	71.1	.0149	
313.15	133.2	.0269	
313.15	223.3	.0449	
313.15	348.7	.0688	
313.15	454.1	.0876	
313.15	579.7	.1121	
323.15	51.2	.0107	
323.15	137	.0234	
323.15	272.9	.0459	
323.15	343.5	.0577	
323.15	396.7	.0661	
323.15	456.3	.0755	
323.15	533.6	.0878	

System: triethyl acetyl citrate + carbon dioxide; phases: Liquid, Gas
Property: Mole fraction of carbon dioxide (Liquid); method: Phase equilibration
Temperature, K	Pressure, kPa	Mole fraction of carbon dioxide	uncertainty
293.15	68	.0261	
293.15	121.8	.047	
293.15	205	.0768	
293.15	299.7	.1097	
293.15	430.3	.1516	
293.15	511.1	.1773	
293.15	568.4	.1905	
303.15	69	.0211	
303.15	127.3	.0384	
303.15	207	.0613	
303.15	345.5	.0991	
303.15	419.6	.1224	
303.15	514.6	.1463	
303.15	583.3	.1668	
313.15	83.6	.0219	
313.15	145	.0377	
313.15	207.5	.0532	
313.15	302.6	.0761	
313.15	405	.1001	
313.15	502.8	.1219	
313.15	572.8	.1366	
323.15	74.2	.0174	
323.15	136.6	.0309	
323.15	219.5	.0483	
323.15	359.8	.0769	
323.15	425.4	.0901	
323.15	513.3	.107	
323.15	583.4	.1202	

System: 1,3-dioxan-5-ol + 1,3-dioxolane-4-methanol; phases: Liquid
Fixed: Pressure, kPa = 101.3
Fixed: Mole fraction of 1,3-dioxan-5-ol = .66
Property: Mass density, kg/m3 (Liquid); method: Pycnometric method
Temperature, K	Mass density, kg/m3	uncertainty
293.15	1215.1	
303.15	1206.7	
313.15	1198.2	
323.15	1189.7	

System: 1,3-dioxan-5-ol + 1,3-dioxolane-4-methanol; phases: Liquid
Fixed: Pressure, kPa = 101.3
Fixed: Mole fraction of 1,3-dioxan-5-ol = .66
Property: Viscosity, Pa*s (Liquid); method: Capillary tube (Ostwald; Ubbelohde) method
Temperature, K	Viscosity, Pa*s	uncertainty
298.15	.02005	

System: carbon dioxide + 1,3-dioxan-5-ol + 1,3-dioxolane-4-methanol; phases: Liquid, Gas
Fixed: Solvent: Mole fraction of 1,3-dioxan-5-ol = .66
Property: Mole fraction of carbon dioxide (Liquid); method: Phase equilibration
Temperature, K	Pressure, kPa	Mole fraction of carbon dioxide	uncertainty
293.15	77.8	.0042	
293.15	130	.0071	
293.15	219.7	.012	
293.15	316.1	.0172	
293.15	414.8	.0226	
293.15	515.1	.0282	
293.15	575.7	.0314	
303.15	77.1	.0033	
303.15	132.6	.0058	
303.15	223.6	.0097	
303.15	317.7	.0137	
303.15	419.1	.0181	
303.15	517	.0223	
303.15	578.9	.0248	
313.15	87.2	.003	
313.15	138	.0049	
313.15	230.4	.0081	
313.15	315.4	.0113	
313.15	430.7	.0155	
313.15	515.5	.0186	
313.15	582.8	.021	
323.15	81	.0026	
323.15	138	.0042	
323.15	223.9	.0068	
323.15	336.9	.0103	
323.15	422.8	.0128	
323.15	520.4	.0155	
323.15	575.1	.017	
