Measured thermophysical data. Density, sound speed and viscosity of dihydropyridine derivatives in dimethyl sulfoxide at different temperatures
Source: J. Chem. Eng. Data, 2016, 10.1021/acs.jced.5b00627
Compound 1: 4-(4-hydroxy-3-methoxyphenyl)-6-(2-hydroxyphenyl)-2-oxo-1,2-dihydropyridine-3-carbonitrile, C19H14N2O4
Compound 2: 4-(4-hydroxy-3-methoxyphenyl)-6-(4-hydroxyphenyl)-2-oxo-1,2-dihydropyridine-3-carbonitrile, C19H14N2O4
Compound 3: 6-(4-chlorophenyl)-4-(4-hydroxy-3-methoxyphenyl)-2-oxo-1,2-dihydropyridine-3-carbonitrile, C19H13ClN2O3
Compound 4: 4-(4-hydroxy-3-methoxyphenyl)-2-oxo-6-phenyl-1,2-dihydropyridine-3-carbonitrile, C19H14N2O3
Compound 5: DMSO, C2H6OS, purity 99.5%

System: 4-(4-hydroxy-3-methoxyphenyl)-6-(2-hydroxyphenyl)-2-oxo-1,2-dihydropyridine-3-carbonitrile; phases: Crystal, Liquid, Air at 1 atmosphere
Property: Normal melting temperature, K (Crystal); method: DSC/DTA
Normal melting temperature, K	uncertainty
507.64	.9

System: 4-(4-hydroxy-3-methoxyphenyl)-6-(4-hydroxyphenyl)-2-oxo-1,2-dihydropyridine-3-carbonitrile; phases: Crystal, Liquid, Air at 1 atmosphere
Property: Normal melting temperature, K (Crystal); method: DSC/DTA
Normal melting temperature, K	uncertainty
599.48	.9

System: 6-(4-chlorophenyl)-4-(4-hydroxy-3-methoxyphenyl)-2-oxo-1,2-dihydropyridine-3-carbonitrile; phases: Crystal, Liquid, Air at 1 atmosphere
Property: Normal melting temperature, K (Crystal); method: DSC/DTA
Normal melting temperature, K	uncertainty
601.49	.9

System: 4-(4-hydroxy-3-methoxyphenyl)-2-oxo-6-phenyl-1,2-dihydropyridine-3-carbonitrile; phases: Crystal, Liquid, Air at 1 atmosphere
Property: Normal melting temperature, K (Crystal); method: DSC/DTA
Normal melting temperature, K	uncertainty
616.27	.9

System: DMSO; phases: Liquid
Fixed: Pressure, kPa = 101.325
Property: Mass density, kg/m3 (Liquid); method: Vibrating tube method
Temperature, K	Mass density, kg/m3	uncertainty
298.15	1095.276	
308.15	1085.226	
318.15	1075.189	

System: DMSO; phases: Liquid
Fixed: Pressure, kPa = 101.325
Property: Speed of sound, m/s (Liquid); method: Sing-around technique in a fixed-path interferometer
Temperature, K	Speed of sound, m/s	uncertainty
298.15	1484.8	
308.15	1450.9	
318.15	1417.4	

System: DMSO; phases: Liquid
Property: Viscosity, Pa*s (Liquid); method: Capillary tube (Ostwald; Ubbelohde) method
Temperature, K	Pressure, kPa	Viscosity, Pa*s	uncertainty
298.15	100	.001814	
308.15	100	.001472	
318.15	100	.001176	

System: DMSO + 4-(4-hydroxy-3-methoxyphenyl)-6-(2-hydroxyphenyl)-2-oxo-1,2-dihydropyridine-3-carbonitrile; phases: Liquid
Fixed: Pressure, kPa = 100
Property: Mass density, kg/m3 (Liquid); method: Vibrating tube method
Temperature, K	Molality, mol/kg of 4-(4-hydroxy-3-methoxyphenyl)-6-(2-hydroxyphenyl)-2-oxo-1,2-dihydropyridine-3-carbonitrile	Mass density, kg/m3	uncertainty
298.15	0	1095.276	
298.15	.01	1096.094	
298.15	.02	1097.163	
298.15	.04	1098.321	
298.15	.06	1099.498	
298.15	.08	1100.684	
298.15	.1	1101.827	
308.15	0	1085.226	
308.15	.01	1086.409	
308.15	.02	1087.158	
308.15	.04	1088.467	
308.15	.06	1089.657	
308.15	.08	1090.647	
308.15	.1	1091.964	
318.15	0	1075.189	
318.15	.01	1076.399	
318.15	.02	1077.178	
318.15	.04	1078.468	
318.15	.06	1079.563	
318.15	.08	1080.708	
318.15	.1	1081.898	

System: DMSO + 4-(4-hydroxy-3-methoxyphenyl)-6-(2-hydroxyphenyl)-2-oxo-1,2-dihydropyridine-3-carbonitrile; phases: Liquid
Fixed: Pressure, kPa = 100
Fixed: Frequency, MHz = 3
Property: Speed of sound, m/s (Liquid); method: Sing-around technique in a fixed-path interferometer
Temperature, K	Molality, mol/kg of 4-(4-hydroxy-3-methoxyphenyl)-6-(2-hydroxyphenyl)-2-oxo-1,2-dihydropyridine-3-carbonitrile	Speed of sound, m/s	uncertainty
298.15	0	1484.8	
308.15	0	1450.9	
318.15	0	1417.4	
298.15	.01	1486	
308.15	.01	1452.1	
318.15	.01	1418.6	
308.15	.02	1453.1	
298.15	.02	1487	
318.15	.02	1419.5	
308.15	.04	1454.2	
298.15	.04	1488.6	
318.15	.04	1420.8	
298.15	.06	1490.2	
308.15	.06	1455.2	
318.15	.06	1422	
298.15	.08	1491.7	
308.15	.08	1456.3	
318.15	.08	1423	
298.15	.1	1493.5	
308.15	.1	1457	
318.15	.1	1424.3	

System: DMSO + 4-(4-hydroxy-3-methoxyphenyl)-6-(2-hydroxyphenyl)-2-oxo-1,2-dihydropyridine-3-carbonitrile; phases: Liquid
Fixed: Pressure, kPa = 100
Property: Viscosity, Pa*s (Liquid); method: Capillary tube (Ostwald; Ubbelohde) method
Temperature, K	Molality, mol/kg of 4-(4-hydroxy-3-methoxyphenyl)-6-(2-hydroxyphenyl)-2-oxo-1,2-dihydropyridine-3-carbonitrile	Viscosity, Pa*s	uncertainty
298.15	0	.001814	
308.15	0	.001472	
318.15	0	.001176	
298.15	.01	.00188	
308.15	.01	.001535	
318.15	.01	.001247	
308.15	.02	.00157	
298.15	.02	.001958	
318.15	.02	.001287	
308.15	.04	.001608	
298.15	.04	.002037	
318.15	.04	.001327	
298.15	.06	.002124	
308.15	.06	.001645	
318.15	.06	.001359	
298.15	.08	.002201	
308.15	.08	.001685	
318.15	.08	.001399	
298.15	.1	.002301	
308.15	.1	.001716	
318.15	.1	.001458	

System: DMSO + 4-(4-hydroxy-3-methoxyphenyl)-6-(4-hydroxyphenyl)-2-oxo-1,2-dihydropyridine-3-carbonitrile; phases: Liquid
Fixed: Pressure, kPa = 100
Property: Mass density, kg/m3 (Liquid); method: Vibrating tube method
Temperature, K	Molality, mol/kg of 4-(4-hydroxy-3-methoxyphenyl)-6-(4-hydroxyphenyl)-2-oxo-1,2-dihydropyridine-3-carbonitrile	Mass density, kg/m3	uncertainty
298.15	0	1095.276	
308.15	0	1085.226	
318.15	0	1075.189	
298.15	.01	1096.117	
308.15	.01	1086.437	
318.15	.01	1076.452	
308.15	.02	1087.192	
298.15	.02	1097.171	
318.15	.02	1077.219	
308.15	.04	1088.482	
298.15	.04	1098.339	
318.15	.04	1078.491	
298.15	.06	1099.521	
308.15	.06	1089.693	
318.15	.06	1079.592	
298.15	.08	1100.693	
308.15	.08	1090.673	
318.15	.08	1080.741	
298.15	.1	1101.858	
308.15	.1	1091.981	
318.15	.1	1081.944	

System: DMSO + 4-(4-hydroxy-3-methoxyphenyl)-6-(4-hydroxyphenyl)-2-oxo-1,2-dihydropyridine-3-carbonitrile; phases: Liquid
Fixed: Pressure, kPa = 100
Fixed: Frequency, MHz = 3
Property: Speed of sound, m/s (Liquid); method: Sing-around technique in a fixed-path interferometer
Temperature, K	Molality, mol/kg of 4-(4-hydroxy-3-methoxyphenyl)-6-(4-hydroxyphenyl)-2-oxo-1,2-dihydropyridine-3-carbonitrile	Speed of sound, m/s	uncertainty
298.15	0	1484.8	
308.15	0	1450.9	
318.15	0	1417.4	
298.15	.01	1486.3	
308.15	.01	1452.4	
318.15	.01	1419	
308.15	.02	1453.2	
298.15	.02	1487.3	
318.15	.02	1420.1	
308.15	.04	1454.5	
298.15	.04	1488.9	
318.15	.04	1421.5	
298.15	.06	1490.6	
308.15	.06	1455.6	
318.15	.06	1422.7	
298.15	.08	1492	
308.15	.08	1456.5	
318.15	.08	1424	
298.15	.1	1493.7	
308.15	.1	1457.4	
318.15	.1	1425.1	

System: DMSO + 4-(4-hydroxy-3-methoxyphenyl)-6-(4-hydroxyphenyl)-2-oxo-1,2-dihydropyridine-3-carbonitrile; phases: Liquid
Fixed: Pressure, kPa = 100
Property: Viscosity, Pa*s (Liquid); method: Capillary tube (Ostwald; Ubbelohde) method
Temperature, K	Molality, mol/kg of 4-(4-hydroxy-3-methoxyphenyl)-6-(4-hydroxyphenyl)-2-oxo-1,2-dihydropyridine-3-carbonitrile	Viscosity, Pa*s	uncertainty
298.15	0	.001814	
298.15	.01	.001885	
298.15	.02	.001963	
298.15	.04	.00206	
298.15	.06	.002144	
298.15	.08	.002243	
298.15	.1	.002323	
308.15	0	.001472	
308.15	.01	.001544	
308.15	.02	.001576	
308.15	.04	.001623	
308.15	.06	.001663	
308.15	.08	.001704	
308.15	.1	.001729	
318.15	0	.001176	
318.15	.01	.001265	
318.15	.02	.001312	
318.15	.04	.001364	
318.15	.06	.001392	
318.15	.08	.001421	
318.15	.1	.001462	

System: DMSO + 6-(4-chlorophenyl)-4-(4-hydroxy-3-methoxyphenyl)-2-oxo-1,2-dihydropyridine-3-carbonitrile; phases: Liquid
Fixed: Pressure, kPa = 100
Property: Mass density, kg/m3 (Liquid); method: Vibrating tube method
Temperature, K	Molality, mol/kg of 6-(4-chlorophenyl)-4-(4-hydroxy-3-methoxyphenyl)-2-oxo-1,2-dihydropyridine-3-carbonitrile	Mass density, kg/m3	uncertainty
298.15	.01	1096.416	
308.15	.01	1086.431	
318.15	.01	1076.426	
298.15	.02	1097.301	
308.15	.02	1087.473	
318.15	.02	1077.194	
308.15	.04	1088.831	
298.15	.04	1098.533	
318.15	.04	1078.516	
308.15	.06	1089.981	
298.15	.06	1099.792	
318.15	.06	1079.891	
298.15	.08	1100.991	
308.15	.08	1091.084	
318.15	.08	1080.994	
308.15	.1	1092.317	
298.15	.1	1102.291	
318.15	.1	1082.353	
298.15	0	1095.276	
308.15	0	1085.226	
318.15	0	1075.189	

System: DMSO + 6-(4-chlorophenyl)-4-(4-hydroxy-3-methoxyphenyl)-2-oxo-1,2-dihydropyridine-3-carbonitrile; phases: Liquid
Fixed: Pressure, kPa = 100
Fixed: Frequency, MHz = 3
Property: Speed of sound, m/s (Liquid); method: Sing-around technique in a fixed-path interferometer
Temperature, K	Molality, mol/kg of 6-(4-chlorophenyl)-4-(4-hydroxy-3-methoxyphenyl)-2-oxo-1,2-dihydropyridine-3-carbonitrile	Speed of sound, m/s	uncertainty
298.15	.01	1486.1	
298.15	.02	1487.2	
298.15	.04	1488.4	
298.15	.06	1489.6	
298.15	.08	1490.5	
298.15	.1	1491.1	
308.15	.01	1452.4	
308.15	.02	1453.4	
308.15	.04	1454.7	
308.15	.06	1455.9	
308.15	.08	1456.7	
308.15	.1	1457.6	
318.15	.01	1418.9	
318.15	.02	1419.9	
318.15	.04	1421	
318.15	.06	1422.2	
318.15	.08	1423.2	
318.15	.1	1424.5	
298.15	0	1484.8	
308.15	0	1450.9	
318.15	0	1417.4	

System: DMSO + 6-(4-chlorophenyl)-4-(4-hydroxy-3-methoxyphenyl)-2-oxo-1,2-dihydropyridine-3-carbonitrile; phases: Liquid
Fixed: Pressure, kPa = 100
Property: Viscosity, Pa*s (Liquid); method: Capillary tube (Ostwald; Ubbelohde) method
Temperature, K	Molality, mol/kg of 6-(4-chlorophenyl)-4-(4-hydroxy-3-methoxyphenyl)-2-oxo-1,2-dihydropyridine-3-carbonitrile	Viscosity, Pa*s	uncertainty
298.15	.01	.001954	
298.15	.02	.001993	
298.15	.04	.002037	
298.15	.06	.002081	
298.15	.08	.002129	
298.15	.1	.002172	
308.15	.01	.001545	
308.15	.02	.001571	
308.15	.04	.001614	
308.15	.06	.001655	
308.15	.08	.001699	
308.15	.1	.00173	
318.15	.01	.001264	
318.15	.02	.001294	
318.15	.04	.001324	
318.15	.06	.001355	
318.15	.08	.001391	
318.15	.1	.001427	
298.15	0	.001814	
308.15	0	.001472	
318.15	0	.001176	

System: DMSO + 4-(4-hydroxy-3-methoxyphenyl)-2-oxo-6-phenyl-1,2-dihydropyridine-3-carbonitrile; phases: Liquid
Fixed: Pressure, kPa = 100
Property: Mass density, kg/m3 (Liquid); method: Vibrating tube method
Temperature, K	Molality, mol/kg of 4-(4-hydroxy-3-methoxyphenyl)-2-oxo-6-phenyl-1,2-dihydropyridine-3-carbonitrile	Mass density, kg/m3	uncertainty
298.15	.01	1096.018	
298.15	.02	1096.688	
298.15	.04	1097.594	
298.15	.06	1098.593	
298.15	.08	1099.695	
298.15	.1	1100.841	
308.15	.01	1086.019	
308.15	.02	1086.782	
308.15	.04	1087.931	
308.15	.06	1088.738	
308.15	.08	1089.593	
308.15	.1	1090.639	
318.15	.01	1076.083	
318.15	.02	1076.695	
318.15	.04	1077.846	
318.15	.06	1078.839	
318.15	.08	1079.747	
318.15	.1	1080.752	
298.15	0	1095.276	
308.15	0	1085.226	
318.15	0	1075.189	

System: DMSO + 4-(4-hydroxy-3-methoxyphenyl)-2-oxo-6-phenyl-1,2-dihydropyridine-3-carbonitrile; phases: Liquid
Fixed: Pressure, kPa = 100
Fixed: Frequency, MHz = 3
Property: Speed of sound, m/s (Liquid); method: Sing-around technique in a fixed-path interferometer
Temperature, K	Molality, mol/kg of 4-(4-hydroxy-3-methoxyphenyl)-2-oxo-6-phenyl-1,2-dihydropyridine-3-carbonitrile	Speed of sound, m/s	uncertainty
298.15	.01	1485.9	
298.15	.02	1486.8	
298.15	.04	1488	
298.15	.06	1489.1	
298.15	.08	1490.3	
298.15	.1	1491	
308.15	.01	1451.9	
308.15	.02	1452.8	
308.15	.04	1453.9	
308.15	.06	1455	
308.15	.08	1456	
308.15	.1	1456.8	
318.15	.01	1418.1	
318.15	.02	1419.1	
318.15	.04	1420.5	
318.15	.06	1421.6	
318.15	.08	1422.6	
318.15	.1	1423.7	
298.15	0	1484.8	
308.15	0	1450.9	
318.15	0	1417.4	

System: DMSO + 4-(4-hydroxy-3-methoxyphenyl)-2-oxo-6-phenyl-1,2-dihydropyridine-3-carbonitrile; phases: Liquid
Fixed: Pressure, kPa = 100
Property: Viscosity, Pa*s (Liquid); method: Capillary tube (Ostwald; Ubbelohde) method
Temperature, K	Molality, mol/kg of 4-(4-hydroxy-3-methoxyphenyl)-2-oxo-6-phenyl-1,2-dihydropyridine-3-carbonitrile	Viscosity, Pa*s	uncertainty
298.15	.01	.001876	
298.15	.02	.001916	
298.15	.04	.001976	
298.15	.06	.00202	
298.15	.08	.002063	
298.15	.1	.002107	
308.15	.01	.001525	
308.15	.02	.001562	
308.15	.04	.001603	
308.15	.06	.001638	
308.15	.08	.001668	
308.15	.1	.001697	
318.15	.01	.001242	
318.15	.02	.001276	
318.15	.04	.001319	
318.15	.06	.001345	
318.15	.08	.00137	
318.15	.1	.00141	
298.15	0	.001814	
308.15	0	.001472	
318.15	0	.001176	
