Measured thermophysical data. Experimental Study on the Solubility of Carbon Dioxide in Systems Containing Ethane-1,2-diol + Water + Salt (Sodium Chloride or Calcium Carbonate)
Source: J. Chem. Eng. Data, 2017, 10.1021/acs.jced.6b00381
Compound 1: water, H2O, purity 99.9%
Compound 2: carbon dioxide, CO2, purity 99.9%
Compound 3: sodium chloride, ClNa, purity 99.9%
Compound 4: calcium carbonate, CCaO3, purity 99.9%
Compound 5: ethylene glycol, C2H6O2, purity 99.5%

System: carbon dioxide + sodium chloride + water; phases: Liquid, Gas
Property: Mole fraction of carbon dioxide (Liquid); method: Phase equilibration
Solvent: Molality, mol/kg of sodium chloride	Temperature, K	Pressure, kPa	Mole fraction of carbon dioxide	uncertainty
.6	298	117.2	.000243	
.6	298	215.2	.000677	
.6	298	315.2	.001193	
.6	308	121.2	.000082	
.6	308	212.4	.000415	
.6	308	309.8	.000794	
.6	308	407.7	.00116	
.6	323	142.5	.000069	
.6	323	248.2	.000363	
.6	323	345.9	.000569	
.6	323	424.4	.000789	
.6	333	133.6	.000053	
.6	333	225.6	.000327	
.6	333	322.6	.000488	
1.1	298	123	.000201	
1.1	298	222.7	.000658	
1.1	298	319.6	.001089	
1.1	308	114.6	.000069	
1.1	308	208.4	.000368	
1.1	308	310.8	.000713	
1.1	308	412.3	.001049	
1.1	323	131.1	.000056	
1.1	323	221	.000288	
1.1	323	304.8	.000503	
1.1	323	403.3	.000675	
1.1	333	127.2	.000043	
1.1	333	224.5	.000209	
1.1	333	322.5	.000466	
1.1	333	419.2	.000621	

System: carbon dioxide + calcium carbonate + water; phases: Liquid, Gas
Property: Mole fraction of carbon dioxide (Liquid); method: Phase equilibration
Solvent: Molality, mol/kg of calcium carbonate	Temperature, K	Pressure, kPa	Mole fraction of carbon dioxide	uncertainty
.00012	298	147.2	.000864	
.00012	298	238.5	.001497	
.00012	298	322	.001931	
.00012	298	421.7	.002655	
.00012	308	187.7	.000802	
.00012	308	258.4	.00114	
.00012	308	330.3	.001507	
.00012	308	424.8	.00209	
.00012	323	161.5	.000471	
.00012	323	241.2	.000709	
.00012	323	326.2	.001074	
.00012	323	418.2	.001439	
.00012	333	165.7	.000201	
.00012	333	257.7	.000601	
.00012	333	333.4	.000853	
.00012	333	432.3	.001248	

System: ethylene glycol + carbon dioxide + sodium chloride; phases: Liquid, Gas
Property: Mole fraction of carbon dioxide (Liquid); method: Phase equilibration
Solvent: Molality, mol/kg of sodium chloride	Temperature, K	Pressure, kPa	Mole fraction of carbon dioxide	uncertainty
.6	298	114.9	.000246	
.6	298	198.9	.001768	
.6	298	300.4	.00359	
.6	298	393.6	.005351	
.6	308	113.5	.000256	
.6	308	214.2	.001645	
.6	308	306	.002933	
.6	308	409	.004173	
.6	323	121.4	.000149	
.6	323	217.7	.001357	
.6	323	316.2	.00246	
.6	333	126.9	.000112	
.6	333	225.6	.001262	
.6	333	313.3	.002167	
1.1	298	116.1	.000227	
1.1	298	214.3	.001697	
1.1	298	306.9	.003137	
1.1	298	406.5	.004507	
1.1	308	116.2	.000242	
1.1	308	208.7	.001415	
1.1	308	308.3	.002448	
1.1	308	407.2	.003637	
1.1	323	127.2	.000117	
1.1	323	215.1	.001292	
1.1	323	316.9	.002161	
1.1	323	414.8	.003314	
1.1	333	119.2	.000098	
1.1	333	209.9	.001084	
1.1	333	316	.001854	

System: ethylene glycol + carbon dioxide + calcium carbonate; phases: Liquid, Gas
Property: Mole fraction of carbon dioxide (Liquid); method: Phase equilibration
Solvent: Molality, mol/kg of calcium carbonate	Temperature, K	Pressure, kPa	Mole fraction of carbon dioxide	uncertainty
.00012	298	123.4	.002334	
.00012	298	219.7	.004349	
.00012	298	315.1	.00647	
.00012	298	421.4	.008685	
.00012	308	130.3	.002066	
.00012	308	218.3	.003598	
.00012	308	316.9	.005317	
.00012	308	419.5	.007241	
.00012	323	137.4	.001536	
.00012	323	235	.003095	
.00012	323	323.9	.004387	
.00012	323	423.5	.005955	
.00012	333	142.3	.001334	
.00012	333	219.2	.002208	
.00012	333	319.5	.003541	
.00012	333	426.4	.004934	
