Measured thermophysical data. Experimental Density of Ionic Liquids and Thermodynamic Modeling with Group Contribution Equation of State Based on the Lattice Fluid Theory
Source: J. Chem. Eng. Data, 2016, 10.1021/acs.jced.5b00592
Compound 1: 1-butyl-3-methylimidazolium bis((trifluoromethyl)sulfonyl)amide, C10H15F6N3O4S2
Compound 2: 1-octyl-3-methylimidazolium bis(trifluoromethylsulfonyl)imide, C14H23F6N3O4S2
Compound 3: 1-dodecyl-3-methyl-1H-imidazolium bis(trifluoromethylsulfonyl)amide, C18H31F6N3O4S2
Compound 4: 1-octyl-3-methylimidazolium trifluoromethanesulfonate, C13H23F3N2O3S
Compound 5: 1-butylpyridinium 1,1,1-trifluoro-N-[(trifluoromethyl)sulfonyl]methanesulfonamide, C11H14F6N2O4S2
Compound 6: N-methyl-2-hydroxyethylammonium acetate, C5H13NO3
Compound 7: 2-hydroxy-N-methylethanaminium propanoate, C6H15NO3
Compound 8: N-methyl-2-hydroxyethylammonium butanoate, C7H17NO3

System: 1-butyl-3-methylimidazolium bis((trifluoromethyl)sulfonyl)amide; phases: Liquid
Fixed: Pressure, kPa = 101.325
Property: Mass density, kg/m3 (Liquid); method: Vibrating tube method
Temperature, K	Mass density, kg/m3	uncertainty
288.15	1443.95	2
293.15	1439.13	2
298.15	1434.32	2
303.15	1429.51	2
308.15	1424.73	2
313.15	1419.98	2
318.15	1415.23	2
323.15	1410.5	2
328.15	1405.78	2
333.15	1401.09	2
338.15	1396.41	2
343.15	1391.74	2
348.15	1387.07	2
353.15	1382.43	2

System: 1-octyl-3-methylimidazolium bis(trifluoromethylsulfonyl)imide; phases: Liquid
Fixed: Pressure, kPa = 101.325
Property: Mass density, kg/m3 (Liquid); method: Vibrating tube method
Temperature, K	Mass density, kg/m3	uncertainty
288.15	1329.44	2
293.15	1324.99	2
298.15	1320.54	2
303.15	1316.08	2
308.15	1311.64	2
313.15	1307.23	2
318.15	1302.82	2
323.15	1298.45	2
328.15	1294.08	2
333.15	1289.73	2
338.15	1285.38	2
343.15	1281.05	2
348.15	1276.72	2
353.15	1272.41	2

System: 1-dodecyl-3-methyl-1H-imidazolium bis(trifluoromethylsulfonyl)amide; phases: Liquid
Fixed: Pressure, kPa = 101.325
Property: Mass density, kg/m3 (Liquid); method: Vibrating tube method
Temperature, K	Mass density, kg/m3	uncertainty
288.15	1238.73	2
293.15	1234.45	2
298.15	1230.2	2
303.15	1225.93	2
308.15	1221.7	2
313.15	1217.48	2
318.15	1213.28	2
323.15	1209.09	2
328.15	1204.95	2
333.15	1200.8	2
338.15	1196.67	2
343.15	1192.54	2
348.15	1188.43	2
353.15	1184.33	2

System: 1-octyl-3-methylimidazolium trifluoromethanesulfonate; phases: Liquid
Fixed: Pressure, kPa = 101.325
Property: Mass density, kg/m3 (Liquid); method: Vibrating tube method
Temperature, K	Mass density, kg/m3	uncertainty
288.15	1200.83	2
293.15	1197.12	2
298.15	1193.39	2
303.15	1189.64	2
308.15	1185.9	2
313.15	1182.17	2
318.15	1178.44	2
323.15	1174.72	2
328.15	1171.02	2
333.15	1167.34	2
338.15	1163.66	2
343.15	1159.99	2
348.15	1156.33	2
353.15	1152.68	2

System: 1-butylpyridinium 1,1,1-trifluoro-N-[(trifluoromethyl)sulfonyl]methanesulfonamide; phases: Liquid
Fixed: Pressure, kPa = 101.325
Property: Mass density, kg/m3 (Liquid); method: Vibrating tube method
Temperature, K	Mass density, kg/m3	uncertainty
288.15	1457.74	2
293.15	1452.97	2
298.15	1448.23	2
303.15	1443.6	2
308.15	1438.91	2
313.15	1434.25	2
318.15	1429.62	2
323.15	1425	2
328.15	1420.41	2
333.15	1415.82	2
338.15	1411.23	2
343.15	1406.74	2
348.15	1402.15	2
353.15	1397.61	2

System: N-methyl-2-hydroxyethylammonium acetate; phases: Liquid
Fixed: Pressure, kPa = 101.325
Property: Mass density, kg/m3 (Liquid); method: Vibrating tube method
Temperature, K	Mass density, kg/m3	uncertainty
293.15	1099.6	2
303.15	1093	2
313.15	1086.4	2
323.15	1079.7	2
333.15	1072.9	2
343.15	1066.1	2
353.15	1059.1	2

System: 2-hydroxy-N-methylethanaminium propanoate; phases: Liquid
Fixed: Pressure, kPa = 101.325
Property: Mass density, kg/m3 (Liquid); method: Vibrating tube method
Temperature, K	Mass density, kg/m3	uncertainty
293.15	1068.13	2
303.15	1061.16	2
313.15	1054.19	2
323.15	1047.12	2
333.15	1039.96	2
343.15	1032.71	2
353.15	1025.34	2

System: N-methyl-2-hydroxyethylammonium butanoate; phases: Liquid
Fixed: Pressure, kPa = 101.325
Property: Mass density, kg/m3 (Liquid); method: Vibrating tube method
Temperature, K	Mass density, kg/m3	uncertainty
293.15	1038.03	2
303.15	1031.04	2
313.15	1024.03	2
323.15	1016.9	2
333.15	1009.68	2
343.15	1002.38	2
353.15	994.97	2
