Measured thermophysical data. Thermophysical properties of glycols and glymes
Source: J. Chem. Eng. Data, 2015, 10.1021/acs.jced.5b00662
Compound 1: ethylene glycol, C2H6O2, purity 99.5%
Compound 2: diethylene glycol, C4H10O3, purity 99%
Compound 3: triethylene glycol, C6H14O4, purity 99%
Compound 4: tetraethylene glycol, C8H18O5, purity 99%
Compound 5: ethylene glycol monoethyl ether, C4H10O2, purity 99%
Compound 6: diethylene glycol, methyl ether, C5H12O3, purity 99%
Compound 7: diethylene glycol, dimethyl ether, C6H14O3, purity 99.5%
Compound 8: diethylene glycol, ethyl ether, C6H14O3, purity 98%
Compound 9: diethylene glycol diethyl ether, C8H18O3, purity 98%
Compound 10: triethylene glycol, dimethyl ether, C8H18O4, purity 99%
Compound 11: tetraethylene glycol, dimethyl ether, C10H22O5, purity 99%
Compound 12: water, H2O, purity 99.9%

System: ethylene glycol; phases: Liquid
Fixed: Pressure, kPa = 101.325
Property: Mass density, kg/m3 (Liquid); method: Vibrating tube method
Temperature, K	Mass density, kg/m3	uncertainty
288.15	1118.2	.5
293.15	1114.6	.5
298.15	1111.1	.5
303.15	1107.6	.5
308.15	1104.1	.5
313.15	1100.5	.5
318.15	1097	.5
323.15	1093.4	.5
328.15	1089.8	.5
333.15	1086.2	.5
338.15	1082.6	.5
343.15	1078.9	.5
348.15	1075.2	.5
353.15	1071.5	.5
358.15	1067.8	.5
363.15	1064	.5
368.15	1060.2	.5
373.15	1056.4	.5

System: ethylene glycol; phases: Liquid
Fixed: Pressure, kPa = 101.325
Property: Viscosity, Pa*s (Liquid); method: Concentric cylinders viscometry
Temperature, K	Viscosity, Pa*s	uncertainty
288.15	.026801	.00053602
293.15	.021197	.00042394
298.15	.017134	.00034268
303.15	.013998	.00027996
308.15	.011577	.00023154
313.15	.009627	.00019254
318.15	.008182	.00016364
323.15	.00698	.0001396
328.15	.006007	.00012014
333.15	.005197	.00010394
338.15	.004555	.0000911
343.15	.00401	.0000802
348.15	.003552	.00007104
353.15	.003161	.00006322
358.15	.002835	.0000567
363.15	.002552	.00005104
368.15	.002306	.00004612
373.15	.002102	.00004204

System: ethylene glycol; phases: Liquid
Fixed: Pressure, kPa = 101.325
Property: Refractive index (Na D-line) (Liquid); method: Standard Abbe refractometry
Temperature, K	Refractive index (Na D-line)	uncertainty
283.15	1.43461	.00025
288.15	1.43312	.00025
293.15	1.43167	.00025
298.15	1.43	.00025
303.15	1.42855	.00025
313.15	1.42562	.00025
323.15	1.4226	.00025
333.15	1.41955	.00025
343.15	1.41655	.00025
353.15	1.41351	.00025

System: ethylene glycol; phases: Liquid
Fixed: Pressure, kPa = 101.325
Property: Speed of sound, m/s (Liquid); method: Sing-around technique in a fixed-path interferometer
Temperature, K	Speed of sound, m/s	uncertainty
283.15	1689.9	.5
288.15	1678.3	.5
293.15	1666.5	.5
298.15	1654.7	.5
303.15	1642.9	.5
308.15	1631.1	.5
313.15	1619.3	.5
323.15	1595.5	.5
333.15	1571.5	.5
343.15	1547.4	.5

System: diethylene glycol; phases: Liquid
Fixed: Pressure, kPa = 101.325
Property: Mass density, kg/m3 (Liquid); method: Vibrating tube method
Temperature, K	Mass density, kg/m3	uncertainty
288.15	1121.4	1
293.15	1117.8	1
298.15	1114.2	1
303.15	1110.6	1
308.15	1107	1
313.15	1103.4	1
318.15	1099.7	1
323.15	1096.1	1
328.15	1092.5	1
333.15	1088.8	1
338.15	1085.2	1
343.15	1081.5	1
348.15	1077.8	1
353.15	1074.1	1
358.15	1070.3	1
363.15	1066.6	1
368.15	1062.8	1
373.15	1059	1

System: diethylene glycol; phases: Liquid
Fixed: Pressure, kPa = 101.325
Property: Viscosity, Pa*s (Liquid); method: Concentric cylinders viscometry
Temperature, K	Viscosity, Pa*s	uncertainty
288.15	.047142	.00094284
293.15	.03602	.0007204
298.15	.028233	.00056466
303.15	.022478	.00044956
308.15	.01818	.0003636
313.15	.014852	.00029704
318.15	.0123993	.000247986
323.15	.010419	.00020838
328.15	.008849	.00017698
333.15	.00757	.0001514
338.15	.006561	.00013122
343.15	.005718	.00011436
348.15	.005019	.00010038
353.15	.004429	.00008858
358.15	.003944	.00007888
363.15	.003527	.00007054
368.15	.003169	.00006338
373.15	.002871	.00005742

System: diethylene glycol; phases: Liquid
Fixed: Pressure, kPa = 101.325
Property: Refractive index (Na D-line) (Liquid); method: Standard Abbe refractometry
Temperature, K	Refractive index (Na D-line)	uncertainty
283.15	1.45019	.00025
288.15	1.4486	.00025
293.15	1.44702	.00025
298.15	1.4454	.00025
303.15	1.44379	.00025
313.15	1.44068	.00025
323.15	1.43745	.00025
333.15	1.43424	.00025
343.15	1.43105	.00025
353.15	1.42786	.00025

System: diethylene glycol; phases: Liquid
Fixed: Pressure, kPa = 101.325
Property: Speed of sound, m/s (Liquid); method: Sing-around technique in a fixed-path interferometer
Temperature, K	Speed of sound, m/s	uncertainty
283.15	1615.9	.5
288.15	1603.6	.5
293.15	1591.4	.5
298.15	1579.2	.5
303.15	1566.9	.5
308.15	1554.9	.5
313.15	1542.8	.5
323.15	1518.8	.5
333.15	1494.5	.5
343.15	1470.1	.5

System: triethylene glycol; phases: Liquid
Fixed: Pressure, kPa = 101.325
Property: Mass density, kg/m3 (Liquid); method: Vibrating tube method
Temperature, K	Mass density, kg/m3	uncertainty
288.15	1128.6	1
293.15	1124.6	1
298.15	1120.7	1
303.15	1116.8	1
308.15	1112.9	1
313.15	1109	1
318.15	1105.1	1
323.15	1101.2	1
328.15	1097.3	1
333.15	1093.4	1
338.15	1089.5	1
343.15	1085.6	1
348.15	1081.7	1
353.15	1077.8	1
358.15	1073.8	1
363.15	1069.8	1
368.15	1065.9	1
373.15	1061.9	1

System: triethylene glycol; phases: Liquid
Fixed: Pressure, kPa = 101.325
Property: Mass density, kg/m3 (Liquid); method: Vibrating tube method
Temperature, K	Mass density, kg/m3	uncertainty
283.15	1131.3	1
288.15	1127.4	1
293.15	1123.5	1
298.15	1119.7	1
303.15	1115.8	1
308.15	1111.9	1
313.15	1108	1
323.15	1100.2	1
333.15	1092.4	1
343.15	1084.5	1

System: triethylene glycol; phases: Liquid
Fixed: Pressure, kPa = 101.325
Property: Viscosity, Pa*s (Liquid); method: Concentric cylinders viscometry
Temperature, K	Viscosity, Pa*s	uncertainty
288.15	.06357	.0012714
293.15	.04805	.000961
298.15	.03727	.0007454
303.15	.02941	.0005882
308.15	.023599	.00047198
313.15	.019158	.00038316
318.15	.015863	.00031726
323.15	.013252	.00026504
328.15	.011192	.00022384
333.15	.009528	.00019056
338.15	.008221	.00016442
343.15	.007137	.00014274
348.15	.006243	.00012486
353.15	.005487	.00010974
358.15	.004874	.00009748
363.15	.004346	.00008692
368.15	.003896	.00007792
373.15	.003515	.0000703

System: triethylene glycol; phases: Liquid
Fixed: Pressure, kPa = 101.325
Property: Refractive index (Na D-line) (Liquid); method: Standard Abbe refractometry
Temperature, K	Refractive index (Na D-line)	uncertainty
283.15	1.45944	.00025
288.15	1.45774	.00025
293.15	1.4561	.00025
298.15	1.45447	.00025
303.15	1.45283	.00025
313.15	1.44955	.00025
323.15	1.44626	.00025
333.15	1.44293	.00025
343.15	1.43956	.00025
353.15	1.43622	.00025

System: triethylene glycol; phases: Liquid
Fixed: Pressure, kPa = 101.325
Property: Speed of sound, m/s (Liquid); method: Sing-around technique in a fixed-path interferometer
Temperature, K	Speed of sound, m/s	uncertainty
283.15	1658.7	.5
288.15	1642.8	.5
293.15	1627.2	.5
298.15	1611.5	.5
303.15	1596.2	.5
308.15	1581.1	.5
313.15	1566	.5
323.15	1536.3	.5
333.15	1506.8	.5
343.15	1477.5	.5

System: tetraethylene glycol; phases: Liquid
Fixed: Pressure, kPa = 101.325
Property: Mass density, kg/m3 (Liquid); method: Vibrating tube method
Temperature, K	Mass density, kg/m3	uncertainty
288.15	1131.2	1
293.15	1127.1	1
298.15	1123.1	1
303.15	1119.1	1
308.15	1115.1	1
313.15	1111.1	1
318.15	1107.2	1
323.15	1103.2	1
328.15	1099.2	1
333.15	1095.3	1
338.15	1091.3	1
343.15	1087.3	1
348.15	1083.4	1
353.15	1079.4	1
358.15	1075.3	1
363.15	1071.3	1
368.15	1067.3	1
373.15	1063.2	1

System: tetraethylene glycol; phases: Liquid
Fixed: Pressure, kPa = 101.325
Property: Mass density, kg/m3 (Liquid); method: Vibrating tube method
Temperature, K	Mass density, kg/m3	uncertainty
283.15	1132.1	1
288.15	1128.1	1
293.15	1124.1	1
298.15	1120.1	1
303.15	1116.1	1
308.15	1112.2	1
313.15	1108.2	1
323.15	1100.2	1
333.15	1092.2	1
343.15	1084.3	1

System: tetraethylene glycol; phases: Liquid
Fixed: Pressure, kPa = 101.325
Property: Viscosity, Pa*s (Liquid); method: Concentric cylinders viscometry
Temperature, K	Viscosity, Pa*s	uncertainty
288.15	.07971	.0015942
293.15	.059678	.00119356
298.15	.045862	.00091724
303.15	.035923	.00071846
308.15	.028464	.00056928
313.15	.023158	.00046316
318.15	.01908	.0003816
323.15	.015887	.00031774
328.15	.01338	.0002676
333.15	.011367	.00022734
338.15	.009784	.00019568
343.15	.00848	.0001696
348.15	.007405	.0001481
353.15	.006491	.00012982
358.15	.005762	.00011524
363.15	.005127	.00010254
368.15	.004585	.0000917
373.15	.004116	.00008232

System: tetraethylene glycol; phases: Liquid
Fixed: Pressure, kPa = 101.325
Property: Refractive index (Na D-line) (Liquid); method: Standard Abbe refractometry
Temperature, K	Refractive index (Na D-line)	uncertainty
283.15	1.46333	.00025
288.15	1.46169	.00025
293.15	1.45999	.00025
298.15	1.45827	.00025
303.15	1.45661	.00025
313.15	1.45319	.00025
323.15	1.44976	.00025
333.15	1.44633	.00025
343.15	1.44288	.00025
353.15	1.43947	.00025

System: tetraethylene glycol; phases: Liquid
Fixed: Pressure, kPa = 101.325
Property: Speed of sound, m/s (Liquid); method: Sing-around technique in a fixed-path interferometer
Temperature, K	Speed of sound, m/s	uncertainty
283.15	1647.6	.5
288.15	1630.6	.5
293.15	1614.1	.5
298.15	1597.9	.5
303.15	1582	.5
308.15	1566.3	.5
313.15	1550.6	.5
323.15	1519.8	.5
333.15	1489.4	.5
343.15	1459.4	.5

System: ethylene glycol monoethyl ether; phases: Liquid
Fixed: Pressure, kPa = 101.325
Property: Mass density, kg/m3 (Liquid); method: Vibrating tube method
Temperature, K	Mass density, kg/m3	uncertainty
288.15	936.8	1
293.15	932.3	1
298.15	927.7	1
303.15	923.1	1
308.15	918.5	1
313.15	913.9	1
318.15	909.3	1
323.15	904.6	1
328.15	899.9	1
333.15	895.1	1
338.15	890.4	1
343.15	885.5	1
348.15	880.7	1
353.15	875.8	1
358.15	871	1
363.15	866.1	1
368.15	861.2	1
373.15	856.3	1

System: ethylene glycol monoethyl ether; phases: Liquid
Fixed: Pressure, kPa = 101.325
Property: Viscosity, Pa*s (Liquid); method: Concentric cylinders viscometry
Temperature, K	Viscosity, Pa*s	uncertainty
288.15	.002314	.00004628
293.15	.002066	.00004132
298.15	.001845	.0000369
303.15	.001661	.00003322
308.15	.001503	.00003006
313.15	.001365	.0000273
318.15	.001247	.00002494
323.15	.001143	.00002286
328.15	.001051	.00002102
333.15	.000962	.00001924
338.15	.000895	.0000179
343.15	.000829	.00001658
348.15	.00077	.0000154
353.15	.000725	.0000145
358.15	.000666	.00001332
363.15	.000623	.00001246
368.15	.000584	.00001168
373.15	.000518	.00001036

System: ethylene glycol monoethyl ether; phases: Liquid
Fixed: Pressure, kPa = 101.325
Property: Refractive index (Na D-line) (Liquid); method: Standard Abbe refractometry
Temperature, K	Refractive index (Na D-line)	uncertainty
283.15	1.4149	.00025
288.15	1.4125	.00025
293.15	1.41024	.00025
298.15	1.40803	.00025
303.15	1.40613	.00025
313.15	1.4018	.00025
323.15	1.39691	.00025
333.15	1.39271	.00025
343.15	1.38849	.00025
353.15	1.3838	.00025

System: ethylene glycol monoethyl ether; phases: Liquid
Fixed: Pressure, kPa = 101.325
Property: Speed of sound, m/s (Liquid); method: Sing-around technique in a fixed-path interferometer
Temperature, K	Speed of sound, m/s	uncertainty
283.15	1360.6	.5
288.15	1342	.5
293.15	1323.9	.5
298.15	1305.7	.5
303.15	1286.7	.5
308.15	1268.6	.5
313.15	1250.2	.5
323.15	1213.8	.5
333.15	1178.5	.5
343.15	1143.7	.5

System: diethylene glycol, methyl ether; phases: Liquid
Fixed: Pressure, kPa = 101.325
Property: Mass density, kg/m3 (Liquid); method: Vibrating tube method
Temperature, K	Mass density, kg/m3	uncertainty
288.15	1025.3	1
293.15	1021	1
298.15	1016.3	1
303.15	1011.9	1
308.15	1007.4	1
313.15	1003	1
318.15	998.8	1
323.15	994.3	1
333.15	985.3	1
338.15	981	1
343.15	989.8	1
348.15	971.8	1
353.15	967.2	1
358.15	962.5	1
363.15	957.9	1
368.15	953.1	1
373.15	948.5	1

System: diethylene glycol, methyl ether; phases: Liquid
Fixed: Pressure, kPa = 101.325
Property: Viscosity, Pa*s (Liquid); method: Concentric cylinders viscometry
Temperature, K	Viscosity, Pa*s	uncertainty
288.15	.004514	.00009028
293.15	.003963	.00007926
298.15	.003403	.00006806
303.15	.003	.00006
308.15	.002666	.00005332
313.15	.002373	.00004746
318.15	.002148	.00004296
323.15	.001946	.00003892
328.15	.001772	.00003544
333.15	.001606	.00003212
338.15	.001489	.00002978
343.15	.001372	.00002744
348.15	.001268	.00002536
353.15	.001155	.0000231
358.15	.001094	.00002188
363.15	.001019	.00002038
368.15	.00095	.000019
373.15	.000877	.00001754

System: diethylene glycol, methyl ether; phases: Liquid
Fixed: Pressure, kPa = 101.325
Property: Refractive index (Na D-line) (Liquid); method: Standard Abbe refractometry
Temperature, K	Refractive index (Na D-line)	uncertainty
283.15	1.42914	.00025
288.15	1.42723	.00025
293.15	1.42498	.00025
298.15	1.4239	.00025
303.15	1.42174	.00025
313.15	1.41733	.00025
323.15	1.41368	.00025
333.15	1.4101	.00025
343.15	1.40635	.00025
353.15	1.40241	.00025

System: diethylene glycol, methyl ether; phases: Liquid
Fixed: Pressure, kPa = 101.325
Property: Speed of sound, m/s (Liquid); method: Sing-around technique in a fixed-path interferometer
Temperature, K	Speed of sound, m/s	uncertainty
283.15	1467.7	.5
288.15	1450.2	.5
293.15	1432.7	.5
298.15	1415.4	.5
303.15	1398.1	.5
308.15	1380.9	.5
313.15	1363.9	.5
323.15	1329.7	.5
333.15	1296.1	.5
343.15	1262.7	.5

System: diethylene glycol, dimethyl ether; phases: Liquid
Fixed: Pressure, kPa = 101.325
Property: Mass density, kg/m3 (Liquid); method: Vibrating tube method
Temperature, K	Mass density, kg/m3	uncertainty
288.15	950.2	.5
293.15	945.2	.5
298.15	940.2	.5
303.15	935.2	.5
308.15	930.2	.5
313.15	925.2	.5
318.15	920.2	.5
323.15	915.2	.5
328.15	910.1	.5
333.15	905	.5
338.15	899.9	.5
343.15	894.8	.5
348.15	889.7	.5
353.15	884.6	.5
358.15	879.4	.5
363.15	874.2	.5
368.15	869	.5
373.15	863.8	.5

System: diethylene glycol, dimethyl ether; phases: Liquid
Fixed: Pressure, kPa = 101.325
Property: Mass density, kg/m3 (Liquid); method: Vibrating tube method
Temperature, K	Mass density, kg/m3	uncertainty
283.15	953.7	.5
288.15	948.7	.5
293.15	943.8	.5
298.15	938.8	.5
303.15	933.8	.5
308.15	928.8	.5
313.15	923.8	.5
323.15	913.7	.5
333.15	903.6	.5
343.15	893.4	.5

System: diethylene glycol, dimethyl ether; phases: Liquid
Fixed: Pressure, kPa = 101.325
Property: Viscosity, Pa*s (Liquid); method: Concentric cylinders viscometry
Temperature, K	Viscosity, Pa*s	uncertainty
288.15	.001161	.00002322
293.15	.001081	.00002162
298.15	.001011	.00002022
303.15	.000942	.00001884
308.15	.000879	.00001758
313.15	.000825	.0000165
318.15	.000767	.00001534
323.15	.000718	.00001436
328.15	.000674	.00001348
333.15	.000633	.00001266
338.15	.000599	.00001198
343.15	.000566	.00001132
348.15	.000537	.00001074
353.15	.000505	.0000101
358.15	.000486	.00000972
363.15	.000464	.00000928
368.15	.000444	.00000888
373.15	.000441	.00000882

System: diethylene glycol, dimethyl ether; phases: Liquid
Fixed: Pressure, kPa = 101.325
Property: Refractive index (Na D-line) (Liquid); method: Standard Abbe refractometry
Temperature, K	Refractive index (Na D-line)	uncertainty
283.15	1.41249	.00025
288.15	1.4102	.00025
293.15	1.40802	.00025
298.15	1.40579	.00025
303.15	1.40359	.00025
313.15	1.39921	.00025
323.15	1.3949	.00025
333.15	1.3905	.00025
343.15	1.38623	.00025
353.15	1.38178	.00025

System: diethylene glycol, dimethyl ether; phases: Liquid
Fixed: Pressure, kPa = 101.325
Property: Speed of sound, m/s (Liquid); method: Sing-around technique in a fixed-path interferometer
Temperature, K	Speed of sound, m/s	uncertainty
283.15	1340.7	.5
288.15	1320	.5
293.15	1299.9	.5
298.15	1280	.5
303.15	1260.1	.5
308.15	1240.3	.5
313.15	1220.6	.5
323.15	1181.7	.5
333.15	1143.4	.5
343.15	1105.8	.5

System: diethylene glycol, ethyl ether; phases: Liquid
Fixed: Pressure, kPa = 101.325
Property: Mass density, kg/m3 (Liquid); method: Vibrating tube method
Temperature, K	Mass density, kg/m3	uncertainty
288.15	993.9	2
293.15	989.4	2
298.15	984.9	2
303.15	980.4	2
308.15	976	2
313.15	971.5	2
318.15	967	2
323.15	962.5	2
328.15	958.1	2
333.15	953.5	2
338.15	949	2
343.15	944.4	2
348.15	939.9	2
353.15	935.3	2
358.15	930.7	2
363.15	926.1	2
368.15	921.4	2
373.15	916.8	2

System: diethylene glycol, ethyl ether; phases: Liquid
Fixed: Pressure, kPa = 101.325
Property: Viscosity, Pa*s (Liquid); method: Concentric cylinders viscometry
Temperature, K	Viscosity, Pa*s	uncertainty
288.15	.005157	.00010314
293.15	.004466	.00008932
298.15	.003811	.00007622
303.15	.003328	.00006656
308.15	.002933	.00005866
313.15	.002592	.00005184
318.15	.002331	.00004662
323.15	.002099	.00004198
328.15	.001901	.00003802
333.15	.001718	.00003436
338.15	.001583	.00003166
343.15	.001456	.00002912
348.15	.001343	.00002686
353.15	.001225	.0000245
358.15	.001153	.00002306
363.15	.001072	.00002144
368.15	.000997	.00001994
373.15	.000921	.00001842

System: diethylene glycol, ethyl ether; phases: Liquid
Fixed: Pressure, kPa = 101.325
Property: Refractive index (Na D-line) (Liquid); method: Standard Abbe refractometry
Temperature, K	Refractive index (Na D-line)	uncertainty
283.15	1.4311	.00025
288.15	1.42916	.00025
293.15	1.42711	.00025
298.15	1.42501	.00025
303.15	1.4229	.00025
313.15	1.41887	.00025
323.15	1.41483	.00025
333.15	1.41082	.00025
343.15	1.40683	.00025
353.15	1.40276	.00025

System: diethylene glycol, ethyl ether; phases: Liquid
Fixed: Pressure, kPa = 101.325
Property: Speed of sound, m/s (Liquid); method: Sing-around technique in a fixed-path interferometer
Temperature, K	Speed of sound, m/s	uncertainty
283.15	1428.9	.5
288.15	1410.5	.5
293.15	1392.6	.5
298.15	1374.6	.5
303.15	1356.8	.5
308.15	1339	.5
313.15	1321.7	.5
323.15	1286.9	.5
333.15	1252.6	.5
343.15	1218.9	.5

System: diethylene glycol diethyl ether; phases: Liquid
Fixed: Pressure, kPa = 101.325
Property: Mass density, kg/m3 (Liquid); method: Vibrating tube method
Temperature, K	Mass density, kg/m3	uncertainty
288.15	914.4	2
293.15	909.6	2
298.15	904.7	2
303.15	899.8	2
308.15	895	2
313.15	890.1	2
318.15	885.3	2
323.15	880.4	2
328.15	875.6	2
333.15	870.7	2
338.15	865.9	2
343.15	861	2
348.15	856.1	2
353.15	851.2	2
358.15	846.3	2
363.15	841.4	2
368.15	836.5	2
373.15	831.6	2

System: diethylene glycol diethyl ether; phases: Liquid
Fixed: Pressure, kPa = 101.325
Property: Viscosity, Pa*s (Liquid); method: Concentric cylinders viscometry
Temperature, K	Viscosity, Pa*s	uncertainty
288.15	.001483	.00002966
293.15	.001353	.00002706
298.15	.001254	.00002508
303.15	.001156	.00002312
308.15	.001067	.00002134
313.15	.0009874	.000019748
318.15	.000916	.00001832
323.15	.000852	.00001704
328.15	.000795	.0000159
333.15	.000744	.00001488
338.15	.000699	.00001398
343.15	.000658	.00001316
348.15	.000621	.00001242
353.15	.000587	.00001174
358.15	.000556	.00001112
363.15	.000526	.00001052
368.15	.000498	.00000996
373.15	.00047	.0000094

System: diethylene glycol diethyl ether; phases: Liquid
Fixed: Pressure, kPa = 101.325
Property: Refractive index (Na D-line) (Liquid); method: Standard Abbe refractometry
Temperature, K	Refractive index (Na D-line)	uncertainty
283.15	1.41658	.00025
288.15	1.41428	.00025
293.15	1.41202	.00025
298.15	1.40978	.00025
303.15	1.40749	.00025
313.15	1.40296	.00025
323.15	1.39838	.00025
333.15	1.39382	.00025
343.15	1.38929	.00025
353.15	1.38474	.00025

System: diethylene glycol diethyl ether; phases: Liquid
Fixed: Pressure, kPa = 101.325
Property: Speed of sound, m/s (Liquid); method: Sing-around technique in a fixed-path interferometer
Temperature, K	Speed of sound, m/s	uncertainty
283.15	1303.4	.5
288.15	1283.2	.5
293.15	1263.1	.5
298.15	1243.3	.5
303.15	1223.4	.5
308.15	1203.9	.5
313.15	1184.1	.5
323.15	1145.1	.5
333.15	1107.9	.5
343.15	1071.6	.5

System: triethylene glycol, dimethyl ether; phases: Liquid
Fixed: Pressure, kPa = 101.325
Property: Mass density, kg/m3 (Liquid); method: Vibrating tube method
Temperature, K	Mass density, kg/m3	uncertainty
288.15	990.8	1
293.15	986	1
298.15	981.5	1
303.15	976.7	1
308.15	971.9	1
313.15	967.2	1
318.15	962.4	1
323.15	957.7	1
328.15	952.9	1
333.15	948.1	1
338.15	943.3	1
343.15	938.6	1
348.15	933.8	1
353.15	929	1
358.15	924.2	1
363.15	919.4	1
368.15	914.5	1
373.15	909.7	1

System: triethylene glycol, dimethyl ether; phases: Liquid
Fixed: Pressure, kPa = 101.325
Property: Mass density, kg/m3 (Liquid); method: Vibrating tube method
Temperature, K	Mass density, kg/m3	uncertainty
283.15	994.1	1
288.15	989.4	1
293.15	984.6	1
298.15	979.9	1
303.15	975.1	1
308.15	970.4	1
313.15	965.6	1
323.15	956.1	1
333.15	946.5	1
343.15	936.9	1

System: triethylene glycol, dimethyl ether; phases: Liquid
Fixed: Pressure, kPa = 101.325
Property: Viscosity, Pa*s (Liquid); method: Concentric cylinders viscometry
Temperature, K	Viscosity, Pa*s	uncertainty
288.15	.002414	.00004828
293.15	.002162	.00004324
298.15	.001956	.00003912
303.15	.001777	.00003554
308.15	.001623	.00003246
313.15	.001439	.00002878
318.15	.001373	.00002746
323.15	.00127	.0000254
328.15	.001179	.00002358
333.15	.001064	.00002128
338.15	.001026	.00002052
343.15	.000962	.00001924
348.15	.000903	.00001806
353.15	.000814	.00001628
358.15	.000801	.00001602
363.15	.000756	.00001512
368.15	.000715	.0000143
373.15	.00065	.000013

System: triethylene glycol, dimethyl ether; phases: Liquid
Fixed: Pressure, kPa = 101.325
Property: Refractive index (Na D-line) (Liquid); method: Standard Abbe refractometry
Temperature, K	Refractive index (Na D-line)	uncertainty
283.15	1.42712	.00025
288.15	1.42498	.00025
293.15	1.42284	.00025
298.15	1.42071	.00025
303.15	1.41862	.00025
313.15	1.41434	.00025
323.15	1.41005	.00025
333.15	1.40579	.00025
343.15	1.40153	.00025
353.15	1.39723	.00025

System: triethylene glycol, dimethyl ether; phases: Liquid
Fixed: Pressure, kPa = 101.325
Property: Speed of sound, m/s (Liquid); method: Sing-around technique in a fixed-path interferometer
Temperature, K	Speed of sound, m/s	uncertainty
283.15	1401.4	.5
288.15	1381.4	.5
293.15	1361.6	.5
298.15	1342.1	.5
303.15	1322.8	.5
308.15	1303.6	.5
313.15	1284.4	.5
323.15	1246.9	.5
333.15	1209.9	.5
343.15	1174	.5

System: tetraethylene glycol, dimethyl ether; phases: Liquid
Fixed: Pressure, kPa = 101.325
Property: Mass density, kg/m3 (Liquid); method: Vibrating tube method
Temperature, K	Mass density, kg/m3	uncertainty
288.15	1017	1
293.15	1012.3	1
298.15	1007.6	1
303.15	1003.1	1
308.15	998.8	1
313.15	994.1	1
318.15	989.5	1
323.15	984.9	1
328.15	980.2	1
333.15	975.6	1
338.15	971	1
343.15	966.5	1
348.15	961.9	1
353.15	957.3	1
358.15	952.7	1
363.15	948.1	1
368.15	943.5	1
373.15	938.9	1

System: tetraethylene glycol, dimethyl ether; phases: Liquid
Fixed: Pressure, kPa = 101.325
Property: Mass density, kg/m3 (Liquid); method: Vibrating tube method
Temperature, K	Mass density, kg/m3	uncertainty
283.15	1020.7	1
288.15	1016.1	1
293.15	1011.5	1
298.15	1006.8	1
303.15	1002.2	1
308.15	997.6	1
313.15	993	1
323.15	983.7	1
333.15	974.5	1
343.15	965.3	1

System: tetraethylene glycol, dimethyl ether; phases: Liquid
Fixed: Pressure, kPa = 101.325
Property: Viscosity, Pa*s (Liquid); method: Concentric cylinders viscometry
Temperature, K	Viscosity, Pa*s	uncertainty
288.15	.004337	.00008674
293.15	.003846	.00007692
308.15	.00266	.0000532
313.15	.002389	.00004778
318.15	.002183	.00004366
333.15	.001677	.00003354
338.15	.001566	.00003132
343.15	.001456	.00002912
358.15	.001188	.00002376
363.15	.001115	.0000223
368.15	.001047	.00002094
298.15	.003335	.0000667
303.15	.002967	.00005934
323.15	.001995	.0000399
328.15	.001832	.00003664
348.15	.001358	.00002716
353.15	.00125	.000025
373.15	.000978	.00001956

System: tetraethylene glycol, dimethyl ether; phases: Liquid
Fixed: Pressure, kPa = 101.325
Property: Refractive index (Na D-line) (Liquid); method: Standard Abbe refractometry
Temperature, K	Refractive index (Na D-line)	uncertainty
283.15	1.43599	.00025
288.15	1.43414	.00025
293.15	1.43196	.00025
298.15	1.42992	.00025
303.15	1.42777	.00025
313.15	1.42373	.00025
323.15	1.41973	.00025
333.15	1.41578	.00025
343.15	1.41174	.00025
353.15	1.40773	.00025

System: tetraethylene glycol, dimethyl ether; phases: Liquid
Fixed: Pressure, kPa = 101.325
Property: Speed of sound, m/s (Liquid); method: Sing-around technique in a fixed-path interferometer
Temperature, K	Speed of sound, m/s	uncertainty
283.15	1439.7	.5
288.15	1420.3	.5
293.15	1401	.5
298.15	1382	.5
303.15	1363.1	.5
308.15	1344.3	.5
313.15	1325.6	.5
323.15	1289.1	.5
333.15	1253.4	.5
343.15	1218.5	.5

System: diethylene glycol + water; phases: Liquid
Fixed: Pressure, kPa = 100
Property: Mass density, kg/m3 (Liquid); method: Vibrating tube method
Temperature, K	Mole fraction of diethylene glycol	Mass density, kg/m3	uncertainty
283.15	.907	1123.135	1
288.15	.907	1119.575	1
293.15	.907	1116.018	1
298.15	.907	1112.454	1
303.15	.907	1108.881	1
308.15	.907	1105.295	1
313.15	.907	1101.695	1
323.15	.907	1094.447	1
333.15	.907	1087.119	1
343.15	.907	1079.71	1
283.15	.9589	1123.266	1
288.15	.9589	1119.71	1
293.15	.9589	1116.151	1
298.15	.9589	1112.585	1
303.15	.9589	1109.016	1
308.15	.9589	1105.431	1
313.15	.9589	1101.834	1
323.15	.9589	1094.595	1
333.15	.9589	1087.278	1
343.15	.9589	1079.883	1
283.15	.9698	1123.273	1
288.15	.9698	1119.716	1
293.15	.9698	1116.159	1
298.15	.9698	1112.594	1
303.15	.9698	1109.025	1
308.15	.9698	1105.442	1
313.15	.9698	1101.843	1
323.15	.9698	1094.603	1
333.15	.9698	1087.288	1
343.15	.9698	1079.897	1
283.15	.99	1123.325	1
288.15	.99	1119.767	1
293.15	.99	1116.211	1
298.15	.99	1112.649	1
303.15	.99	1109.077	1
308.15	.99	1105.496	1
313.15	.99	1101.9	1
323.15	.99	1094.667	1
333.15	.99	1087.359	1
343.15	.99	1079.973	1
283.15	.9901	1123.327	1
288.15	.9901	1119.771	1
293.15	.9901	1116.213	1
298.15	.9901	1112.651	1
303.15	.9901	1109.081	1
308.15	.9901	1105.498	1
313.15	.9901	1101.903	1
323.15	.9901	1094.668	1
333.15	.9901	1087.356	1
343.15	.9901	1079.969	1

System: diethylene glycol + water; phases: Liquid
Fixed: Pressure, kPa = 100
Property: Speed of sound, m/s (Liquid); method: Sing-around technique in a fixed-path interferometer
Temperature, K	Mole fraction of diethylene glycol	Speed of sound, m/s	uncertainty
283.15	.907	1620.3	.5
288.15	.907	1608	.5
293.15	.907	1595.9	.5
298.15	.907	1583.8	.5
303.15	.907	1571.7	.5
308.15	.907	1559.6	.5
313.15	.907	1547.5	.5
323.15	.907	1523.4	.5
333.15	.907	1499	.5
343.15	.907	1474.6	.5
283.15	.9589	1617.8	.5
288.15	.9589	1605.5	.5
293.15	.9589	1593.3	.5
298.15	.9589	1581	.5
303.15	.9589	1569	.5
308.15	.9589	1557	.5
313.15	.9589	1545	.5
323.15	.9589	1520.9	.5
333.15	.9589	1496.6	.5
343.15	.9589	1472.2	.5
283.15	.9698	1617.4	.5
288.15	.9698	1605.2	.5
293.15	.9698	1593	.5
298.15	.9698	1580.8	.5
303.15	.9698	1568.6	.5
308.15	.9698	1556.6	.5
313.15	.9698	1544.6	.5
323.15	.9698	1520.5	.5
333.15	.9698	1496.2	.5
343.15	.9698	1471.8	.5
283.15	.99	1616.4	.5
288.15	.99	1604.1	.5
293.15	.99	1591.9	.5
298.15	.99	1579.6	.5
303.15	.99	1567.5	.5
308.15	.99	1555.4	.5
313.15	.99	1543.4	.5
323.15	.99	1519.3	.5
333.15	.99	1495.1	.5
343.15	.99	1470.8	.5
283.15	.9901	1616.5	.5
288.15	.9901	1604.2	.5
293.15	.9901	1592	.5
298.15	.9901	1579.8	.5
303.15	.9901	1567.4	.5
308.15	.9901	1555.4	.5
313.15	.9901	1543.3	.5
323.15	.9901	1519.2	.5
333.15	.9901	1494.9	.5
343.15	.9901	1470.5	.5

System: diethylene glycol, ethyl ether + water; phases: Liquid
Fixed: Pressure, kPa = 100
Property: Mass density, kg/m3 (Liquid); method: Vibrating tube method
Temperature, K	Mole fraction of diethylene glycol, ethyl ether	Mass density, kg/m3	uncertainty
283.15	.9674	997.734	1
288.15	.9674	993.31	1
293.15	.9674	988.877	1
298.15	.9674	984.434	1
303.15	.9674	979.981	1
308.15	.9674	975.514	1
313.15	.9674	971.029	1
323.15	.9674	962.022	1
333.15	.9674	952.945	1
343.15	.9674	943.775	1
283.15	.974	997.587	1
288.15	.974	993.16	1
293.15	.974	988.725	1
298.15	.974	984.285	1
303.15	.974	979.829	1
308.15	.974	975.363	1
313.15	.974	970.88	1
323.15	.974	961.873	1
333.15	.974	952.794	1
343.15	.974	943.629	1
283.15	.9826	997.387	1
288.15	.9826	992.963	1
293.15	.9826	988.528	1
298.15	.9826	984.088	1
303.15	.9826	979.636	1
308.15	.9826	975.164	1
313.15	.9826	970.684	1
323.15	.9826	961.673	1
333.15	.9826	952.591	1
343.15	.9826	943.425	1
283.15	.9887	997.339	1
288.15	.9887	992.908	1
293.15	.9887	988.475	1
298.15	.9887	984.028	1
303.15	.9887	979.572	1
308.15	.9887	975.102	1
313.15	.9887	970.62	1
323.15	.9887	961.608	1
333.15	.9887	952.534	1
343.15	.9887	943.381	1
283.15	.9899	997.227	1
288.15	.9899	992.793	1
293.15	.9899	988.357	1
298.15	.9899	983.913	1
303.15	.9899	979.459	1
308.15	.9899	974.991	1
313.15	.9899	970.511	1
323.15	.9899	961.499	1
333.15	.9899	952.422	1
343.15	.9899	943.264	1

System: diethylene glycol, ethyl ether + water; phases: Liquid
Fixed: Pressure, kPa = 100
Property: Speed of sound, m/s (Liquid); method: Sing-around technique in a fixed-path interferometer
Temperature, K	Mole fraction of diethylene glycol, ethyl ether	Speed of sound, m/s	uncertainty
283.15	.9674	1430.8	.5
288.15	.9674	1412.8	.5
293.15	.9674	1394.9	.5
298.15	.9674	1377.3	.5
303.15	.9674	1359.6	.5
308.15	.9674	1342	.5
313.15	.9674	1324.4	.5
323.15	.9674	1289.8	.5
333.15	.9674	1255.6	.5
343.15	.9674	1221.7	.5
283.15	.974	1430.3	.5
288.15	.974	1412.2	.5
293.15	.974	1394.3	.5
298.15	.974	1376.5	.5
303.15	.974	1358.8	.5
308.15	.974	1341.3	.5
313.15	.974	1323.9	.5
323.15	.974	1289.3	.5
333.15	.974	1255	.5
343.15	.974	1221.1	.5
283.15	.9826	1429.4	.5
288.15	.9826	1411.4	.5
293.15	.9826	1393.5	.5
298.15	.9826	1375.7	.5
303.15	.9826	1358	.5
308.15	.9826	1340.5	.5
313.15	.9826	1323.1	.5
323.15	.9826	1288.5	.5
333.15	.9826	1254.2	.5
343.15	.9826	1220.3	.5
283.15	.9887	1429.6	.5
288.15	.9887	1411.4	.5
293.15	.9887	1393.6	.5
298.15	.9887	1375.7	.5
303.15	.9887	1357.9	.5
308.15	.9887	1340.1	.5
313.15	.9887	1322.7	.5
323.15	.9887	1287.9	.5
333.15	.9887	1253.7	.5
343.15	.9887	1220	.5
283.15	.9899	1429.6	.5
288.15	.9899	1411.2	.5
293.15	.9899	1393.3	.5
298.15	.9899	1375.4	.5
303.15	.9899	1357.5	.5
308.15	.9899	1340	.5
313.15	.9899	1322.5	.5
323.15	.9899	1287.8	.5
333.15	.9899	1253.5	.5
343.15	.9899	1219.7	.5

System: ethylene glycol monoethyl ether + water; phases: Liquid
Fixed: Pressure, kPa = 100
Property: Mass density, kg/m3 (Liquid); method: Vibrating tube method
Temperature, K	Mole fraction of ethylene glycol monoethyl ether	Mass density, kg/m3	uncertainty
283.15	.9426	943.675	1
288.15	.9426	939.208	1
293.15	.9426	934.713	1
298.15	.9426	930.19	1
303.15	.9426	925.638	1
308.15	.9426	921.054	1
313.15	.9426	916.435	1
323.15	.9426	907.087	1
333.15	.9426	897.58	1
343.15	.9426	887.911	1
283.15	.949	943.444	1
288.15	.949	938.975	1
293.15	.949	934.479	1
298.15	.949	929.953	1
303.15	.949	925.399	1
308.15	.949	920.815	1
313.15	.949	916.194	1
323.15	.949	906.839	1
333.15	.949	897.329	1
343.15	.949	887.628	1
283.15	.9549	943.15	1
288.15	.9549	938.68	1
293.15	.9549	934.183	1
298.15	.9549	929.657	1
303.15	.9549	925.102	1
308.15	.9549	920.517	1
313.15	.9549	915.892	1
323.15	.9549	906.54	1
333.15	.9549	897.036	1
343.15	.9549	887.337	1
283.15	.9567	943.112	1
288.15	.9567	938.638	1
293.15	.9567	934.14	1
298.15	.9567	929.614	1
303.15	.9567	925.055	1
308.15	.9567	920.467	1
313.15	.9567	915.843	1
323.15	.9567	906.493	1
333.15	.9567	896.985	1
343.15	.9567	887.297	1
283.15	.967	942.599	1
288.15	.967	938.12	1
293.15	.967	933.622	1
298.15	.967	929.099	1
303.15	.967	924.54	1
308.15	.967	919.951	1
313.15	.967	915.328	1
323.15	.967	905.969	1
333.15	.967	896.461	1
343.15	.967	886.774	1

System: ethylene glycol monoethyl ether + water; phases: Liquid
Fixed: Pressure, kPa = 100
Property: Speed of sound, m/s (Liquid); method: Sing-around technique in a fixed-path interferometer
Temperature, K	Mole fraction of ethylene glycol monoethyl ether	Speed of sound, m/s	uncertainty
283.15	.9426	1364	.5
288.15	.9426	1346.2	.5
293.15	.9426	1328.3	.5
298.15	.9426	1310.5	.5
303.15	.9426	1292.8	.5
308.15	.9426	1275	.5
313.15	.9426	1257.4	.5
323.15	.9426	1222.2	.5
333.15	.9426	1187.1	.5
343.15	.9426	1152	.5
283.15	.949	1365.8	.5
288.15	.949	1347.5	.5
293.15	.949	1329.2	.5
298.15	.949	1311.1	.5
303.15	.949	1293	.5
308.15	.949	1275.3	.5
313.15	.949	1257.6	.5
323.15	.949	1222.2	.5
333.15	.949	1186.9	.5
343.15	.949	1151.1	.5
283.15	.9549	1366.2	.5
288.15	.9549	1347.9	.5
293.15	.9549	1329.6	.5
298.15	.9549	1311.3	.5
303.15	.9549	1293.2	.5
308.15	.9549	1275.2	.5
313.15	.9549	1256.6	.5
323.15	.9549	1220.3	.5
333.15	.9549	1185.1	.5
343.15	.9549	1150.1	.5
283.15	.9567	1366.8	.5
288.15	.9567	1348.4	.5
293.15	.9567	1330.2	.5
298.15	.9567	1311.8	.5
303.15	.9567	1292.6	.5
308.15	.9567	1274.3	.5
313.15	.9567	1256.1	.5
323.15	.9567	1220.2	.5
333.15	.9567	1184.9	.5
343.15	.9567	1149.8	.5
283.15	.967	1361.6	.5
288.15	.967	1343.5	.5
293.15	.967	1325.6	.5
298.15	.967	1307.8	.5
303.15	.967	1289.8	.5
308.15	.967	1272	.5
313.15	.967	1254.3	.5
323.15	.967	1218.9	.5
333.15	.967	1183.7	.5
343.15	.967	1148.6	.5

System: diethylene glycol, methyl ether + water; phases: Liquid
Fixed: Pressure, kPa = 100
Property: Mass density, kg/m3 (Liquid); method: Vibrating tube method
Temperature, K	Mole fraction of diethylene glycol, methyl ether	Mass density, kg/m3	uncertainty
283.15	.9483	1029.621	1
288.15	.9483	1025.244	1
293.15	.9483	1020.866	1
298.15	.9483	1016.47	1
303.15	.9483	1012.059	1
308.15	.9483	1007.635	1
313.15	.9483	1003.193	1
323.15	.9483	994.251	1
333.15	.9483	985.224	1
343.15	.9483	976.029	1
283.15	.9601	1029.502	1
288.15	.9601	1025.129	1
293.15	.9601	1020.744	1
298.15	.9601	1016.344	1
303.15	.9601	1011.934	1
308.15	.9601	1007.505	1
313.15	.9601	1003.063	1
323.15	.9601	994.119	1
333.15	.9601	985.089	1
343.15	.9601	975.972	1
283.15	.9674	1029.287	1
288.15	.9674	1024.903	1
293.15	.9674	1020.52	1
298.15	.9674	1016.121	1
303.15	.9674	1011.709	1
308.15	.9674	1007.28	1
313.15	.9674	1002.834	1
323.15	.9674	993.893	1
333.15	.9674	984.87	1
343.15	.9674	975.754	1
283.15	.9893	1028.835	1
288.15	.9893	1024.451	1
293.15	.9893	1020.059	1
298.15	.9893	1015.651	1
303.15	.9893	1011.235	1
308.15	.9893	1006.801	1
313.15	.9893	1002.352	1
323.15	.9893	993.397	1
333.15	.9893	984.365	1
343.15	.9893	975.241	1
283.15	.9932	1028.734	1
288.15	.9932	1024.35	1
293.15	.9932	1019.951	1
298.15	.9932	1015.546	1
303.15	.9932	1011.124	1
308.15	.9932	1006.688	1
313.15	.9932	1002.24	1
323.15	.9932	993.288	1
333.15	.9932	984.259	1
343.15	.9932	975.146	1

System: diethylene glycol, methyl ether + water; phases: Liquid
Fixed: Pressure, kPa = 100
Property: Speed of sound, m/s (Liquid); method: Sing-around technique in a fixed-path interferometer
Temperature, K	Mole fraction of diethylene glycol, methyl ether	Speed of sound, m/s	uncertainty
283.15	.9373	1473.4	.5
288.15	.9373	1455.8	.5
293.15	.9373	1438.7	.5
298.15	.9373	1421.6	.5
303.15	.9373	1404.5	.5
308.15	.9373	1387.3	.5
313.15	.9373	1370.3	.5
323.15	.9373	1336.5	.5
333.15	.9373	1302.9	.5
343.15	.9373	1269.6	.5
283.15	.9483	1472.6	.5
288.15	.9483	1455.1	.5
293.15	.9483	1438	.5
298.15	.9483	1420.8	.5
303.15	.9483	1403.6	.5
308.15	.9483	1386.5	.5
313.15	.9483	1369.4	.5
323.15	.9483	1335.6	.5
333.15	.9483	1302.1	.5
343.15	.9483	1268.8	.5
283.15	.9601	1471.2	.5
288.15	.9601	1453.9	.5
293.15	.9601	1436.7	.5
298.15	.9601	1419.5	.5
303.15	.9601	1402.3	.5
308.15	.9601	1385.1	.5
313.15	.9601	1368.1	.5
323.15	.9601	1334.3	.5
333.15	.9601	1300.7	.5
343.15	.9601	1267.4	.5
283.15	.9674	1470.8	.5
288.15	.9674	1453.3	.5
293.15	.9674	1436.1	.5
298.15	.9674	1418.9	.5
303.15	.9674	1401.7	.5
308.15	.9674	1384.5	.5
313.15	.9674	1367.5	.5
323.15	.9674	1333.7	.5
333.15	.9674	1300.2	.5
343.15	.9674	1266.9	.5
283.15	.9893	1468.4	.5
288.15	.9893	1451	.5
293.15	.9893	1433.7	.5
298.15	.9893	1416.4	.5
303.15	.9893	1399.1	.5
308.15	.9893	1381.9	.5
313.15	.9893	1364.9	.5
323.15	.9893	1330.9	.5
333.15	.9893	1297.3	.5
343.15	.9893	1263.9	.5
283.15	.9932	1468.6	.5
288.15	.9932	1451	.5
293.15	.9932	1433.4	.5
298.15	.9932	1416.1	.5
303.15	.9932	1398.9	.5
308.15	.9932	1381.6	.5
313.15	.9932	1364.6	.5
323.15	.9932	1330.3	.5
333.15	.9932	1296.7	.5
343.15	.9932	1263.3	.5

System: diethylene glycol diethyl ether + water; phases: Liquid
Fixed: Pressure, kPa = 100
Property: Mass density, kg/m3 (Liquid); method: Vibrating tube method
Temperature, K	Mole fraction of diethylene glycol diethyl ether	Mass density, kg/m3	uncertainty
283.15	.97	918.572	1
288.15	.97	913.742	1
293.15	.97	908.91	1
298.15	.97	904.074	1
303.15	.97	899.235	1
308.15	.97	894.389	1
313.15	.97	889.537	1
323.15	.97	879.812	1
333.15	.97	870.056	1
343.15	.97	860.264	1
283.15	.9742	918.371	1
288.15	.9742	913.543	1
293.15	.9742	908.705	1
298.15	.9742	903.873	1
303.15	.9742	899.035	1
308.15	.9742	894.189	1
313.15	.9742	889.339	1
323.15	.9742	879.619	1
333.15	.9742	869.867	1
343.15	.9742	860.076	1
283.15	.9778	918.271	1
288.15	.9778	913.443	1
293.15	.9778	908.61	1
298.15	.9778	903.775	1
303.15	.9778	898.937	1
308.15	.9778	894.092	1
313.15	.9778	889.241	1
323.15	.9778	879.518	1
333.15	.9778	869.76	1
343.15	.9778	859.966	1
283.15	.9836	917.783	1
288.15	.9836	912.955	1
293.15	.9836	908.126	1
298.15	.9836	903.3	1
303.15	.9836	898.467	1
308.15	.9836	893.628	1
313.15	.9836	888.783	1
323.15	.9836	879.074	1
333.15	.9836	869.332	1
343.15	.9836	859.55	1
283.15	.9875	917.643	1
288.15	.9875	912.82	1
293.15	.9875	907.993	1
298.15	.9875	903.166	1
303.15	.9875	898.334	1
308.15	.9875	893.496	1
313.15	.9875	888.652	1
323.15	.9875	878.945	1
333.15	.9875	869.203	1
343.15	.9875	859.411	1
283.15	.9911	917.567	1
288.15	.9911	912.74	1
293.15	.9911	907.914	1
298.15	.9911	903.09	1
303.15	.9911	898.256	1
308.15	.9911	893.419	1
313.15	.9911	888.577	1
323.15	.9911	878.873	1
333.15	.9911	869.134	1
343.15	.9911	859.346	1

System: diethylene glycol diethyl ether + water; phases: Liquid
Fixed: Pressure, kPa = 100
Property: Speed of sound, m/s (Liquid); method: Sing-around technique in a fixed-path interferometer
Temperature, K	Mole fraction of diethylene glycol diethyl ether	Speed of sound, m/s	uncertainty
283.15	.97	1305.3	.5
288.15	.97	1284.9	.5
293.15	.97	1264.8	.5
298.15	.97	1244.9	.5
303.15	.97	1225.2	.5
308.15	.97	1205.6	.5
313.15	.97	1186.4	.5
323.15	.97	1148.2	.5
333.15	.97	1111	.5
343.15	.97	1074.5	.5
283.15	.9742	1304.9	.5
288.15	.9742	1284.6	.5
293.15	.9742	1264.4	.5
298.15	.9742	1244.6	.5
303.15	.9742	1224.9	.5
308.15	.9742	1205.3	.5
313.15	.9742	1186	.5
323.15	.9742	1147.7	.5
333.15	.9742	1110.4	.5
343.15	.9742	1074	.5
283.15	.9778	1303.9	.5
288.15	.9778	1283.6	.5
293.15	.9778	1263.6	.5
298.15	.9778	1243.7	.5
303.15	.9778	1224	.5
308.15	.9778	1204.6	.5
313.15	.9778	1185.3	.5
323.15	.9778	1147.3	.5
333.15	.9778	1110	.5
343.15	.9778	1073.7	.5
283.15	.9836	1303.6	.5
288.15	.9836	1283.3	.5
293.15	.9836	1263.2	.5
298.15	.9836	1243.4	.5
303.15	.9836	1223.6	.5
308.15	.9836	1204.1	.5
313.15	.9836	1184.7	.5
323.15	.9836	1146.7	.5
333.15	.9836	1109.5	.5
343.15	.9836	1073.1	.5
283.15	.9875	1304.4	.5
288.15	.9875	1284	.5
293.15	.9875	1263.9	.5
298.15	.9875	1244.1	.5
303.15	.9875	1224.4	.5
308.15	.9875	1204.7	.5
313.15	.9875	1184.7	.5
323.15	.9875	1146.3	.5
333.15	.9875	1109.1	.5
343.15	.9875	1072.6	.5
283.15	.9911	1304.1	.5
288.15	.9911	1284	.5
293.15	.9911	1263.8	.5
298.15	.9911	1244	.5
303.15	.9911	1224.2	.5
308.15	.9911	1204.6	.5
313.15	.9911	1185.3	.5
323.15	.9911	1146.2	.5
333.15	.9911	1108.9	.5
343.15	.9911	1072.7	.5

System: ethylene glycol + water; phases: Liquid
Fixed: Pressure, kPa = 100
Property: Mass density, kg/m3 (Liquid); method: Vibrating tube method
Temperature, K	Mole fraction of ethylene glycol	Mass density, kg/m3	uncertainty
283.15	.9886	1119.903	1
288.15	.9886	1116.426	1
293.15	.9886	1112.944	1
298.15	.9886	1109.463	1
303.15	.9886	1105.95	1
308.15	.9886	1102.43	1
313.15	.9886	1098.889	1
323.15	.9886	1091.746	1
333.15	.9886	1084.507	1
343.15	.9886	1077.163	1
283.15	.9943	1120.066	1
288.15	.9943	1116.59	1
293.15	.9943	1113.108	1
298.15	.9943	1109.613	1
303.15	.9943	1106.11	1
308.15	.9943	1102.586	1
313.15	.9943	1099.049	1
323.15	.9943	1091.903	1
333.15	.9943	1084.669	1
343.15	.9943	1077.326	1
283.15	.9959	1120.113	1
288.15	.9959	1116.638	1
293.15	.9959	1113.155	1
298.15	.9959	1109.661	1
303.15	.9959	1106.155	1
308.15	.9959	1102.634	1
313.15	.9959	1099.095	1
323.15	.9959	1091.952	1
333.15	.9959	1084.718	1
343.15	.9959	1077.37	1

System: ethylene glycol + water; phases: Liquid
Fixed: Pressure, kPa = 100
Property: Speed of sound, m/s (Liquid); method: Sing-around technique in a fixed-path interferometer
Temperature, K	Mole fraction of ethylene glycol	Speed of sound, m/s	uncertainty
283.15	.9886	1690.2	.5
288.15	.9886	1678.4	.5
293.15	.9886	1666.6	.5
298.15	.9886	1654.7	.5
303.15	.9886	1643	.5
308.15	.9886	1631.2	.5
313.15	.9886	1619.5	.5
323.15	.9886	1595.7	.5
333.15	.9886	1571.7	.5
343.15	.9886	1547.6	.5
283.15	.9943	1689	.5
288.15	.9943	1678.1	.5
293.15	.9943	1666.3	.5
298.15	.9943	1654.8	.5
303.15	.9943	1643	.5
308.15	.9943	1631.3	.5
313.15	.9943	1619.4	.5
323.15	.9943	1595.5	.5
333.15	.9943	1571.5	.5
343.15	.9943	1547.4	.5
283.15	.9959	1690.6	.5
288.15	.9959	1678.6	.5
293.15	.9959	1666.6	.5
298.15	.9959	1654.6	.5
303.15	.9959	1642.7	.5
308.15	.9959	1630.9	.5
313.15	.9959	1619.1	.5
323.15	.9959	1595.2	.5
333.15	.9959	1571.2	.5
343.15	.9959	1547.1	.5
