Measured thermophysical data. Liquid-Liquid Equilibria of Ionic Liquids-Water-Acetic Acid Mixtures
Source: J. Chem. Eng. Data, 2017, 10.1021/acs.jced.6b00692
Compound 1: water, H2O, purity 99.95%
Compound 2: acetic acid, C2H4O2, purity 99%
Compound 3: methyl tert-butyl ether, C5H12O, purity 98%
Compound 4: methyl isobutyl ketone, C6H12O, purity 99%
Compound 5: 1-ethyl-3-methylimidazolium ethyl sulfate, C8H16N2O4S, purity 98%
Compound 6: trihexyltetradecylphosphonium chloride, C32H68ClP, purity 98%
Compound 7: trihexyl(tetradecyl)phosphonium bis(trifluoromethylsulfonyl)imide, C34H68F6NO4PS2, purity 98%
Compound 8: 1-ethyl-3-methylimidazolium bis(trifluoromethylsulfonyl)imide, C8H11F6N3O4S2, purity 98%
Compound 9: 1-butyl-3-methylimidazolium bis((trifluoromethyl)sulfonyl)imide, C10H15F6N3O4S2, purity 98%
Compound 10: 1-butyl-2,3-dimethyl-1H-imidazolium bis(trifluoromethylsulfonyl)amide, C11H17F6N3O4S2, purity 98%
Compound 11: 1-hexyl-3-methylimidazolium bis(trifluoromethylsulfonyl)imide, C12H19F6N3O4S2, purity 98%
Compound 12: 1-octyl-3-methylimidazolium bis(trifluoromethylsulfonyl)imide, C14H23F6N3O4S2, purity 98%
Compound 13: 1-decyl-3-methylimidazolium bis(trifluoromethylsulfonyl)imide, C16H27F6N3O4S2, purity 98%
Compound 14: 1-butyl-1-methylpyrrolidinium bis(trifluoromethylsulfonyl)imide, C11H20F6N2O4S2, purity 98%
Compound 15: butyltrimethylammonium bis(trifluoromethylsulfonyl)imide, C9H18F6N2O4S2, purity 98%

System: acetic acid + methyl tert-butyl ether + water; phases: Liquid mixture 1, Liquid mixture 2
Property: Mole fraction of methyl tert-butyl ether (Liquid mixture 1); method: NMR
Property: Mole fraction of methyl tert-butyl ether (Liquid mixture 2); method: NMR
Property: Mole fraction of acetic acid (Liquid mixture 2); method: NMR
Temperature, K	Pressure, kPa	Mole fraction of acetic acid	Mole fraction of methyl tert-butyl ether	uncertainty	Mole fraction of methyl tert-butyl ether	uncertainty	Mole fraction of acetic acid	uncertainty
293.15	101	0	.011	.01	.9434	.01	0	.01
313.15	101	.1121	.0293	.01	.194	.01	.2408	.01
313.15	101	.1331	.0402	.01	.1522	.01	.2351	.01
293.15	101	.015	.0111	.01	.8211	.01	.0643	.01
293.15	101	.0474	.0129	.01	.6436	.01	.1532	.01
293.15	101	.0601	.0153	.01	.4865	.01	.2041	.01
293.15	101	.0748	.0175	.01	.3997	.01	.2151	.01
293.15	101	.0871	.0186	.01	.3567	.01	.2181	.01
293.15	101	.0917	.0219	.01	.3233	.01	.218	.01
293.15	101	.097	.0232	.01	.2838	.01	.2177	.01
293.15	101	.1256	.0346	.01	.2409	.01	.2195	.01
293.15	101	.1329	.0391	.01	.2161	.01	.22	.01
313.15	101	0	.0069	.01	.9534	.01	0	.01
313.15	101	.0075	.0075	.01	.9021	.01	.0305	.01
313.15	101	.0394	.0076	.01	.6498	.01	.1404	.01
313.15	101	.0397	.0085	.01	.6876	.01	.133	.01
313.15	101	.0582	.0158	.01	.5049	.01	.188	.01
313.15	101	.0845	.0189	.01	.288	.01	.2334	.01

System: acetic acid + methyl isobutyl ketone + water; phases: Liquid mixture 1, Liquid mixture 2
Property: Mole fraction of methyl isobutyl ketone (Liquid mixture 1); method: NMR
Property: Mole fraction of methyl isobutyl ketone (Liquid mixture 2); method: NMR
Property: Mole fraction of acetic acid (Liquid mixture 2); method: NMR
Temperature, K	Pressure, kPa	Mole fraction of acetic acid	Mole fraction of methyl isobutyl ketone	uncertainty	Mole fraction of methyl isobutyl ketone	uncertainty	Mole fraction of acetic acid	uncertainty
293.15	101	0	0	.01	.9009	.01	0	.01
293.15	101	.0996	.0127	.01	.2882	.01	.2305	.01
293.15	101	.12	.0182	.01	.2513	.01	.2261	.01
293.15	101	.132	.012	.01	.2035	.01	.2238	.01
293.15	101	.165	.055	.01	.1156	.01	.1908	.01
293.15	101	.0267	.0036	.01	.7575	.01	.0758	.01
293.15	101	.033	.004	.01	.6711	.01	.1208	.01
293.15	101	.056	.0079	.01	.5405	.01	.1622	.01
293.15	101	.0777	.0085	.01	.4329	.01	.1991	.01
293.15	101	.0839	.0089	.01	.3774	.01	.2075	.01
293.15	101	.095	.0129	.01	.3226	.01	.2258	.01

System: acetic acid + water + trihexyltetradecylphosphonium chloride; phases: Liquid mixture 2, Liquid mixture 1
Property: Mole fraction of trihexyltetradecylphosphonium chloride (Liquid mixture 2); method: Other
Property: Mole fraction of acetic acid (Liquid mixture 1); method: Other
Property: Mole fraction of trihexyltetradecylphosphonium chloride (Liquid mixture 1); method: Other
Temperature, K	Pressure, kPa	Mole fraction of acetic acid	Mole fraction of trihexyltetradecylphosphonium chloride	uncertainty	Mole fraction of acetic acid	uncertainty	Mole fraction of trihexyltetradecylphosphonium chloride	uncertainty
293.15	101	0	0	.01	0	.01	.174	.01
293.15	101	.241	.001	.01	.41	.01	.088	.01
293.15	101	.25	.001	.01	.388	.01	.072	.01
293.15	101	.002	0	.01	.112	.01	.391	.01
293.15	101	.272	0	.01	.413	.01	.067	.01
293.15	101	.286	0	.01	.42	.01	.055	.01
293.15	101	.302	0	.01	.399	.01	.057	.01
293.15	101	.002	0	.01	.046	.01	.455	.01
293.15	101	.005	0	.01	.08	.01	.424	.01
293.15	101	.008	0	.01	.073	.01	.428	.01
293.15	101	.016	0	.01	.277	.01	.252	.01
293.15	101	.167	0	.01	.384	.01	.135	.01
293.15	101	.02	0	.01	.235	.01	.275	.01
293.15	101	.08	0	.01	.377	.01	.125	.01
293.15	101	.117	0	.01	.345	.01	.185	.01
293.15	101	.167	0	.01	.36	.01	.11	.01
293.15	101	.176	0	.01	.385	.01	.094	.01
293.15	101	.18	0	.01	.394	.01	.096	.01
293.15	101	.189	0	.01	.39	.01	.083	.01
293.15	101	.194	0	.01	.391	.01	.09	.01
293.15	101	.211	0	.01	.395	.01	.111	.01
293.15	101	.227	0	.01	.411	.01	.08	.01

System: acetic acid + water + trihexyl(tetradecyl)phosphonium bis(trifluoromethylsulfonyl)imide; phases: Liquid mixture 1, Liquid mixture 2
Property: Mole fraction of acetic acid (Liquid mixture 1); method: NMR
Property: Mole fraction of acetic acid (Liquid mixture 2); method: NMR
Property: Mole fraction of trihexyl(tetradecyl)phosphonium bis(trifluoromethylsulfonyl)imide (Liquid mixture 2); method: NMR
Temperature, K	Pressure, kPa	Mole fraction of trihexyl(tetradecyl)phosphonium bis(trifluoromethylsulfonyl)imide	Mole fraction of acetic acid	uncertainty	Mole fraction of acetic acid	uncertainty	Mole fraction of trihexyl(tetradecyl)phosphonium bis(trifluoromethylsulfonyl)imide	uncertainty
293.15	101	.873	0	.01	0	.01	0	.01
293.15	101	.632	.07	.01	.042	.01	0	.01
293.15	101	.61	.081	.01	.057	.01	0	.01
293.15	101	.528	.118	.01	.098	.01	0	.01
293.15	101	.524	.121	.01	.108	.01	0	.01
293.15	101	.433	.147	.01	.133	.01	0	.01

System: acetic acid + water + 1-ethyl-3-methylimidazolium bis(trifluoromethylsulfonyl)imide; phases: Liquid mixture 2, Liquid mixture 1
Property: Mole fraction of acetic acid (Liquid mixture 2); method: NMR
Property: Mole fraction of acetic acid (Liquid mixture 1); method: NMR
Property: Mole fraction of 1-ethyl-3-methylimidazolium bis(trifluoromethylsulfonyl)imide (Liquid mixture 1); method: NMR
Temperature, K	Pressure, kPa	Mole fraction of 1-ethyl-3-methylimidazolium bis(trifluoromethylsulfonyl)imide	Mole fraction of acetic acid	uncertainty	Mole fraction of acetic acid	uncertainty	Mole fraction of 1-ethyl-3-methylimidazolium bis(trifluoromethylsulfonyl)imide	uncertainty
293.15	101	.7046	0	.01	0	.01	.0005	.01
293.15	101	.2891	.2282	.01	.1249	.01	.0054	.01
293.15	101	.2512	.2355	.01	.1363	.01	.0068	.01
293.15	101	.7373	.0285	.01	.0139	.01	.0025	.01
293.15	101	.7358	.0478	.01	.0217	.01	.0025	.01
293.15	101	.5795	.1253	.01	.0538	.01	.0023	.01
293.15	101	.5677	.1358	.01	.0577	.01	.0023	.01
293.15	101	.5521	.1407	.01	.0606	.01	.0026	.01
293.15	101	.477	.1545	.01	.072	.01	.0029	.01
293.15	101	.4123	.192	.01	.0892	.01	.0033	.01

System: acetic acid + water + 1-butyl-3-methylimidazolium bis((trifluoromethyl)sulfonyl)imide; phases: Liquid mixture 2, Liquid mixture 1
Property: Mole fraction of acetic acid (Liquid mixture 2); method: NMR
Property: Mole fraction of acetic acid (Liquid mixture 1); method: NMR
Property: Mole fraction of 1-butyl-3-methylimidazolium bis((trifluoromethyl)sulfonyl)imide (Liquid mixture 1); method: NMR
Temperature, K	Pressure, kPa	Mole fraction of 1-butyl-3-methylimidazolium bis((trifluoromethyl)sulfonyl)imide	Mole fraction of acetic acid	uncertainty	Mole fraction of acetic acid	uncertainty	Mole fraction of 1-butyl-3-methylimidazolium bis((trifluoromethyl)sulfonyl)imide	uncertainty
293.15	101	.76	0	.01	0	.01	.0005	.01
293.15	101	.4172	.1697	.01	.0909	.01	.0005	.01
293.15	101	.4021	.1756	.01	.0964	.01	.0022	.01
293.15	101	.4143	.1713	.01	.0961	.01	.0026	.01
293.15	101	.4132	.1777	.01	.0961	.01	.003	.01
293.15	101	.3615	.2048	.01	.1172	.01	.0035	.01
293.15	101	.3106	.2267	.01	.1275	.01	.0031	.01
293.15	101	.3065	.2247	.01	.1373	.01	.0045	.01
293.15	101	.254	.237	.01	.184	.01	.007	.01
293.15	101	.7344	.0178	.01	.0049	.01	.0006	.01
293.15	101	.6972	.0414	.01	.016	.01	.0005	.01
293.15	101	.6299	.07	.01	.0303	.01	.0007	.01
293.15	101	.5301	.12	.01	.0685	.01	.0014	.01

System: acetic acid + water + 1-butyl-2,3-dimethyl-1H-imidazolium bis(trifluoromethylsulfonyl)amide; phases: Liquid mixture 1, Liquid mixture 2
Property: Mole fraction of acetic acid (Liquid mixture 1); method: NMR
Property: Mole fraction of acetic acid (Liquid mixture 2); method: NMR
Property: Mole fraction of 1-butyl-2,3-dimethyl-1H-imidazolium bis(trifluoromethylsulfonyl)amide (Liquid mixture 2); method: NMR
Temperature, K	Pressure, kPa	Mole fraction of 1-butyl-2,3-dimethyl-1H-imidazolium bis(trifluoromethylsulfonyl)amide	Mole fraction of acetic acid	uncertainty	Mole fraction of acetic acid	uncertainty	Mole fraction of 1-butyl-2,3-dimethyl-1H-imidazolium bis(trifluoromethylsulfonyl)amide	uncertainty
293.15	101	.8265	0	.01	0	.01	.0004	.01
293.15	101	.4659	.1801	.01	.1017	.01	.0013	.01
293.15	101	.3654	.2217	.01	.1376	.01	.0021	.01
293.15	101	.2944	.2472	.01	.1707	.01	.003	.01
293.15	101	.8163	.0073	.01	.0012	.01	.0004	.01
293.15	101	.7485	.0419	.01	.0183	.01	.0004	.01
293.15	101	.7126	.0665	.01	.0361	.01	.0004	.01
293.15	101	.6696	.0828	.01	.0455	.01	.0006	.01
293.15	101	.6055	.1143	.01	.0705	.01	.0005	.01
293.15	101	.5173	.1517	.01	.0909	.01	.0006	.01

System: acetic acid + water + 1-hexyl-3-methylimidazolium bis(trifluoromethylsulfonyl)imide; phases: Liquid mixture 2, Liquid mixture 1
Property: Mole fraction of 1-hexyl-3-methylimidazolium bis(trifluoromethylsulfonyl)imide (Liquid mixture 2); method: NMR
Property: Mole fraction of 1-hexyl-3-methylimidazolium bis(trifluoromethylsulfonyl)imide (Liquid mixture 1); method: NMR
Property: Mole fraction of acetic acid (Liquid mixture 1); method: NMR
Temperature, K	Pressure, kPa	Mole fraction of acetic acid	Mole fraction of 1-hexyl-3-methylimidazolium bis(trifluoromethylsulfonyl)imide	uncertainty	Mole fraction of 1-hexyl-3-methylimidazolium bis(trifluoromethylsulfonyl)imide	uncertainty	Mole fraction of acetic acid	uncertainty
293.15	101	0	.0002	.01	.8032	.01	0	.01
293.15	101	.0244	.0003	.01	.6935	.01	.0655	.01
293.15	101	.029	.0004	.01	.6682	.01	.0805	.01
293.15	101	.0538	.0009	.01	.6282	.01	.1111	.01
293.15	101	.06	.0008	.01	.605	.01	.1207	.01
293.15	101	.0799	.0008	.01	.5516	.01	.1506	.01
293.15	101	.0901	.0009	.01	.4852	.01	.1798	.01
293.15	101	.1001	.0006	.01	.4594	.01	.1868	.01
293.15	101	.1109	.0009	.01	.4376	.01	.1995	.01
293.15	101	.1279	.0008	.01	.4014	.01	.2131	.01
293.15	101	.1547	.0009	.01	.3321	.01	.2479	.01
293.15	101	.1589	.001	.01	.3024	.01	.2575	.01
293.15	101	.1716	.0016	.01	.2841	.01	.2699	.01
293.15	101	.1824	.0019	.01	.2671	.01	.275	.01
293.15	101	.2173	.0021	.01	.2097	.01	.2801	.01
293.15	101	.0057	.0002	.01	.7542	.01	.0329	.01

System: acetic acid + water + 1-octyl-3-methylimidazolium bis(trifluoromethylsulfonyl)imide; phases: Liquid mixture 2, Liquid mixture 1
Property: Mole fraction of 1-octyl-3-methylimidazolium bis(trifluoromethylsulfonyl)imide (Liquid mixture 2); method: NMR
Property: Mole fraction of 1-octyl-3-methylimidazolium bis(trifluoromethylsulfonyl)imide (Liquid mixture 1); method: NMR
Property: Mole fraction of acetic acid (Liquid mixture 1); method: NMR
Temperature, K	Pressure, kPa	Mole fraction of acetic acid	Mole fraction of 1-octyl-3-methylimidazolium bis(trifluoromethylsulfonyl)imide	uncertainty	Mole fraction of 1-octyl-3-methylimidazolium bis(trifluoromethylsulfonyl)imide	uncertainty	Mole fraction of acetic acid	uncertainty
293.15	101	0	.0004	.01	.8241	.01	0	.01
293.15	101	.1501	.0009	.01	.3336	.01	.2691	.01
293.15	101	.1932	.0017	.01	.2476	.01	.2951	.01
293.15	101	.0075	.0004	.01	.7806	.01	.0335	.01
293.15	101	.0124	.0004	.01	.7655	.01	.0432	.01
293.15	101	.0281	.0004	.01	.6789	.01	.0964	.01
293.15	101	.0453	.0004	.01	.5957	.01	.1456	.01
293.15	101	.0797	.0009	.01	.4506	.01	.2153	.01
293.15	101	.1375	.0006	.01	.3449	.01	.2637	.01
293.15	101	.147	.0005	.01	.3417	.01	.2643	.01

System: acetic acid + water + 1-decyl-3-methylimidazolium bis(trifluoromethylsulfonyl)imide; phases: Liquid mixture 2, Liquid mixture 1
Property: Mole fraction of 1-decyl-3-methylimidazolium bis(trifluoromethylsulfonyl)imide (Liquid mixture 2); method: NMR
Property: Mole fraction of 1-decyl-3-methylimidazolium bis(trifluoromethylsulfonyl)imide (Liquid mixture 1); method: NMR
Property: Mole fraction of acetic acid (Liquid mixture 1); method: NMR
Temperature, K	Pressure, kPa	Mole fraction of acetic acid	Mole fraction of 1-decyl-3-methylimidazolium bis(trifluoromethylsulfonyl)imide	uncertainty	Mole fraction of 1-decyl-3-methylimidazolium bis(trifluoromethylsulfonyl)imide	uncertainty	Mole fraction of acetic acid	uncertainty
293.15	101	0	.0002	.01	.8474	.01	0	.01
293.15	101	.0064	.0002	.01	.8055	.01	.0353	.01
293.15	101	.0175	.0002	.01	.7152	.01	.0872	.01
293.15	101	.0375	.0003	.01	.6868	.01	.1017	.01
293.15	101	.0993	.0003	.01	.5808	.01	.1825	.01
293.15	101	.143	.0003	.01	.4585	.01	.2414	.01
293.15	101	.182	.0003	.01	.3365	.01	.2917	.01
293.15	101	.2018	.0003	.01	.2984	.01	.3063	.01
293.15	101	.2652	.0003	.01	.2289	.01	.3209	.01

System: acetic acid + water + 1-butyl-1-methylpyrrolidinium bis(trifluoromethylsulfonyl)imide; phases: Liquid mixture 2, Liquid mixture 1
Property: Mole fraction of 1-butyl-1-methylpyrrolidinium bis(trifluoromethylsulfonyl)imide (Liquid mixture 2); method: NMR
Property: Mole fraction of 1-butyl-1-methylpyrrolidinium bis(trifluoromethylsulfonyl)imide (Liquid mixture 1); method: NMR
Property: Mole fraction of acetic acid (Liquid mixture 1); method: NMR
Temperature, K	Pressure, kPa	Mole fraction of acetic acid	Mole fraction of 1-butyl-1-methylpyrrolidinium bis(trifluoromethylsulfonyl)imide	uncertainty	Mole fraction of 1-butyl-1-methylpyrrolidinium bis(trifluoromethylsulfonyl)imide	uncertainty	Mole fraction of acetic acid	uncertainty
293.15	101	0	0	.01	.7806	.01	0	.01
293.15	101	.0233	0	.01	.771	.01	.0609	.01
293.15	101	.0362	0	.01	.743	.01	.081	.01
293.15	101	.0604	0	.01	.6724	.01	.1248	.01
293.15	101	.0771	.0003	.01	.5815	.01	.15	.01
293.15	101	.0916	.0003	.01	.5354	.01	.165	.01
293.15	101	.1066	.0007	.01	.5041	.01	.1948	.01
293.15	101	.1444	.0014	.01	.4066	.01	.235	.01
293.15	101	.1777	.003	.01	.3507	.01	.2769	.01

System: acetic acid + water + butyltrimethylammonium bis(trifluoromethylsulfonyl)imide; phases: Liquid mixture 2, Liquid mixture 1
Property: Mole fraction of butyltrimethylammonium bis(trifluoromethylsulfonyl)imide (Liquid mixture 2); method: NMR
Property: Mole fraction of butyltrimethylammonium bis(trifluoromethylsulfonyl)imide (Liquid mixture 1); method: NMR
Property: Mole fraction of acetic acid (Liquid mixture 1); method: NMR
Temperature, K	Pressure, kPa	Mole fraction of acetic acid	Mole fraction of butyltrimethylammonium bis(trifluoromethylsulfonyl)imide	uncertainty	Mole fraction of butyltrimethylammonium bis(trifluoromethylsulfonyl)imide	uncertainty	Mole fraction of acetic acid	uncertainty
293.15	101	0	0	.01	.77	.01	0	.01
293.15	101	.125	0	.01	.35	.01	.199	.01
293.15	101	.176	0	.01	.229	.01	.245	.01
293.15	101	.011	0	.01	.675	.01	.042	.01
293.15	101	.022	0	.01	.658	.01	.046	.01
293.15	101	.031	0	.01	.643	.01	.061	.01
293.15	101	.043	0	.01	.603	.01	.078	.01
293.15	101	.046	0	.01	.598	.01	.085	.01
293.15	101	.049	0	.01	.564	.01	.092	.01
293.15	101	.089	0	.01	.452	.01	.145	.01

System: methyl tert-butyl ether + water; phases: Liquid mixture 2, Liquid mixture 1
Property: Mole fraction of methyl tert-butyl ether (Liquid mixture 2); method: NMR
Pressure, kPa	Temperature, K	Mole fraction of methyl tert-butyl ether	uncertainty
101	293.15	.9434	
101	313.15	.9534	

System: methyl tert-butyl ether + water; phases: Liquid mixture 1, Liquid mixture 2
Property: Mole fraction of methyl tert-butyl ether (Liquid mixture 1); method: NMR
Temperature, K	Pressure, kPa	Mole fraction of methyl tert-butyl ether	uncertainty
293.15	101	.011	
313.15	101	.0069	

System: methyl isobutyl ketone + water; phases: Liquid mixture 2, Liquid mixture 1
Property: Mole fraction of methyl isobutyl ketone (Liquid mixture 2); method: NMR
Pressure, kPa	Temperature, K	Mole fraction of methyl isobutyl ketone	uncertainty
101	293.15	.9009	

System: water + trihexyltetradecylphosphonium chloride; phases: Liquid mixture 1, Liquid mixture 2
Property: Mole fraction of trihexyltetradecylphosphonium chloride (Liquid mixture 1); method: Other
Temperature, K	Pressure, kPa	Mole fraction of trihexyltetradecylphosphonium chloride	uncertainty
293.15	101	.174	

System: water + trihexyl(tetradecyl)phosphonium bis(trifluoromethylsulfonyl)imide; phases: Liquid mixture 2, Liquid mixture 1
Property: Mole fraction of trihexyl(tetradecyl)phosphonium bis(trifluoromethylsulfonyl)imide (Liquid mixture 2); method: NMR
Pressure, kPa	Temperature, K	Mole fraction of trihexyl(tetradecyl)phosphonium bis(trifluoromethylsulfonyl)imide	uncertainty
101	293.15	.873	

System: water + 1-ethyl-3-methylimidazolium bis(trifluoromethylsulfonyl)imide; phases: Liquid mixture 1, Liquid mixture 2
Property: Mole fraction of 1-ethyl-3-methylimidazolium bis(trifluoromethylsulfonyl)imide (Liquid mixture 1); method: NMR
Temperature, K	Pressure, kPa	Mole fraction of 1-ethyl-3-methylimidazolium bis(trifluoromethylsulfonyl)imide	uncertainty
293.15	101	.0005	

System: water + 1-ethyl-3-methylimidazolium bis(trifluoromethylsulfonyl)imide; phases: Liquid mixture 2, Liquid mixture 1
Property: Mole fraction of 1-ethyl-3-methylimidazolium bis(trifluoromethylsulfonyl)imide (Liquid mixture 2); method: NMR
Pressure, kPa	Temperature, K	Mole fraction of 1-ethyl-3-methylimidazolium bis(trifluoromethylsulfonyl)imide	uncertainty
101	293.15	.7046	

System: water + 1-butyl-3-methylimidazolium bis((trifluoromethyl)sulfonyl)imide; phases: Liquid mixture 1, Liquid mixture 2
Property: Mole fraction of 1-butyl-3-methylimidazolium bis((trifluoromethyl)sulfonyl)imide (Liquid mixture 1); method: NMR
Temperature, K	Pressure, kPa	Mole fraction of 1-butyl-3-methylimidazolium bis((trifluoromethyl)sulfonyl)imide	uncertainty
293.15	101	.0005	

System: water + 1-butyl-3-methylimidazolium bis((trifluoromethyl)sulfonyl)imide; phases: Liquid mixture 2, Liquid mixture 1
Property: Mole fraction of 1-butyl-3-methylimidazolium bis((trifluoromethyl)sulfonyl)imide (Liquid mixture 2); method: NMR
Pressure, kPa	Temperature, K	Mole fraction of 1-butyl-3-methylimidazolium bis((trifluoromethyl)sulfonyl)imide	uncertainty
101	293.15	.76	

System: water + 1-butyl-2,3-dimethyl-1H-imidazolium bis(trifluoromethylsulfonyl)amide; phases: Liquid mixture 1, Liquid mixture 2
Property: Mole fraction of 1-butyl-2,3-dimethyl-1H-imidazolium bis(trifluoromethylsulfonyl)amide (Liquid mixture 1); method: NMR
Pressure, kPa	Temperature, K	Mole fraction of 1-butyl-2,3-dimethyl-1H-imidazolium bis(trifluoromethylsulfonyl)amide	uncertainty
101	293.15	.8265	

System: water + 1-butyl-2,3-dimethyl-1H-imidazolium bis(trifluoromethylsulfonyl)amide; phases: Liquid mixture 2, Liquid mixture 1
Property: Mole fraction of 1-butyl-2,3-dimethyl-1H-imidazolium bis(trifluoromethylsulfonyl)amide (Liquid mixture 2); method: NMR
Temperature, K	Pressure, kPa	Mole fraction of 1-butyl-2,3-dimethyl-1H-imidazolium bis(trifluoromethylsulfonyl)amide	uncertainty
293.15	101	.0004	

System: water + 1-hexyl-3-methylimidazolium bis(trifluoromethylsulfonyl)imide; phases: Liquid mixture 1, Liquid mixture 2
Property: Mole fraction of 1-hexyl-3-methylimidazolium bis(trifluoromethylsulfonyl)imide (Liquid mixture 1); method: NMR
Pressure, kPa	Temperature, K	Mole fraction of 1-hexyl-3-methylimidazolium bis(trifluoromethylsulfonyl)imide	uncertainty
101	293.15	.8032	

System: water + 1-hexyl-3-methylimidazolium bis(trifluoromethylsulfonyl)imide; phases: Liquid mixture 2, Liquid mixture 1
Property: Mole fraction of 1-hexyl-3-methylimidazolium bis(trifluoromethylsulfonyl)imide (Liquid mixture 2); method: NMR
Temperature, K	Pressure, kPa	Mole fraction of 1-hexyl-3-methylimidazolium bis(trifluoromethylsulfonyl)imide	uncertainty
293.15	101	.0002	

System: water + 1-octyl-3-methylimidazolium bis(trifluoromethylsulfonyl)imide; phases: Liquid mixture 1, Liquid mixture 2
Property: Mole fraction of 1-octyl-3-methylimidazolium bis(trifluoromethylsulfonyl)imide (Liquid mixture 1); method: NMR
Pressure, kPa	Temperature, K	Mole fraction of 1-octyl-3-methylimidazolium bis(trifluoromethylsulfonyl)imide	uncertainty
101	293.15	.8241	

System: water + 1-octyl-3-methylimidazolium bis(trifluoromethylsulfonyl)imide; phases: Liquid mixture 2, Liquid mixture 1
Property: Mole fraction of 1-octyl-3-methylimidazolium bis(trifluoromethylsulfonyl)imide (Liquid mixture 2); method: NMR
Temperature, K	Pressure, kPa	Mole fraction of 1-octyl-3-methylimidazolium bis(trifluoromethylsulfonyl)imide	uncertainty
293.15	101	.0004	

System: water + 1-decyl-3-methylimidazolium bis(trifluoromethylsulfonyl)imide; phases: Liquid mixture 1, Liquid mixture 2
Property: Mole fraction of 1-decyl-3-methylimidazolium bis(trifluoromethylsulfonyl)imide (Liquid mixture 1); method: NMR
Pressure, kPa	Temperature, K	Mole fraction of 1-decyl-3-methylimidazolium bis(trifluoromethylsulfonyl)imide	uncertainty
101	293.15	.8474	

System: water + 1-decyl-3-methylimidazolium bis(trifluoromethylsulfonyl)imide; phases: Liquid mixture 2, Liquid mixture 1
Property: Mole fraction of 1-decyl-3-methylimidazolium bis(trifluoromethylsulfonyl)imide (Liquid mixture 2); method: NMR
Temperature, K	Pressure, kPa	Mole fraction of 1-decyl-3-methylimidazolium bis(trifluoromethylsulfonyl)imide	uncertainty
293.15	101	.0002	

System: water + 1-butyl-1-methylpyrrolidinium bis(trifluoromethylsulfonyl)imide; phases: Liquid mixture 1, Liquid mixture 2
Property: Mole fraction of 1-butyl-1-methylpyrrolidinium bis(trifluoromethylsulfonyl)imide (Liquid mixture 1); method: NMR
Pressure, kPa	Temperature, K	Mole fraction of 1-butyl-1-methylpyrrolidinium bis(trifluoromethylsulfonyl)imide	uncertainty
101	293.15	.7806	

System: water + butyltrimethylammonium bis(trifluoromethylsulfonyl)imide; phases: Liquid mixture 1, Liquid mixture 2
Property: Mole fraction of butyltrimethylammonium bis(trifluoromethylsulfonyl)imide (Liquid mixture 1); method: NMR
Pressure, kPa	Temperature, K	Mole fraction of butyltrimethylammonium bis(trifluoromethylsulfonyl)imide	uncertainty
101	293.15	.77	
