Measured thermophysical data. Solid Liquid Equilibria Measurements of Mixtures of Lithium Bis(trifluoromethanesulfonyl)imide with Varying Alkyl Chain Length Ammonium Bis(trifluoromethanesulfonyl)imide Ionic Liquids
Source: J. Chem. Eng. Data, 2016, 10.1021/acs.jced.5b00807
Compound 1: lithium bis(trifluoromethylsulfonyl)imide, C2F6LiNO4S2
Compound 2: hexadecyltrimethylammonium bis(trifluoromethanesulfonyl)imide, C21H42F6N2O4S2
Compound 3: tetrabutylammonium bis(trifluoromethylsulfonyl)imide, C18H36F6N2O4S2
Compound 4: ethyltrimethylammonium bis(trifluoromethylsulfonyl)imide, C7H14F6N2O4S2
Compound 5: naphthalene, C10H8
Compound 6: 1-octanol, C8H18O
Compound 7: .epsilon.-caprolactam, C6H11NO
Compound 8: 1-hexyl-3-methylimidazolium bis(trifluoromethylsulfonyl)imide, C12H19F6N3O4S2

System: lithium bis(trifluoromethylsulfonyl)imide; phases: Crystal 1, Liquid, Air at 1 atmosphere
Property: Triple point temperature, K (Crystal 1); method: DSC
Triple point temperature, K	uncertainty
508	2

System: lithium bis(trifluoromethylsulfonyl)imide; phases: Crystal 2, Crystal 1, Air at 1 atmosphere
Property: Triple point temperature, K (Crystal 2); method: DSC
Triple point temperature, K	uncertainty
422	2

System: lithium bis(trifluoromethylsulfonyl)imide; phases: Crystal 2, Crystal 1, Air at 1 atmosphere
Property: Molar enthalpy of transition or fusion, kJ/mol (Crystal 2); method: DSC
Molar enthalpy of transition or fusion, kJ/mol	uncertainty
11.9	.595

System: hexadecyltrimethylammonium bis(trifluoromethanesulfonyl)imide; phases: Crystal 1, Liquid, Air at 1 atmosphere
Property: Triple point temperature, K (Crystal 1); method: DSC
Triple point temperature, K	uncertainty
335	2

System: hexadecyltrimethylammonium bis(trifluoromethanesulfonyl)imide; phases: Crystal 2, Crystal 1, Air at 1 atmosphere
Property: Triple point temperature, K (Crystal 2); method: DSC
Triple point temperature, K	uncertainty
319	2

System: hexadecyltrimethylammonium bis(trifluoromethanesulfonyl)imide; phases: Crystal 2, Crystal 1, Air at 1 atmosphere
Property: Molar enthalpy of transition or fusion, kJ/mol (Crystal 2); method: DSC
Molar enthalpy of transition or fusion, kJ/mol	uncertainty
29.4	1.47

System: tetrabutylammonium bis(trifluoromethylsulfonyl)imide; phases: Crystal, Liquid, Air at 1 atmosphere
Property: Triple point temperature, K (Crystal); method: DSC
Triple point temperature, K	uncertainty
365	2

System: ethyltrimethylammonium bis(trifluoromethylsulfonyl)imide; phases: Crystal, Liquid, Air at 1 atmosphere
Property: Triple point temperature, K (Crystal); method: DSC
Triple point temperature, K	uncertainty
383	2

System: lithium bis(trifluoromethylsulfonyl)imide + tetrabutylammonium bis(trifluoromethylsulfonyl)imide; phases: Crystal, Crystal 2, Liquid, Air at 1 atmosphere
Fixed: Pressure, kPa = 101.325
Property: Eutectic temperature, K (Crystal); method: DSC/DTA
Eutectic temperature, K	uncertainty
323.4	3.8

System: lithium bis(trifluoromethylsulfonyl)imide + tetrabutylammonium bis(trifluoromethylsulfonyl)imide; phases: Liquid, Crystal
Fixed: Pressure, kPa = 100
Property: Solid-liquid equilibrium temperature, K (Liquid); method: Visual observation
Mole fraction of lithium bis(trifluoromethylsulfonyl)imide	Solid-liquid equilibrium temperature, K	uncertainty
.06	359.7	1
.16	353.2	1
.28	340.5	1
.42	329.5	1

System: lithium bis(trifluoromethylsulfonyl)imide + tetrabutylammonium bis(trifluoromethylsulfonyl)imide; phases: Liquid, Crystal 2
Fixed: Pressure, kPa = 100
Property: Solid-liquid equilibrium temperature, K (Liquid); method: Visual observation
Mole fraction of lithium bis(trifluoromethylsulfonyl)imide	Solid-liquid equilibrium temperature, K	uncertainty
.51	331	1
.55	351.7	1

System: lithium bis(trifluoromethylsulfonyl)imide + tetrabutylammonium bis(trifluoromethylsulfonyl)imide; phases: Liquid, Crystal
Fixed: Pressure, kPa = 100
Property: Solid-liquid equilibrium temperature, K (Liquid); method: DSC/DTA
Mole fraction of lithium bis(trifluoromethylsulfonyl)imide	Solid-liquid equilibrium temperature, K	uncertainty
.06	360.3	3.8
.16	352.1	3.8
.28	340.8	3.8
.42	329.9	3.8

System: lithium bis(trifluoromethylsulfonyl)imide + tetrabutylammonium bis(trifluoromethylsulfonyl)imide; phases: Liquid, Crystal 2
Fixed: Pressure, kPa = 100
Property: Solid-liquid equilibrium temperature, K (Liquid); method: DSC/DTA
Mole fraction of lithium bis(trifluoromethylsulfonyl)imide	Solid-liquid equilibrium temperature, K	uncertainty
.55	354.3	3.8
.6	403.2	3.8

System: lithium bis(trifluoromethylsulfonyl)imide + tetrabutylammonium bis(trifluoromethylsulfonyl)imide; phases: Liquid, Crystal 1
Fixed: Pressure, kPa = 100
Property: Solid-liquid equilibrium temperature, K (Liquid); method: DSC/DTA
Mole fraction of lithium bis(trifluoromethylsulfonyl)imide	Solid-liquid equilibrium temperature, K	uncertainty
.83	471.4	3.8
.96	499.5	3.8

System: lithium bis(trifluoromethylsulfonyl)imide + hexadecyltrimethylammonium bis(trifluoromethanesulfonyl)imide; phases: Crystal 1, Crystal 2, Liquid, Air at 1 atmosphere
Fixed: Pressure, kPa = 101.325
Property: Eutectic temperature, K (Crystal 1); method: DSC/DTA
Eutectic temperature, K	uncertainty
297.9	3.8

System: lithium bis(trifluoromethylsulfonyl)imide + hexadecyltrimethylammonium bis(trifluoromethanesulfonyl)imide; phases: Liquid, Crystal 2
Fixed: Pressure, kPa = 100
Property: Solid-liquid equilibrium temperature, K (Liquid); method: Visual observation
Mole fraction of lithium bis(trifluoromethylsulfonyl)imide	Solid-liquid equilibrium temperature, K	uncertainty
.31	317.4	1
.39	311.7	1
.13	329.4	1

System: lithium bis(trifluoromethylsulfonyl)imide + hexadecyltrimethylammonium bis(trifluoromethanesulfonyl)imide; phases: Liquid, Crystal
Fixed: Pressure, kPa = 100
Property: Solid-liquid equilibrium temperature, K (Liquid); method: Visual observation
Mole fraction of lithium bis(trifluoromethylsulfonyl)imide	Solid-liquid equilibrium temperature, K	uncertainty
.45	320.8	1
.49	348.2	1

System: lithium bis(trifluoromethylsulfonyl)imide + hexadecyltrimethylammonium bis(trifluoromethanesulfonyl)imide; phases: Liquid, Crystal 1
Fixed: Pressure, kPa = 100
Property: Solid-liquid equilibrium temperature, K (Liquid); method: DSC/DTA
Mole fraction of lithium bis(trifluoromethylsulfonyl)imide	Solid-liquid equilibrium temperature, K	uncertainty
.13	330.7	3.8
.31	319.3	3.8

System: lithium bis(trifluoromethylsulfonyl)imide + hexadecyltrimethylammonium bis(trifluoromethanesulfonyl)imide; phases: Liquid, Crystal 2
Fixed: Pressure, kPa = 100
Property: Solid-liquid equilibrium temperature, K (Liquid); method: DSC/DTA
Mole fraction of lithium bis(trifluoromethylsulfonyl)imide	Solid-liquid equilibrium temperature, K	uncertainty
.39	314.7	3.8

System: lithium bis(trifluoromethylsulfonyl)imide + hexadecyltrimethylammonium bis(trifluoromethanesulfonyl)imide; phases: Liquid, Crystal 2
Fixed: Pressure, kPa = 100
Property: Solid-liquid equilibrium temperature, K (Liquid); method: DSC/DTA
Mole fraction of lithium bis(trifluoromethylsulfonyl)imide	Solid-liquid equilibrium temperature, K	uncertainty
.49	342.1	3.8
.53	364	3.8

System: lithium bis(trifluoromethylsulfonyl)imide + hexadecyltrimethylammonium bis(trifluoromethanesulfonyl)imide; phases: Liquid, Crystal 1
Fixed: Pressure, kPa = 100
Property: Solid-liquid equilibrium temperature, K (Liquid); method: DSC/DTA
Mole fraction of lithium bis(trifluoromethylsulfonyl)imide	Solid-liquid equilibrium temperature, K	uncertainty
.75	448.5	3.8
.86	485.1	3.8
.96	504.7	3.8

System: lithium bis(trifluoromethylsulfonyl)imide + ethyltrimethylammonium bis(trifluoromethylsulfonyl)imide; phases: Crystal 1, Crystal of intercomponent compound 1, Liquid, Air at 1 atmosphere
Fixed: Pressure, kPa = 101.325
Property: Eutectic temperature, K (Crystal 1); method: DSC/DTA
Eutectic temperature, K	uncertainty
333.4	3.8

System: lithium bis(trifluoromethylsulfonyl)imide + ethyltrimethylammonium bis(trifluoromethylsulfonyl)imide; phases: Liquid, Crystal
Fixed: Pressure, kPa = 100
Property: Solid-liquid equilibrium temperature, K (Liquid); method: Visual observation
Mole fraction of lithium bis(trifluoromethylsulfonyl)imide	Solid-liquid equilibrium temperature, K	uncertainty
.19	356	1
.3	347.2	1

System: lithium bis(trifluoromethylsulfonyl)imide + ethyltrimethylammonium bis(trifluoromethylsulfonyl)imide; phases: Liquid, Crystal of intercomponent compound 1
Fixed: Pressure, kPa = 100
Property: Solid-liquid equilibrium temperature, K (Liquid); method: Visual observation
Mole fraction of lithium bis(trifluoromethylsulfonyl)imide	Solid-liquid equilibrium temperature, K	uncertainty
.46	342.4	1
.55	365.2	1

System: lithium bis(trifluoromethylsulfonyl)imide + ethyltrimethylammonium bis(trifluoromethylsulfonyl)imide; phases: Liquid, Crystal
Fixed: Pressure, kPa = 100
Property: Solid-liquid equilibrium temperature, K (Liquid); method: DSC/DTA
Mole fraction of lithium bis(trifluoromethylsulfonyl)imide	Solid-liquid equilibrium temperature, K	uncertainty
.1	371.8	3.8
.19	352.3	3.8

System: lithium bis(trifluoromethylsulfonyl)imide + ethyltrimethylammonium bis(trifluoromethylsulfonyl)imide; phases: Liquid, Crystal of intercomponent compound 1
Fixed: Pressure, kPa = 100
Property: Solid-liquid equilibrium temperature, K (Liquid); method: DSC/DTA
Mole fraction of lithium bis(trifluoromethylsulfonyl)imide	Solid-liquid equilibrium temperature, K	uncertainty
.55	360.9	3.8
.57	365.5	3.8
.61	370.5	3.8
.62	371.3	3.8
.64	373.7	3.8
.64	373.1	3.8
.67	370	3.8

System: lithium bis(trifluoromethylsulfonyl)imide + ethyltrimethylammonium bis(trifluoromethylsulfonyl)imide; phases: Liquid, Crystal 2
Fixed: Pressure, kPa = 100
Property: Solid-liquid equilibrium temperature, K (Liquid); method: DSC/DTA
Mole fraction of lithium bis(trifluoromethylsulfonyl)imide	Solid-liquid equilibrium temperature, K	uncertainty
.71	401.7	3.8
.72	403.1	3.8
.73	410	3.8

System: lithium bis(trifluoromethylsulfonyl)imide + ethyltrimethylammonium bis(trifluoromethylsulfonyl)imide; phases: Liquid, Crystal 1
Fixed: Pressure, kPa = 100
Property: Solid-liquid equilibrium temperature, K (Liquid); method: DSC/DTA
Mole fraction of lithium bis(trifluoromethylsulfonyl)imide	Solid-liquid equilibrium temperature, K	uncertainty
.83	455.1	3.8
.91	478.5	3.8

System: naphthalene + 1-octanol; phases: Liquid, Crystal
Fixed: Pressure, kPa = 100
Property: Solid-liquid equilibrium temperature, K (Liquid); method: Visual observation
Mole fraction of naphthalene	Solid-liquid equilibrium temperature, K	uncertainty
.24	318.4	1
.24	318.1	1
.24	318	1
.24	318	1
.31	324.8	1
.31	324.8	1
.31	324.9	1
.09	291.7	1
.09	291.7	1
.09	291.7	1
.16	307.6	1
.16	307.5	1
.16	307.6	1

System: .epsilon.-caprolactam + 1-hexyl-3-methylimidazolium bis(trifluoromethylsulfonyl)imide; phases: Liquid, Crystal
Fixed: Pressure, kPa = 100
Property: Solid-liquid equilibrium temperature, K (Liquid); method: Visual observation
Mole fraction of .epsilon.-caprolactam	Solid-liquid equilibrium temperature, K	uncertainty
.93	335	1
.79	318.5	1
.67	304.5	1
.62	297.2	1
.65	301.2	1
