Measured thermophysical data. Solid Liquid Phase Equilibria of (Ca(H2PO2)2 + H2O), (Ca(H2PO2)2 + CaCl2 + H2O), and (Ca(H2PO2)2 + NaH2PO2 + H2O) Systems
Source: J. Chem. Eng. Data, 2017, 10.1021/acs.jced.6b00813
Compound 1: calcium chloride, CaCl2, purity 99.0%
Compound 2: calcium hypophosphite, CaH4O4P2, purity 99.0%
Compound 3: sodium hypophosphite (NaH2PO2), H2NaO2P, purity 99.0%
Compound 4: water, H2O, purity 99.8%

System: water; phases: Crystal, Liquid, Air at 1 atmosphere
Property: Normal melting temperature, K (Crystal); method: Other
Normal melting temperature, K	uncertainty
273.15	.05

System: water; phases: Liquid
Property: Mass density, kg/m3 (Liquid); method: Pycnometric method
Temperature, K	Pressure, kPa	Mass density, kg/m3	uncertainty
273.15	101.3	999	

System: water + calcium hypophosphite; phases: Liquid, Crystal
Fixed: Pressure, kPa = 101.3
Property: Mass fraction of calcium hypophosphite (Liquid); method: Titration method
Temperature, K	Mass fraction of calcium hypophosphite	uncertainty
273.15	0	
272.15	.0244	
271.4	.0476	
270.15	.0909	
268.75	.1397	

System: water + calcium hypophosphite; phases: Liquid, Crystal
Fixed: Pressure, kPa = 101.3
Property: Mass fraction of calcium hypophosphite (Liquid); method: Titration method
Temperature, K	Mass fraction of calcium hypophosphite	uncertainty
268.75	.1397	
273.15	.1381	
283.15	.1362	
293.15	.1341	
303.15	.1322	
313.15	.1304	
323.15	.1293	
333.15	.1292	
343.15	.1292	
353.15	.1295	
363.15	.1297	
373.15	.1302	
376.95	.1302	

System: water + calcium hypophosphite; phases: Liquid
Fixed: Pressure, kPa = 101.3
Property: Mass density, kg/m3 (Liquid); method: Pycnometric method
Temperature, K	Mass fraction of calcium hypophosphite	Mass density, kg/m3	uncertainty
273.15	0	999	
272.15	.0244	1024	
271.4	.0476	1047	
270.15	.0909	1089	
268.75	.1397	1133	
273.15	.1381	1132	
283.15	.1362	1131	
293.15	.1341	1128	
303.15	.1322	1125	
313.15	.1304	1121	
323.15	.1293	1117	
333.15	.1292	1114	
343.15	.1292	1111	
353.15	.1295	1107	
363.15	.1297	1103	
373.15	.1302	1103	
376.95	.1302	1103	

System: water + calcium hypophosphite; phases: Liquid, Gas
Fixed: Pressure, kPa = 101.3
Property: Boiling temperature at pressure P, K (Liquid); method: Closed cell (Static) method
Mass fraction of calcium hypophosphite	Boiling temperature at pressure P, K	uncertainty
.1302	376.95	

System: water + calcium hypophosphite + calcium chloride; phases: Liquid, Crystal
Fixed: Temperature, K = 273.15
Fixed: Pressure, kPa = 101.3
Property: Mass fraction of calcium chloride (Liquid); method: Titration method
Mass fraction of calcium hypophosphite	Mass fraction of calcium chloride	uncertainty
.1381	0	
.1161	.0455	
.0885	.0964	
.0666	.1498	
.056	.1988	
.0478	.2475	
.0393	.31	
.0366	.3629	

System: water + calcium hypophosphite + calcium chloride; phases: Liquid, Crystal of intercomponent compound 1
Fixed: Temperature, K = 273.15
Fixed: Pressure, kPa = 101.3
Property: Mass fraction of calcium chloride (Liquid); method: Titration method
Mass fraction of calcium hypophosphite	Mass fraction of calcium chloride	uncertainty
.0366	.3629	
.0268	.3665	
.0109	.369	
0	.373	

System: water + calcium hypophosphite + calcium chloride; phases: Liquid
Fixed: Temperature, K = 273.15
Fixed: Pressure, kPa = 101.3
Property: Mass density, kg/m3 (Liquid); method: Pycnometric method
Mass fraction of calcium hypophosphite	Mass fraction of calcium chloride	Mass density, kg/m3	uncertainty
.1381	0	1132	
.1161	.0455	1161	
.0885	.0964	1196	
.0666	.1498	1250	
.056	.1988	1291	
.0478	.2475	1335	
.0393	.31	1385	
.0366	.3629	1454	
.0268	.3665	1450	
.0109	.369	1437	
0	.373	1427	

System: sodium hypophosphite (NaH2PO2) + water + calcium hypophosphite; phases: Liquid, Crystal
Fixed: Temperature, K = 273.15
Fixed: Pressure, kPa = 101.3
Property: Mass fraction of sodium hypophosphite (NaH2PO2) (Liquid); method: Titration method
Mass fraction of calcium hypophosphite	Mass fraction of sodium hypophosphite (NaH2PO2)	uncertainty
.1381	0	
.1018	.0397	
.0662	.0806	
.0393	.1249	
.0233	.172	

System: sodium hypophosphite (NaH2PO2) + water + calcium hypophosphite; phases: Liquid, Crystal of intercomponent compound 1
Fixed: Temperature, K = 273.15
Fixed: Pressure, kPa = 101.3
Property: Mass fraction of sodium hypophosphite (NaH2PO2) (Liquid); method: Titration method
Mass fraction of calcium hypophosphite	Mass fraction of sodium hypophosphite (NaH2PO2)	uncertainty
.0233	.172	
.0217	.1743	
.0189	.1894	
.0091	.2258	
.0029	.2735	
.0013	.3137	
.0008	.3483	
.0006	.374	
.0005	.4059	
.0004	.4356	
.0003	.4715	

System: sodium hypophosphite (NaH2PO2) + water + calcium hypophosphite; phases: Liquid, Crystal of intercomponent compound 2
Fixed: Temperature, K = 273.15
Fixed: Pressure, kPa = 101.3
Property: Mass fraction of sodium hypophosphite (NaH2PO2) (Liquid); method: Titration method
Mass fraction of calcium hypophosphite	Mass fraction of sodium hypophosphite (NaH2PO2)	uncertainty
.0003	.4715	
.0003	.4722	
0	.4776	

System: sodium hypophosphite (NaH2PO2) + water + calcium hypophosphite; phases: Liquid
Fixed: Temperature, K = 273.15
Fixed: Pressure, kPa = 101.3
Property: Mass density, kg/m3 (Liquid); method: Pycnometric method
Mass fraction of calcium hypophosphite	Mass fraction of sodium hypophosphite (NaH2PO2)	Mass density, kg/m3	uncertainty
.1381	0	1132	
.1018	.0397	1109	
.0662	.0806	1110	
.0393	.1249	1138	
.0233	.172	1178	
.0217	.1743	1174	
.0189	.1894	1179	
.0091	.2258	1240	
.0029	.2735	1271	
.0013	.3137	1299	
.0008	.3483	1315	
.0006	.374	1332	
.0005	.4059	1363	
.0004	.4356	1375	
.0003	.4715	1378	
.0003	.4722	1380	
0	.4776	1381	

System: water + calcium chloride; phases: Liquid, Crystal of intercomponent compound 1
Property: Mass fraction of calcium chloride (Liquid); method: Titration method
Temperature, K	Pressure, kPa	Mass fraction of calcium chloride	uncertainty
273.15	101.3	.373	

System: water + calcium chloride; phases: Liquid
Property: Mass density, kg/m3 (Liquid); method: Pycnometric method
Mass fraction of calcium chloride	Temperature, K	Pressure, kPa	Mass density, kg/m3	uncertainty
.373	273.15	101.3	1427	

System: sodium hypophosphite (NaH2PO2) + water; phases: Liquid, Crystal of intercomponent compound 2
Property: Mass fraction of sodium hypophosphite (NaH2PO2) (Liquid); method: Titration method
Temperature, K	Pressure, kPa	Mass fraction of sodium hypophosphite (NaH2PO2)	uncertainty
273.15	101.3	.4776	

System: sodium hypophosphite (NaH2PO2) + water; phases: Liquid
Property: Mass density, kg/m3 (Liquid); method: Pycnometric method
Mass fraction of sodium hypophosphite (NaH2PO2)	Temperature, K	Pressure, kPa	Mass density, kg/m3	uncertainty
.4776	273.15	101.3	1381	
