Measured thermophysical data. Densities, Viscosities, and Conductivities of Phosphonic Acid Solutions in N,N-Dimethylformamide and Water
Source: J. Chem. Eng. Data, 2017, 10.1021/acs.jced.6b00430
Compound 1: phosphonic acid, H3O3P, purity 98.5%
Compound 2: N,N-dimethylformamide, C3H7NO, purity 99.8%
Compound 3: water, H2O, purity 99.8%

System: N,N-dimethylformamide; phases: Liquid
Property: Viscosity, Pa*s (Liquid); method: Concentric cylinders viscometry
Temperature, K	Pressure, kPa	Viscosity, Pa*s	uncertainty
298.15	100	.000783	
308.15	100	.000699	
318.15	100	.000623	
328.15	100	.000555	
338.15	100	.000495	

System: N,N-dimethylformamide; phases: Liquid
Property: Mass density, kg/m3 (Liquid); method: Vibrating tube method
Temperature, K	Pressure, kPa	Mass density, kg/m3	uncertainty
298.15	100	943.92	
308.15	100	934.35	
318.15	100	924.72	
328.15	100	915.06	
338.15	100	905.35	
348.15	100	895.57	

System: water; phases: Liquid
Property: Viscosity, Pa*s (Liquid); method: Concentric cylinders viscometry
Temperature, K	Pressure, kPa	Viscosity, Pa*s	uncertainty
298.15	100	.00089	
308.15	100	.000719	
318.15	100	.000596	
328.15	100	.000504	
338.15	100	.000434	

System: water; phases: Liquid
Property: Mass density, kg/m3 (Liquid); method: Vibrating tube method
Temperature, K	Pressure, kPa	Mass density, kg/m3	uncertainty
298.15	100	997.04	
308.15	100	994.03	
318.15	100	990.21	
328.15	100	985.69	
338.15	100	980.55	

System: N,N-dimethylformamide + phosphonic acid; phases: Liquid
Fixed: Pressure, kPa = 100
Property: Electrical conductivity, S/m (Liquid); method: Alternating current cell with electrodes
Mole fraction of phosphonic acid	Temperature, K	Electrical conductivity, S/m	uncertainty
.1181	298.15	.0572	
.2984	298.15	.0925	
.3298	298.15	.0934	
.3968	298.15	.129	
.4479	298.15	.141	
.5761	298.15	.216	
.6316	298.15	.294	
.6554	298.15	.333	
.682	298.15	.411	
.7694	298.15	.663	
.7832	298.15	.702	
.1181	308.15	.0647	
.2984	308.15	.116	
.3298	308.15	.119	
.3968	308.15	.169	
.4479	308.15	.19	
.5761	308.15	.301	
.6316	308.15	.41	
.6554	308.15	.476	
.682	308.15	.589	
.7694	308.15	.959	
.7832	308.15	1.02	
.1181	318.15	.0725	
.2984	318.15	.142	
.3298	318.15	.148	
.3968	318.15	.217	
.4479	318.15	.25	
.5761	318.15	.397	
.6316	318.15	.548	
.6554	318.15	.626	
.682	318.15	.81	
.7694	318.15	1.33	
.7832	318.15	1.41	
.1181	328.15	.0815	
.2984	328.15	.173	
.3298	328.15	.183	
.3968	328.15	.275	
.4479	328.15	.316	
.5761	328.15	.512	
.6316	328.15	.71	
.6554	328.15	.802	
.682	328.15	1.07	
.7694	328.15	1.77	
.7832	328.15	1.91	
.1181	338.15	.12	
.2984	338.15	.212	
.3298	338.15	.226	
.3968	338.15	.351	
.4479	338.15	.356	
.5761	338.15	.642	
.6316	338.15	.891	
.6554	338.15	1.06	
.682	338.15	1.39	
.7694	338.15	2.29	
.7832	338.15	2.42	

System: N,N-dimethylformamide + phosphonic acid; phases: Liquid
Fixed: Pressure, kPa = 100
Property: Viscosity, Pa*s (Liquid); method: Concentric cylinders viscometry
Mole fraction of phosphonic acid	Temperature, K	Viscosity, Pa*s	uncertainty
0	298.15	.000783	
.1973	298.15	.00292	
.2507	298.15	.00475	
.2984	298.15	.00707	
.3115	298.15	.00788	
.3491	298.15	.0115	
.3968	298.15	.0176	
.3988	298.15	.0178	
.4107	298.15	.0207	
.4479	298.15	.0287	
.4968	298.15	.0416	
.5074	298.15	.0439	
.5503	298.15	.0624	
.5761	298.15	.0735	
.5993	298.15	.0805	
.6261	298.15	.09	
.6316	298.15	.0952	
.6478	298.15	.1028	
.6554	298.15	.1033	
.682	298.15	.1135	
.7142	298.15	.1227	
.7694	298.15	.1398	
.7832	298.15	.1425	
0	308.15	.000699	
.1973	308.15	.00249	
.2507	308.15	.00392	
.2984	308.15	.00572	
.3115	308.15	.0063	
.3491	308.15	.00906	
.3968	308.15	.0133	
.3988	308.15	.014	
.4107	308.15	.0154	
.4479	308.15	.0209	
.4968	308.15	.0292	
.5074	308.15	.0303	
.5503	308.15	.0424	
.5761	308.15	.0486	
.5993	308.15	.051	
.6261	308.15	.0594	
.6316	308.15	.0612	
.6478	308.15	.0645	
.6554	308.15	.0661	
.682	308.15	.0724	
.7142	308.15	.0783	
.7694	308.15	.0874	
.7832	308.15	.0882	
0	318.15	.000623	
.1973	318.15	.00216	
.2507	318.15	.00335	
.2984	318.15	.00477	
.3115	318.15	.00521	
.3491	318.15	.00726	
.3968	318.15	.0105	
.3988	318.15	.0106	
.4107	318.15	.012	
.4479	318.15	.0158	
.4968	318.15	.0212	
.5074	318.15	.0222	
.5503	318.15	.03	
.5761	318.15	.0341	
.5993	318.15	.0352	
.6261	318.15	.0412	
.6316	318.15	.042	
.6478	318.15	.0436	
.6554	318.15	.045	
.682	318.15	.049	
.7142	318.15	.0514	
.7694	318.15	.0573	
.7832	318.15	.0584	
0	328.15	.000555	
.1973	328.15	.00192	
.2507	328.15	.00288	
.2984	328.15	.00407	
.3115	328.15	.00429	
.3491	328.15	.00602	
.3968	328.15	.00865	
.3988	328.15	.0085	
.4107	328.15	.00962	
.4479	328.15	.0123	
.4968	328.15	.0162	
.5074	328.15	.016	
.5503	328.15	.022	
.5761	328.15	.0249	
.5993	328.15	.0255	
.6261	328.15	.0295	
.6316	328.15	.0301	
.6478	328.15	.0322	
.6554	328.15	.032	
.682	328.15	.0344	
.7142	328.15	.0371	
.7694	328.15	.0398	
.7832	328.15	.0405	
0	338.15	.000495	
.1973	338.15	.00167	
.2507	338.15	.00245	
.2984	338.15	.00349	
.3115	338.15	.00366	
.3491	338.15	.00502	
.3968	338.15	.007	
.3988	338.15	.00698	
.4107	338.15	.00775	
.4479	338.15	.00991	
.4968	338.15	.0127	
.5074	338.15	.0116	
.5503	338.15	.0172	
.5761	338.15	.0187	
.5993	338.15	.0192	
.6261	338.15	.0226	
.6316	338.15	.0223	
.6478	338.15	.0238	
.6554	338.15	.0236	
.682	338.15	.0252	
.7142	338.15	.027	
.7694	338.15	.0286	
.7832	338.15	.0291	

System: N,N-dimethylformamide + phosphonic acid; phases: Liquid
Fixed: Pressure, kPa = 100
Property: Mass density, kg/m3 (Liquid); method: Vibrating tube method
Temperature, K	Mole fraction of phosphonic acid	Mass density, kg/m3	uncertainty
298.15	0	943.92	
298.15	.0911	992.53	
298.15	.1365	1016.46	
298.15	.1798	1040.55	
298.15	.1829	1041.85	
298.15	.2293	1069.29	
298.15	.291	1104.79	
298.15	.3298	1129.74	
298.15	.3442	1137.78	
298.15	.3712	1154.77	
298.15	.3937	1169.25	
298.15	.4107	1182.13	
298.15	.421	1188.34	
298.15	.4479	1207.13	
298.15	.4707	1221.83	
298.15	.493	1235.89	
298.15	.5074	1244.77	
298.15	.5196	1255.1	
298.15	.5429	1270.6	
298.15	.5724	1292.1	
298.15	.5925	1306.05	
298.15	.6245	1328.62	
298.15	.6554	1355.76	
298.15	.6753	1364.54	
298.15	.6923	1378.85	
298.15	.7142	1399.02	
298.15	.725	1401.52	
298.15	.7592	1432.85	
298.15	.7694	1444	
298.15	.7845	1450.65	
308.15	0	934.35	
308.15	.0911	983.17	
308.15	.1365	1007.16	
308.15	.1798	1031.35	
308.15	.1829	1032.63	
308.15	.2293	1060.16	
308.15	.291	1095.72	
308.15	.3298	1120.73	
308.15	.3442	1128.83	
308.15	.3712	1145.98	
308.15	.3937	1160.41	
308.15	.4107	1173.31	
308.15	.421	1179.34	
308.15	.4479	1198.35	
308.15	.4707	1213.06	
308.15	.493	1227.23	
308.15	.5074	1236.13	
308.15	.5196	1246.49	
308.15	.5429	1262.02	
308.15	.5724	1283.54	
308.15	.5925	1297.57	
308.15	.6245	1320.2	
308.15	.6554	1347.39	
308.15	.6753	1356.23	
308.15	.6923	1370.56	
308.15	.7142	1390.77	
308.15	.725	1393.35	
308.15	.7592	1424.69	
308.15	.7694	1435.87	
308.15	.7845	1442.56	
318.15	0	924.72	
318.15	.0911	973.7	
318.15	.1365	997.83	
318.15	.1798	1022.15	
318.15	.1829	1023.41	
318.15	.2293	1051.04	
318.15	.291	1086.67	
318.15	.3298	1111.75	
318.15	.3442	1119.89	
318.15	.3712	1137.21	
318.15	.3937	1151.58	
318.15	.4107	1164.51	
318.15	.421	1170.67	
318.15	.4479	1189.61	
318.15	.4707	1204.42	
318.15	.493	1218.59	
318.15	.5074	1227.51	
318.15	.5196	1237.92	
318.15	.5429	1253.45	
318.15	.5724	1275.06	
318.15	.5925	1289.1	
318.15	.6245	1311.81	
318.15	.6554	1339.01	
318.15	.6753	1347.93	
318.15	.6923	1362.29	
318.15	.7142	1382.56	
318.15	.725	1385.03	
318.15	.7592	1416.55	
318.15	.7694	1427.77	
318.15	.7845	1434.51	
328.15	0	915.06	
328.15	.0911	962.58	
328.15	.1365	987.46	
328.15	.1798	1011.93	
328.15	.1829	1013.72	
328.15	.2293	1040.86	
328.15	.291	1078.19	
328.15	.3298	1102.77	
328.15	.3442	1111.65	
328.15	.3712	1129.07	
328.15	.3937	1143.78	
328.15	.4107	1155.04	
328.15	.421	1161.92	
328.15	.4479	1180.89	
328.15	.4707	1195.74	
328.15	.493	1211.17	
328.15	.5074	1221.28	
328.15	.5196	1229.86	
328.15	.5429	1246.5	
328.15	.5724	1267.84	
328.15	.5925	1282.63	
328.15	.6245	1306.4	
328.15	.6554	1330.73	
328.15	.6753	1345.08	
328.15	.6923	1358.22	
328.15	.7142	1375.29	
328.15	.725	1383.85	
328.15	.7592	1411.1	
328.15	.7694	1419.7	
328.15	.7845	1430.74	
338.15	0	905.35	
338.15	.0911	954.96	
338.15	.1365	979.11	
338.15	.1798	1003.68	
338.15	.1829	1004.95	
338.15	.2293	1032.82	
338.15	.291	1068.59	
338.15	.3298	1093.82	
338.15	.3442	1102.06	
338.15	.3712	1119.72	
338.15	.3937	1133.99	
338.15	.4107	1155.74	
338.15	.421	1160.23	
338.15	.4479	1172.2	
338.15	.4707	1187.28	
338.15	.493	1201.35	
338.15	.5074	1210.34	
338.15	.5196	1220.86	
338.15	.5429	1236.41	
338.15	.5724	1258.27	
338.15	.5925	1272.25	
338.15	.6245	1295.1	
338.15	.6554	1322.46	
338.15	.6753	1331.43	
338.15	.6923	1345.85	
338.15	.7142	1374.38	
338.15	.725	1368.62	
338.15	.7592	1400.4	
338.15	.7694	1411.68	
338.15	.7845	1422.74	
348.15	0	895.57	
348.15	.0911	945.43	
348.15	.1365	969.77	
348.15	.1798	994.4	
348.15	.1829	995.9	
348.15	.2293	1023.58	
348.15	.291	1059.58	
348.15	.3298	1084.14	
348.15	.3442	1093.18	
348.15	.3712	1110.71	
348.15	.3937	1125.23	
348.15	.4107	1147	
348.15	.421	1150.66	
348.15	.4479	1158.49	
348.15	.4707	1177.52	
348.15	.493	1192.77	
348.15	.5074	1201.8	
348.15	.5196	1210.75	
348.15	.5429	1227.92	
348.15	.5724	1254.23	
348.15	.5925	1263.87	
348.15	.6245	1286.78	
348.15	.6554	1310.01	
348.15	.6753	1324.98	
348.15	.6923	1337.69	
348.15	.7142	1366.2	
348.15	.725	1373	
348.15	.7592	1394.6	
348.15	.7694	1401.02	
348.15	.7845	1410.65	

System: water + phosphonic acid; phases: Liquid
Fixed: Pressure, kPa = 100
Property: Electrical conductivity, S/m (Liquid); method: Alternating current cell with electrodes
Mole fraction of phosphonic acid	Temperature, K	Electrical conductivity, S/m	uncertainty
.0122	298.15	7.43	
.0215	298.15	10.4	
.0299	298.15	13.4	
.0403	298.15	16.9	
.0484	298.15	18.5	
.0541	298.15	20	
.0682	298.15	22.1	
.0704	298.15	22.4	
.0799	298.15	23.9	
.1011	298.15	25.9	
.1335	298.15	26	
.1689	298.15	25.7	
.1909	298.15	25.2	
.197	298.15	25	
.2154	298.15	24.5	
.2524	298.15	23.1	
.292	298.15	20.7	
.3959	298.15	15.4	
.0122	308.15	7.89	
.0215	308.15	11.3	
.0299	308.15	14.3	
.0403	308.15	18.4	
.0484	308.15	20	
.0541	308.15	21.3	
.0682	308.15	23.9	
.0704	308.15	24.2	
.0799	308.15	25.5	
.1011	308.15	27.4	
.1335	308.15	28.6	
.1689	308.15	28.5	
.1909	308.15	28.5	
.197	308.15	28	
.2154	308.15	28	
.2524	308.15	25.8	
.292	308.15	23.9	
.3959	308.15	18.5	
.0122	318.15	8.18	
.0215	318.15	11.8	
.0299	318.15	15	
.0403	318.15	19.2	
.0484	318.15	20.9	
.0541	318.15	22.4	
.0682	318.15	25.4	
.0704	318.15	25.8	
.0799	318.15	27.3	
.1011	318.15	29.7	
.1335	318.15	31.3	
.1689	318.15	31.5	
.1909	318.15	31.2	
.197	318.15	30.8	
.2154	318.15	30	
.2524	318.15	28.8	
.292	318.15	27.2	
.3959	318.15	21.1	
.0122	328.15	8.38	
.0215	328.15	12.1	
.0299	328.15	15.3	
.0403	328.15	19.6	
.0484	328.15	21.9	
.0541	328.15	23.5	
.0682	328.15	26.5	
.0704	328.15	26.9	
.0799	328.15	28.6	
.1011	328.15	31	
.1335	328.15	33.3	
.1689	328.15	33.8	
.1909	328.15	33.3	
.197	328.15	33.2	
.2154	328.15	32.5	
.2524	328.15	31.3	
.292	328.15	30.2	
.3959	328.15	24.1	
.0122	338.15	8.4	
.0215	338.15	12.2	
.0299	338.15	15.6	
.0403	338.15	20.3	
.0484	338.15	22.9	
.0541	338.15	24.2	
.0682	338.15	27.7	
.0704	338.15	28.2	
.0799	338.15	30	
.1011	338.15	32.9	
.1335	338.15	35.3	
.1689	338.15	35.5	
.1909	338.15	35	
.197	338.15	34.9	
.2154	338.15	34.1	
.2524	338.15	33.5	
.292	338.15	32.4	
.3959	338.15	25.9	

System: water + phosphonic acid; phases: Liquid
Fixed: Pressure, kPa = 100
Property: Viscosity, Pa*s (Liquid); method: Capillary tube (Ostwald; Ubbelohde) method
Mole fraction of phosphonic acid	Temperature, K	Viscosity, Pa*s	uncertainty
0	298.15	.00089	
.0122	298.15	.000962	
.0215	298.15	.00105	
.0299	298.15	.00117	
.0704	298.15	.00164	
.1011	298.15	.00206	
.1335	298.15	.0026	
.2154	298.15	.00424	
.2524	298.15	.00519	
.292	298.15	.00626	
0	308.15	.000719	
.0122	308.15	.000782	
.0215	308.15	.000852	
.0299	308.15	.00094	
.0704	308.15	.00131	
.1011	308.15	.00165	
.1335	308.15	.00208	
.2154	308.15	.00332	
.2524	308.15	.00412	
.292	308.15	.00494	
0	318.15	.000596	
.0122	318.15	.000636	
.0215	318.15	.000689	
.0299	318.15	.000754	
.0704	318.15	.00106	
.1011	318.15	.00132	
.1335	318.15	.00166	
.2154	318.15	.00268	
.2524	318.15	.00327	
.292	318.15	.0039	
0	328.15	.000504	
.0122	328.15	.000529	
.0215	328.15	.000567	
.0299	328.15	.000617	
.0704	328.15	.000866	
.1011	328.15	.00107	
.1335	328.15	.00135	
.2154	328.15	.0022	
.2524	328.15	.00265	
.292	328.15	.00314	
0	338.15	.000434	
.0122	338.15	.000464	
.0215	338.15	.00049	
.0299	338.15	.000531	
.0704	338.15	.000749	
.1011	338.15	.000922	
.1335	338.15	.00116	
.2154	338.15	.00188	
.2524	338.15	.00225	
.292	338.15	.00266	

System: water + phosphonic acid; phases: Liquid
Fixed: Pressure, kPa = 100
Property: Mass density, kg/m3 (Liquid); method: Vibrating tube method
Temperature, K	Mole fraction of phosphonic acid	Mass density, kg/m3	uncertainty
298.15	0	997.04	
298.15	.0122	1022.04	
298.15	.0215	1039.69	
298.15	.0299	1055.02	
298.15	.0403	1073.24	
298.15	.0451	1081.91	
298.15	.0484	1087.03	
298.15	.0541	1096.6	
298.15	.0682	1119.23	
298.15	.0704	1122.59	
298.15	.0799	1137.16	
298.15	.0832	1141.9	
298.15	.1011	1167.81	
298.15	.1335	1210.62	
298.15	.1689	1252.12	
298.15	.1909	1275.45	
298.15	.197	1281.23	
298.15	.2154	1299.73	
298.15	.2524	1332.1	
298.15	.292	1363.42	
298.15	.3959	1434.35	
308.15	0	994.03	
308.15	.0122	1018.53	
308.15	.0215	1035.86	
308.15	.0299	1050.95	
308.15	.0403	1068.89	
308.15	.0451	1077.48	
308.15	.0484	1082.48	
308.15	.0541	1091.91	
308.15	.0682	1114.22	
308.15	.0704	1117.57	
308.15	.0799	1131.9	
308.15	.0832	1136.63	
308.15	.1011	1162.2	
308.15	.1335	1204.48	
308.15	.1689	1245.45	
308.15	.1909	1268.54	
308.15	.197	1274.31	
308.15	.2154	1292.62	
308.15	.2524	1324.67	
308.15	.292	1355.74	
308.15	.3959	1426.18	
318.15	0	990.21	
318.15	.0122	1013.66	
318.15	.0215	1030.98	
318.15	.0299	1045.97	
318.15	.0403	1063.78	
318.15	.0451	1072.47	
318.15	.0484	1077.26	
318.15	.0541	1086.62	
318.15	.0682	1108.74	
318.15	.0704	1112.04	
318.15	.0799	1126.27	
318.15	.0832	1130.94	
318.15	.1011	1156.21	
318.15	.1335	1198.05	
318.15	.1689	1238.7	
318.15	.1909	1261.54	
318.15	.197	1267.22	
318.15	.2154	1285.38	
318.15	.2524	1317.07	
318.15	.292	1347.86	
318.15	.3959	1418.01	
328.15	0	985.69	
328.15	.0122	1009.46	
328.15	.0215	1026.28	
328.15	.0299	1041.02	
328.15	.0403	1058.55	
328.15	.0451	1066.53	
328.15	.0484	1071.83	
328.15	.0541	1081.05	
328.15	.0682	1102.88	
328.15	.0704	1106.07	
328.15	.0799	1120.18	
328.15	.0832	1124.84	
328.15	.1011	1149.89	
328.15	.1335	1191.35	
328.15	.1689	1231.63	
328.15	.1909	1254.36	
328.15	.197	1259.95	
328.15	.2154	1277.98	
328.15	.2524	1309.72	
328.15	.292	1340.42	
328.15	.3959	1409.83	
338.15	0	980.55	
338.15	.0122	1001.4	
338.15	.0215	1018.77	
338.15	.0299	1033.72	
338.15	.0403	1051.48	
338.15	.0451	1060.26	
338.15	.0484	1064.9	
338.15	.0541	1074.21	
338.15	.0682	1096.19	
338.15	.0704	1099.46	
338.15	.0799	1113.58	
338.15	.0832	1118.32	
338.15	.1011	1143.23	
338.15	.1335	1184.38	
338.15	.1689	1224.52	
338.15	.1909	1246.94	
338.15	.197	1252.51	
338.15	.2154	1270.41	
338.15	.2524	1301.38	
338.15	.292	1331.63	
338.15	.3959	1401.65	
