Measured thermophysical data. Viscosities of Some Saccharides in Aqueous Solutions of Phosphate-Based Inorganic Salts
Source: J. Chem. Eng. Data, 2016, 10.1021/acs.jced.5b00845
Compound 1: (+)-xylose, C5H10O5, purity 99%
Compound 2: D-(-)-ribose, C5H10O5, purity 99%
Compound 3: D-(-)-fructose, C6H12O6, purity 99%
Compound 4: D(+)-glucose, C6H12O6, purity 99%
Compound 5: D-mannose, C6H12O6, purity 99%
Compound 6: deoxyribose, C5H10O4, purity 99%
Compound 7: 2-deoxy-D-glucose, C6H12O5, purity 99%
Compound 8: 6-deoxy-.alpha.-L-mannopyranose, C6H12O5, purity 99%
Compound 9: methyl .alpha.-D-mannopyranoside, C7H14O6, purity 99%
Compound 10: methyl .alpha.-D-glucoside, C7H14O6, purity 99%
Compound 11: D-(+)-Saccharose, C12H22O11, purity 99%
Compound 12: D-(+)-cellobiose, C12H22O11, purity 98%
Compound 13: D-(+)-lactose, C12H22O11, purity 98%
Compound 14: D-(+)-maltose, C12H22O11, purity 98%
Compound 15: melezitose, C18H32O16, purity 98%
Compound 16: raffinose, C18H32O16, purity 98%
Compound 17: monobasic potassium phosphate, H2KO4P, purity 99%
Compound 18: sodium dihydrogen phosphate, H2NaO4P, purity 99%
Compound 19: ammonium biphosphate, H6NO4P, purity 98%
Compound 20: potassium phosphate, K3O4P, purity 98%
Compound 21: water, H2O, purity 99.8%

System: water; phases: Liquid
Property: Viscosity, Pa*s (Liquid); method: Capillary tube (Ostwald; Ubbelohde) method
Temperature, K	Pressure, kPa	Viscosity, Pa*s	uncertainty
288.15	100	.001138	
298.15	100	.00089	
308.15	100	.000719	
318.15	100	.000596	

System: (+)-xylose + water + monobasic potassium phosphate; phases: Liquid
Fixed: Pressure, kPa = 100
Property: Viscosity, Pa*s (Liquid); method: Capillary tube (Ostwald; Ubbelohde) method
Temperature, K	Solvent: Molality, mol/kg of monobasic potassium phosphate	Molality, mol/kg of (+)-xylose	Viscosity, Pa*s	uncertainty
288.15	0	0	.001138	
288.15	0	.05317	.001159	
288.15	0	.06636	.001165	
288.15	0	.07781	.001169	
288.15	0	.08585	.001173	
288.15	0	.10086	.001179	
288.15	0	.11453	.001185	
298.15	0	0	.00089	
298.15	0	.05317	.000906	
298.15	0	.06636	.00091	
298.15	0	.07781	.000914	
298.15	0	.08585	.000917	
298.15	0	.10086	.000921	
298.15	0	.11453	.000925	
308.15	0	0	.000719	
308.15	0	.05317	.000732	
308.15	0	.06636	.000735	
308.15	0	.07781	.000737	
308.15	0	.08585	.000739	
308.15	0	.10086	.000743	
308.15	0	.11453	.000746	
318.15	0	0	.000596	
318.15	0	.05317	.000606	
318.15	0	.06636	.000608	
318.15	0	.07781	.00061	
318.15	0	.08585	.000612	
318.15	0	.10086	.000614	
318.15	0	.11453	.000618	
288.15	.25	0	.001236	
288.15	.25	.05506	.001263	
288.15	.25	.06358	.001267	
288.15	.25	.08447	.001277	
288.15	.25	.10035	.001285	
288.15	.25	.11792	.001294	
288.15	.25	.13286	.001302	
298.15	.25	0	.000972	
298.15	.25	.05506	.000992	
298.15	.25	.06358	.000995	
298.15	.25	.08447	.001003	
298.15	.25	.10035	.001009	
298.15	.25	.11792	.001015	
298.15	.25	.13286	.001021	
308.15	.25	0	.000777	
308.15	.25	.05506	.000792	
308.15	.25	.06358	.000794	
308.15	.25	.08447	.000799	
308.15	.25	.10035	.000804	
308.15	.25	.11792	.000809	
308.15	.25	.13286	.000812	
318.15	.25	0	.000633	
318.15	.25	.05506	.000644	
318.15	.25	.06358	.000646	
318.15	.25	.08447	.00065	
318.15	.25	.10035	.000654	
318.15	.25	.11792	.000657	
318.15	.25	.13286	.00066	
288.15	.5	0	.001301	
288.15	.5	.05332	.00133	
288.15	.5	.06464	.001337	
288.15	.5	.07704	.001343	
288.15	.5	.09398	.001352	
288.15	.5	.10609	.00136	
288.15	.5	.12172	.001369	
298.15	.5	0	.001025	
298.15	.5	.05332	.001046	
298.15	.5	.06464	.001051	
298.15	.5	.07704	.001056	
298.15	.5	.09398	.001063	
298.15	.5	.10609	.001068	
298.15	.5	.12172	.001074	
308.15	.5	0	.000815	
308.15	.5	.05332	.000831	
308.15	.5	.06464	.000834	
308.15	.5	.07704	.000838	
308.15	.5	.09398	.000843	
308.15	.5	.10609	.000847	
308.15	.5	.12172	.000851	
318.15	.5	0	.000666	
318.15	.5	.05332	.000678	
318.15	.5	.06464	.000681	
318.15	.5	.07704	.000684	
318.15	.5	.09398	.000687	
318.15	.5	.10609	.00069	
318.15	.5	.12172	.000693	
288.15	1	0	.001539	
288.15	1	.05458	.001578	
288.15	1	.06419	.001584	
288.15	1	.08035	.001596	
288.15	1	.09445	.001606	
288.15	1	.10665	.001614	
288.15	1	.12325	.001626	
298.15	1	0	.001159	
298.15	1	.05458	.001186	
298.15	1	.06419	.00119	
298.15	1	.08035	.001198	
298.15	1	.09445	.001205	
298.15	1	.10665	.001212	
298.15	1	.12325	.00122	
308.15	1	0	.000939	
308.15	1	.05458	.000959	
308.15	1	.06419	.000963	
308.15	1	.08035	.000969	
308.15	1	.09445	.000975	
308.15	1	.10665	.000979	
308.15	1	.12325	.000986	
318.15	1	0	.000763	
318.15	1	.05458	.000778	
318.15	1	.06419	.000781	
318.15	1	.08035	.000786	
318.15	1	.09445	.000789	
318.15	1	.10665	.000793	
318.15	1	.12325	.000798	
288.15	1.25	0	.001636	
288.15	1.25	.06069	.001682	
288.15	1.25	.07859	.001698	
288.15	1.25	.08896	.001706	
288.15	1.25	.10901	.001721	
288.15	1.25	.1251	.001733	
288.15	1.25	.13993	.001747	
298.15	1.25	0	.001294	
298.15	1.25	.06069	.001328	
298.15	1.25	.07859	.001339	
298.15	1.25	.08896	.001345	
298.15	1.25	.10901	.001356	
298.15	1.25	.1251	.001365	
298.15	1.25	.13993	.001375	
308.15	1.25	0	.001027	
308.15	1.25	.06069	.001052	
308.15	1.25	.07859	.00106	
308.15	1.25	.08896	.001064	
308.15	1.25	.10901	.001073	
308.15	1.25	.1251	.00108	
308.15	1.25	.13993	.001086	
318.15	1.25	0	.00084	
318.15	1.25	.06069	.00086	
318.15	1.25	.07859	.000865	
318.15	1.25	.08896	.000869	
318.15	1.25	.10901	.000875	
318.15	1.25	.1251	.00088	
318.15	1.25	.13993	.000885	

System: D-(-)-ribose + water + monobasic potassium phosphate; phases: Liquid
Fixed: Pressure, kPa = 100
Property: Viscosity, Pa*s (Liquid); method: Capillary tube (Ostwald; Ubbelohde) method
Temperature, K	Solvent: Molality, mol/kg of monobasic potassium phosphate	Molality, mol/kg of D-(-)-ribose	Viscosity, Pa*s	uncertainty
288.15	.5	.05241	.00126	
298.15	.5	.05241	.00099	
308.15	.5	.05241	.00079	
318.15	.5	.05241	.000643	
288.15	1.25	.05465	.001575	
298.15	1.25	.05465	.001184	
308.15	1.25	.05465	.000958	
318.15	1.25	.05465	.000777	
288.15	1	.0564	.001331	
298.15	1	.0564	.001045	
308.15	1	.0564	.00083	
318.15	1	.0564	.000678	
308.15	0	.05682	.000731	
318.15	0	.05682	.000605	
288.15	.25	.05682	.001159	
298.15	.25	.05682	.000906	
308.15	.25	.05682	.000731	
318.15	.25	.05682	.000605	
288.15	0	.05682	.001159	
298.15	0	.05682	.000906	
288.15	1.25	.06395	.001582	
298.15	1.25	.06395	.001189	
308.15	1.25	.06395	.000961	
318.15	1.25	.06395	.00078	
288.15	.25	.06586	.001163	
298.15	.25	.06586	.000909	
308.15	.25	.06586	.000733	
318.15	.25	.06586	.000607	
308.15	0	.06586	.000733	
288.15	0	.06586	.001163	
318.15	0	.06586	.000607	
298.15	0	.06586	.000909	
288.15	1	.06821	.001337	
298.15	1	.06821	.001051	
308.15	1	.06821	.000834	
318.15	1	.06821	.00068	
288.15	.5	.07047	.001269	
298.15	.5	.07047	.000996	
308.15	.5	.07047	.000794	
318.15	.5	.07047	.000646	
318.15	.25	.07814	.000609	
288.15	.25	.07814	.001168	
288.15	0	.07814	.001168	
308.15	.25	.07814	.000736	
298.15	0	.07814	.000912	
298.15	.25	.07814	.000912	
318.15	0	.07814	.000609	
308.15	0	.07814	.000736	
288.15	1.25	.07936	.001593	
298.15	1.25	.07936	.001196	
308.15	1.25	.07936	.000967	
318.15	1.25	.07936	.000784	
288.15	1	.08295	.001345	
298.15	1	.08295	.001056	
308.15	1	.08295	.000837	
318.15	1	.08295	.000683	
298.15	.5	.08533	.001001	
308.15	.5	.08533	.000798	
318.15	.5	.08533	.000649	
288.15	.5	.08533	.001276	
288.15	.25	.09455	.001174	
288.15	0	.09455	.001174	
308.15	.25	.09455	.000739	
318.15	.25	.09455	.000612	
298.15	0	.09455	.000917	
298.15	.25	.09455	.000917	
318.15	0	.09455	.000612	
308.15	0	.09455	.000739	
288.15	1.25	.09473	.001603	
298.15	1.25	.09473	.001202	
308.15	1.25	.09473	.000972	
318.15	1.25	.09473	.000788	
288.15	1	.09507	.00135	
298.15	1	.09507	.00106	
308.15	1	.09507	.000841	
318.15	1	.09507	.000686	
308.15	.5	.09546	.000801	
318.15	.5	.09546	.000651	
298.15	.5	.09546	.001004	
288.15	.5	.09546	.001281	
288.15	1	.10416	.001356	
298.15	1	.10416	.001063	
308.15	1	.10416	.000844	
318.15	1	.10416	.000688	
298.15	0	.1051	.000919	
298.15	.25	.1051	.000919	
308.15	.25	.1051	.000741	
288.15	0	.1051	.001178	
318.15	.25	.1051	.000614	
288.15	.25	.1051	.001178	
308.15	0	.1051	.000741	
318.15	0	.1051	.000614	
288.15	1.25	.10965	.001613	
298.15	1.25	.10965	.001209	
308.15	1.25	.10965	.000977	
318.15	1.25	.10965	.000791	
288.15	.5	.11169	.001288	
298.15	.5	.11169	.00101	
308.15	.5	.11169	.000804	
318.15	.5	.11169	.000654	
288.15	1	.12103	.001365	
308.15	1	.12103	.000849	
298.15	1	.12103	.001071	
318.15	1	.12103	.000691	
298.15	1.25	.12476	.001217	
288.15	1.25	.12476	.001623	
308.15	1.25	.12476	.000982	
318.15	1.25	.12476	.000796	
308.15	.25	.12855	.000746	
298.15	.25	.12855	.000926	
288.15	0	.12855	.001187	
288.15	.25	.12855	.001187	
318.15	.25	.12855	.000618	
318.15	0	.12855	.000618	
308.15	0	.12855	.000746	
298.15	0	.12855	.000926	
308.15	.5	.12885	.000809	
318.15	.5	.12885	.000657	
298.15	.5	.12885	.001015	
288.15	.5	.12885	.001297	

System: D-(-)-fructose + water + monobasic potassium phosphate; phases: Liquid
Fixed: Pressure, kPa = 100
Property: Viscosity, Pa*s (Liquid); method: Capillary tube (Ostwald; Ubbelohde) method
Temperature, K	Solvent: Molality, mol/kg of monobasic potassium phosphate	Amount concentration (molarity), mol/dm3 of D-(-)-fructose	Viscosity, Pa*s	uncertainty
288.15	.5	.0546	.001345	
288.15	1.25	.05672	.001701	
288.15	1	.0606	.001602	
288.15	0	.0628	.001174	
288.15	.25	.06499	.001281	
288.15	0	.06594	.001175	
288.15	1.25	.06968	.001716	
288.15	1	.07458	.001616	
288.15	.5	.0769	.001361	
288.15	.25	.08213	.001293	
288.15	1	.08238	.001624	
288.15	0	.08345	.001185	
288.15	1.25	.08706	.001736	
288.15	.25	.0976	.001303	
288.15	.5	.09834	.001378	
288.15	1.25	.09965	.001751	
288.15	1	.1044	.001646	
288.15	.25	.10788	.001311	
288.15	0	.11242	.001201	
288.15	.5	.11495	.001391	
288.15	1.25	.11903	.001774	
288.15	.5	.1225	.001397	
288.15	1	.1241	.001665	
288.15	1	.12621	.001668	
288.15	.25	.12686	.001325	
288.15	0	.12848	.001209	
288.15	1.25	.13604	.001794	
288.15	.5	.14282	.001412	
288.15	0	.15231	.001222	
288.15	.25	.17482	.001358	
298.15	.5	.0769	.001068	
298.15	.25	.08213	.001013	
298.15	1	.0606	.001201	
298.15	1	.08238	.001216	
298.15	0	.08345	.000924	
298.15	1.25	.08706	.001366	
298.15	.25	.0976	.00102	
298.15	.5	.09834	.001079	
298.15	0	.0628	.000916	
298.15	1.25	.09965	.001376	
298.15	.5	.0546	.001055	
298.15	1	.1044	.001231	
298.15	.25	.10788	.001026	
298.15	.25	.06499	.001004	
298.15	0	.11242	.000935	
298.15	.5	.11495	.001088	
298.15	1.25	.11903	.001393	
298.15	.5	.1225	.001093	
298.15	1.25	.05672	.001341	
298.15	1	.1241	.001246	
298.15	0	.06594	.000917	
298.15	1	.12621	.001247	
298.15	.25	.12686	.001035	
298.15	1.25	.06968	.001352	
298.15	0	.12848	.000941	
298.15	1.25	.13604	.001407	
298.15	.5	.14282	.001103	
298.15	0	.15231	.000951	
298.15	1	.07458	.001211	
298.15	.25	.17482	.001058	
308.15	.5	.0546	.000837	
308.15	1.25	.09965	.001088	
308.15	1	.0606	.000971	
308.15	1	.07458	.000979	
308.15	1	.1044	.000994	
308.15	.25	.10788	.000816	
308.15	1	.08238	.000983	
308.15	0	.08345	.000745	
308.15	.25	.06499	.000801	
308.15	0	.11242	.000754	
308.15	.5	.11495	.000862	
308.15	0	.06594	.00074	
308.15	.5	.0769	.000847	
308.15	1.25	.11903	.0011	
308.15	.5	.1225	.000865	
308.15	1	.1241	.001005	
308.15	0	.0628	.000739	
308.15	1	.12621	.001006	
308.15	1.25	.08706	.00108	
308.15	.25	.0976	.000813	
308.15	1.25	.05672	.001063	
308.15	.25	.12686	.000823	
308.15	0	.12848	.000759	
308.15	.25	.08213	.000807	
308.15	1.25	.06968	.001071	
308.15	1.25	.13604	.00111	
308.15	.5	.14282	.000874	
308.15	.5	.09834	.000856	
308.15	0	.15231	.000766	
308.15	.25	.17482	.000841	
318.15	.5	.11495	.000699	
318.15	.5	.0769	.000688	
318.15	1	.0606	.000786	
318.15	1	.12621	.00081	
318.15	.25	.06499	.000649	
318.15	1.25	.08706	.000878	
318.15	1	.07458	.000791	
318.15	1	.08238	.000794	
318.15	1	.1044	.000802	
318.15	.25	.12686	.000665	
318.15	0	.12848	.000624	
318.15	.25	.0976	.000658	
318.15	0	.11242	.000621	
318.15	1.25	.11903	.000891	
318.15	0	.06594	.000611	
318.15	0	.0628	.00061	
318.15	0	.08345	.000614	
318.15	1.25	.13604	.000899	
318.15	1.25	.06968	.000871	
318.15	.25	.08213	.000654	
318.15	.25	.10788	.00066	
318.15	.5	.14282	.000707	
318.15	.5	.1225	.000701	
318.15	1.25	.05672	.000865	
318.15	0	.15231	.000629	
318.15	1.25	.09965	.000884	
318.15	.25	.17482	.000677	
318.15	.5	.09834	.000694	
318.15	.5	.0546	.000682	
318.15	1	.1241	.000809	

System: D(+)-glucose + water + monobasic potassium phosphate; phases: Liquid
Fixed: Pressure, kPa = 100
Property: Viscosity, Pa*s (Liquid); method: Capillary tube (Ostwald; Ubbelohde) method
Temperature, K	Solvent: Molality, mol/kg of monobasic potassium phosphate	Molality, mol/kg of D(+)-glucose	Viscosity, Pa*s	uncertainty
288.15	0	.05335	.001167	
288.15	0	.06616	.001175	
288.15	0	.08424	.001185	
288.15	0	.10383	.001196	
288.15	0	.11415	.001202	
288.15	0	.13225	.001211	
298.15	0	.05335	.000912	
298.15	0	.06616	.000918	
298.15	0	.08424	.000924	
298.15	0	.10383	.000932	
298.15	0	.11415	.000936	
298.15	0	.13225	.000943	
308.15	0	.05335	.000736	
308.15	0	.06616	.00074	
308.15	0	.08424	.000744	
308.15	0	.10383	.00075	
308.15	0	.11415	.000754	
308.15	0	.13225	.000759	
318.15	0	.05335	.000609	
318.15	0	.06616	.000612	
318.15	0	.08424	.000616	
318.15	0	.10383	.000621	
318.15	0	.11415	.000623	
318.15	0	.13225	.000628	
288.15	.25	.05426	.001275	
288.15	.25	.06475	.001284	
288.15	.25	.07871	.001294	
288.15	.25	.08875	.001301	
288.15	.25	.11227	.001318	
288.15	.25	.1328	.001333	
298.15	.25	.05426	.001001	
298.15	.25	.06475	.001006	
298.15	.25	.07871	.001014	
298.15	.25	.08875	.00102	
298.15	.25	.11227	.001031	
298.15	.25	.1328	.001042	
308.15	.25	.05426	.000798	
308.15	.25	.06475	.000802	
308.15	.25	.07871	.000807	
308.15	.25	.08875	.00081	
308.15	.25	.11227	.000819	
308.15	.25	.1328	.000828	
318.15	.25	.05426	.000648	
318.15	.25	.06475	.000651	
318.15	.25	.07871	.000655	
318.15	.25	.08875	.000657	
318.15	.25	.11227	.000664	
318.15	.25	.1328	.00067	
288.15	.5	.05238	.001344	
288.15	.5	.06503	.001355	
288.15	.5	.07683	.001364	
288.15	.5	.08911	.001375	
288.15	.5	.11147	.001394	
288.15	.5	.13153	.001408	
298.15	.5	.05238	.001056	
298.15	.5	.06503	.001064	
298.15	.5	.07683	.00107	
298.15	.5	.08911	.001077	
298.15	.5	.11147	.001091	
298.15	.5	.13153	.001102	
308.15	.5	.05238	.000838	
308.15	.5	.06503	.000843	
308.15	.5	.07683	.000848	
308.15	.5	.08911	.000854	
308.15	.5	.11147	.000863	
308.15	.5	.13153	.000871	
318.15	.5	.05238	.000683	
318.15	.5	.06503	.000687	
318.15	.5	.07683	.00069	
318.15	.5	.08911	.000694	
318.15	.5	.11147	.000701	
318.15	.5	.13153	.000708	
288.15	1	.058	.001601	
288.15	1	.07873	.001625	
288.15	1	.09109	.001639	
288.15	1	.1126	.001661	
288.15	1	.12596	.001677	
288.15	1	.14577	.001698	
298.15	1	.058	.001201	
298.15	1	.07873	.001218	
298.15	1	.09109	.001227	
298.15	1	.1126	.001243	
298.15	1	.12596	.001254	
298.15	1	.14577	.001268	
308.15	1	.058	.000971	
308.15	1	.07873	.000983	
308.15	1	.09109	.00099	
308.15	1	.1126	.001002	
308.15	1	.12596	.001009	
308.15	1	.14577	.00102	
318.15	1	.058	.000787	
318.15	1	.07873	.000796	
318.15	1	.09109	.0008	
318.15	1	.1126	.000809	
318.15	1	.12596	.000814	
318.15	1	.14577	.000822	
288.15	1.25	.06329	.001713	
288.15	1.25	.081	.001735	
288.15	1.25	.0982	.001757	
288.15	1.25	.12394	.001787	
288.15	1.25	.1342	.001801	
288.15	1.25	.15239	.001822	
298.15	1.25	.06329	.00135	
298.15	1.25	.081	.001366	
298.15	1.25	.0982	.001382	
298.15	1.25	.12394	.001405	
298.15	1.25	.1342	.001413	
298.15	1.25	.15239	.00143	
308.15	1.25	.06329	.001068	
308.15	1.25	.081	.001079	
308.15	1.25	.0982	.001091	
308.15	1.25	.12394	.001107	
308.15	1.25	.1342	.001113	
308.15	1.25	.15239	.001126	
318.15	1.25	.06329	.000871	
318.15	1.25	.081	.000879	
318.15	1.25	.0982	.000887	
318.15	1.25	.12394	.0009	
318.15	1.25	.1342	.000905	
318.15	1.25	.15239	.000914	

System: D-mannose + water + monobasic potassium phosphate; phases: Liquid
Fixed: Pressure, kPa = 100
Property: Viscosity, Pa*s (Liquid); method: Capillary tube (Ostwald; Ubbelohde) method
Temperature, K	Solvent: Molality, mol/kg of monobasic potassium phosphate	Molality, mol/kg of D-mannose	Viscosity, Pa*s	uncertainty
288.15	0	.0537	.001169	
288.15	0	.07266	.001179	
288.15	0	.08053	.001184	
288.15	0	.08978	.001189	
288.15	0	.10584	.001199	
288.15	0	.11763	.001206	
298.15	0	.0537	.000912	
298.15	0	.07266	.00092	
298.15	0	.08053	.000924	
298.15	0	.08978	.000928	
298.15	0	.10584	.000934	
298.15	0	.11763	.000939	
308.15	0	.0537	.000736	
308.15	0	.07266	.000741	
308.15	0	.08053	.000744	
308.15	0	.08978	.000747	
308.15	0	.10584	.000753	
308.15	0	.11763	.000756	
318.15	0	.0537	.000609	
318.15	0	.07266	.000614	
318.15	0	.08053	.000616	
318.15	0	.08978	.000618	
318.15	0	.10584	.000622	
318.15	0	.11763	.000625	
288.15	.25	.05225	.00127	
288.15	.25	.0644	.001279	
288.15	.25	.07216	.001285	
288.15	.25	.08951	.001296	
288.15	.25	.10433	.001305	
288.15	.25	.11692	.001314	
298.15	.25	.05225	.000997	
298.15	.25	.0644	.001002	
298.15	.25	.07216	.001007	
298.15	.25	.08951	.001015	
298.15	.25	.10433	.001022	
298.15	.25	.11692	.001028	
308.15	.25	.05225	.000795	
308.15	.25	.0644	.0008	
308.15	.25	.07216	.000802	
308.15	.25	.08951	.000808	
308.15	.25	.10433	.000814	
308.15	.25	.11692	.000818	
318.15	.25	.05225	.000647	
318.15	.25	.0644	.00065	
318.15	.25	.07216	.000652	
318.15	.25	.08951	.000657	
318.15	.25	.10433	.000661	
318.15	.25	.11692	.000665	
288.15	.5	.0501	.001339	
288.15	.5	.06223	.001348	
288.15	.5	.07587	.001359	
288.15	.5	.0887	.001369	
288.15	.5	.10682	.001383	
288.15	.5	.12468	.001396	
298.15	.5	.0501	.001052	
298.15	.5	.06223	.001059	
298.15	.5	.07587	.001065	
298.15	.5	.0887	.001073	
298.15	.5	.10682	.001081	
298.15	.5	.12468	.001091	
308.15	.5	.0501	.000834	
308.15	.5	.06223	.000839	
308.15	.5	.07587	.000845	
308.15	.5	.0887	.00085	
308.15	.5	.10682	.000857	
308.15	.5	.12468	.000864	
318.15	.5	.0501	.000681	
318.15	.5	.06223	.000684	
318.15	.5	.07587	.000689	
318.15	.5	.0887	.000693	
318.15	.5	.10682	.000698	
318.15	.5	.12468	.000704	
288.15	1	.05393	.001594	
288.15	1	.07992	.001621	
288.15	1	.0889	.00163	
288.15	1	.11279	.001651	
288.15	1	.12316	.001663	
288.15	1	.13627	.001673	
298.15	1	.05393	.001197	
298.15	1	.07992	.001215	
298.15	1	.0889	.001221	
298.15	1	.11279	.001236	
298.15	1	.12316	.001243	
298.15	1	.13627	.001253	
308.15	1	.05393	.000966	
308.15	1	.07992	.00098	
308.15	1	.0889	.000985	
308.15	1	.11279	.000997	
308.15	1	.12316	.001002	
308.15	1	.13627	.00101	
318.15	1	.05393	.000784	
318.15	1	.07992	.000794	
318.15	1	.0889	.000798	
318.15	1	.11279	.000806	
318.15	1	.12316	.00081	
318.15	1	.13627	.000816	
288.15	1.25	.05231	.001695	
288.15	1.25	.06791	.001715	
288.15	1.25	.07969	.001727	
288.15	1.25	.08909	.001738	
288.15	1.25	.1082	.001759	
288.15	1.25	.11479	.001767	
298.15	1.25	.05231	.001338	
298.15	1.25	.06791	.00135	
298.15	1.25	.07969	.001361	
298.15	1.25	.08909	.001369	
298.15	1.25	.1082	.001383	
298.15	1.25	.11479	.001389	
308.15	1.25	.05231	.001058	
308.15	1.25	.06791	.001067	
308.15	1.25	.07969	.001074	
308.15	1.25	.08909	.00108	
308.15	1.25	.1082	.001091	
308.15	1.25	.11479	.001096	
318.15	1.25	.05231	.000864	
318.15	1.25	.06791	.000871	
318.15	1.25	.07969	.000877	
318.15	1.25	.08909	.000881	
318.15	1.25	.1082	.00089	
318.15	1.25	.11479	.000893	

System: deoxyribose + water + monobasic potassium phosphate; phases: Liquid
Fixed: Pressure, kPa = 100
Property: Viscosity, Pa*s (Liquid); method: Capillary tube (Ostwald; Ubbelohde) method
Temperature, K	Solvent: Molality, mol/kg of monobasic potassium phosphate	Molality, mol/kg of deoxyribose	Viscosity, Pa*s	uncertainty
288.15	0	.05709	.001163	
288.15	0	.07583	.001172	
288.15	0	.09188	.001179	
288.15	0	.09812	.001181	
288.15	0	.11241	.001188	
288.15	0	.13656	.001198	
288.15	0	.14659	.001202	
298.15	0	.05709	.000909	
298.15	0	.07583	.000915	
298.15	0	.09188	.00092	
298.15	0	.09812	.000922	
298.15	0	.11241	.000927	
298.15	0	.13656	.000935	
298.15	0	.14659	.000938	
308.15	0	.05709	.000734	
308.15	0	.07583	.000738	
308.15	0	.09188	.000742	
308.15	0	.09812	.000744	
308.15	0	.11241	.000747	
308.15	0	.13656	.000753	
308.15	0	.14659	.000755	
318.15	0	.05709	.000607	
318.15	0	.07583	.000611	
318.15	0	.09188	.000614	
318.15	0	.09812	.000615	
318.15	0	.11241	.000618	
318.15	0	.13656	.000623	
318.15	0	.14659	.000624	
288.15	.25	.06019	.001267	
288.15	.25	.06564	.001269	
288.15	.25	.08723	.00128	
288.15	.25	.10896	.001291	
288.15	.25	.12215	.001298	
288.15	.25	.14371	.001308	
288.15	.25	.16745	.00132	
298.15	.25	.06019	.000995	
298.15	.25	.06564	.000997	
298.15	.25	.08723	.001005	
298.15	.25	.10896	.001013	
298.15	.25	.12215	.001018	
298.15	.25	.14371	.001026	
298.15	.25	.16745	.001034	
308.15	.25	.06019	.000793	
308.15	.25	.06564	.000795	
308.15	.25	.08723	.000801	
308.15	.25	.10896	.000806	
308.15	.25	.12215	.00081	
308.15	.25	.14371	.000816	
308.15	.25	.16745	.000822	
318.15	.25	.06019	.000645	
318.15	.25	.06564	.000646	
318.15	.25	.08723	.00065	
318.15	.25	.10896	.000655	
318.15	.25	.12215	.000657	
318.15	.25	.14371	.000661	
318.15	.25	.16745	.000666	
288.15	.5	.05336	.001332	
288.15	.5	.07192	.001343	
288.15	.5	.08646	.001351	
288.15	.5	.11034	.001365	
288.15	.5	.12022	.00137	
288.15	.5	.14934	.001387	
288.15	.5	.16146	.001394	
298.15	.5	.05336	.001047	
298.15	.5	.07192	.001055	
298.15	.5	.08646	.001061	
298.15	.5	.11034	.001071	
298.15	.5	.12022	.001076	
298.15	.5	.14934	.001088	
298.15	.5	.16146	.001093	
308.15	.5	.05336	.000832	
308.15	.5	.07192	.000837	
308.15	.5	.08646	.000842	
308.15	.5	.11034	.000849	
308.15	.5	.12022	.000852	
308.15	.5	.14934	.000861	
308.15	.5	.16146	.000865	
318.15	.5	.05336	.000679	
318.15	.5	.07192	.000683	
318.15	.5	.08646	.000686	
318.15	.5	.11034	.000692	
318.15	.5	.12022	.000694	
318.15	.5	.14934	.0007	
318.15	.5	.16146	.000703	
288.15	1	.04979	.001578	
288.15	1	.06092	.001587	
288.15	1	.07478	.001598	
288.15	1	.08899	.001609	
288.15	1	.11005	.001625	
288.15	1	.1318	.001642	
288.15	1	.14925	.001655	
298.15	1	.04979	.001186	
298.15	1	.06092	.001193	
298.15	1	.07478	.0012	
298.15	1	.08899	.001208	
298.15	1	.11005	.001219	
298.15	1	.1318	.001231	
298.15	1	.14925	.00124	
308.15	1	.04979	.00096	
308.15	1	.06092	.000964	
308.15	1	.07478	.00097	
308.15	1	.08899	.000976	
308.15	1	.11005	.000984	
308.15	1	.1318	.000993	
308.15	1	.14925	.001	
318.15	1	.04979	.000779	
318.15	1	.06092	.000782	
318.15	1	.07478	.000786	
318.15	1	.08899	.00079	
318.15	1	.11005	.000797	
318.15	1	.1318	.000803	
318.15	1	.14925	.000808	
288.15	1.25	.05043	.001682	
288.15	1.25	.07712	.001706	
288.15	1.25	.10107	.001727	
288.15	1.25	.1195	.001743	
288.15	1.25	.147	.001768	
288.15	1.25	.17415	.001791	
298.15	1.25	.05043	.001327	
298.15	1.25	.07712	.001345	
298.15	1.25	.10107	.00136	
298.15	1.25	.1195	.001372	
298.15	1.25	.147	.00139	
298.15	1.25	.17415	.001407	
308.15	1.25	.05043	.001052	
308.15	1.25	.07712	.001064	
308.15	1.25	.10107	.001076	
308.15	1.25	.1195	.001085	
308.15	1.25	.147	.001098	
308.15	1.25	.17415	.00111	
318.15	1.25	.05043	.000859	
318.15	1.25	.07712	.000869	
318.15	1.25	.10107	.000877	
318.15	1.25	.1195	.000884	
318.15	1.25	.147	.000894	
318.15	1.25	.17415	.000904	

System: 2-deoxy-D-glucose + water + monobasic potassium phosphate; phases: Liquid
Fixed: Pressure, kPa = 100
Property: Viscosity, Pa*s (Liquid); method: Capillary tube (Ostwald; Ubbelohde) method
Temperature, K	Solvent: Molality, mol/kg of monobasic potassium phosphate	Molality, mol/kg of 2-deoxy-D-glucose	Viscosity, Pa*s	uncertainty
288.15	0	.04241	.00116	
288.15	0	.05017	.001164	
288.15	0	.05842	.001168	
288.15	0	.08671	.001182	
288.15	0	.09745	.001188	
288.15	0	.12227	.0012	
288.15	0	.14099	.00121	
298.15	0	.04241	.000907	
298.15	0	.05017	.000909	
298.15	0	.05842	.000913	
298.15	0	.08671	.000923	
298.15	0	.09745	.000927	
298.15	0	.12227	.000936	
298.15	0	.14099	.000943	
308.15	0	.04241	.000732	
308.15	0	.05017	.000734	
308.15	0	.05842	.000736	
308.15	0	.08671	.000744	
308.15	0	.09745	.000747	
308.15	0	.12227	.000754	
308.15	0	.14099	.00076	
318.15	0	.04241	.000606	
318.15	0	.05017	.000608	
318.15	0	.05842	.000609	
318.15	0	.08671	.000616	
318.15	0	.09745	.000618	
318.15	0	.12227	.000624	
318.15	0	.14099	.000628	
288.15	.25	.05109	.001267	
288.15	.25	.07367	.00128	
288.15	.25	.08802	.001289	
288.15	.25	.11056	.001302	
288.15	.25	.12273	.001309	
288.15	.25	.13985	.001319	
288.15	.25	.15579	.001328	
298.15	.25	.05109	.000995	
298.15	.25	.07367	.001005	
298.15	.25	.08802	.001011	
298.15	.25	.11056	.001021	
298.15	.25	.12273	.001026	
298.15	.25	.13985	.001033	
298.15	.25	.15579	.00104	
308.15	.25	.05109	.000794	
308.15	.25	.07367	.000801	
308.15	.25	.08802	.000805	
308.15	.25	.11056	.000813	
308.15	.25	.12273	.000817	
308.15	.25	.13985	.000822	
308.15	.25	.15579	.000827	
318.15	.25	.05109	.000646	
318.15	.25	.07367	.000651	
318.15	.25	.08802	.000655	
318.15	.25	.11056	.00066	
318.15	.25	.12273	.000663	
318.15	.25	.13985	.000667	
318.15	.25	.15579	.000671	
288.15	.5	.04652	.001333	
288.15	.5	.05899	.001341	
288.15	.5	.06831	.001347	
288.15	.5	.08852	.001361	
288.15	.5	.11398	.001378	
288.15	.5	.12107	.001382	
288.15	.5	.13956	.001394	
288.15	.5	.16497	.001411	
298.15	.5	.04652	.001048	
298.15	.5	.05899	.001054	
298.15	.5	.06831	.001059	
298.15	.5	.08852	.001069	
298.15	.5	.11398	.001081	
298.15	.5	.12107	.001084	
298.15	.5	.13956	.001093	
298.15	.5	.16497	.001106	
308.15	.5	.04652	.000832	
308.15	.5	.05899	.000837	
308.15	.5	.06831	.00084	
308.15	.5	.08852	.000847	
308.15	.5	.11398	.000857	
308.15	.5	.12107	.000859	
308.15	.5	.13956	.000866	
308.15	.5	.16497	.000875	
318.15	.5	.04652	.000679	
318.15	.5	.05899	.000683	
318.15	.5	.06831	.000685	
318.15	.5	.08852	.000691	
318.15	.5	.11398	.000697	
318.15	.5	.12107	.000699	
318.15	.5	.13956	.000704	
318.15	.5	.16497	.000711	
288.15	1	.04772	.001582	
288.15	1	.06132	.001594	
288.15	1	.08039	.001612	
288.15	1	.11046	.001638	
288.15	1	.12519	.001651	
288.15	1	.14524	.001669	
288.15	1	.16162	.001683	
298.15	1	.04772	.001189	
298.15	1	.06132	.001198	
298.15	1	.08039	.00121	
298.15	1	.11046	.001229	
298.15	1	.12519	.001238	
298.15	1	.14524	.00125	
298.15	1	.16162	.00126	
308.15	1	.04772	.000962	
308.15	1	.06132	.000969	
308.15	1	.08039	.000978	
308.15	1	.11046	.000992	
308.15	1	.12519	.000999	
308.15	1	.14524	.001008	
308.15	1	.16162	.001016	
318.15	1	.04772	.00078	
318.15	1	.06132	.000785	
318.15	1	.08039	.000792	
318.15	1	.11046	.000803	
318.15	1	.12519	.000808	
318.15	1	.14524	.000815	
318.15	1	.16162	.00082	
288.15	1.25	.05098	.001689	
288.15	1.25	.06226	.0017	
288.15	1.25	.07673	.001715	
288.15	1.25	.08775	.001726	
288.15	1.25	.1119	.001751	
288.15	1.25	.13367	.001773	
288.15	1.25	.16465	.001804	
298.15	1.25	.05098	.001333	
298.15	1.25	.06226	.001341	
298.15	1.25	.07673	.001352	
298.15	1.25	.08775	.00136	
298.15	1.25	.1119	.001378	
298.15	1.25	.13367	.001394	
298.15	1.25	.16465	.001417	
308.15	1.25	.05098	.001056	
308.15	1.25	.06226	.001062	
308.15	1.25	.07673	.00107	
308.15	1.25	.08775	.001076	
308.15	1.25	.1119	.001089	
308.15	1.25	.13367	.001101	
308.15	1.25	.16465	.001118	
318.15	1.25	.05098	.000862	
318.15	1.25	.06226	.000867	
318.15	1.25	.07673	.000873	
318.15	1.25	.08775	.000878	
318.15	1.25	.1119	.000888	
318.15	1.25	.13367	.000897	
318.15	1.25	.16465	.00091	

System: 6-deoxy-.alpha.-L-mannopyranose + water + monobasic potassium phosphate; phases: Liquid
Fixed: Pressure, kPa = 100
Property: Viscosity, Pa*s (Liquid); method: Capillary tube (Ostwald; Ubbelohde) method
Temperature, K	Solvent: Molality, mol/kg of monobasic potassium phosphate	Molality, mol/kg of 6-deoxy-.alpha.-L-mannopyranose	Viscosity, Pa*s	uncertainty
288.15	0	.04655	.001165	
288.15	0	.05637	.001171	
288.15	0	.08317	.001186	
288.15	0	.0856	.001187	
288.15	0	.11085	.001202	
288.15	0	.12478	.00121	
288.15	0	.14709	.001222	
298.15	0	.04655	.00091	
298.15	0	.05637	.000914	
298.15	0	.08317	.000925	
298.15	0	.0856	.000926	
298.15	0	.11085	.000937	
298.15	0	.12478	.000943	
298.15	0	.14709	.000952	
308.15	0	.04655	.000734	
308.15	0	.05637	.000737	
308.15	0	.08317	.000746	
308.15	0	.0856	.000747	
308.15	0	.11085	.000755	
308.15	0	.12478	.000759	
308.15	0	.14709	.000766	
318.15	0	.04655	.000608	
318.15	0	.05637	.00061	
318.15	0	.08317	.000617	
318.15	0	.0856	.000618	
318.15	0	.11085	.000623	
318.15	0	.12478	.000627	
318.15	0	.14709	.000632	
288.15	.25	.05641	.001274	
288.15	.25	.0775	.001288	
288.15	.25	.09919	.001302	
288.15	.25	.11514	.001313	
288.15	.25	.13365	.001325	
288.15	.25	.14345	.001331	
288.15	.25	.15995	.001342	
298.15	.25	.05641	.001	
298.15	.25	.0775	.00101	
298.15	.25	.09919	.001021	
298.15	.25	.11514	.001028	
298.15	.25	.13365	.001037	
298.15	.25	.14345	.001042	
298.15	.25	.15995	.00105	
308.15	.25	.05641	.000798	
308.15	.25	.0775	.000805	
308.15	.25	.09919	.000813	
308.15	.25	.11514	.000819	
308.15	.25	.13365	.000825	
308.15	.25	.14345	.000829	
308.15	.25	.15995	.000835	
318.15	.25	.05641	.000649	
318.15	.25	.0775	.000654	
318.15	.25	.09919	.00066	
318.15	.25	.11514	.000664	
318.15	.25	.13365	.000669	
318.15	.25	.14345	.000672	
318.15	.25	.15995	.000676	
288.15	.5	.05687	.001344	
288.15	.5	.07957	.001361	
288.15	.5	.09244	.00137	
288.15	.5	.12223	.001392	
288.15	.5	.13813	.001404	
288.15	.5	.15711	.001418	
288.15	.5	.17404	.00143	
298.15	.5	.05687	.001056	
298.15	.5	.07957	.001068	
298.15	.5	.09244	.001075	
298.15	.5	.12223	.001091	
298.15	.5	.13813	.0011	
298.15	.5	.15711	.00111	
298.15	.5	.17404	.001119	
308.15	.5	.05687	.000838	
308.15	.5	.07957	.000847	
308.15	.5	.09244	.000852	
308.15	.5	.12223	.000864	
308.15	.5	.13813	.00087	
308.15	.5	.15711	.000878	
308.15	.5	.17404	.000884	
318.15	.5	.05687	.000683	
318.15	.5	.07957	.00069	
318.15	.5	.09244	.000694	
318.15	.5	.12223	.000703	
318.15	.5	.13813	.000707	
318.15	.5	.15711	.000713	
318.15	.5	.17404	.000718	
288.15	1	.0548	.001594	
288.15	1	.05709	.001596	
288.15	1	.07417	.001613	
288.15	1	.10055	.001639	
288.15	1	.12229	.00166	
288.15	1	.13526	.001673	
288.15	1	.15218	.001689	
298.15	1	.0548	.001197	
298.15	1	.05709	.001199	
298.15	1	.07417	.001211	
298.15	1	.10055	.001229	
298.15	1	.12229	.001244	
298.15	1	.13526	.001252	
298.15	1	.15218	.001264	
308.15	1	.0548	.000968	
308.15	1	.05709	.000969	
308.15	1	.07417	.000978	
308.15	1	.10055	.000992	
308.15	1	.12229	.001003	
308.15	1	.13526	.00101	
308.15	1	.15218	.001018	
318.15	1	.0548	.000785	
318.15	1	.05709	.000786	
318.15	1	.07417	.000792	
318.15	1	.10055	.000802	
318.15	1	.12229	.000811	
318.15	1	.13526	.000816	
318.15	1	.15218	.000822	
288.15	1.25	.0541	.001697	
288.15	1.25	.05601	.001699	
288.15	1.25	.0758	.001722	
288.15	1.25	.09553	.001744	
288.15	1.25	.12232	.001773	
288.15	1.25	.13801	.00179	
288.15	1.25	.16535	.00182	
298.15	1.25	.0541	.001339	
298.15	1.25	.05601	.00134	
298.15	1.25	.0758	.001356	
298.15	1.25	.09553	.001373	
298.15	1.25	.12232	.001394	
298.15	1.25	.13801	.001407	
298.15	1.25	.16535	.001429	
308.15	1.25	.0541	.00106	
308.15	1.25	.05601	.001061	
308.15	1.25	.0758	.001073	
308.15	1.25	.09553	.001085	
308.15	1.25	.12232	.001101	
308.15	1.25	.13801	.00111	
308.15	1.25	.16535	.001126	
318.15	1.25	.0541	.000865	
318.15	1.25	.05601	.000866	
318.15	1.25	.0758	.000875	
318.15	1.25	.09553	.000884	
318.15	1.25	.12232	.000896	
318.15	1.25	.13801	.000903	
318.15	1.25	.16535	.000915	

System: methyl .alpha.-D-mannopyranoside + water + monobasic potassium phosphate; phases: Liquid
Fixed: Pressure, kPa = 100
Property: Viscosity, Pa*s (Liquid); method: Capillary tube (Ostwald; Ubbelohde) method
Temperature, K	Solvent: Molality, mol/kg of monobasic potassium phosphate	Molality, mol/kg of methyl .alpha.-D-mannopyranoside	Viscosity, Pa*s	uncertainty
288.15	0	.05551	.001172	
288.15	0	.0769	.001185	
288.15	0	.09681	.001197	
288.15	0	.11658	.001209	
288.15	0	.1344	.00122	
288.15	0	.1466	.001227	
288.15	0	.16324	.001237	
298.15	0	.05551	.000916	
298.15	0	.0769	.000925	
298.15	0	.09681	.000934	
298.15	0	.11658	.000943	
298.15	0	.1344	.000951	
298.15	0	.1466	.000956	
298.15	0	.16324	.000964	
308.15	0	.05551	.000739	
308.15	0	.0769	.000746	
308.15	0	.09681	.000753	
308.15	0	.11658	.00076	
308.15	0	.1344	.000766	
308.15	0	.1466	.00077	
308.15	0	.16324	.000775	
318.15	0	.05551	.000611	
318.15	0	.0769	.000617	
318.15	0	.09681	.000623	
318.15	0	.11658	.000628	
318.15	0	.1344	.000633	
318.15	0	.1466	.000636	
318.15	0	.16324	.00064	
288.15	.25	.05705	.001276	
288.15	.25	.06897	.001284	
288.15	.25	.07735	.00129	
288.15	.25	.09359	.001301	
288.15	.25	.11311	.001314	
288.15	.25	.12705	.001324	
288.15	.25	.15573	.001343	
298.15	.25	.05705	.001002	
298.15	.25	.06897	.001008	
298.15	.25	.07735	.001012	
298.15	.25	.09359	.00102	
298.15	.25	.11311	.00103	
298.15	.25	.12705	.001037	
298.15	.25	.15573	.001051	
308.15	.25	.05705	.000799	
308.15	.25	.06897	.000803	
308.15	.25	.07735	.000806	
308.15	.25	.09359	.000812	
308.15	.25	.11311	.00082	
308.15	.25	.12705	.000825	
308.15	.25	.15573	.000835	
318.15	.25	.05705	.00065	
318.15	.25	.06897	.000653	
318.15	.25	.07735	.000655	
318.15	.25	.09359	.00066	
318.15	.25	.11311	.000665	
318.15	.25	.12705	.000669	
318.15	.25	.15573	.000677	
288.15	.5	.05575	.001344	
288.15	.5	.07068	.001356	
288.15	.5	.08606	.001368	
288.15	.5	.10551	.001382	
288.15	.5	.12432	.001397	
288.15	.5	.13833	.001407	
288.15	.5	.15869	.001422	
298.15	.5	.05575	.001056	
298.15	.5	.07068	.001065	
298.15	.5	.08606	.001073	
298.15	.5	.10551	.001084	
298.15	.5	.12432	.001095	
298.15	.5	.13833	.001102	
298.15	.5	.15869	.001114	
308.15	.5	.05575	.000839	
308.15	.5	.07068	.000845	
308.15	.5	.08606	.000851	
308.15	.5	.10551	.00086	
308.15	.5	.12432	.000867	
308.15	.5	.13833	.000873	
308.15	.5	.15869	.000881	
318.15	.5	.05575	.000684	
318.15	.5	.07068	.000689	
318.15	.5	.08606	.000694	
318.15	.5	.10551	.0007	
318.15	.5	.12432	.000706	
318.15	.5	.13833	.00071	
318.15	.5	.15869	.000717	
288.15	1	.05605	.001596	
288.15	1	.0736	.001614	
288.15	1	.09675	.001637	
288.15	1	.11649	.001657	
288.15	1	.1288	.001669	
288.15	1	.14531	.001685	
288.15	1	.15771	.001697	
298.15	1	.05605	.001199	
298.15	1	.0736	.001212	
298.15	1	.09675	.001228	
298.15	1	.11649	.001242	
298.15	1	.1288	.00125	
298.15	1	.14531	.001262	
298.15	1	.15771	.00127	
308.15	1	.05605	.00097	
308.15	1	.0736	.000979	
308.15	1	.09675	.000992	
308.15	1	.11649	.001002	
308.15	1	.1288	.001009	
308.15	1	.14531	.001017	
308.15	1	.15771	.001024	
318.15	1	.05605	.000786	
318.15	1	.0736	.000794	
318.15	1	.09675	.000803	
318.15	1	.11649	.000811	
318.15	1	.1288	.000816	
318.15	1	.14531	.000823	
318.15	1	.15771	.000827	
288.15	1.25	.05414	.001698	
288.15	1.25	.07485	.001722	
288.15	1.25	.0905	.00174	
288.15	1.25	.10857	.00176	
288.15	1.25	.12741	.001781	
288.15	1.25	.14474	.001801	
288.15	1.25	.16189	.00182	
298.15	1.25	.05414	.00134	
298.15	1.25	.07485	.001358	
298.15	1.25	.0905	.001371	
298.15	1.25	.10857	.001386	
298.15	1.25	.12741	.001401	
298.15	1.25	.14474	.001416	
298.15	1.25	.16189	.00143	
308.15	1.25	.05414	.001061	
308.15	1.25	.07485	.001074	
308.15	1.25	.0905	.001084	
308.15	1.25	.10857	.001095	
308.15	1.25	.12741	.001106	
308.15	1.25	.14474	.001117	
308.15	1.25	.16189	.001127	
318.15	1.25	.05414	.000866	
318.15	1.25	.07485	.000876	
318.15	1.25	.0905	.000884	
318.15	1.25	.10857	.000892	
318.15	1.25	.12741	.000901	
318.15	1.25	.14474	.000909	
318.15	1.25	.16189	.000917	

System: methyl .alpha.-D-glucoside + water + monobasic potassium phosphate; phases: Liquid
Fixed: Pressure, kPa = 100
Property: Viscosity, Pa*s (Liquid); method: Capillary tube (Ostwald; Ubbelohde) method
Temperature, K	Solvent: Molality, mol/kg of monobasic potassium phosphate	Molality, mol/kg of methyl .alpha.-D-glucoside	Viscosity, Pa*s	uncertainty
288.15	0	.06502	.001174	
288.15	0	.07733	.001181	
288.15	0	.09597	.001191	
288.15	0	.1109	.0012	
288.15	0	.12198	.001206	
288.15	0	.12189	.001207	
288.15	0	.14653	.001219	
298.15	0	.06502	.000917	
298.15	0	.07733	.000922	
298.15	0	.09597	.000929	
298.15	0	.1109	.000935	
298.15	0	.12198	.00094	
298.15	0	.12189	.000941	
298.15	0	.14653	.00095	
308.15	0	.06502	.00074	
308.15	0	.07733	.000744	
308.15	0	.09597	.000749	
308.15	0	.1109	.000754	
308.15	0	.12198	.000757	
308.15	0	.12189	.000758	
308.15	0	.14653	.000765	
318.15	0	.06502	.000612	
318.15	0	.07733	.000615	
318.15	0	.09597	.000619	
318.15	0	.1109	.000623	
318.15	0	.12198	.000626	
318.15	0	.12189	.000625	
318.15	0	.14653	.000631	
288.15	.25	.06469	.001278	
288.15	.25	.07897	.001287	
288.15	.25	.10291	.001303	
288.15	.25	.13238	.001321	
288.15	.25	.13088	.001321	
288.15	.25	.14318	.001328	
288.15	.25	.15765	.001337	
298.15	.25	.06469	.001003	
298.15	.25	.07897	.00101	
298.15	.25	.10291	.00102	
298.15	.25	.13238	.001034	
298.15	.25	.13088	.001033	
298.15	.25	.14318	.001039	
298.15	.25	.15765	.001045	
308.15	.25	.06469	.000799	
308.15	.25	.07897	.000804	
308.15	.25	.10291	.000812	
308.15	.25	.13238	.000822	
308.15	.25	.13088	.000823	
308.15	.25	.14318	.000826	
308.15	.25	.15765	.000831	
318.15	.25	.06469	.00065	
318.15	.25	.07897	.000653	
318.15	.25	.10291	.000659	
318.15	.25	.13238	.000667	
318.15	.25	.13088	.000668	
318.15	.25	.14318	.000669	
318.15	.25	.15765	.000673	
288.15	.5	.06572	.001349	
288.15	.5	.08632	.001364	
288.15	.5	.09915	.001373	
288.15	.5	.11403	.001383	
288.15	.5	.13092	.001395	
288.15	.5	.14306	.001404	
288.15	.5	.16031	.001416	
298.15	.5	.06572	.001059	
298.15	.5	.08632	.00107	
298.15	.5	.09915	.001076	
298.15	.5	.11403	.001084	
298.15	.5	.13092	.001093	
298.15	.5	.14306	.001099	
298.15	.5	.16031	.001108	
308.15	.5	.06572	.000841	
308.15	.5	.08632	.000849	
308.15	.5	.09915	.000854	
308.15	.5	.11403	.00086	
308.15	.5	.13092	.000866	
308.15	.5	.14306	.000871	
308.15	.5	.16031	.000877	
318.15	.5	.06572	.000685	
318.15	.5	.08632	.000691	
318.15	.5	.09915	.000695	
318.15	.5	.11403	.000699	
318.15	.5	.13092	.000704	
318.15	.5	.14306	.000707	
318.15	.5	.16031	.000712	
288.15	1	.05249	.00159	
288.15	1	.05985	.001597	
288.15	1	.07903	.001615	
288.15	1	.0882	.001623	
288.15	1	.10114	.001636	
288.15	1	.11673	.00165	
288.15	1	.15137	.001682	
298.15	1	.05249	.001194	
298.15	1	.05985	.001199	
298.15	1	.07903	.001211	
298.15	1	.0882	.001217	
298.15	1	.10114	.001226	
298.15	1	.11673	.001236	
298.15	1	.15137	.001258	
308.15	1	.05249	.000966	
308.15	1	.05985	.00097	
308.15	1	.07903	.000979	
308.15	1	.0882	.000984	
308.15	1	.10114	.00099	
308.15	1	.11673	.000998	
308.15	1	.15137	.001015	
318.15	1	.05249	.000783	
318.15	1	.05985	.000786	
318.15	1	.07903	.000793	
318.15	1	.0882	.000796	
318.15	1	.10114	.000801	
318.15	1	.11673	.000807	
318.15	1	.15137	.00082	
288.15	1.25	.05096	.001692	
288.15	1.25	.06446	.001706	
288.15	1.25	.08791	.001732	
288.15	1.25	.09784	.001742	
288.15	1.25	.11303	.001759	
288.15	1.25	.12554	.001772	
288.15	1.25	.15496	.001803	
298.15	1.25	.05096	.001335	
298.15	1.25	.06446	.001345	
298.15	1.25	.08791	.001364	
298.15	1.25	.09784	.001371	
298.15	1.25	.11303	.001383	
298.15	1.25	.12554	.001393	
298.15	1.25	.15496	.001415	
308.15	1.25	.05096	.001057	
308.15	1.25	.06446	.001065	
308.15	1.25	.08791	.001079	
308.15	1.25	.09784	.001085	
308.15	1.25	.11303	.001094	
308.15	1.25	.12554	.001101	
308.15	1.25	.15496	.001118	
318.15	1.25	.05096	.000863	
318.15	1.25	.06446	.000869	
318.15	1.25	.08791	.000879	
318.15	1.25	.09784	.000884	
318.15	1.25	.11303	.00089	
318.15	1.25	.12554	.000896	
318.15	1.25	.15496	.000907	

System: D-(+)-Saccharose + water + monobasic potassium phosphate; phases: Liquid
Fixed: Pressure, kPa = 100
Property: Viscosity, Pa*s (Liquid); method: Capillary tube (Ostwald; Ubbelohde) method
Temperature, K	Solvent: Molality, mol/kg of monobasic potassium phosphate	Molality, mol/kg of D-(+)-Saccharose	Viscosity, Pa*s	uncertainty
288.15	0	.05768	.001205	
288.15	0	.06994	.001219	
288.15	0	.07682	.001227	
288.15	0	.08384	.001235	
288.15	0	.09221	.001244	
288.15	0	.11026	.001265	
288.15	0	.12371	.00128	
288.15	0	.14366	.001302	
298.15	0	.05768	.000941	
298.15	0	.06994	.000951	
298.15	0	.07682	.000957	
298.15	0	.08384	.000963	
298.15	0	.09221	.00097	
298.15	0	.11026	.000986	
298.15	0	.12371	.000997	
298.15	0	.14366	.001014	
308.15	0	.05768	.000758	
308.15	0	.06994	.000766	
308.15	0	.07682	.000771	
308.15	0	.08384	.000776	
308.15	0	.09221	.000781	
308.15	0	.11026	.000793	
308.15	0	.12371	.000802	
308.15	0	.14366	.000815	
318.15	0	.05768	.000627	
318.15	0	.06994	.000634	
318.15	0	.07682	.000637	
318.15	0	.08384	.000641	
318.15	0	.09221	.000645	
318.15	0	.11026	.000655	
318.15	0	.12371	.000662	
318.15	0	.14366	.000672	
288.15	.25	.05112	.001308	
288.15	.25	.06041	.001322	
288.15	.25	.0744	.001341	
288.15	.25	.08574	.001355	
288.15	.25	.09125	.001365	
288.15	.25	.11841	.001401	
298.15	.25	.05112	.001026	
298.15	.25	.06041	.001036	
298.15	.25	.0744	.00105	
298.15	.25	.08574	.001062	
298.15	.25	.09125	.001068	
298.15	.25	.11841	.001096	
308.15	.25	.05112	.000818	
308.15	.25	.06041	.000825	
308.15	.25	.0744	.000836	
308.15	.25	.08574	.000845	
308.15	.25	.09125	.00085	
308.15	.25	.11841	.00087	
318.15	.25	.05112	.000664	
318.15	.25	.06041	.000671	
318.15	.25	.0744	.000679	
318.15	.25	.08574	.000686	
318.15	.25	.09125	.000689	
318.15	.25	.11841	.000706	
288.15	.5	.05545	.001389	
288.15	.5	.06424	.001402	
288.15	.5	.07659	.001422	
288.15	.5	.08546	.001434	
288.15	.5	.09878	.001453	
288.15	.5	.11763	.001481	
298.15	.5	.05545	.001088	
298.15	.5	.06424	.001098	
298.15	.5	.07659	.001113	
298.15	.5	.08546	.001123	
298.15	.5	.09878	.001139	
298.15	.5	.11763	.00116	
308.15	.5	.05545	.000863	
308.15	.5	.06424	.000872	
308.15	.5	.07659	.000881	
308.15	.5	.08546	.00089	
308.15	.5	.09878	.000901	
308.15	.5	.11763	.000917	
318.15	.5	.05545	.000704	
318.15	.5	.06424	.000709	
318.15	.5	.07659	.000717	
318.15	.5	.08546	.000724	
318.15	.5	.09878	.000733	
318.15	.5	.11763	.000744	
288.15	1	.06033	.001657	
288.15	1	.07287	.001681	
288.15	1	.08296	.001703	
288.15	1	.09927	.001732	
288.15	1	.11967	.001772	
288.15	1	.13374	.001797	
298.15	1	.06033	.001243	
298.15	1	.07287	.00126	
298.15	1	.08296	.001274	
298.15	1	.09927	.001297	
298.15	1	.11967	.001325	
298.15	1	.13374	.001345	
308.15	1	.06033	.001004	
308.15	1	.07287	.001017	
308.15	1	.08296	.001028	
308.15	1	.09927	.001045	
308.15	1	.11967	.001065	
308.15	1	.13374	.001081	
318.15	1	.06033	.000812	
318.15	1	.07287	.000823	
318.15	1	.08296	.00083	
318.15	1	.09927	.000844	
318.15	1	.11967	.00086	
318.15	1	.13374	.000871	
288.15	1.25	.06421	.001776	
288.15	1.25	.07538	.001799	
288.15	1.25	.08568	.001821	
288.15	1.25	.10597	.001864	
288.15	1.25	.12212	.001896	
288.15	1.25	.13769	.001927	
298.15	1.25	.06421	.001396	
298.15	1.25	.07538	.001415	
298.15	1.25	.08568	.001432	
298.15	1.25	.10597	.001463	
298.15	1.25	.12212	.001489	
298.15	1.25	.13769	.001514	
308.15	1.25	.06421	.001105	
308.15	1.25	.07538	.001117	
308.15	1.25	.08568	.001131	
308.15	1.25	.10597	.001155	
308.15	1.25	.12212	.001171	
308.15	1.25	.13769	.001191	
318.15	1.25	.06421	.000898	
318.15	1.25	.07538	.00091	
318.15	1.25	.08568	.000919	
318.15	1.25	.10597	.000938	
318.15	1.25	.12212	.000952	
318.15	1.25	.13769	.000965	

System: D-(+)-cellobiose + water + monobasic potassium phosphate; phases: Liquid
Fixed: Pressure, kPa = 100
Property: Viscosity, Pa*s (Liquid); method: Capillary tube (Ostwald; Ubbelohde) method
Temperature, K	Solvent: Molality, mol/kg of monobasic potassium phosphate	Molality, mol/kg of D-(+)-cellobiose	Viscosity, Pa*s	uncertainty
288.15	0	.0502	.00119	
288.15	0	.06216	.001202	
288.15	0	.07229	.001212	
288.15	0	.08229	.001222	
288.15	0	.09269	.001233	
288.15	0	.10307	.001243	
288.15	0	.12924	.001269	
288.15	0	.15199	.001291	
298.15	0	.0502	.000929	
298.15	0	.06216	.000938	
298.15	0	.07229	.000946	
298.15	0	.08229	.000953	
298.15	0	.09269	.000961	
298.15	0	.10307	.000969	
298.15	0	.12924	.000988	
298.15	0	.15199	.001005	
308.15	0	.0502	.000749	
308.15	0	.06216	.000756	
308.15	0	.07229	.000762	
308.15	0	.08229	.000768	
308.15	0	.09269	.000774	
308.15	0	.10307	.00078	
308.15	0	.12924	.000795	
308.15	0	.15199	.000808	
318.15	0	.0502	.00062	
318.15	0	.06216	.000625	
318.15	0	.07229	.00063	
318.15	0	.08229	.000635	
318.15	0	.09269	.00064	
318.15	0	.10307	.000644	
318.15	0	.12924	.000656	
318.15	0	.15199	.000666	
288.15	.25	.05229	.001315	
288.15	.25	.06471	.001333	
288.15	.25	.07318	.001347	
288.15	.25	.08933	.001369	
288.15	.25	.09982	.001384	
288.15	.25	.118	.00141	
298.15	.25	.05229	.00103	
298.15	.25	.06471	.001044	
298.15	.25	.07318	.001053	
298.15	.25	.08933	.001071	
298.15	.25	.09982	.001083	
298.15	.25	.118	.001102	
308.15	.25	.05229	.00082	
308.15	.25	.06471	.000831	
308.15	.25	.07318	.000838	
308.15	.25	.08933	.000851	
308.15	.25	.09982	.00086	
308.15	.25	.118	.000875	
318.15	.25	.05229	.000666	
318.15	.25	.06471	.000674	
318.15	.25	.07318	.000679	
318.15	.25	.08933	.000689	
318.15	.25	.09982	.000696	
318.15	.25	.118	.000707	
288.15	.5	.05038	.001385	
288.15	.5	.06127	.001402	
288.15	.5	.07202	.001418	
288.15	.5	.08439	.001439	
288.15	.5	.09592	.001456	
288.15	.5	.10463	.001471	
298.15	.5	.05038	.001086	
298.15	.5	.06127	.001099	
298.15	.5	.07202	.001113	
298.15	.5	.08439	.001126	
298.15	.5	.09592	.001141	
298.15	.5	.10463	.001151	
308.15	.5	.05038	.000862	
308.15	.5	.06127	.000871	
308.15	.5	.07202	.00088	
308.15	.5	.08439	.000892	
308.15	.5	.09592	.000902	
308.15	.5	.10463	.000909	
318.15	.5	.05038	.000701	
318.15	.5	.06127	.000709	
318.15	.5	.07202	.000716	
318.15	.5	.08439	.000724	
318.15	.5	.09592	.000732	
318.15	.5	.10463	.000738	
288.15	1	.05561	.001651	
288.15	1	.06513	.001671	
288.15	1	.0743	.001688	
288.15	1	.08295	.001705	
288.15	1	.0996	.00174	
288.15	1	.12192	.001781	
298.15	1	.05561	.001239	
298.15	1	.06513	.001253	
298.15	1	.0743	.001266	
298.15	1	.08295	.001279	
298.15	1	.0996	.001301	
298.15	1	.12192	.001332	
308.15	1	.05561	.001001	
308.15	1	.06513	.001011	
308.15	1	.0743	.001021	
308.15	1	.08295	.00103	
308.15	1	.0996	.001048	
308.15	1	.12192	.001072	
318.15	1	.05561	.000809	
318.15	1	.06513	.000817	
318.15	1	.0743	.000825	
318.15	1	.08295	.000832	
318.15	1	.0996	.000845	
318.15	1	.12192	.000864	
288.15	1.25	.04369	.001732	
288.15	1.25	.06329	.001775	
288.15	1.25	.07516	.0018	
288.15	1.25	.08793	.001828	
288.15	1.25	.09719	.001847	
288.15	1.25	.14144	.00194	
298.15	1.25	.04369	.001366	
298.15	1.25	.06329	.001398	
298.15	1.25	.07516	.001417	
298.15	1.25	.08793	.001438	
298.15	1.25	.09719	.001453	
298.15	1.25	.14144	.001522	
308.15	1.25	.04369	.001081	
308.15	1.25	.06329	.001105	
308.15	1.25	.07516	.00112	
308.15	1.25	.08793	.001135	
308.15	1.25	.09719	.001146	
308.15	1.25	.14144	.001199	
318.15	1.25	.04369	.000882	
318.15	1.25	.06329	.0009	
318.15	1.25	.07516	.000911	
318.15	1.25	.08793	.000922	
318.15	1.25	.09719	.000931	
318.15	1.25	.14144	.00097	

System: D-(+)-lactose + water + monobasic potassium phosphate; phases: Liquid
Fixed: Pressure, kPa = 100
Property: Viscosity, Pa*s (Liquid); method: Capillary tube (Ostwald; Ubbelohde) method
Temperature, K	Solvent: Molality, mol/kg of monobasic potassium phosphate	Molality, mol/kg of D-(+)-lactose	Viscosity, Pa*s	uncertainty
288.15	0	.04915	.001198	
288.15	0	.0521	.001202	
288.15	0	.06429	.001216	
288.15	0	.07299	.001227	
288.15	0	.09149	.001249	
288.15	0	.10007	.001259	
288.15	0	.12106	.001284	
288.15	0	.15282	.001321	
298.15	0	.04915	.000936	
298.15	0	.0521	.000938	
298.15	0	.06429	.000949	
298.15	0	.07299	.000957	
298.15	0	.09149	.000974	
298.15	0	.10007	.000982	
298.15	0	.12106	.001	
298.15	0	.15282	.001028	
308.15	0	.04915	.000755	
308.15	0	.0521	.000757	
308.15	0	.06429	.000766	
308.15	0	.07299	.000772	
308.15	0	.09149	.000785	
308.15	0	.10007	.000791	
308.15	0	.12106	.000806	
308.15	0	.15282	.000828	
318.15	0	.04915	.000625	
318.15	0	.0521	.000626	
318.15	0	.06429	.000633	
318.15	0	.07299	.000638	
318.15	0	.09149	.000649	
318.15	0	.10007	.000654	
318.15	0	.12106	.000665	
318.15	0	.15282	.000683	
288.15	.25	.05032	.001317	
288.15	.25	.07816	.001361	
288.15	.25	.08895	.001377	
288.15	.25	.10846	.001406	
288.15	.25	.11687	.00142	
288.15	.25	.14767	.001468	
298.15	.25	.05032	.001031	
298.15	.25	.07816	.001064	
298.15	.25	.08895	.001077	
298.15	.25	.10846	.001098	
298.15	.25	.11687	.00111	
298.15	.25	.14767	.001142	
308.15	.25	.05032	.000823	
308.15	.25	.07816	.000847	
308.15	.25	.08895	.000856	
308.15	.25	.10846	.000872	
308.15	.25	.11687	.000879	
308.15	.25	.14767	.000905	
318.15	.25	.05032	.000666	
318.15	.25	.07816	.000685	
318.15	.25	.08895	.000692	
318.15	.25	.10846	.000705	
318.15	.25	.11687	.00071	
318.15	.25	.14767	.00073	
288.15	.5	.05353	.001396	
288.15	.5	.06377	.001414	
288.15	.5	.07306	.001428	
288.15	.5	.0834	.001446	
288.15	.5	.09225	.001461	
288.15	.5	.11292	.001496	
298.15	.5	.05353	.001095	
298.15	.5	.06377	.001108	
298.15	.5	.07306	.001119	
298.15	.5	.0834	.001134	
298.15	.5	.09225	.001145	
298.15	.5	.11292	.001169	
308.15	.5	.05353	.000868	
308.15	.5	.06377	.000878	
308.15	.5	.07306	.000886	
308.15	.5	.0834	.000897	
308.15	.5	.09225	.000904	
308.15	.5	.11292	.000923	
318.15	.5	.05353	.000706	
318.15	.5	.06377	.000713	
318.15	.5	.07306	.000719	
318.15	.5	.0834	.000727	
318.15	.5	.09225	.000733	
318.15	.5	.11292	.000748	
288.15	1	.05571	.001664	
288.15	1	.06526	.001685	
288.15	1	.07249	.0017	
288.15	1	.08383	.001723	
288.15	1	.10118	.001759	
288.15	1	.11825	.001798	
298.15	1	.05571	.001246	
298.15	1	.06526	.001261	
298.15	1	.07249	.001272	
298.15	1	.08383	.001289	
298.15	1	.10118	.001315	
298.15	1	.11825	.00134	
308.15	1	.05571	.001006	
308.15	1	.06526	.001017	
308.15	1	.07249	.001026	
308.15	1	.08383	.00104	
308.15	1	.10118	.001059	
308.15	1	.11825	.001078	
318.15	1	.05571	.000813	
318.15	1	.06526	.000822	
318.15	1	.07249	.000828	
318.15	1	.08383	.000838	
318.15	1	.10118	.000854	
318.15	1	.11825	.000868	
288.15	1.25	.04622	.001747	
288.15	1.25	.06494	.001788	
288.15	1.25	.08349	.001832	
288.15	1.25	.10484	.001881	
288.15	1.25	.12236	.001919	
288.15	1.25	.1362	.001949	
298.15	1.25	.04622	.00138	
298.15	1.25	.06494	.001414	
298.15	1.25	.08349	.001448	
298.15	1.25	.10484	.001485	
298.15	1.25	.12236	.001513	
298.15	1.25	.1362	.001538	
308.15	1.25	.04622	.001091	
308.15	1.25	.06494	.001115	
308.15	1.25	.08349	.001139	
308.15	1.25	.10484	.001167	
308.15	1.25	.12236	.001193	
308.15	1.25	.1362	.001209	
318.15	1.25	.04622	.00089	
318.15	1.25	.06494	.000908	
318.15	1.25	.08349	.000928	
318.15	1.25	.10484	.000949	
318.15	1.25	.12236	.000965	
318.15	1.25	.1362	.000979	

System: D-(+)-maltose + water + monobasic potassium phosphate; phases: Liquid
Fixed: Pressure, kPa = 100
Property: Viscosity, Pa*s (Liquid); method: Capillary tube (Ostwald; Ubbelohde) method
Temperature, K	Solvent: Molality, mol/kg of monobasic potassium phosphate	Molality, mol/kg of D-(+)-maltose	Viscosity, Pa*s	uncertainty
288.15	0	.05259	.001205	
288.15	0	.06076	.001215	
288.15	0	.07261	.00123	
288.15	0	.08156	.001241	
288.15	0	.08876	.00125	
288.15	0	.10339	.001268	
288.15	0	.12708	.001297	
288.15	0	.1479	.001322	
298.15	0	.05259	.000941	
298.15	0	.06076	.000948	
298.15	0	.07261	.00096	
298.15	0	.08156	.000968	
298.15	0	.08876	.000975	
298.15	0	.10339	.000988	
298.15	0	.12708	.00101	
298.15	0	.1479	.001029	
308.15	0	.05259	.000759	
308.15	0	.06076	.000765	
308.15	0	.07261	.000773	
308.15	0	.08156	.00078	
308.15	0	.08876	.000785	
308.15	0	.10339	.000796	
308.15	0	.12708	.000813	
308.15	0	.1479	.000827	
318.15	0	.05259	.000627	
318.15	0	.06076	.000632	
318.15	0	.07261	.000639	
318.15	0	.08156	.000644	
318.15	0	.08876	.000648	
318.15	0	.10339	.000656	
318.15	0	.12708	.00067	
318.15	0	.1479	.000682	
288.15	.25	.04753	.001314	
288.15	.25	.06541	.001343	
288.15	.25	.08561	.001376	
288.15	.25	.09979	.001398	
288.15	.25	.11687	.001425	
288.15	.25	.14641	.001472	
298.15	.25	.04753	.001031	
298.15	.25	.06541	.001052	
298.15	.25	.08561	.001077	
298.15	.25	.09979	.001094	
298.15	.25	.11687	.001114	
298.15	.25	.14641	.001149	
308.15	.25	.04753	.000821	
308.15	.25	.06541	.000838	
308.15	.25	.08561	.000856	
308.15	.25	.09979	.000869	
308.15	.25	.11687	.000885	
308.15	.25	.14641	.000911	
318.15	.25	.04753	.000667	
318.15	.25	.06541	.00068	
318.15	.25	.08561	.000694	
318.15	.25	.09979	.000704	
318.15	.25	.11687	.000715	
318.15	.25	.14641	.000735	
288.15	.5	.05633	.001404	
288.15	.5	.07247	.001432	
288.15	.5	.08111	.001448	
288.15	.5	.08654	.001459	
288.15	.5	.09836	.00148	
288.15	.5	.11492	.00151	
298.15	.5	.05633	.001101	
298.15	.5	.07247	.001124	
298.15	.5	.08111	.001134	
298.15	.5	.08654	.001141	
298.15	.5	.09836	.001158	
298.15	.5	.11492	.001179	
308.15	.5	.05633	.000873	
308.15	.5	.07247	.000889	
308.15	.5	.08111	.000898	
308.15	.5	.08654	.000903	
308.15	.5	.09836	.000915	
308.15	.5	.11492	.000932	
318.15	.5	.05633	.00071	
318.15	.5	.07247	.000723	
318.15	.5	.08111	.00073	
318.15	.5	.08654	.000734	
318.15	.5	.09836	.000743	
318.15	.5	.11492	.000755	
288.15	1	.04729	.001648	
288.15	1	.05647	.00167	
288.15	1	.06371	.001687	
288.15	1	.07192	.001705	
288.15	1	.0817	.001727	
288.15	1	.09866	.001765	
298.15	1	.04729	.001237	
298.15	1	.05647	.001253	
298.15	1	.06371	.001264	
298.15	1	.07192	.001277	
298.15	1	.0817	.001294	
298.15	1	.09866	.00132	
308.15	1	.04729	.000999	
308.15	1	.05647	.001011	
308.15	1	.06371	.00102	
308.15	1	.07192	.00103	
308.15	1	.0817	.001043	
308.15	1	.09866	.001064	
318.15	1	.04729	.000809	
318.15	1	.05647	.000818	
318.15	1	.06371	.000824	
318.15	1	.07192	.000832	
318.15	1	.0817	.000842	
318.15	1	.09866	.000858	
288.15	1.25	.05552	.001777	
288.15	1.25	.07376	.001822	
288.15	1.25	.08076	.001841	
288.15	1.25	.09048	.001862	
288.15	1.25	.10761	.001907	
288.15	1.25	.11886	.001934	
298.15	1.25	.05552	.001399	
298.15	1.25	.07376	.001434	
298.15	1.25	.08076	.001448	
298.15	1.25	.09048	.001466	
298.15	1.25	.10761	.001498	
298.15	1.25	.11886	.00152	
308.15	1.25	.05552	.001106	
308.15	1.25	.07376	.001132	
308.15	1.25	.08076	.001143	
308.15	1.25	.09048	.001157	
308.15	1.25	.10761	.001181	
308.15	1.25	.11886	.001197	
318.15	1.25	.05552	.0009	
318.15	1.25	.07376	.000921	
318.15	1.25	.08076	.000929	
318.15	1.25	.09048	.00094	
318.15	1.25	.10761	.000957	
318.15	1.25	.11886	.00097	

System: melezitose + water + monobasic potassium phosphate; phases: Liquid
Fixed: Pressure, kPa = 100
Property: Viscosity, Pa*s (Liquid); method: Capillary tube (Ostwald; Ubbelohde) method
Temperature, K	Solvent: Molality, mol/kg of monobasic potassium phosphate	Molality, mol/kg of melezitose	Viscosity, Pa*s	uncertainty
288.15	0	.06211	.001237	
288.15	0	.07242	.001253	
288.15	0	.08043	.001266	
288.15	0	.09028	.001281	
288.15	0	.10447	.001303	
288.15	0	.12557	.001335	
288.15	0	.13442	.001348	
288.15	0	.14565	.001365	
298.15	0	.06211	.000965	
298.15	0	.07242	.000977	
298.15	0	.08043	.000987	
298.15	0	.09028	.000998	
298.15	0	.10447	.001015	
298.15	0	.12557	.001039	
298.15	0	.13442	.001049	
298.15	0	.14565	.001061	
308.15	0	.06211	.000777	
308.15	0	.07242	.000786	
308.15	0	.08043	.000793	
308.15	0	.09028	.000802	
308.15	0	.10447	.000815	
308.15	0	.12557	.000833	
308.15	0	.13442	.000841	
308.15	0	.14565	.000851	
318.15	0	.06211	.000642	
318.15	0	.07242	.00065	
318.15	0	.08043	.000655	
318.15	0	.09028	.000663	
318.15	0	.10447	.000673	
318.15	0	.12557	.000687	
318.15	0	.13442	.000694	
318.15	0	.14565	.000701	
288.15	.25	.0525	.001337	
288.15	.25	.06875	.001367	
288.15	.25	.07795	.001384	
288.15	.25	.08976	.001406	
288.15	.25	.10363	.001432	
288.15	.25	.12482	.00147	
288.15	.25	.148	.001512	
298.15	.25	.0525	.001047	
298.15	.25	.06875	.001069	
298.15	.25	.07795	.001082	
298.15	.25	.08976	.001098	
298.15	.25	.10363	.001117	
298.15	.25	.12482	.001145	
298.15	.25	.148	.001176	
308.15	.25	.0525	.000833	
308.15	.25	.06875	.00085	
308.15	.25	.07795	.000859	
308.15	.25	.08976	.000871	
308.15	.25	.10363	.000885	
308.15	.25	.12482	.000907	
308.15	.25	.148	.000929	
318.15	.25	.0525	.000676	
318.15	.25	.06875	.000689	
318.15	.25	.07795	.000696	
318.15	.25	.08976	.000706	
318.15	.25	.10363	.000717	
318.15	.25	.12482	.000733	
318.15	.25	.148	.000751	
288.15	.5	.05952	.001428	
288.15	.5	.07013	.00145	
288.15	.5	.08223	.001475	
288.15	.5	.09153	.001494	
288.15	.5	.10702	.001526	
288.15	.5	.12707	.001566	
288.15	.5	.15394	.001619	
298.15	.5	.05952	.001119	
298.15	.5	.07013	.001135	
298.15	.5	.08223	.001154	
298.15	.5	.09153	.001168	
298.15	.5	.10702	.001192	
298.15	.5	.12707	.001222	
298.15	.5	.15394	.001261	
308.15	.5	.05952	.000886	
308.15	.5	.07013	.000899	
308.15	.5	.08223	.000913	
308.15	.5	.09153	.000923	
308.15	.5	.10702	.000941	
308.15	.5	.12707	.000963	
308.15	.5	.15394	.000993	
318.15	.5	.05952	.000721	
318.15	.5	.07013	.00073	
318.15	.5	.08223	.000741	
318.15	.5	.09153	.000749	
318.15	.5	.10702	.000763	
318.15	.5	.12707	.00078	
318.15	.5	.15394	.000803	
288.15	1	.0565	.001694	
288.15	1	.06826	.001726	
288.15	1	.07775	.001751	
288.15	1	.08159	.001762	
288.15	1	.09129	.001787	
288.15	1	.12815	.001883	
288.15	1	.14957	.001938	
298.15	1	.0565	.00127	
298.15	1	.06826	.001292	
298.15	1	.07775	.00131	
298.15	1	.08159	.001318	
298.15	1	.09129	.001336	
298.15	1	.12815	.001404	
298.15	1	.14957	.001443	
308.15	1	.0565	.001025	
308.15	1	.06826	.001042	
308.15	1	.07775	.001056	
308.15	1	.08159	.001061	
308.15	1	.09129	.001075	
308.15	1	.12815	.001128	
308.15	1	.14957	.001158	
318.15	1	.0565	.000829	
318.15	1	.06826	.000842	
318.15	1	.07775	.000853	
318.15	1	.08159	.000857	
318.15	1	.09129	.000868	
318.15	1	.12815	.000909	
318.15	1	.14957	.000932	
288.15	1.25	.06176	.001824	
288.15	1.25	.07313	.001858	
288.15	1.25	.0823	.001885	
288.15	1.25	.09499	.001922	
288.15	1.25	.11564	.001981	
288.15	1.25	.12512	.002009	
288.15	1.25	.13951	.002049	
298.15	1.25	.06176	.001436	
298.15	1.25	.07313	.001461	
298.15	1.25	.0823	.001481	
298.15	1.25	.09499	.001509	
298.15	1.25	.11564	.001554	
298.15	1.25	.12512	.001575	
298.15	1.25	.13951	.001605	
308.15	1.25	.06176	.001134	
308.15	1.25	.07313	.001153	
308.15	1.25	.0823	.001168	
308.15	1.25	.09499	.001189	
308.15	1.25	.11564	.001223	
308.15	1.25	.12512	.001239	
308.15	1.25	.13951	.001262	
318.15	1.25	.06176	.000923	
318.15	1.25	.07313	.000938	
318.15	1.25	.0823	.00095	
318.15	1.25	.09499	.000966	
318.15	1.25	.11564	.000993	
318.15	1.25	.12512	.001005	
318.15	1.25	.13951	.001023	

System: raffinose + water + monobasic potassium phosphate; phases: Liquid
Fixed: Pressure, kPa = 100
Property: Viscosity, Pa*s (Liquid); method: Capillary tube (Ostwald; Ubbelohde) method
Temperature, K	Solvent: Molality, mol/kg of monobasic potassium phosphate	Molality, mol/kg of raffinose	Viscosity, Pa*s	uncertainty
288.15	0	.0515	.001227	
288.15	0	.06262	.001246	
288.15	0	.08002	.001275	
288.15	0	.09691	.001303	
288.15	0	.10846	.001322	
288.15	0	.11325	.00133	
288.15	0	.12727	.001353	
288.15	0	.13869	.001371	
298.15	0	.0515	.000957	
298.15	0	.06262	.000971	
298.15	0	.08002	.000993	
298.15	0	.09691	.001014	
298.15	0	.10846	.001028	
298.15	0	.11325	.001034	
298.15	0	.12727	.001051	
298.15	0	.13869	.001065	
308.15	0	.0515	.000771	
308.15	0	.06262	.000782	
308.15	0	.08002	.000799	
308.15	0	.09691	.000816	
308.15	0	.10846	.000827	
308.15	0	.11325	.000831	
308.15	0	.12727	.000845	
308.15	0	.13869	.000855	
318.15	0	.0515	.000637	
318.15	0	.06262	.000646	
318.15	0	.08002	.000659	
318.15	0	.09691	.000672	
318.15	0	.10846	.000681	
318.15	0	.11325	.000684	
318.15	0	.12727	.000695	
318.15	0	.13869	.000703	
288.15	.25	.05478	.001352	
288.15	.25	.06729	.001378	
288.15	.25	.07911	.001403	
288.15	.25	.0944	.001434	
288.15	.25	.10794	.001461	
288.15	.25	.12346	.001493	
288.15	.25	.13891	.001523	
298.15	.25	.05478	.001059	
298.15	.25	.06729	.001078	
298.15	.25	.07911	.001096	
298.15	.25	.0944	.001119	
298.15	.25	.10794	.00114	
298.15	.25	.12346	.001163	
298.15	.25	.13891	.001186	
308.15	.25	.05478	.000843	
308.15	.25	.06729	.000858	
308.15	.25	.07911	.000872	
308.15	.25	.0944	.000889	
308.15	.25	.10794	.000905	
308.15	.25	.12346	.000923	
308.15	.25	.13891	.00094	
318.15	.25	.05478	.000684	
318.15	.25	.06729	.000695	
318.15	.25	.07911	.000705	
318.15	.25	.0944	.000719	
318.15	.25	.10794	.000731	
318.15	.25	.12346	.000744	
318.15	.25	.13891	.000758	
288.15	.5	.05155	.001423	
288.15	.5	.0609	.001445	
288.15	.5	.07032	.001466	
288.15	.5	.08069	.00149	
288.15	.5	.09503	.001523	
288.15	.5	.11378	.001565	
288.15	.5	.14429	.001632	
298.15	.5	.05155	.001115	
298.15	.5	.0609	.001131	
298.15	.5	.07032	.001147	
298.15	.5	.08069	.001165	
298.15	.5	.09503	.001189	
298.15	.5	.11378	.00122	
298.15	.5	.14429	.00127	
308.15	.5	.05155	.000884	
308.15	.5	.0609	.000896	
308.15	.5	.07032	.000908	
308.15	.5	.08069	.000921	
308.15	.5	.09503	.00094	
308.15	.5	.11378	.000963	
308.15	.5	.14429	.001001	
318.15	.5	.05155	.000719	
318.15	.5	.0609	.000728	
318.15	.5	.07032	.000737	
318.15	.5	.08069	.000747	
318.15	.5	.09503	.000761	
318.15	.5	.11378	.000779	
318.15	.5	.14429	.000808	
288.15	1	.05482	.001705	
288.15	1	.06452	.001733	
288.15	1	.07286	.001758	
288.15	1	.09333	.001817	
288.15	1	.10616	.001854	
288.15	1	.12076	.001896	
288.15	1	.14027	.001951	
298.15	1	.05482	.001277	
298.15	1	.06452	.001297	
298.15	1	.07286	.001315	
298.15	1	.09333	.001357	
298.15	1	.10616	.001383	
298.15	1	.12076	.001413	
298.15	1	.14027	.001452	
308.15	1	.05482	.00103	
308.15	1	.06452	.001046	
308.15	1	.07286	.001059	
308.15	1	.09333	.001092	
308.15	1	.10616	.001112	
308.15	1	.12076	.001135	
308.15	1	.14027	.001165	
318.15	1	.05482	.000832	
318.15	1	.06452	.000844	
318.15	1	.07286	.000854	
318.15	1	.09333	.000879	
318.15	1	.10616	.000894	
318.15	1	.12076	.000912	
318.15	1	.14027	.000935	
288.15	1.25	.05386	.001815	
288.15	1.25	.0636	.001847	
288.15	1.25	.0732	.001878	
288.15	1.25	.08143	.001904	
288.15	1.25	.09993	.001963	
288.15	1.25	.12218	.002033	
288.15	1.25	.14635	.002107	
298.15	1.25	.05386	.001428	
298.15	1.25	.0636	.001451	
298.15	1.25	.0732	.001474	
298.15	1.25	.08143	.001494	
298.15	1.25	.09993	.001538	
298.15	1.25	.12218	.00159	
298.15	1.25	.14635	.001645	
308.15	1.25	.05386	.001128	
308.15	1.25	.0636	.001146	
308.15	1.25	.0732	.001163	
308.15	1.25	.08143	.001178	
308.15	1.25	.09993	.001211	
308.15	1.25	.12218	.00125	
308.15	1.25	.14635	.001293	
318.15	1.25	.05386	.000917	
318.15	1.25	.0636	.000931	
318.15	1.25	.0732	.000944	
318.15	1.25	.08143	.000956	
318.15	1.25	.09993	.000981	
318.15	1.25	.12218	.001011	
318.15	1.25	.14635	.001043	

System: (+)-xylose + sodium dihydrogen phosphate + water; phases: Liquid
Fixed: Pressure, kPa = 100
Property: Viscosity, Pa*s (Liquid); method: Capillary tube (Ostwald; Ubbelohde) method
Temperature, K	Solvent: Molality, mol/kg of sodium dihydrogen phosphate	Molality, mol/kg of (+)-xylose	Viscosity, Pa*s	uncertainty
288.15	.5	0	.001427	
288.15	.5	.05107	.001463	
288.15	.5	.06671	.001472	
288.15	.5	.08813	.001487	
288.15	.5	.11446	.001505	
288.15	.5	.13174	.001518	
298.15	.5	0	.001093	
298.15	.5	.05107	.001117	
298.15	.5	.06671	.001124	
298.15	.5	.08813	.001134	
298.15	.5	.11446	.001147	
298.15	.5	.13174	.001157	
308.15	.5	0	.00088	
308.15	.5	.05107	.000898	
308.15	.5	.06671	.000904	
308.15	.5	.08813	.00091	
308.15	.5	.11446	.000921	
308.15	.5	.13174	.000926	
318.15	.5	0	.000723	
318.15	.5	.05107	.000737	
318.15	.5	.06671	.000741	
318.15	.5	.08813	.000747	
318.15	.5	.11446	.000753	
318.15	.5	.13174	.000758	
288.15	1	0	.001731	
288.15	1	.05357	.001782	
288.15	1	.07581	.001801	
288.15	1	.09533	.001819	
288.15	1	.12628	.001848	
288.15	1	.14754	.001868	
298.15	1	0	.001332	
298.15	1	.05357	.001368	
298.15	1	.07581	.001383	
298.15	1	.09533	.001396	
298.15	1	.12628	.001417	
298.15	1	.14754	.001432	
308.15	1	0	.001074	
308.15	1	.05357	.001101	
308.15	1	.07581	.001112	
308.15	1	.09533	.001122	
308.15	1	.12628	.001136	
308.15	1	.14754	.001148	
318.15	1	0	.000875	
318.15	1	.05357	.000894	
318.15	1	.07581	.000902	
318.15	1	.09533	.00091	
318.15	1	.12628	.000919	
318.15	1	.14754	.000928	
288.15	1.5	0	.002139	
288.15	1.5	.04897	.002201	
288.15	1.5	.07397	.002235	
288.15	1.5	.09405	.002263	
288.15	1.5	.1128	.002288	
288.15	1.5	.14025	.002324	
298.15	1.5	0	.00163	
298.15	1.5	.04897	.001677	
298.15	1.5	.07397	.001701	
298.15	1.5	.09405	.00172	
298.15	1.5	.1128	.001737	
298.15	1.5	.14025	.001759	
308.15	1.5	0	.001267	
308.15	1.5	.04897	.001299	
308.15	1.5	.07397	.001316	
308.15	1.5	.09405	.00133	
308.15	1.5	.1128	.001342	
308.15	1.5	.14025	.001361	
318.15	1.5	0	.001051	
318.15	1.5	.04897	.001075	
318.15	1.5	.07397	.001086	
318.15	1.5	.09405	.001096	
318.15	1.5	.1128	.001105	
318.15	1.5	.14025	.00112	
288.15	2	0	.00265	
288.15	2	.0516	.002745	
288.15	2	.06418	.002766	
288.15	2	.08438	.002806	
288.15	2	.10788	.002848	
288.15	2	.13002	.002884	
298.15	2	0	.001987	
298.15	2	.0516	.002051	
298.15	2	.06418	.002068	
298.15	2	.08438	.002091	
298.15	2	.10788	.002119	
298.15	2	.13002	.002148	
308.15	2	0	.001457	
308.15	2	.0516	.0015	
308.15	2	.06418	.001512	
308.15	2	.08438	.001529	
308.15	2	.10788	.001549	
308.15	2	.13002	.001568	
318.15	2	0	.001257	
318.15	2	.0516	.00129	
318.15	2	.06418	.001299	
318.15	2	.08438	.001312	
318.15	2	.10788	.001328	
318.15	2	.13002	.001343	

System: D-(-)-ribose + sodium dihydrogen phosphate + water; phases: Liquid
Fixed: Pressure, kPa = 100
Property: Viscosity, Pa*s (Liquid); method: Capillary tube (Ostwald; Ubbelohde) method
Temperature, K	Solvent: Molality, mol/kg of sodium dihydrogen phosphate	Molality, mol/kg of D-(-)-ribose	Viscosity, Pa*s	uncertainty
288.15	.5	.05369	.001463	
288.15	.5	.06901	.001474	
288.15	.5	.08668	.001485	
288.15	.5	.11253	.001502	
288.15	.5	.12998	.001514	
288.15	.5	.14793	.001525	
298.15	.5	.05369	.001117	
298.15	.5	.06901	.001125	
298.15	.5	.08668	.001133	
298.15	.5	.11253	.001144	
298.15	.5	.12998	.001152	
298.15	.5	.14793	.001161	
308.15	.5	.05369	.000898	
308.15	.5	.06901	.000903	
308.15	.5	.08668	.000909	
308.15	.5	.11253	.000917	
308.15	.5	.12998	.000923	
308.15	.5	.14793	.000929	
318.15	.5	.05369	.000736	
318.15	.5	.06901	.000741	
318.15	.5	.08668	.000745	
318.15	.5	.11253	.000752	
318.15	.5	.12998	.000756	
318.15	.5	.14793	.00076	
288.15	1	.04803	.001775	
288.15	1	.06197	.001788	
288.15	1	.07921	.001804	
288.15	1	.09782	.001821	
288.15	1	.13318	.001854	
288.15	1	.15099	.00187	
298.15	1	.04803	.001364	
298.15	1	.06197	.001373	
298.15	1	.07921	.001382	
298.15	1	.09782	.001395	
298.15	1	.13318	.001418	
298.15	1	.15099	.001429	
308.15	1	.04803	.001098	
308.15	1	.06197	.001105	
308.15	1	.07921	.001113	
308.15	1	.09782	.001122	
308.15	1	.13318	.001138	
308.15	1	.15099	.001148	
318.15	1	.04803	.000892	
318.15	1	.06197	.000897	
318.15	1	.07921	.000903	
318.15	1	.09782	.000909	
318.15	1	.13318	.000921	
318.15	1	.15099	.000927	
288.15	1.5	.05057	.002203	
288.15	1.5	.05815	.002213	
288.15	1.5	.06921	.002226	
288.15	1.5	.09502	.002261	
288.15	1.5	.11485	.002285	
288.15	1.5	.1213	.002295	
298.15	1.5	.05057	.001675	
298.15	1.5	.05815	.001682	
298.15	1.5	.06921	.001691	
298.15	1.5	.09502	.001714	
298.15	1.5	.11485	.001733	
298.15	1.5	.1213	.001739	
308.15	1.5	.05057	.001299	
308.15	1.5	.05815	.001304	
308.15	1.5	.06921	.001311	
308.15	1.5	.09502	.001327	
308.15	1.5	.11485	.001339	
308.15	1.5	.1213	.001344	
318.15	1.5	.05057	.001075	
318.15	1.5	.05815	.001078	
318.15	1.5	.06921	.001084	
318.15	1.5	.09502	.001095	
318.15	1.5	.11485	.001105	
318.15	1.5	.1213	.001108	
288.15	2	.05534	.002748	
288.15	2	.06403	.002766	
288.15	2	.07994	.002793	
288.15	2	.10153	.002833	
288.15	2	.12256	.002871	
288.15	2	.15089	.002919	
298.15	2	.05534	.002054	
298.15	2	.06403	.002066	
298.15	2	.07994	.002083	
298.15	2	.10153	.00211	
298.15	2	.12256	.002136	
298.15	2	.15089	.002171	
308.15	2	.05534	.001502	
308.15	2	.06403	.001509	
308.15	2	.07994	.001522	
308.15	2	.10153	.00154	
308.15	2	.12256	.001557	
308.15	2	.15089	.00158	
318.15	2	.05534	.001293	
318.15	2	.06403	.0013	
318.15	2	.07994	.001311	
318.15	2	.10153	.001325	
318.15	2	.12256	.001338	
318.15	2	.15089	.001357	

System: D-(-)-fructose + sodium dihydrogen phosphate + water; phases: Liquid
Fixed: Pressure, kPa = 100
Property: Viscosity, Pa*s (Liquid); method: Capillary tube (Ostwald; Ubbelohde) method
Temperature, K	Solvent: Molality, mol/kg of sodium dihydrogen phosphate	Molality, mol/kg of D-(-)-fructose	Viscosity, Pa*s	uncertainty
288.15	.5	.04845	.001471	
288.15	.5	.06364	.001484	
288.15	.5	.08006	.001499	
288.15	.5	.09525	.001513	
288.15	.5	.11555	.001531	
288.15	.5	.12529	.001539	
298.15	.5	.04845	.001123	
298.15	.5	.06364	.001133	
298.15	.5	.08006	.001143	
298.15	.5	.09525	.001152	
298.15	.5	.11555	.001164	
298.15	.5	.12529	.00117	
308.15	.5	.04845	.000902	
308.15	.5	.06364	.000909	
308.15	.5	.08006	.000917	
308.15	.5	.09525	.000925	
308.15	.5	.11555	.000934	
308.15	.5	.12529	.000939	
318.15	.5	.04845	.000739	
318.15	.5	.06364	.000745	
318.15	.5	.08006	.000749	
318.15	.5	.09525	.000754	
318.15	.5	.11555	.000761	
318.15	.5	.12529	.000765	
288.15	1	.05096	.001792	
288.15	1	.06046	.001803	
288.15	1	.07912	.001825	
288.15	1	.10285	.001853	
288.15	1	.12045	.001875	
288.15	1	.1358	.001891	
298.15	1	.05096	.001375	
298.15	1	.06046	.001384	
298.15	1	.07912	.001399	
298.15	1	.10285	.001418	
298.15	1	.12045	.001432	
298.15	1	.1358	.001444	
308.15	1	.05096	.001107	
308.15	1	.06046	.001113	
308.15	1	.07912	.001124	
308.15	1	.10285	.001138	
308.15	1	.12045	.001149	
308.15	1	.1358	.001159	
318.15	1	.05096	.000897	
318.15	1	.06046	.000902	
318.15	1	.07912	.00091	
318.15	1	.10285	.00092	
318.15	1	.12045	.000927	
318.15	1	.1358	.000934	
288.15	1.5	.04748	.002215	
288.15	1.5	.06363	.00224	
288.15	1.5	.07102	.002253	
288.15	1.5	.084	.002272	
288.15	1.5	.11391	.00232	
288.15	1.5	.1282	.002341	
298.15	1.5	.04748	.001682	
298.15	1.5	.06363	.0017	
298.15	1.5	.07102	.001708	
298.15	1.5	.084	.001722	
298.15	1.5	.11391	.001755	
298.15	1.5	.1282	.001769	
308.15	1.5	.04748	.001306	
308.15	1.5	.06363	.001317	
308.15	1.5	.07102	.001324	
308.15	1.5	.084	.001334	
308.15	1.5	.11391	.001358	
308.15	1.5	.1282	.001371	
318.15	1.5	.04748	.001078	
318.15	1.5	.06363	.001088	
318.15	1.5	.07102	.001091	
318.15	1.5	.084	.0011	
318.15	1.5	.11391	.001116	
318.15	1.5	.1282	.001125	
288.15	2	.0493	.002757	
288.15	2	.0644	.002791	
288.15	2	.08133	.002827	
288.15	2	.10215	.002872	
288.15	2	.12141	.002915	
288.15	2	.13644	.002945	
298.15	2	.0493	.002061	
298.15	2	.0644	.002084	
298.15	2	.08133	.00211	
298.15	2	.10215	.002141	
298.15	2	.12141	.002169	
298.15	2	.13644	.002191	
308.15	2	.0493	.001508	
308.15	2	.0644	.001526	
308.15	2	.08133	.001542	
308.15	2	.10215	.001565	
308.15	2	.12141	.001584	
308.15	2	.13644	.001599	
318.15	2	.0493	.001296	
318.15	2	.0644	.001309	
318.15	2	.08133	.001322	
318.15	2	.10215	.001338	
318.15	2	.12141	.001353	
318.15	2	.13644	.001366	

System: D(+)-glucose + sodium dihydrogen phosphate + water; phases: Liquid
Fixed: Pressure, kPa = 100
Property: Viscosity, Pa*s (Liquid); method: Capillary tube (Ostwald; Ubbelohde) method
Temperature, K	Solvent: Molality, mol/kg of sodium dihydrogen phosphate	Molality, mol/kg of D(+)-glucose	Viscosity, Pa*s	uncertainty
288.15	.5	.06335	.001486	
288.15	.5	.07503	.001499	
288.15	.5	.09517	.001517	
288.15	.5	.10483	.001526	
288.15	.5	.11863	.001538	
288.15	.5	.15572	.001574	
298.15	.5	.06335	.001134	
298.15	.5	.07503	.001142	
298.15	.5	.09517	.001154	
298.15	.5	.10483	.001161	
298.15	.5	.11863	.001171	
298.15	.5	.15572	.001194	
308.15	.5	.06335	.00091	
308.15	.5	.07503	.000916	
308.15	.5	.09517	.000926	
308.15	.5	.10483	.00093	
308.15	.5	.11863	.000937	
308.15	.5	.15572	.000954	
318.15	.5	.06335	.000746	
318.15	.5	.07503	.00075	
318.15	.5	.09517	.000757	
318.15	.5	.10483	.000761	
318.15	.5	.11863	.000766	
318.15	.5	.15572	.00078	
288.15	1	.04636	.001788	
288.15	1	.05779	.001804	
288.15	1	.07142	.001821	
288.15	1	.08495	.001838	
288.15	1	.10418	.001861	
288.15	1	.11465	.001876	
298.15	1	.04636	.001373	
298.15	1	.05779	.001384	
298.15	1	.07142	.001396	
298.15	1	.08495	.001408	
298.15	1	.10418	.001423	
298.15	1	.11465	.001433	
308.15	1	.04636	.001103	
308.15	1	.05779	.001112	
308.15	1	.07142	.001121	
308.15	1	.08495	.001129	
308.15	1	.10418	.00114	
308.15	1	.11465	.001147	
318.15	1	.04636	.000897	
318.15	1	.05779	.000904	
318.15	1	.07142	.000909	
318.15	1	.08495	.000916	
318.15	1	.10418	.000925	
318.15	1	.11465	.000931	
288.15	1.5	.05435	.00223	
288.15	1.5	.07316	.002261	
288.15	1.5	.08486	.002281	
288.15	1.5	.09776	.002303	
288.15	1.5	.11449	.002331	
288.15	1.5	.14375	.002378	
298.15	1.5	.05435	.001695	
298.15	1.5	.07316	.001717	
298.15	1.5	.08486	.001731	
298.15	1.5	.09776	.001747	
298.15	1.5	.11449	.001768	
298.15	1.5	.14375	.0018	
308.15	1.5	.05435	.001312	
308.15	1.5	.07316	.001327	
308.15	1.5	.08486	.001337	
308.15	1.5	.09776	.001349	
308.15	1.5	.11449	.001362	
308.15	1.5	.14375	.001386	
318.15	1.5	.05435	.001087	
318.15	1.5	.07316	.0011	
318.15	1.5	.08486	.001106	
318.15	1.5	.09776	.001115	
318.15	1.5	.11449	.001125	
318.15	1.5	.14375	.001144	
288.15	2	.05108	.002781	
288.15	2	.06883	.002828	
288.15	2	.08422	.002865	
288.15	2	.10568	.002917	
288.15	2	.10869	.002925	
288.15	2	.13062	.002976	
298.15	2	.05108	.002074	
298.15	2	.06883	.002106	
298.15	2	.08422	.002133	
298.15	2	.10568	.002167	
298.15	2	.10869	.002172	
298.15	2	.13062	.002211	
308.15	2	.05108	.001517	
308.15	2	.06883	.001538	
308.15	2	.08422	.001556	
308.15	2	.10568	.00158	
308.15	2	.10869	.001584	
308.15	2	.13062	.001608	
318.15	2	.05108	.001305	
318.15	2	.06883	.001321	
318.15	2	.08422	.001336	
318.15	2	.10568	.001355	
318.15	2	.10869	.001358	
318.15	2	.13062	.001379	

System: D-mannose + sodium dihydrogen phosphate + water; phases: Liquid
Fixed: Pressure, kPa = 100
Property: Viscosity, Pa*s (Liquid); method: Capillary tube (Ostwald; Ubbelohde) method
Temperature, K	Solvent: Molality, mol/kg of sodium dihydrogen phosphate	Molality, mol/kg of D-mannose	Viscosity, Pa*s	uncertainty
288.15	.5	.05276	.001471	
288.15	.5	.06587	.001482	
288.15	.5	.0788	.001492	
288.15	.5	.09699	.001507	
288.15	.5	.12021	.001527	
288.15	.5	.14203	.001544	
298.15	.5	.05276	.001123	
298.15	.5	.06587	.001131	
298.15	.5	.0788	.001138	
298.15	.5	.09699	.001149	
298.15	.5	.12021	.001162	
298.15	.5	.14203	.001175	
308.15	.5	.05276	.000902	
308.15	.5	.06587	.000908	
308.15	.5	.0788	.000914	
308.15	.5	.09699	.000921	
308.15	.5	.12021	.000931	
308.15	.5	.14203	.00094	
318.15	.5	.05276	.00074	
318.15	.5	.06587	.000745	
318.15	.5	.0788	.00075	
318.15	.5	.09699	.000755	
318.15	.5	.12021	.000762	
318.15	.5	.14203	.000769	
288.15	1	.04959	.001789	
288.15	1	.05801	.001798	
288.15	1	.07607	.001818	
288.15	1	.09169	.001835	
288.15	1	.11156	.001859	
288.15	1	.14497	.001896	
298.15	1	.04959	.001373	
298.15	1	.05801	.00138	
298.15	1	.07607	.001394	
298.15	1	.09169	.001405	
298.15	1	.11156	.001421	
298.15	1	.14497	.001446	
308.15	1	.04959	.001104	
308.15	1	.05801	.001108	
308.15	1	.07607	.00112	
308.15	1	.09169	.001128	
308.15	1	.11156	.001141	
308.15	1	.14497	.001158	
318.15	1	.04959	.000897	
318.15	1	.05801	.000901	
318.15	1	.07607	.000908	
318.15	1	.09169	.000916	
318.15	1	.11156	.000924	
318.15	1	.14497	.000937	
288.15	1.5	.04959	.002216	
288.15	1.5	.06155	.002232	
288.15	1.5	.07266	.002249	
288.15	1.5	.09595	.002286	
288.15	1.5	.10903	.002306	
288.15	1.5	.13864	.00235	
298.15	1.5	.04959	.001683	
298.15	1.5	.06155	.001697	
298.15	1.5	.07266	.001709	
298.15	1.5	.09595	.001734	
298.15	1.5	.10903	.001746	
298.15	1.5	.13864	.001778	
308.15	1.5	.04959	.001304	
308.15	1.5	.06155	.001314	
308.15	1.5	.07266	.001323	
308.15	1.5	.09595	.001339	
308.15	1.5	.10903	.00135	
308.15	1.5	.13864	.001373	
318.15	1.5	.04959	.00108	
318.15	1.5	.06155	.001086	
318.15	1.5	.07266	.001094	
318.15	1.5	.09595	.001107	
318.15	1.5	.10903	.001115	
318.15	1.5	.13864	.001132	
288.15	2	.04944	.002752	
288.15	2	.0639	.002781	
288.15	2	.0711	.002797	
288.15	2	.09638	.002846	
288.15	2	.10851	.002871	
288.15	2	.11865	.002894	
298.15	2	.04944	.002057	
298.15	2	.0639	.002077	
298.15	2	.0711	.002087	
298.15	2	.09638	.002122	
298.15	2	.10851	.00214	
298.15	2	.11865	.002156	
308.15	2	.04944	.001503	
308.15	2	.0639	.001518	
308.15	2	.0711	.001525	
308.15	2	.09638	.001549	
308.15	2	.10851	.00156	
308.15	2	.11865	.001571	
318.15	2	.04944	.001294	
318.15	2	.0639	.001306	
318.15	2	.0711	.001311	
318.15	2	.09638	.00133	
318.15	2	.10851	.00134	
318.15	2	.11865	.001347	

System: deoxyribose + sodium dihydrogen phosphate + water; phases: Liquid
Fixed: Pressure, kPa = 100
Property: Viscosity, Pa*s (Liquid); method: Capillary tube (Ostwald; Ubbelohde) method
Temperature, K	Solvent: Molality, mol/kg of sodium dihydrogen phosphate	Molality, mol/kg of deoxyribose	Viscosity, Pa*s	uncertainty
288.15	.5	.05467	.001469	
288.15	.5	.07789	.001487	
288.15	.5	.09308	.001499	
288.15	.5	.11568	.001517	
288.15	.5	.14801	.001541	
298.15	.5	.05467	.001122	
298.15	.5	.07789	.001136	
298.15	.5	.09308	.001144	
298.15	.5	.11568	.001156	
298.15	.5	.14801	.001173	
308.15	.5	.05467	.000902	
308.15	.5	.07789	.000911	
308.15	.5	.09308	.000917	
308.15	.5	.11568	.000926	
308.15	.5	.14801	.000939	
318.15	.5	.05467	.000739	
318.15	.5	.07789	.000746	
318.15	.5	.09308	.00075	
318.15	.5	.11568	.000757	
318.15	.5	.14801	.000767	
288.15	1	.06244	.001797	
288.15	1	.07376	.001809	
288.15	1	.09936	.001834	
288.15	1	.13738	.001875	
288.15	1	.14899	.001887	
298.15	1	.06244	.00138	
298.15	1	.07376	.001388	
298.15	1	.09936	.001407	
298.15	1	.13738	.001435	
298.15	1	.14899	.001443	
308.15	1	.06244	.001109	
308.15	1	.07376	.001116	
308.15	1	.09936	.001129	
308.15	1	.13738	.001151	
308.15	1	.14899	.001157	
318.15	1	.06244	.000901	
318.15	1	.07376	.000906	
318.15	1	.09936	.000915	
318.15	1	.13738	.000931	
318.15	1	.14899	.000935	
288.15	1.5	.05797	.002221	
288.15	1.5	.07165	.002243	
288.15	1.5	.09266	.002273	
288.15	1.5	.11789	.00231	
288.15	1.5	.144	.002348	
298.15	1.5	.05797	.00169	
298.15	1.5	.07165	.001705	
298.15	1.5	.09266	.001725	
298.15	1.5	.11789	.00175	
298.15	1.5	.144	.001775	
308.15	1.5	.05797	.00131	
308.15	1.5	.07165	.001321	
308.15	1.5	.09266	.001335	
308.15	1.5	.11789	.001353	
308.15	1.5	.144	.001372	
318.15	1.5	.05797	.001084	
318.15	1.5	.07165	.001092	
318.15	1.5	.09266	.001103	
318.15	1.5	.11789	.001117	
318.15	1.5	.144	.001131	
288.15	2	.06265	.002776	
288.15	2	.07748	.002803	
288.15	2	.09662	.002843	
288.15	2	.12053	.002887	
288.15	2	.15288	.00295	
298.15	2	.06265	.002075	
298.15	2	.07748	.002096	
298.15	2	.09662	.00212	
298.15	2	.12053	.002152	
298.15	2	.15288	.002196	
308.15	2	.06265	.001515	
308.15	2	.07748	.00153	
308.15	2	.09662	.001546	
308.15	2	.12053	.001566	
308.15	2	.15288	.001597	
318.15	2	.06265	.001302	
318.15	2	.07748	.001314	
318.15	2	.09662	.001328	
318.15	2	.12053	.001346	
318.15	2	.15288	.001367	

System: 2-deoxy-D-glucose + sodium dihydrogen phosphate + water; phases: Liquid
Fixed: Pressure, kPa = 100
Property: Viscosity, Pa*s (Liquid); method: Capillary tube (Ostwald; Ubbelohde) method
Temperature, K	Solvent: Molality, mol/kg of sodium dihydrogen phosphate	Molality, mol/kg of 2-deoxy-D-glucose	Viscosity, Pa*s	uncertainty
288.15	.5	.046	.001468	
288.15	.5	.05524	.001477	
288.15	.5	.07751	.001495	
288.15	.5	.0842	.001502	
288.15	.5	.11332	.001528	
298.15	.5	.046	.001122	
298.15	.5	.05524	.001127	
298.15	.5	.07751	.001141	
298.15	.5	.0842	.001145	
298.15	.5	.11332	.001163	
308.15	.5	.046	.000901	
308.15	.5	.05524	.000906	
308.15	.5	.07751	.000916	
308.15	.5	.0842	.000919	
308.15	.5	.11332	.000933	
318.15	.5	.046	.000739	
318.15	.5	.05524	.000743	
318.15	.5	.07751	.00075	
318.15	.5	.0842	.000752	
318.15	.5	.11332	.000762	
288.15	1	.05169	.001791	
288.15	1	.06871	.001813	
288.15	1	.08063	.001826	
288.15	1	.12084	.001874	
288.15	1	.14633	.001905	
298.15	1	.05169	.001375	
298.15	1	.06871	.00139	
298.15	1	.08063	.0014	
298.15	1	.12084	.001433	
298.15	1	.14633	.001455	
308.15	1	.05169	.001107	
308.15	1	.06871	.001117	
308.15	1	.08063	.001125	
308.15	1	.12084	.001149	
308.15	1	.14633	.001165	
318.15	1	.05169	.000898	
318.15	1	.06871	.000906	
318.15	1	.08063	.000911	
318.15	1	.12084	.000929	
318.15	1	.14633	.00094	
288.15	1.5	.04701	.002217	
288.15	1.5	.06051	.002238	
288.15	1.5	.09457	.002292	
288.15	1.5	.11111	.002319	
288.15	1.5	.13257	.002354	
298.15	1.5	.04701	.001682	
298.15	1.5	.06051	.001699	
298.15	1.5	.09457	.001736	
298.15	1.5	.11111	.001755	
298.15	1.5	.13257	.001779	
308.15	1.5	.04701	.001304	
308.15	1.5	.06051	.001315	
308.15	1.5	.09457	.001344	
308.15	1.5	.11111	.001356	
308.15	1.5	.13257	.001375	
318.15	1.5	.04701	.00108	
318.15	1.5	.06051	.001088	
318.15	1.5	.09457	.001108	
318.15	1.5	.11111	.001118	
318.15	1.5	.13257	.001133	
288.15	2	.05347	.002774	
288.15	2	.07004	.002809	
288.15	2	.09105	.002861	
288.15	2	.11787	.002918	
288.15	2	.14783	.002984	
298.15	2	.05347	.002069	
298.15	2	.07004	.002096	
298.15	2	.09105	.002128	
298.15	2	.11787	.002165	
298.15	2	.14783	.002212	
308.15	2	.05347	.001512	
308.15	2	.07004	.00153	
308.15	2	.09105	.00155	
308.15	2	.11787	.001578	
308.15	2	.14783	.001607	
318.15	2	.05347	.0013	
318.15	2	.07004	.001314	
318.15	2	.09105	.001333	
318.15	2	.11787	.001354	
318.15	2	.14783	.001377	

System: 6-deoxy-.alpha.-L-mannopyranose + sodium dihydrogen phosphate + water; phases: Liquid
Fixed: Pressure, kPa = 100
Property: Viscosity, Pa*s (Liquid); method: Capillary tube (Ostwald; Ubbelohde) method
Temperature, K	Solvent: Molality, mol/kg of sodium dihydrogen phosphate	Molality, mol/kg of 6-deoxy-.alpha.-L-mannopyranose	Viscosity, Pa*s	uncertainty
288.15	.5	.0568	.001474	
288.15	.5	.07683	.00149	
288.15	.5	.09242	.001502	
288.15	.5	.11274	.00152	
288.15	.5	.12616	.001532	
298.15	.5	.0568	.001126	
298.15	.5	.07683	.001138	
298.15	.5	.09242	.001148	
298.15	.5	.11274	.001158	
298.15	.5	.12616	.001166	
308.15	.5	.0568	.000904	
308.15	.5	.07683	.000914	
308.15	.5	.09242	.000921	
308.15	.5	.11274	.000929	
308.15	.5	.12616	.000934	
318.15	.5	.0568	.000742	
318.15	.5	.07683	.000749	
318.15	.5	.09242	.000754	
318.15	.5	.11274	.000761	
318.15	.5	.12616	.000765	
288.15	1	.05605	.001794	
288.15	1	.07849	.001818	
288.15	1	.09007	.001833	
288.15	1	.11857	.001864	
288.15	1	.15036	.001899	
298.15	1	.05605	.001377	
298.15	1	.07849	.001395	
298.15	1	.09007	.001404	
298.15	1	.11857	.001426	
298.15	1	.15036	.001452	
308.15	1	.05605	.001109	
308.15	1	.07849	.001121	
308.15	1	.09007	.001128	
308.15	1	.11857	.001145	
308.15	1	.15036	.001165	
318.15	1	.05605	.0009	
318.15	1	.07849	.00091	
318.15	1	.09007	.000915	
318.15	1	.11857	.000927	
318.15	1	.15036	.000941	
288.15	1.5	.04538	.002208	
288.15	1.5	.06164	.002232	
288.15	1.5	.06922	.002245	
288.15	1.5	.07297	.00225	
288.15	1.5	.10339	.002296	
298.15	1.5	.04538	.001679	
298.15	1.5	.06164	.001697	
298.15	1.5	.06922	.001706	
298.15	1.5	.07297	.00171	
298.15	1.5	.10339	.001742	
308.15	1.5	.04538	.001302	
308.15	1.5	.06164	.001314	
308.15	1.5	.06922	.00132	
308.15	1.5	.07297	.001323	
308.15	1.5	.10339	.001346	
318.15	1.5	.04538	.001078	
318.15	1.5	.06164	.001087	
318.15	1.5	.06922	.001092	
318.15	1.5	.07297	.001094	
318.15	1.5	.10339	.001113	
288.15	2	.05753	.002769	
288.15	2	.07032	.002794	
288.15	2	.09411	.002846	
288.15	2	.11223	.002879	
288.15	2	.14316	.002942	
298.15	2	.05753	.00207	
298.15	2	.07032	.00209	
298.15	2	.09411	.002125	
298.15	2	.11223	.002149	
298.15	2	.14316	.002193	
308.15	2	.05753	.001513	
308.15	2	.07032	.001525	
308.15	2	.09411	.001546	
308.15	2	.11223	.001567	
308.15	2	.14316	.001595	
318.15	2	.05753	.001302	
318.15	2	.07032	.001311	
318.15	2	.09411	.001328	
318.15	2	.11223	.001342	
318.15	2	.14316	.001366	

System: methyl .alpha.-D-mannopyranoside + sodium dihydrogen phosphate + water; phases: Liquid
Fixed: Pressure, kPa = 100
Property: Viscosity, Pa*s (Liquid); method: Capillary tube (Ostwald; Ubbelohde) method
Temperature, K	Solvent: Molality, mol/kg of sodium dihydrogen phosphate	Molality, mol/kg of methyl .alpha.-D-mannopyranoside	Viscosity, Pa*s	uncertainty
288.15	.5	.04983	.001477	
288.15	.5	.07158	.001502	
288.15	.5	.08309	.001514	
288.15	.5	.10007	.001532	
288.15	.5	.14623	.001578	
298.15	.5	.04983	.001129	
298.15	.5	.07158	.001145	
298.15	.5	.08309	.001154	
298.15	.5	.10007	.001166	
298.15	.5	.14623	.001201	
308.15	.5	.04983	.000907	
308.15	.5	.07158	.000918	
308.15	.5	.08309	.000925	
308.15	.5	.10007	.000934	
308.15	.5	.14623	.000958	
318.15	.5	.04983	.000743	
318.15	.5	.07158	.000752	
318.15	.5	.08309	.000756	
318.15	.5	.10007	.000763	
318.15	.5	.14623	.000781	
288.15	1	.04807	.0018	
288.15	1	.06092	.00182	
288.15	1	.07584	.001843	
288.15	1	.10636	.001886	
288.15	1	.12079	.001907	
298.15	1	.04807	.00138	
298.15	1	.06092	.001394	
298.15	1	.07584	.00141	
298.15	1	.10636	.00144	
298.15	1	.12079	.001455	
308.15	1	.04807	.001109	
308.15	1	.06092	.00112	
308.15	1	.07584	.00113	
308.15	1	.10636	.001154	
308.15	1	.12079	.001164	
318.15	1	.04807	.000902	
318.15	1	.06092	.000909	
318.15	1	.07584	.000917	
318.15	1	.10636	.000933	
318.15	1	.12079	.000942	
288.15	1.5	.05423	.002248	
288.15	1.5	.06419	.002268	
288.15	1.5	.07932	.002298	
288.15	1.5	.10363	.002345	
288.15	1.5	.13241	.002402	
298.15	1.5	.05423	.001704	
298.15	1.5	.06419	.001719	
298.15	1.5	.07932	.001741	
298.15	1.5	.10363	.001773	
298.15	1.5	.13241	.001811	
308.15	1.5	.05423	.001319	
308.15	1.5	.06419	.001329	
308.15	1.5	.07932	.001343	
308.15	1.5	.10363	.001366	
308.15	1.5	.13241	.001393	
318.15	1.5	.05423	.001091	
318.15	1.5	.06419	.001098	
318.15	1.5	.07932	.001109	
318.15	1.5	.10363	.001127	
318.15	1.5	.13241	.001147	
288.15	2	.05299	.002798	
288.15	2	.08014	.002871	
288.15	2	.09233	.002905	
288.15	2	.10154	.002931	
288.15	2	.12091	.002981	
298.15	2	.05299	.002088	
298.15	2	.08014	.002141	
298.15	2	.09233	.002164	
298.15	2	.10154	.002183	
298.15	2	.12091	.002218	
308.15	2	.05299	.001526	
308.15	2	.08014	.001562	
308.15	2	.09233	.001577	
308.15	2	.10154	.001589	
308.15	2	.12091	.001612	
318.15	2	.05299	.001311	
318.15	2	.08014	.001338	
318.15	2	.09233	.001351	
318.15	2	.10154	.00136	
318.15	2	.12091	.001377	

System: methyl .alpha.-D-glucoside + sodium dihydrogen phosphate + water; phases: Liquid
Fixed: Pressure, kPa = 100
Property: Viscosity, Pa*s (Liquid); method: Capillary tube (Ostwald; Ubbelohde) method
Temperature, K	Solvent: Molality, mol/kg of sodium dihydrogen phosphate	Molality, mol/kg of methyl .alpha.-D-glucoside	Viscosity, Pa*s	uncertainty
288.15	.5	.04493	.00147	
288.15	.5	.06665	.001492	
288.15	.5	.08324	.001507	
288.15	.5	.10405	.001527	
288.15	.5	.11519	.001537	
288.15	.5	.15649	.001576	
298.15	.5	.04493	.001124	
298.15	.5	.06665	.001138	
298.15	.5	.08324	.00115	
298.15	.5	.10405	.001163	
298.15	.5	.11519	.001172	
298.15	.5	.15649	.001198	
308.15	.5	.04493	.000902	
308.15	.5	.06665	.000913	
308.15	.5	.08324	.000922	
308.15	.5	.10405	.000932	
308.15	.5	.11519	.000938	
308.15	.5	.15649	.000958	
318.15	.5	.04493	.00074	
318.15	.5	.06665	.000748	
318.15	.5	.08324	.000755	
318.15	.5	.10405	.000762	
318.15	.5	.11519	.000766	
318.15	.5	.15649	.000782	
288.15	1	.05475	.001803	
288.15	1	.06994	.001822	
288.15	1	.08927	.001848	
288.15	1	.10464	.001866	
288.15	1	.12111	.001886	
288.15	1	.14027	.001911	
298.15	1	.05475	.001382	
298.15	1	.06994	.001395	
298.15	1	.08927	.001412	
298.15	1	.10464	.001423	
298.15	1	.12111	.001438	
298.15	1	.14027	.001455	
308.15	1	.05475	.001111	
308.15	1	.06994	.001122	
308.15	1	.08927	.001133	
308.15	1	.10464	.001143	
308.15	1	.12111	.001155	
308.15	1	.14027	.001167	
318.15	1	.05475	.000902	
318.15	1	.06994	.000909	
318.15	1	.08927	.000918	
318.15	1	.10464	.000925	
318.15	1	.12111	.000933	
318.15	1	.14027	.000942	
288.15	1.5	.05017	.002226	
288.15	1.5	.07774	.002276	
288.15	1.5	.09392	.002305	
288.15	1.5	.09868	.002314	
288.15	1.5	.13007	.002368	
288.15	1.5	.16224	.002426	
298.15	1.5	.05017	.001691	
298.15	1.5	.07774	.001725	
298.15	1.5	.09392	.001743	
298.15	1.5	.09868	.001748	
298.15	1.5	.13007	.001788	
298.15	1.5	.16224	.001824	
308.15	1.5	.05017	.00131	
308.15	1.5	.07774	.001334	
308.15	1.5	.09392	.00135	
308.15	1.5	.09868	.001352	
308.15	1.5	.13007	.001379	
308.15	1.5	.16224	.001406	
318.15	1.5	.05017	.001084	
318.15	1.5	.07774	.001101	
318.15	1.5	.09392	.001112	
318.15	1.5	.09868	.001116	
318.15	1.5	.13007	.001135	
318.15	1.5	.16224	.001156	
288.15	2	.05719	.002791	
288.15	2	.06645	.002817	
288.15	2	.08447	.00286	
288.15	2	.11804	.002943	
288.15	2	.137	.002991	
288.15	2	.15227	.003031	
298.15	2	.05719	.002088	
298.15	2	.06645	.002105	
298.15	2	.08447	.002136	
298.15	2	.11804	.002193	
298.15	2	.137	.002228	
298.15	2	.15227	.00225	
308.15	2	.05719	.001524	
308.15	2	.06645	.001535	
308.15	2	.08447	.001557	
308.15	2	.11804	.001596	
308.15	2	.137	.001616	
308.15	2	.15227	.001633	
318.15	2	.05719	.001307	
318.15	2	.06645	.001316	
318.15	2	.08447	.001333	
318.15	2	.11804	.001361	
318.15	2	.137	.001377	
318.15	2	.15227	.001392	

System: D-(+)-Saccharose + sodium dihydrogen phosphate + water; phases: Liquid
Fixed: Pressure, kPa = 100
Property: Viscosity, Pa*s (Liquid); method: Capillary tube (Ostwald; Ubbelohde) method
Temperature, K	Solvent: Molality, mol/kg of sodium dihydrogen phosphate	Molality, mol/kg of D-(+)-Saccharose	Viscosity, Pa*s	uncertainty
288.15	.5	.04338	.001502	
288.15	.5	.06222	.001534	
288.15	.5	.06746	.001545	
288.15	.5	.08829	.001579	
288.15	.5	.10059	.001601	
288.15	.5	.12973	.001649	
298.15	.5	.04338	.001148	
298.15	.5	.06222	.001171	
298.15	.5	.06746	.001178	
298.15	.5	.08829	.001205	
298.15	.5	.10059	.001218	
298.15	.5	.12973	.001253	
308.15	.5	.04338	.00092	
308.15	.5	.06222	.000938	
308.15	.5	.06746	.000943	
308.15	.5	.08829	.000962	
308.15	.5	.10059	.000972	
308.15	.5	.12973	.000997	
318.15	.5	.04338	.000755	
318.15	.5	.06222	.000769	
318.15	.5	.06746	.000773	
318.15	.5	.08829	.000787	
318.15	.5	.10059	.000797	
318.15	.5	.12973	.000817	
288.15	1	.04869	.001848	
288.15	1	.05642	.001867	
288.15	1	.06106	.001877	
288.15	1	.07406	.001907	
288.15	1	.07783	.001918	
288.15	1	.10591	.001981	
298.15	1	.04869	.001416	
298.15	1	.05642	.001431	
298.15	1	.06106	.001438	
298.15	1	.07406	.001461	
298.15	1	.07783	.001468	
298.15	1	.10591	.001516	
308.15	1	.04869	.001139	
308.15	1	.05642	.00115	
308.15	1	.06106	.001156	
308.15	1	.07406	.001172	
308.15	1	.07783	.001178	
308.15	1	.10591	.001213	
318.15	1	.04869	.000924	
318.15	1	.05642	.00093	
318.15	1	.06106	.000936	
318.15	1	.07406	.000948	
318.15	1	.07783	.000952	
318.15	1	.10591	.000979	
288.15	1.5	.0442	.00228	
288.15	1.5	.06518	.00235	
288.15	1.5	.08014	.002401	
288.15	1.5	.08532	.002413	
288.15	1.5	.10179	.002468	
288.15	1.5	.13709	.002579	
298.15	1.5	.0442	.001733	
298.15	1.5	.06518	.001785	
298.15	1.5	.08014	.001817	
298.15	1.5	.08532	.001829	
298.15	1.5	.10179	.00187	
298.15	1.5	.13709	.001951	
308.15	1.5	.0442	.001343	
308.15	1.5	.06518	.00138	
308.15	1.5	.08014	.001404	
308.15	1.5	.08532	.001414	
308.15	1.5	.10179	.001445	
308.15	1.5	.13709	.001502	
318.15	1.5	.0442	.001111	
318.15	1.5	.06518	.001139	
318.15	1.5	.08014	.001159	
318.15	1.5	.08532	.001168	
318.15	1.5	.10179	.001189	
318.15	1.5	.13709	.001232	
288.15	2	.04587	.002855	
288.15	2	.05119	.002881	
288.15	2	.06968	.002965	
288.15	2	.0846	.003029	
288.15	2	.09531	.00308	
288.15	2	.10633	.003125	
298.15	2	.04587	.002134	
298.15	2	.05119	.002151	
298.15	2	.06968	.002209	
298.15	2	.0846	.002252	
298.15	2	.09531	.002288	
298.15	2	.10633	.002321	
308.15	2	.04587	.00156	
308.15	2	.05119	.001571	
308.15	2	.06968	.001611	
308.15	2	.0846	.001642	
308.15	2	.09531	.001664	
308.15	2	.10633	.001688	
318.15	2	.04587	.001339	
318.15	2	.05119	.001349	
318.15	2	.06968	.001381	
318.15	2	.0846	.001408	
318.15	2	.09531	.001428	
318.15	2	.10633	.001447	

System: D-(+)-cellobiose + sodium dihydrogen phosphate + water; phases: Liquid
Fixed: Pressure, kPa = 100
Property: Viscosity, Pa*s (Liquid); method: Capillary tube (Ostwald; Ubbelohde) method
Temperature, K	Solvent: Molality, mol/kg of sodium dihydrogen phosphate	Molality, mol/kg of D-(+)-cellobiose	Viscosity, Pa*s	uncertainty
288.15	.5	.04405	.001503	
288.15	.5	.05379	.00152	
288.15	.5	.0699	.001548	
288.15	.5	.0874	.001577	
288.15	.5	.1011	.0016	
288.15	.5	.12413	.001639	
298.15	.5	.04405	.001148	
298.15	.5	.05379	.00116	
298.15	.5	.0699	.00118	
298.15	.5	.0874	.001202	
298.15	.5	.1011	.001219	
298.15	.5	.12413	.001246	
308.15	.5	.04405	.000922	
308.15	.5	.05379	.000931	
308.15	.5	.0699	.000946	
308.15	.5	.0874	.000962	
308.15	.5	.1011	.000975	
308.15	.5	.12413	.000996	
318.15	.5	.04405	.000756	
318.15	.5	.05379	.000763	
318.15	.5	.0699	.000774	
318.15	.5	.0874	.000787	
318.15	.5	.1011	.000797	
318.15	.5	.12413	.000813	
288.15	1	.05078	.001845	
288.15	1	.06826	.001885	
288.15	1	.07807	.001905	
288.15	1	.09241	.001935	
288.15	1	.11513	.001993	
288.15	1	.1339	.002036	
298.15	1	.05078	.001416	
298.15	1	.06826	.001445	
298.15	1	.07807	.001459	
298.15	1	.09241	.001485	
298.15	1	.11513	.001523	
298.15	1	.1339	.001554	
308.15	1	.05078	.001137	
308.15	1	.06826	.001161	
308.15	1	.07807	.001173	
308.15	1	.09241	.001191	
308.15	1	.11513	.001219	
308.15	1	.1339	.001239	
318.15	1	.05078	.000923	
318.15	1	.06826	.00094	
318.15	1	.07807	.00095	
318.15	1	.09241	.000963	
318.15	1	.11513	.000986	
318.15	1	.1339	.001003	
288.15	1.5	.04649	.00228	
288.15	1.5	.05831	.002315	
288.15	1.5	.07179	.00235	
288.15	1.5	.08445	.002388	
288.15	1.5	.10096	.002439	
288.15	1.5	.12566	.002505	
298.15	1.5	.04649	.00173	
298.15	1.5	.05831	.001755	
298.15	1.5	.07179	.001786	
298.15	1.5	.08445	.001812	
298.15	1.5	.10096	.001842	
298.15	1.5	.12566	.001896	
308.15	1.5	.04649	.00134	
308.15	1.5	.05831	.001359	
308.15	1.5	.07179	.001379	
308.15	1.5	.08445	.001399	
308.15	1.5	.10096	.001425	
308.15	1.5	.12566	.001462	
318.15	1.5	.04649	.001108	
318.15	1.5	.05831	.001123	
318.15	1.5	.07179	.00114	
318.15	1.5	.08445	.001157	
318.15	1.5	.10096	.001175	
318.15	1.5	.12566	.001202	
288.15	2	.05203	.002853	
288.15	2	.06764	.002906	
288.15	2	.07708	.002946	
288.15	2	.09524	.003023	
288.15	2	.11048	.003077	
288.15	2	.13903	.003169	
298.15	2	.05203	.002132	
298.15	2	.06764	.002174	
298.15	2	.07708	.002198	
298.15	2	.09524	.002244	
298.15	2	.11048	.002287	
298.15	2	.13903	.002358	
308.15	2	.05203	.001556	
308.15	2	.06764	.001586	
308.15	2	.07708	.001601	
308.15	2	.09524	.001636	
308.15	2	.11048	.001661	
308.15	2	.13903	.001714	
318.15	2	.05203	.001334	
318.15	2	.06764	.00136	
318.15	2	.07708	.001377	
318.15	2	.09524	.001403	
318.15	2	.11048	.001425	
318.15	2	.13903	.001468	

System: D-(+)-lactose + sodium dihydrogen phosphate + water; phases: Liquid
Fixed: Pressure, kPa = 100
Property: Viscosity, Pa*s (Liquid); method: Capillary tube (Ostwald; Ubbelohde) method
Temperature, K	Solvent: Molality, mol/kg of sodium dihydrogen phosphate	Molality, mol/kg of D-(+)-lactose	Viscosity, Pa*s	uncertainty
288.15	.5	.05482	.001531	
288.15	.5	.06164	.001544	
288.15	.5	.08607	.001591	
288.15	.5	.08869	.001595	
288.15	.5	.11309	.001638	
288.15	.5	.14311	.001692	
298.15	.5	.05482	.001166	
298.15	.5	.06164	.001177	
298.15	.5	.08607	.001208	
298.15	.5	.08869	.001212	
298.15	.5	.11309	.001245	
298.15	.5	.14311	.001284	
308.15	.5	.05482	.000936	
308.15	.5	.06164	.000944	
308.15	.5	.08607	.000966	
308.15	.5	.08869	.000972	
308.15	.5	.11309	.000995	
308.15	.5	.14311	.001025	
318.15	.5	.05482	.000769	
318.15	.5	.06164	.000773	
318.15	.5	.08607	.000792	
318.15	.5	.08869	.000795	
318.15	.5	.11309	.000813	
318.15	.5	.14311	.000834	
288.15	1	.04995	.001857	
288.15	1	.05873	.001882	
288.15	1	.07265	.001918	
288.15	1	.08562	.001951	
288.15	1	.10104	.00199	
288.15	1	.11883	.002036	
298.15	1	.04995	.001427	
298.15	1	.05873	.001443	
298.15	1	.07265	.001467	
298.15	1	.08562	.001492	
298.15	1	.10104	.001518	
298.15	1	.11883	.001552	
308.15	1	.04995	.001145	
308.15	1	.05873	.00116	
308.15	1	.07265	.001176	
308.15	1	.08562	.001195	
308.15	1	.10104	.001218	
308.15	1	.11883	.001244	
318.15	1	.04995	.000928	
318.15	1	.05873	.000939	
318.15	1	.07265	.000953	
318.15	1	.08562	.000966	
318.15	1	.10104	.000984	
318.15	1	.11883	.001003	
288.15	1.5	.05319	.002323	
288.15	1.5	.06103	.002352	
288.15	1.5	.07799	.002406	
288.15	1.5	.08555	.002433	
288.15	1.5	.12371	.002565	
288.15	1.5	.14578	.002643	
298.15	1.5	.05319	.001764	
298.15	1.5	.06103	.001785	
298.15	1.5	.07799	.001824	
298.15	1.5	.08555	.001849	
298.15	1.5	.12371	.001936	
298.15	1.5	.14578	.001988	
308.15	1.5	.05319	.001364	
308.15	1.5	.06103	.00138	
308.15	1.5	.07799	.001411	
308.15	1.5	.08555	.001424	
308.15	1.5	.12371	.001493	
308.15	1.5	.14578	.001532	
318.15	1.5	.05319	.00113	
318.15	1.5	.06103	.001141	
318.15	1.5	.07799	.001166	
318.15	1.5	.08555	.001175	
318.15	1.5	.12371	.001228	
318.15	1.5	.14578	.001257	
288.15	2	.05319	.002902	
288.15	2	.07693	.003016	
288.15	2	.08576	.003057	
288.15	2	.11205	.003164	
288.15	2	.12742	.00324	
288.15	2	.12964	.003254	
298.15	2	.05319	.002159	
298.15	2	.07693	.002236	
298.15	2	.08576	.002264	
298.15	2	.11205	.002352	
298.15	2	.12742	.002402	
298.15	2	.12964	.002412	
308.15	2	.05319	.001581	
308.15	2	.07693	.001634	
308.15	2	.08576	.001653	
308.15	2	.11205	.001717	
308.15	2	.12742	.001746	
308.15	2	.12964	.001757	
318.15	2	.05319	.001357	
318.15	2	.07693	.001402	
318.15	2	.08576	.001422	
318.15	2	.11205	.001471	
318.15	2	.12742	.001497	
318.15	2	.12964	.001502	

System: D-(+)-maltose + sodium dihydrogen phosphate + water; phases: Liquid
Fixed: Pressure, kPa = 100
Property: Viscosity, Pa*s (Liquid); method: Capillary tube (Ostwald; Ubbelohde) method
Temperature, K	Solvent: Molality, mol/kg of sodium dihydrogen phosphate	Molality, mol/kg of D-(+)-maltose	Viscosity, Pa*s	uncertainty
288.15	.5	.0516	.001531	
288.15	.5	.06218	.001553	
288.15	.5	.07719	.00158	
288.15	.5	.08794	.001602	
288.15	.5	.09613	.00162	
288.15	.5	.12698	.001678	
298.15	.5	.0516	.001167	
298.15	.5	.06218	.001181	
298.15	.5	.07719	.001204	
298.15	.5	.08794	.001218	
298.15	.5	.09613	.001231	
298.15	.5	.12698	.001273	
308.15	.5	.0516	.000935	
308.15	.5	.06218	.000948	
308.15	.5	.07719	.000964	
308.15	.5	.08794	.000975	
308.15	.5	.09613	.000983	
308.15	.5	.12698	.001017	
318.15	.5	.0516	.000766	
318.15	.5	.06218	.000775	
318.15	.5	.07719	.000788	
318.15	.5	.08794	.000795	
318.15	.5	.09613	.000803	
318.15	.5	.12698	.000827	
288.15	1	.05028	.001871	
288.15	1	.06136	.0019	
288.15	1	.07053	.001926	
288.15	1	.08005	.001952	
288.15	1	.09982	.002006	
288.15	1	.12571	.002072	
298.15	1	.05028	.001432	
298.15	1	.06136	.001454	
298.15	1	.07053	.001473	
298.15	1	.08005	.001491	
298.15	1	.09982	.001531	
298.15	1	.12571	.001579	
308.15	1	.05028	.00115	
308.15	1	.06136	.001167	
308.15	1	.07053	.001181	
308.15	1	.08005	.001194	
308.15	1	.09982	.001223	
308.15	1	.12571	.00126	
318.15	1	.05028	.000933	
318.15	1	.06136	.000945	
318.15	1	.07053	.000954	
318.15	1	.08005	.000965	
318.15	1	.09982	.000988	
318.15	1	.12571	.001015	
288.15	1.5	.04789	.002317	
288.15	1.5	.05406	.002339	
288.15	1.5	.06331	.002373	
288.15	1.5	.07331	.002409	
288.15	1.5	.08773	.00246	
288.15	1.5	.10044	.002505	
298.15	1.5	.04789	.001756	
298.15	1.5	.05406	.001774	
298.15	1.5	.06331	.001797	
298.15	1.5	.07331	.001823	
298.15	1.5	.08773	.00186	
298.15	1.5	.10044	.001893	
308.15	1.5	.04789	.001358	
308.15	1.5	.05406	.001371	
308.15	1.5	.06331	.001388	
308.15	1.5	.07331	.001408	
308.15	1.5	.08773	.001434	
308.15	1.5	.10044	.001458	
318.15	1.5	.04789	.001123	
318.15	1.5	.05406	.001133	
318.15	1.5	.06331	.001145	
318.15	1.5	.07331	.00116	
318.15	1.5	.08773	.001182	
318.15	1.5	.10044	.001201	
288.15	2	.04913	.002895	
288.15	2	.06416	.002969	
288.15	2	.07764	.003035	
288.15	2	.08984	.003097	
288.15	2	.09237	.003101	
288.15	2	.14198	.003336	
298.15	2	.04913	.002162	
298.15	2	.06416	.002211	
298.15	2	.07764	.002257	
298.15	2	.08984	.002298	
298.15	2	.09237	.002308	
298.15	2	.14198	.00247	
308.15	2	.04913	.001576	
308.15	2	.06416	.001612	
308.15	2	.07764	.001643	
308.15	2	.08984	.001672	
308.15	2	.09237	.00168	
308.15	2	.14198	.001795	
318.15	2	.04913	.001353	
318.15	2	.06416	.001384	
318.15	2	.07764	.001409	
318.15	2	.08984	.001431	
318.15	2	.09237	.001437	
318.15	2	.14198	.001531	

System: melezitose + sodium dihydrogen phosphate + water; phases: Liquid
Fixed: Pressure, kPa = 100
Property: Viscosity, Pa*s (Liquid); method: Capillary tube (Ostwald; Ubbelohde) method
Temperature, K	Solvent: Molality, mol/kg of sodium dihydrogen phosphate	Molality, mol/kg of melezitose	Viscosity, Pa*s	uncertainty
288.15	.5	.05088	.001547	
288.15	.5	.06305	.001574	
288.15	.5	.08314	.001623	
288.15	.5	.10052	.00166	
288.15	.5	.12138	.001703	
298.15	.5	.05088	.00118	
298.15	.5	.06305	.0012	
298.15	.5	.08314	.001237	
298.15	.5	.10052	.001263	
298.15	.5	.12138	.001297	
308.15	.5	.05088	.000945	
308.15	.5	.06305	.000962	
308.15	.5	.08314	.000987	
308.15	.5	.10052	.00101	
308.15	.5	.12138	.001034	
318.15	.5	.05088	.000774	
318.15	.5	.06305	.000787	
318.15	.5	.08314	.000806	
318.15	.5	.10052	.000823	
318.15	.5	.12138	.000843	
288.15	1	.05806	.001913	
288.15	1	.07464	.001962	
288.15	1	.08536	.001996	
288.15	1	.10066	.002039	
288.15	1	.11572	.002081	
298.15	1	.05806	.001464	
298.15	1	.07464	.0015	
298.15	1	.08536	.001527	
298.15	1	.10066	.001559	
298.15	1	.11572	.001593	
308.15	1	.05806	.001173	
308.15	1	.07464	.001202	
308.15	1	.08536	.001221	
308.15	1	.10066	.001247	
308.15	1	.11572	.001273	
318.15	1	.05806	.000952	
318.15	1	.07464	.000974	
318.15	1	.08536	.000988	
318.15	1	.10066	.001009	
318.15	1	.11572	.001028	
288.15	1.5	.05643	.002369	
288.15	1.5	.07778	.002454	
288.15	1.5	.08772	.002497	
288.15	1.5	.09676	.002532	
288.15	1.5	.11405	.002599	
298.15	1.5	.05643	.0018	
298.15	1.5	.07778	.001862	
298.15	1.5	.08772	.00189	
298.15	1.5	.09676	.001916	
298.15	1.5	.11405	.001965	
308.15	1.5	.05643	.001388	
308.15	1.5	.07778	.001434	
308.15	1.5	.08772	.001457	
308.15	1.5	.09676	.001476	
308.15	1.5	.11405	.001511	
318.15	1.5	.05643	.001146	
318.15	1.5	.07778	.001182	
318.15	1.5	.08772	.001201	
318.15	1.5	.09676	.001215	
318.15	1.5	.11405	.001244	
288.15	2	.05732	.002961	
288.15	2	.06593	.003008	
288.15	2	.07905	.003076	
288.15	2	.08912	.003125	
288.15	2	.10594	.003214	
298.15	2	.05732	.002203	
298.15	2	.06593	.002238	
298.15	2	.07905	.002289	
298.15	2	.08912	.002325	
298.15	2	.10594	.002386	
308.15	2	.05732	.001611	
308.15	2	.06593	.001631	
308.15	2	.07905	.001665	
308.15	2	.08912	.001691	
308.15	2	.10594	.001735	
318.15	2	.05732	.001381	
318.15	2	.06593	.0014	
318.15	2	.07905	.001429	
318.15	2	.08912	.001449	
318.15	2	.10594	.001486	

System: raffinose + sodium dihydrogen phosphate + water; phases: Liquid
Fixed: Pressure, kPa = 100
Property: Viscosity, Pa*s (Liquid); method: Capillary tube (Ostwald; Ubbelohde) method
Temperature, K	Solvent: Molality, mol/kg of sodium dihydrogen phosphate	Molality, mol/kg of raffinose	Viscosity, Pa*s	uncertainty
288.15	.5	.053	.001563	
288.15	.5	.05797	.001577	
288.15	.5	.07072	.001608	
288.15	.5	.07824	.001628	
288.15	.5	.08577	.001649	
298.15	.5	.053	.001192	
298.15	.5	.05797	.001201	
298.15	.5	.07072	.001226	
298.15	.5	.07824	.00124	
298.15	.5	.08577	.001253	
308.15	.5	.053	.000955	
308.15	.5	.05797	.000963	
308.15	.5	.07072	.000982	
308.15	.5	.07824	.000992	
308.15	.5	.08577	.001002	
318.15	.5	.053	.000782	
318.15	.5	.05797	.000788	
318.15	.5	.07072	.000802	
318.15	.5	.07824	.00081	
318.15	.5	.08577	.000818	
288.15	1	.05311	.001915	
288.15	1	.05937	.001936	
288.15	1	.0654	.001956	
288.15	1	.07365	.001986	
288.15	1	.08318	.002018	
298.15	1	.05311	.001465	
298.15	1	.05937	.001481	
298.15	1	.0654	.001497	
298.15	1	.07365	.001517	
298.15	1	.08318	.001538	
308.15	1	.05311	.001176	
308.15	1	.05937	.001188	
308.15	1	.0654	.0012	
308.15	1	.07365	.001215	
308.15	1	.08318	.001233	
318.15	1	.05311	.000952	
318.15	1	.05937	.000961	
318.15	1	.0654	.00097	
318.15	1	.07365	.000981	
318.15	1	.08318	.000995	
288.15	1.5	.05355	.002383	
288.15	1.5	.06024	.002413	
288.15	1.5	.06741	.002446	
288.15	1.5	.075	.002479	
288.15	1.5	.08715	.002533	
298.15	1.5	.05355	.001805	
298.15	1.5	.06024	.001827	
298.15	1.5	.06741	.001849	
298.15	1.5	.075	.001875	
298.15	1.5	.08715	.001912	
308.15	1.5	.05355	.001396	
308.15	1.5	.06024	.001412	
308.15	1.5	.06741	.001428	
308.15	1.5	.075	.001447	
308.15	1.5	.08715	.001475	
318.15	1.5	.05355	.001151	
318.15	1.5	.06024	.001163	
318.15	1.5	.06741	.001176	
318.15	1.5	.075	.00119	
318.15	1.5	.08715	.001212	
288.15	2	.05837	.003	
288.15	2	.06934	.003067	
288.15	2	.072	.003087	
288.15	2	.08301	.00315	
288.15	2	.08593	.003167	
298.15	2	.05837	.002233	
298.15	2	.06934	.002279	
298.15	2	.072	.00229	
298.15	2	.08301	.002331	
298.15	2	.08593	.002347	
308.15	2	.05837	.001628	
308.15	2	.06934	.00166	
308.15	2	.072	.00167	
308.15	2	.08301	.001699	
308.15	2	.08593	.001709	
318.15	2	.05837	.001396	
318.15	2	.06934	.001422	
318.15	2	.072	.001428	
318.15	2	.08301	.001452	
318.15	2	.08593	.001459	

System: D-(-)-ribose + ammonium biphosphate + water; phases: Liquid
Fixed: Pressure, kPa = 100
Property: Viscosity, Pa*s (Liquid); method: Capillary tube (Ostwald; Ubbelohde) method
Temperature, K	Solvent: Molality, mol/kg of ammonium biphosphate	Molality, mol/kg of D-(-)-ribose	Viscosity, Pa*s	uncertainty
288.15	.5	0	.00129	
288.15	.5	.05638	.001317	
288.15	.5	.08851	.001333	
288.15	.5	.1068	.001342	
288.15	.5	.12436	.00135	
288.15	.5	.13645	.001356	
288.15	.5	.1605	.001368	
298.15	.5	0	.001014	
298.15	.5	.05638	.001035	
298.15	.5	.08851	.001047	
298.15	.5	.1068	.001054	
298.15	.5	.12436	.001061	
298.15	.5	.13645	.001065	
298.15	.5	.1605	.001074	
308.15	.5	0	.000822	
308.15	.5	.05638	.000839	
308.15	.5	.08851	.000849	
308.15	.5	.1068	.000854	
308.15	.5	.12436	.000859	
308.15	.5	.13645	.000863	
308.15	.5	.1605	.00087	
318.15	.5	0	.000659	
318.15	.5	.05638	.000673	
318.15	.5	.08851	.000681	
318.15	.5	.1068	.000686	
318.15	.5	.12436	.00069	
318.15	.5	.13645	.000693	
318.15	.5	.1605	.000699	
288.15	1	0	.001472	
288.15	1	.05139	.001504	
288.15	1	.0715	.001516	
288.15	1	.10227	.001534	
288.15	1	.12935	.00155	
288.15	1	.1349	.001554	
288.15	1	.16464	.001571	
298.15	1	0	.001172	
298.15	1	.05139	.001196	
298.15	1	.0715	.001206	
298.15	1	.10227	.001221	
298.15	1	.12935	.001233	
298.15	1	.1349	.001236	
298.15	1	.16464	.00125	
308.15	1	0	.000942	
308.15	1	.05139	.000962	
308.15	1	.0715	.00097	
308.15	1	.10227	.000982	
308.15	1	.12935	.000993	
308.15	1	.1349	.000995	
308.15	1	.16464	.001006	
318.15	1	0	.000741	
318.15	1	.05139	.000758	
318.15	1	.0715	.000764	
318.15	1	.10227	.000774	
318.15	1	.12935	.000782	
318.15	1	.1349	.000784	
318.15	1	.16464	.000793	
288.15	1.5	0	.001672	
288.15	1.5	.05668	.001715	
288.15	1.5	.07847	.001731	
288.15	1.5	.09642	.001744	
288.15	1.5	.11912	.001761	
288.15	1.5	.15177	.001784	
298.15	1.5	0	.001332	
298.15	1.5	.05668	.001366	
298.15	1.5	.07847	.001378	
298.15	1.5	.09642	.001389	
298.15	1.5	.11912	.001402	
298.15	1.5	.15177	.001421	
308.15	1.5	0	.001049	
308.15	1.5	.05668	.001076	
308.15	1.5	.07847	.001086	
308.15	1.5	.09642	.001095	
308.15	1.5	.11912	.001105	
308.15	1.5	.15177	.001121	
318.15	1.5	0	.000822	
318.15	1.5	.05668	.000844	
318.15	1.5	.07847	.000852	
318.15	1.5	.09642	.000859	
318.15	1.5	.11912	.000868	
318.15	1.5	.15177	.00088	
288.15	2	0	.001831	
288.15	2	.05851	.001884	
288.15	2	.07964	.001902	
288.15	2	.09572	.001916	
288.15	2	.11113	.00193	
288.15	2	.1368	.001953	
288.15	2	.15252	.001966	
298.15	2	0	.001463	
298.15	2	.05851	.001505	
298.15	2	.07964	.00152	
298.15	2	.09572	.001531	
298.15	2	.11113	.001542	
298.15	2	.1368	.00156	
298.15	2	.15252	.001571	
308.15	2	0	.001161	
308.15	2	.05851	.001195	
308.15	2	.07964	.001207	
308.15	2	.09572	.001216	
308.15	2	.11113	.001225	
308.15	2	.1368	.00124	
308.15	2	.15252	.001249	
318.15	2	0	.000908	
318.15	2	.05851	.000936	
318.15	2	.07964	.000945	
318.15	2	.09572	.000953	
318.15	2	.11113	.00096	
318.15	2	.1368	.000972	
318.15	2	.15252	.000979	

System: D(+)-glucose + ammonium biphosphate + water; phases: Liquid
Fixed: Pressure, kPa = 100
Property: Viscosity, Pa*s (Liquid); method: Capillary tube (Ostwald; Ubbelohde) method
Temperature, K	Solvent: Molality, mol/kg of ammonium biphosphate	Molality, mol/kg of D(+)-glucose	Viscosity, Pa*s	uncertainty
288.15	.5	.05458	.001329	
288.15	.5	.07163	.001343	
288.15	.5	.09819	.001359	
288.15	.5	.11092	.00137	
288.15	.5	.14135	.001391	
288.15	.5	.16029	.001403	
298.15	.5	.05458	.001044	
298.15	.5	.07163	.001053	
298.15	.5	.09819	.001068	
298.15	.5	.11092	.001076	
298.15	.5	.14135	.001094	
298.15	.5	.16029	.001103	
308.15	.5	.05458	.000845	
308.15	.5	.07163	.000853	
308.15	.5	.09819	.000865	
308.15	.5	.11092	.000869	
308.15	.5	.14135	.000882	
308.15	.5	.16029	.000891	
318.15	.5	.05458	.000678	
318.15	.5	.07163	.000684	
318.15	.5	.09819	.000693	
318.15	.5	.11092	.000698	
318.15	.5	.14135	.000708	
318.15	.5	.16029	.000713	
288.15	1	.0595	.001524	
288.15	1	.07488	.00154	
288.15	1	.09581	.001558	
288.15	1	.12101	.001581	
288.15	1	.1457	.001601	
288.15	1	.1632	.001617	
298.15	1	.0595	.001214	
298.15	1	.07488	.001225	
298.15	1	.09581	.00124	
298.15	1	.12101	.001257	
298.15	1	.1457	.001272	
298.15	1	.1632	.001283	
308.15	1	.0595	.000974	
308.15	1	.07488	.000983	
308.15	1	.09581	.000995	
308.15	1	.12101	.001009	
308.15	1	.1457	.001022	
308.15	1	.1632	.001031	
318.15	1	.0595	.000767	
318.15	1	.07488	.000773	
318.15	1	.09581	.000783	
318.15	1	.12101	.000795	
318.15	1	.1457	.000805	
318.15	1	.1632	.000813	
288.15	1.5	.05877	.001734	
288.15	1.5	.07245	.001749	
288.15	1.5	.08484	.001761	
288.15	1.5	.0988	.001778	
288.15	1.5	.1305	.00181	
288.15	1.5	.14654	.001828	
298.15	1.5	.05877	.001381	
298.15	1.5	.07245	.001392	
298.15	1.5	.08484	.001402	
298.15	1.5	.0988	.001413	
298.15	1.5	.1305	.001439	
298.15	1.5	.14654	.001451	
308.15	1.5	.05877	.001088	
308.15	1.5	.07245	.001098	
308.15	1.5	.08484	.001105	
308.15	1.5	.0988	.001115	
308.15	1.5	.1305	.001135	
308.15	1.5	.14654	.001146	
318.15	1.5	.05877	.000854	
318.15	1.5	.07245	.000862	
318.15	1.5	.08484	.000869	
318.15	1.5	.0988	.000876	
318.15	1.5	.1305	.000893	
318.15	1.5	.14654	.000901	
288.15	2	.04905	.001894	
288.15	2	.07129	.001923	
288.15	2	.09264	.001947	
288.15	2	.12826	.00199	
288.15	2	.13974	.002005	
288.15	2	.15654	.002028	
298.15	2	.04905	.001513	
298.15	2	.07129	.001536	
298.15	2	.09264	.001558	
298.15	2	.12826	.001593	
298.15	2	.13974	.001605	
298.15	2	.15654	.00162	
308.15	2	.04905	.001204	
308.15	2	.07129	.001221	
308.15	2	.09264	.001241	
308.15	2	.12826	.001271	
308.15	2	.13974	.001278	
308.15	2	.15654	.001292	
318.15	2	.04905	.000941	
318.15	2	.07129	.000957	
318.15	2	.09264	.000973	
318.15	2	.12826	.000998	
318.15	2	.13974	.001005	
318.15	2	.15654	.001015	

System: D-mannose + ammonium biphosphate + water; phases: Liquid
Fixed: Pressure, kPa = 100
Property: Viscosity, Pa*s (Liquid); method: Capillary tube (Ostwald; Ubbelohde) method
Temperature, K	Solvent: Molality, mol/kg of ammonium biphosphate	Molality, mol/kg of D-mannose	Viscosity, Pa*s	uncertainty
288.15	.5	.05322	.00133	
288.15	.5	.07277	.001345	
288.15	.5	.09643	.001362	
288.15	.5	.11562	.001376	
288.15	.5	.13434	.00139	
288.15	.5	.16571	.001413	
298.15	.5	.05322	.001045	
298.15	.5	.07277	.001056	
298.15	.5	.09643	.00107	
298.15	.5	.11562	.001081	
298.15	.5	.13434	.001091	
298.15	.5	.16571	.001109	
308.15	.5	.05322	.000846	
308.15	.5	.07277	.000855	
308.15	.5	.09643	.000866	
308.15	.5	.11562	.000875	
308.15	.5	.13434	.000883	
308.15	.5	.16571	.000897	
318.15	.5	.05322	.000679	
318.15	.5	.07277	.000686	
318.15	.5	.09643	.000695	
318.15	.5	.11562	.000702	
318.15	.5	.13434	.000709	
318.15	.5	.16571	.000721	
288.15	1	.04536	.001516	
288.15	1	.06382	.001533	
288.15	1	.0858	.001554	
288.15	1	.11448	.001581	
288.15	1	.13526	.001601	
288.15	1	.17032	.001633	
298.15	1	.04536	.001206	
298.15	1	.06382	.00122	
298.15	1	.0858	.001236	
298.15	1	.11448	.001257	
298.15	1	.13526	.001272	
298.15	1	.17032	.001298	
308.15	1	.04536	.00097	
308.15	1	.06382	.000981	
308.15	1	.0858	.000994	
308.15	1	.11448	.001011	
308.15	1	.13526	.001023	
308.15	1	.17032	.001044	
318.15	1	.04536	.000763	
318.15	1	.06382	.000772	
318.15	1	.0858	.000783	
318.15	1	.11448	.000797	
318.15	1	.13526	.000806	
318.15	1	.17032	.000823	
288.15	1.5	.04963	.001732	
288.15	1.5	.06766	.001753	
288.15	1.5	.08782	.001777	
288.15	1.5	.10725	.0018	
288.15	1.5	.1334	.00183	
288.15	1.5	.16132	.001863	
298.15	1.5	.04963	.001379	
298.15	1.5	.06766	.001396	
298.15	1.5	.08782	.001415	
298.15	1.5	.10725	.001433	
298.15	1.5	.1334	.001458	
298.15	1.5	.16132	.001483	
308.15	1.5	.04963	.001087	
308.15	1.5	.06766	.0011	
308.15	1.5	.08782	.001115	
308.15	1.5	.10725	.00113	
308.15	1.5	.1334	.001149	
308.15	1.5	.16132	.00117	
318.15	1.5	.04963	.000853	
318.15	1.5	.06766	.000864	
318.15	1.5	.08782	.000876	
318.15	1.5	.10725	.000888	
318.15	1.5	.1334	.000903	
318.15	1.5	.16132	.00092	
288.15	2	.05199	.001908	
288.15	2	.06762	.001931	
288.15	2	.08559	.001958	
288.15	2	.10328	.001983	
288.15	2	.12335	.002013	
288.15	2	.14989	.002051	
298.15	2	.05199	.001526	
298.15	2	.06762	.001545	
298.15	2	.08559	.001566	
298.15	2	.10328	.001587	
298.15	2	.12335	.001611	
298.15	2	.14989	.001642	
308.15	2	.05199	.001211	
308.15	2	.06762	.001226	
308.15	2	.08559	.001243	
308.15	2	.10328	.00126	
308.15	2	.12335	.001279	
308.15	2	.14989	.001304	
318.15	2	.05199	.000949	
318.15	2	.06762	.000961	
318.15	2	.08559	.000975	
318.15	2	.10328	.000988	
318.15	2	.12335	.001004	
318.15	2	.14989	.001024	

System: 2-deoxy-D-glucose + ammonium biphosphate + water; phases: Liquid
Fixed: Pressure, kPa = 100
Property: Viscosity, Pa*s (Liquid); method: Capillary tube (Ostwald; Ubbelohde) method
Temperature, K	Solvent: Molality, mol/kg of ammonium biphosphate	Molality, mol/kg of 2-deoxy-D-glucose	Viscosity, Pa*s	uncertainty
288.15	.5	.0543	.001325	
288.15	.5	.07809	.001341	
288.15	.5	.09959	.001354	
288.15	.5	.11781	.001366	
288.15	.5	.14448	.001383	
298.15	.5	.0543	.001042	
298.15	.5	.07809	.001054	
298.15	.5	.09959	.001065	
298.15	.5	.11781	.001074	
298.15	.5	.14448	.001087	
308.15	.5	.0543	.000844	
308.15	.5	.07809	.000853	
308.15	.5	.09959	.000862	
308.15	.5	.11781	.000869	
308.15	.5	.14448	.00088	
318.15	.5	.0543	.000677	
318.15	.5	.07809	.000684	
318.15	.5	.09959	.000691	
318.15	.5	.11781	.000697	
318.15	.5	.14448	.000705	
288.15	1	.05236	.001515	
288.15	1	.07076	.00153	
288.15	1	.08816	.001544	
288.15	1	.11362	.001564	
288.15	1	.13675	.001582	
288.15	1	.15833	.001599	
298.15	1	.05236	.001206	
298.15	1	.07076	.001218	
298.15	1	.08816	.001229	
298.15	1	.11362	.001245	
298.15	1	.13675	.00126	
298.15	1	.15833	.001274	
308.15	1	.05236	.000969	
308.15	1	.07076	.000979	
308.15	1	.08816	.000988	
308.15	1	.11362	.001001	
308.15	1	.13675	.001013	
308.15	1	.15833	.001024	
318.15	1	.05236	.000762	
318.15	1	.07076	.00077	
318.15	1	.08816	.000777	
318.15	1	.11362	.000787	
318.15	1	.13675	.000796	
318.15	1	.15833	.000804	
288.15	1.5	.043	.001715	
288.15	1.5	.06129	.001733	
288.15	1.5	.08895	.001759	
288.15	1.5	.11957	.001789	
288.15	1.5	.13914	.001808	
288.15	1.5	.16373	.001831	
298.15	1.5	.043	.001366	
298.15	1.5	.06129	.00138	
298.15	1.5	.08895	.001402	
298.15	1.5	.11957	.001425	
298.15	1.5	.13914	.00144	
298.15	1.5	.16373	.001459	
308.15	1.5	.043	.001076	
308.15	1.5	.06129	.001087	
308.15	1.5	.08895	.001104	
308.15	1.5	.11957	.001123	
308.15	1.5	.13914	.001135	
308.15	1.5	.16373	.001149	
318.15	1.5	.043	.000843	
318.15	1.5	.06129	.000852	
318.15	1.5	.08895	.000865	
318.15	1.5	.11957	.000879	
318.15	1.5	.13914	.000889	
318.15	1.5	.16373	.0009	
288.15	2	.05396	.001894	
288.15	2	.06605	.001908	
288.15	2	.0748	.001918	
288.15	2	.10127	.001949	
288.15	2	.14337	.001997	
298.15	2	.05396	.001513	
298.15	2	.06605	.001525	
298.15	2	.0748	.001533	
298.15	2	.10127	.001557	
298.15	2	.14337	.001596	
308.15	2	.05396	.001201	
308.15	2	.06605	.00121	
308.15	2	.0748	.001217	
308.15	2	.10127	.001236	
308.15	2	.14337	.001267	
318.15	2	.05396	.00094	
318.15	2	.06605	.000947	
318.15	2	.0748	.000952	
318.15	2	.10127	.000967	
318.15	2	.14337	.000992	

System: methyl .alpha.-D-mannopyranoside + ammonium biphosphate + water; phases: Liquid
Fixed: Pressure, kPa = 100
Property: Viscosity, Pa*s (Liquid); method: Capillary tube (Ostwald; Ubbelohde) method
Temperature, K	Solvent: Molality, mol/kg of ammonium biphosphate	Molality, mol/kg of methyl .alpha.-D-mannopyranoside	Viscosity, Pa*s	uncertainty
288.15	.5	.05066	.001327	
288.15	.5	.06841	.00134	
288.15	.5	.09293	.001357	
288.15	.5	.12419	.001379	
288.15	.5	.15101	.001399	
298.15	.5	.05066	.001043	
298.15	.5	.06841	.001052	
298.15	.5	.09293	.001066	
298.15	.5	.12419	.001083	
298.15	.5	.15101	.001098	
308.15	.5	.05066	.000844	
308.15	.5	.06841	.000852	
308.15	.5	.09293	.000863	
308.15	.5	.12419	.000876	
308.15	.5	.15101	.000888	
318.15	.5	.05066	.000677	
318.15	.5	.06841	.000683	
318.15	.5	.09293	.000691	
318.15	.5	.12419	.000702	
318.15	.5	.15101	.000711	
288.15	1	.04802	.001516	
288.15	1	.0648	.001531	
288.15	1	.08589	.00155	
288.15	1	.115	.001575	
288.15	1	.14006	.001597	
288.15	1	.18104	.001633	
298.15	1	.04802	.001206	
298.15	1	.0648	.001218	
298.15	1	.08589	.001233	
298.15	1	.115	.001253	
298.15	1	.14006	.001271	
298.15	1	.18104	.001299	
308.15	1	.04802	.00097	
308.15	1	.0648	.000979	
308.15	1	.08589	.000991	
308.15	1	.115	.001008	
308.15	1	.14006	.001022	
308.15	1	.18104	.001044	
318.15	1	.04802	.000763	
318.15	1	.0648	.000771	
318.15	1	.08589	.00078	
318.15	1	.115	.000793	
318.15	1	.14006	.000804	
318.15	1	.18104	.000822	
288.15	1.5	.04487	.001725	
288.15	1.5	.06295	.001747	
288.15	1.5	.08936	.001777	
288.15	1.5	.10257	.001792	
288.15	1.5	.12707	.001821	
288.15	1.5	.14426	.00184	
298.15	1.5	.04487	.001376	
298.15	1.5	.06295	.001393	
298.15	1.5	.08936	.001419	
298.15	1.5	.10257	.001431	
298.15	1.5	.12707	.001455	
298.15	1.5	.14426	.001471	
308.15	1.5	.04487	.001085	
308.15	1.5	.06295	.001099	
308.15	1.5	.08936	.00112	
308.15	1.5	.10257	.001131	
308.15	1.5	.12707	.00115	
308.15	1.5	.14426	.001163	
318.15	1.5	.04487	.000851	
318.15	1.5	.06295	.000862	
318.15	1.5	.08936	.000879	
318.15	1.5	.10257	.000887	
318.15	1.5	.12707	.000902	
318.15	1.5	.14426	.000913	
288.15	2	.04696	.001906	
288.15	2	.06073	.001928	
288.15	2	.08543	.001966	
288.15	2	.10448	.001996	
288.15	2	.13384	.002041	
288.15	2	.15479	.002073	
298.15	2	.04696	.001523	
298.15	2	.06073	.001541	
298.15	2	.08543	.001572	
298.15	2	.10448	.001596	
298.15	2	.13384	.001633	
298.15	2	.15479	.001659	
308.15	2	.04696	.001211	
308.15	2	.06073	.001225	
308.15	2	.08543	.001252	
308.15	2	.10448	.001271	
308.15	2	.13384	.001302	
308.15	2	.15479	.001324	
318.15	2	.04696	.000948	
318.15	2	.06073	.00096	
318.15	2	.08543	.00098	
318.15	2	.10448	.000996	
318.15	2	.13384	.00102	
318.15	2	.15479	.001038	

System: D-(+)-Saccharose + ammonium biphosphate + water; phases: Liquid
Fixed: Pressure, kPa = 100
Property: Viscosity, Pa*s (Liquid); method: Capillary tube (Ostwald; Ubbelohde) method
Temperature, K	Solvent: Molality, mol/kg of ammonium biphosphate	Molality, mol/kg of D-(+)-Saccharose	Viscosity, Pa*s	uncertainty
288.15	.5	.05506	.001372	
288.15	.5	.06691	.00139	
288.15	.5	.08381	.001415	
288.15	.5	.09741	.001435	
288.15	.5	.11194	.001456	
288.15	.5	.13974	.001496	
298.15	.5	.05506	.00108	
298.15	.5	.06691	.001095	
298.15	.5	.08381	.001114	
298.15	.5	.09741	.00113	
298.15	.5	.11194	.001147	
298.15	.5	.13974	.001179	
308.15	.5	.05506	.000876	
308.15	.5	.06691	.000888	
308.15	.5	.08381	.000904	
308.15	.5	.09741	.000917	
308.15	.5	.11194	.000931	
308.15	.5	.13974	.000957	
318.15	.5	.05506	.000703	
318.15	.5	.06691	.000713	
318.15	.5	.08381	.000726	
318.15	.5	.09741	.000737	
318.15	.5	.11194	.000748	
318.15	.5	.13974	.000769	
288.15	1	.05265	.001573	
288.15	1	.06747	.0016	
288.15	1	.08141	.001626	
288.15	1	.09597	.001653	
288.15	1	.11963	.001697	
288.15	1	.14875	.001749	
298.15	1	.05265	.001253	
298.15	1	.06747	.001275	
298.15	1	.08141	.001296	
298.15	1	.09597	.001318	
298.15	1	.11963	.001353	
298.15	1	.14875	.001396	
308.15	1	.05265	.001008	
308.15	1	.06747	.001027	
308.15	1	.08141	.001044	
308.15	1	.09597	.001062	
308.15	1	.11963	.00109	
308.15	1	.14875	.001125	
318.15	1	.05265	.000795	
318.15	1	.06747	.00081	
318.15	1	.08141	.000823	
318.15	1	.09597	.000838	
318.15	1	.11963	.000861	
318.15	1	.14875	.000889	
288.15	1.5	.05296	.001799	
288.15	1.5	.07033	.001839	
288.15	1.5	.08501	.001874	
288.15	1.5	.10031	.001909	
288.15	1.5	.12267	.00196	
288.15	1.5	.14042	.002	
298.15	1.5	.05296	.001434	
298.15	1.5	.07033	.001467	
298.15	1.5	.08501	.001495	
298.15	1.5	.10031	.001524	
298.15	1.5	.12267	.001565	
298.15	1.5	.14042	.001598	
308.15	1.5	.05296	.001131	
308.15	1.5	.07033	.001158	
308.15	1.5	.08501	.00118	
308.15	1.5	.10031	.001203	
308.15	1.5	.12267	.001237	
308.15	1.5	.14042	.001263	
318.15	1.5	.05296	.000888	
318.15	1.5	.07033	.000909	
318.15	1.5	.08501	.000927	
318.15	1.5	.10031	.000946	
318.15	1.5	.12267	.000972	
318.15	1.5	.14042	.000993	
288.15	2	.05364	.001987	
288.15	2	.07058	.002035	
288.15	2	.08835	.002086	
288.15	2	.09971	.002118	
288.15	2	.11434	.002159	
288.15	2	.13277	.00221	
298.15	2	.05364	.00159	
298.15	2	.07058	.00163	
298.15	2	.08835	.001671	
298.15	2	.09971	.001697	
298.15	2	.11434	.001731	
298.15	2	.13277	.001772	
308.15	2	.05364	.001264	
308.15	2	.07058	.001297	
308.15	2	.08835	.00133	
308.15	2	.09971	.001352	
308.15	2	.11434	.001379	
308.15	2	.13277	.001413	
318.15	2	.05364	.00099	
318.15	2	.07058	.001016	
318.15	2	.08835	.001042	
318.15	2	.09971	.001059	
318.15	2	.11434	.001081	
318.15	2	.13277	.001108	

System: D-(+)-cellobiose + ammonium biphosphate + water; phases: Liquid
Fixed: Pressure, kPa = 100
Property: Viscosity, Pa*s (Liquid); method: Capillary tube (Ostwald; Ubbelohde) method
Temperature, K	Solvent: Molality, mol/kg of ammonium biphosphate	Molality, mol/kg of D-(+)-cellobiose	Viscosity, Pa*s	uncertainty
288.15	.5	.05349	.001362	
288.15	.5	.07208	.001387	
288.15	.5	.08862	.001409	
288.15	.5	.11249	.001441	
288.15	.5	.13742	.001473	
288.15	.5	.14703	.001486	
298.15	.5	.05349	.001071	
298.15	.5	.07208	.001091	
298.15	.5	.08862	.001108	
298.15	.5	.11249	.001133	
298.15	.5	.13742	.001159	
298.15	.5	.14703	.001168	
308.15	.5	.05349	.000868	
308.15	.5	.07208	.000884	
308.15	.5	.08862	.000899	
308.15	.5	.11249	.000919	
308.15	.5	.13742	.00094	
308.15	.5	.14703	.000948	
318.15	.5	.05349	.000697	
318.15	.5	.07208	.00071	
318.15	.5	.08862	.000721	
318.15	.5	.11249	.000738	
318.15	.5	.13742	.000755	
318.15	.5	.14703	.000761	
288.15	1	.05876	.001571	
288.15	1	.07082	.001591	
288.15	1	.09317	.001628	
288.15	1	.11326	.00166	
288.15	1	.12601	.001681	
288.15	1	.15279	.001724	
298.15	1	.05876	.001252	
298.15	1	.07082	.001268	
298.15	1	.09317	.001298	
298.15	1	.11326	.001324	
298.15	1	.12601	.001341	
298.15	1	.15279	.001375	
308.15	1	.05876	.001007	
308.15	1	.07082	.00102	
308.15	1	.09317	.001045	
308.15	1	.11326	.001066	
308.15	1	.12601	.00108	
308.15	1	.15279	.001108	
318.15	1	.05876	.000793	
318.15	1	.07082	.000804	
318.15	1	.09317	.000823	
318.15	1	.11326	.00084	
318.15	1	.12601	.000851	
318.15	1	.15279	.000874	
288.15	1.5	.05342	.001791	
288.15	1.5	.06951	.001826	
288.15	1.5	.10041	.001893	
288.15	1.5	.12078	.001937	
288.15	1.5	.13714	.001971	
288.15	1.5	.16253	.002024	
298.15	1.5	.05342	.001428	
298.15	1.5	.06951	.001456	
298.15	1.5	.10041	.00151	
298.15	1.5	.12078	.001546	
298.15	1.5	.13714	.001574	
298.15	1.5	.16253	.001617	
308.15	1.5	.05342	.001125	
308.15	1.5	.06951	.001148	
308.15	1.5	.10041	.001191	
308.15	1.5	.12078	.001219	
308.15	1.5	.13714	.001241	
308.15	1.5	.16253	.001275	
318.15	1.5	.05342	.000883	
318.15	1.5	.06951	.000901	
318.15	1.5	.10041	.000935	
318.15	1.5	.12078	.000958	
318.15	1.5	.13714	.000975	
318.15	1.5	.16253	.001003	
288.15	2	.05846	.001999	
288.15	2	.08384	.00207	
288.15	2	.0963	.002105	
288.15	2	.11954	.002169	
288.15	2	.14386	.002235	
288.15	2	.15662	.00227	
298.15	2	.05846	.0016	
298.15	2	.08384	.001658	
298.15	2	.0963	.001686	
298.15	2	.11954	.001739	
298.15	2	.14386	.001793	
298.15	2	.15662	.001821	
308.15	2	.05846	.001273	
308.15	2	.08384	.001321	
308.15	2	.0963	.001344	
308.15	2	.11954	.001387	
308.15	2	.14386	.001431	
308.15	2	.15662	.001454	
318.15	2	.05846	.000997	
318.15	2	.08384	.001035	
318.15	2	.0963	.001053	
318.15	2	.11954	.001088	
318.15	2	.14386	.001123	
318.15	2	.15662	.001141	

System: D-(+)-maltose + ammonium biphosphate + water; phases: Liquid
Fixed: Pressure, kPa = 100
Property: Viscosity, Pa*s (Liquid); method: Capillary tube (Ostwald; Ubbelohde) method
Temperature, K	Solvent: Molality, mol/kg of ammonium biphosphate	Molality, mol/kg of D-(+)-maltose	Viscosity, Pa*s	uncertainty
288.15	.5	.06442	.001385	
288.15	.5	.07016	.001394	
288.15	.5	.07539	.001402	
288.15	.5	.09149	.001426	
288.15	.5	.12365	.00147	
288.15	.5	.14234	.001496	
298.15	.5	.06442	.001088	
298.15	.5	.07016	.001094	
298.15	.5	.07539	.0011	
298.15	.5	.09149	.001116	
298.15	.5	.12365	.001152	
298.15	.5	.14234	.001173	
308.15	.5	.06442	.00088	
308.15	.5	.07016	.000886	
308.15	.5	.07539	.00089	
308.15	.5	.09149	.000905	
308.15	.5	.12365	.000933	
308.15	.5	.14234	.000948	
318.15	.5	.06442	.000705	
318.15	.5	.07016	.00071	
318.15	.5	.07539	.000712	
318.15	.5	.09149	.000724	
318.15	.5	.12365	.000745	
318.15	.5	.14234	.000758	
288.15	1	.05411	.001569	
288.15	1	.0696	.001599	
288.15	1	.08551	.001628	
288.15	1	.10394	.00166	
288.15	1	.12311	.001691	
288.15	1	.14063	.001721	
298.15	1	.05411	.001247	
298.15	1	.0696	.001271	
298.15	1	.08551	.001293	
298.15	1	.10394	.001319	
298.15	1	.12311	.001343	
298.15	1	.14063	.001368	
308.15	1	.05411	.001006	
308.15	1	.0696	.001024	
308.15	1	.08551	.001039	
308.15	1	.10394	.00106	
308.15	1	.12311	.00108	
308.15	1	.14063	.0011	
318.15	1	.05411	.000789	
318.15	1	.0696	.000804	
318.15	1	.08551	.000818	
318.15	1	.10394	.000835	
318.15	1	.12311	.000851	
318.15	1	.14063	.000865	
288.15	1.5	.05708	.001815	
288.15	1.5	.07288	.001853	
288.15	1.5	.08441	.001882	
288.15	1.5	.11375	.001952	
288.15	1.5	.12273	.001974	
288.15	1.5	.14887	.002036	
298.15	1.5	.05708	.001447	
298.15	1.5	.07288	.001478	
298.15	1.5	.08441	.0015	
298.15	1.5	.11375	.001557	
298.15	1.5	.12273	.001575	
298.15	1.5	.14887	.001625	
308.15	1.5	.05708	.001139	
308.15	1.5	.07288	.001164	
308.15	1.5	.08441	.001182	
308.15	1.5	.11375	.001227	
308.15	1.5	.12273	.00124	
308.15	1.5	.14887	.00128	
318.15	1.5	.05708	.000894	
318.15	1.5	.07288	.000914	
318.15	1.5	.08441	.000928	
318.15	1.5	.11375	.000964	
318.15	1.5	.12273	.000975	
318.15	1.5	.14887	.001006	
288.15	2	.04849	.001987	
288.15	2	.06837	.00205	
288.15	2	.08068	.002089	
288.15	2	.09674	.002139	
288.15	2	.11494	.002195	
288.15	2	.13697	.002263	
298.15	2	.04849	.001591	
298.15	2	.06837	.001643	
298.15	2	.08068	.001675	
298.15	2	.09674	.001716	
298.15	2	.11494	.001762	
298.15	2	.13697	.001818	
308.15	2	.04849	.001263	
308.15	2	.06837	.001304	
308.15	2	.08068	.00133	
308.15	2	.09674	.001363	
308.15	2	.11494	.0014	
308.15	2	.13697	.001444	
318.15	2	.04849	.000991	
318.15	2	.06837	.001025	
318.15	2	.08068	.001045	
318.15	2	.09674	.001072	
318.15	2	.11494	.001102	
318.15	2	.13697	.001138	

System: raffinose + ammonium biphosphate + water; phases: Liquid
Fixed: Pressure, kPa = 100
Property: Viscosity, Pa*s (Liquid); method: Capillary tube (Ostwald; Ubbelohde) method
Temperature, K	Solvent: Molality, mol/kg of ammonium biphosphate	Molality, mol/kg of raffinose	Viscosity, Pa*s	uncertainty
288.15	.5	.04594	.001392	
288.15	.5	.05394	.001409	
288.15	.5	.06683	.001437	
288.15	.5	.0762	.001457	
288.15	.5	.09274	.001492	
288.15	.5	.11458	.001539	
298.15	.5	.04594	.001095	
298.15	.5	.05394	.001109	
298.15	.5	.06683	.001131	
298.15	.5	.0762	.001147	
298.15	.5	.09274	.001175	
298.15	.5	.11458	.001211	
308.15	.5	.04594	.000888	
308.15	.5	.05394	.000899	
308.15	.5	.06683	.000918	
308.15	.5	.0762	.000931	
308.15	.5	.09274	.000954	
308.15	.5	.11458	.000984	
318.15	.5	.04594	.000713	
318.15	.5	.05394	.000722	
318.15	.5	.06683	.000736	
318.15	.5	.0762	.000747	
318.15	.5	.09274	.000765	
318.15	.5	.11458	.00079	
288.15	1	.04961	.001614	
288.15	1	.0659	.001659	
288.15	1	.07649	.001688	
288.15	1	.09122	.001729	
288.15	1	.11246	.001786	
288.15	1	.13251	.00184	
298.15	1	.04961	.001284	
298.15	1	.0659	.00132	
298.15	1	.07649	.001344	
298.15	1	.09122	.001376	
298.15	1	.11246	.001422	
298.15	1	.13251	.001464	
308.15	1	.04961	.001035	
308.15	1	.0659	.001064	
308.15	1	.07649	.001084	
308.15	1	.09122	.00111	
308.15	1	.11246	.001148	
308.15	1	.13251	.001183	
318.15	1	.04961	.000815	
318.15	1	.0659	.000839	
318.15	1	.07649	.000854	
318.15	1	.09122	.000875	
318.15	1	.11246	.000905	
318.15	1	.13251	.000933	
288.15	1.5	.05607	.001872	
288.15	1.5	.07391	.001935	
288.15	1.5	.09112	.001994	
288.15	1.5	.11458	.002073	
288.15	1.5	.1288	.002121	
288.15	1.5	.14302	.002168	
298.15	1.5	.05607	.001492	
298.15	1.5	.07391	.001542	
298.15	1.5	.09112	.001589	
298.15	1.5	.11458	.001652	
298.15	1.5	.1288	.00169	
298.15	1.5	.14302	.001728	
308.15	1.5	.05607	.001177	
308.15	1.5	.07391	.001217	
308.15	1.5	.09112	.001255	
308.15	1.5	.11458	.001306	
308.15	1.5	.1288	.001337	
308.15	1.5	.14302	.001367	
318.15	1.5	.05607	.000925	
318.15	1.5	.07391	.000957	
318.15	1.5	.09112	.000987	
318.15	1.5	.11458	.001028	
318.15	1.5	.1288	.001053	
318.15	1.5	.14302	.001077	
288.15	2	.0561	.002072	
288.15	2	.06813	.002122	
288.15	2	.07707	.00216	
288.15	2	.09213	.002222	
288.15	2	.11373	.00231	
288.15	2	.13557	.002397	
298.15	2	.0561	.00166	
298.15	2	.06813	.001701	
298.15	2	.07707	.001732	
298.15	2	.09213	.001783	
298.15	2	.11373	.001855	
298.15	2	.13557	.001926	
308.15	2	.0561	.001319	
308.15	2	.06813	.001352	
308.15	2	.07707	.001376	
308.15	2	.09213	.001417	
308.15	2	.11373	.001474	
308.15	2	.13557	.001532	
318.15	2	.0561	.001033	
318.15	2	.06813	.001059	
318.15	2	.07707	.001078	
318.15	2	.09213	.00111	
318.15	2	.11373	.001156	
318.15	2	.13557	.001201	

System: D-(-)-ribose + water + potassium phosphate; phases: Liquid
Fixed: Pressure, kPa = 100
Property: Viscosity, Pa*s (Liquid); method: Capillary tube (Ostwald; Ubbelohde) method
Temperature, K	Solvent: Molality, mol/kg of potassium phosphate	Molality, mol/kg of D-(-)-ribose	Viscosity, Pa*s	uncertainty
288.15	.5	0	.001414	
288.15	.5	.04923	.001447	
288.15	.5	.06019	.001454	
288.15	.5	.0803	.001467	
288.15	.5	.10336	.001482	
288.15	.5	.13304	.001501	
288.15	.5	.14807	.00151	
288.15	.5	.16915	.001524	
298.15	.5	0	.001133	
298.15	.5	.04923	.001156	
298.15	.5	.06019	.001161	
298.15	.5	.0803	.001171	
298.15	.5	.10336	.001181	
298.15	.5	.13304	.001195	
298.15	.5	.14807	.001202	
298.15	.5	.16915	.001211	
308.15	.5	0	.000915	
308.15	.5	.04923	.000932	
308.15	.5	.06019	.000936	
308.15	.5	.0803	.000943	
308.15	.5	.10336	.000951	
308.15	.5	.13304	.000961	
308.15	.5	.14807	.000966	
308.15	.5	.16915	.000973	
318.15	.5	0	.000708	
318.15	.5	.04923	.000721	
318.15	.5	.06019	.000723	
318.15	.5	.0803	.000728	
318.15	.5	.10336	.000734	
318.15	.5	.13304	.000741	
318.15	.5	.14807	.000745	
318.15	.5	.16915	.00075	
288.15	1	0	.0017	
288.15	1	.05038	.001744	
288.15	1	.0626	.001755	
288.15	1	.07663	.001767	
288.15	1	.09282	.001781	
288.15	1	.11504	.0018	
288.15	1	.13372	.001816	
288.15	1	.15645	.001835	
298.15	1	0	.001349	
298.15	1	.05038	.001381	
298.15	1	.0626	.001388	
298.15	1	.07663	.001397	
298.15	1	.09282	.001407	
298.15	1	.11504	.001421	
298.15	1	.13372	.001432	
298.15	1	.15645	.001446	
308.15	1	0	.00109	
308.15	1	.05038	.001113	
308.15	1	.0626	.001119	
308.15	1	.07663	.001125	
308.15	1	.09282	.001133	
308.15	1	.11504	.001143	
308.15	1	.13372	.001151	
308.15	1	.15645	.001161	
318.15	1	0	.000838	
318.15	1	.05038	.000854	
318.15	1	.0626	.000858	
318.15	1	.07663	.000863	
318.15	1	.09282	.000868	
318.15	1	.11504	.000875	
318.15	1	.13372	.000881	
318.15	1	.15645	.000888	
288.15	1.5	0	.002004	
288.15	1.5	.05148	.002064	
288.15	1.5	.06638	.002081	
288.15	1.5	.08322	.0021	
288.15	1.5	.10671	.002127	
288.15	1.5	.13459	.002158	
288.15	1.5	.16413	.002191	
298.15	1.5	0	.001598	
298.15	1.5	.05148	.00164	
298.15	1.5	.06638	.001652	
298.15	1.5	.08322	.001665	
298.15	1.5	.10671	.001684	
298.15	1.5	.13459	.001707	
298.15	1.5	.16413	.00173	
308.15	1.5	0	.001281	
308.15	1.5	.05148	.001312	
308.15	1.5	.06638	.001321	
308.15	1.5	.08322	.001331	
308.15	1.5	.10671	.001344	
308.15	1.5	.13459	.001361	
308.15	1.5	.16413	.001378	
318.15	1.5	0	.001003	
318.15	1.5	.05148	.001026	
318.15	1.5	.06638	.001032	
318.15	1.5	.08322	.001039	
318.15	1.5	.10671	.001049	
318.15	1.5	.13459	.001061	
318.15	1.5	.16413	.001074	
288.15	2	0	.002299	
288.15	2	.06266	.002388	
288.15	2	.07927	.002411	
288.15	2	.09869	.002438	
288.15	2	.11822	.002465	
288.15	2	.14697	.002504	
288.15	2	.16779	.002533	
298.15	2	0	.001806	
298.15	2	.06266	.001869	
298.15	2	.07927	.001886	
298.15	2	.09869	.001905	
298.15	2	.11822	.001924	
298.15	2	.14697	.001952	
298.15	2	.16779	.001972	
308.15	2	0	.001441	
308.15	2	.06266	.001488	
308.15	2	.07927	.0015	
308.15	2	.09869	.001514	
308.15	2	.11822	.001528	
308.15	2	.14697	.001549	
308.15	2	.16779	.001563	
318.15	2	0	.001116	
318.15	2	.06266	.001149	
318.15	2	.07927	.001158	
318.15	2	.09869	.001168	
318.15	2	.11822	.001178	
318.15	2	.14697	.001193	
318.15	2	.16779	.001204	

System: D(+)-glucose + water + potassium phosphate; phases: Liquid
Fixed: Pressure, kPa = 100
Property: Viscosity, Pa*s (Liquid); method: Capillary tube (Ostwald; Ubbelohde) method
Temperature, K	Solvent: Molality, mol/kg of potassium phosphate	Molality, mol/kg of D(+)-glucose	Viscosity, Pa*s	uncertainty
288.15	.5	.04832	.001462	
288.15	.5	.06371	.001477	
288.15	.5	.09208	.001505	
288.15	.5	.11631	.001528	
288.15	.5	.12822	.001539	
288.15	.5	.15328	.001563	
298.15	.5	.04832	.001168	
298.15	.5	.06371	.001179	
298.15	.5	.09208	.001199	
298.15	.5	.11631	.001216	
298.15	.5	.12822	.001225	
298.15	.5	.15328	.001242	
308.15	.5	.04832	.000941	
308.15	.5	.06371	.000949	
308.15	.5	.09208	.000964	
308.15	.5	.11631	.000977	
308.15	.5	.12822	.000983	
308.15	.5	.15328	.000996	
318.15	.5	.04832	.000727	
318.15	.5	.06371	.000732	
318.15	.5	.09208	.000743	
318.15	.5	.11631	.000752	
318.15	.5	.12822	.000756	
318.15	.5	.15328	.000765	
288.15	1	.05045	.00177	
288.15	1	.06539	.00179	
288.15	1	.09352	.001829	
288.15	1	.09856	.001836	
288.15	1	.1195	.001864	
288.15	1	.1328	.001882	
288.15	1	.15017	.0019054	
298.15	1	.05045	.0014	
298.15	1	.06539	.001415	
298.15	1	.09352	.001442	
298.15	1	.09856	.001447	
298.15	1	.1195	.001467	
298.15	1	.1328	.00148	
298.15	1	.15017	.001497	
308.15	1	.05045	.001128	
308.15	1	.06539	.001138	
308.15	1	.09352	.001159	
308.15	1	.09856	.001162	
308.15	1	.1195	.001178	
308.15	1	.1328	.001187	
308.15	1	.15017	.001199	
318.15	1	.05045	.000864	
318.15	1	.06539	.000871	
318.15	1	.09352	.000886	
318.15	1	.09856	.000888	
318.15	1	.1195	.000899	
318.15	1	.1328	.000905	
318.15	1	.15017	.000914	
288.15	1.5	.05431	.002102	
288.15	1.5	.06953	.002129	
288.15	1.5	.08336	.002154	
288.15	1.5	.10866	.002198	
288.15	1.5	.11992	.002218	
288.15	1.5	.13555	.002246	
288.15	1.5	.14403	.00226	
298.15	1.5	.05431	.001668	
298.15	1.5	.06953	.001687	
298.15	1.5	.08336	.001705	
298.15	1.5	.10866	.001737	
298.15	1.5	.11992	.001751	
298.15	1.5	.13555	.00177	
298.15	1.5	.14403	.001781	
308.15	1.5	.05431	.001333	
308.15	1.5	.06953	.001347	
308.15	1.5	.08336	.00136	
308.15	1.5	.10866	.001383	
308.15	1.5	.11992	.001394	
308.15	1.5	.13555	.001408	
308.15	1.5	.14403	.001416	
318.15	1.5	.05431	.00104	
318.15	1.5	.06953	.00105	
318.15	1.5	.08336	.001059	
318.15	1.5	.10866	.001076	
318.15	1.5	.11992	.001083	
318.15	1.5	.13555	.001093	
318.15	1.5	.14403	.001099	
288.15	2	.05357	.002422	
288.15	2	.06461	.002447	
288.15	2	.083	.002489	
288.15	2	.09471	.002515	
288.15	2	.12884	.002591	
288.15	2	.15332	.002645	
298.15	2	.05357	.001893	
298.15	2	.06461	.00191	
298.15	2	.083	.001939	
298.15	2	.09471	.001958	
298.15	2	.12884	.002011	
298.15	2	.15332	.002049	
308.15	2	.05357	.001504	
308.15	2	.06461	.001516	
308.15	2	.083	.001538	
308.15	2	.09471	.001551	
308.15	2	.12884	.00159	
308.15	2	.15332	.001617	
318.15	2	.05357	.00116	
318.15	2	.06461	.00117	
318.15	2	.083	.001185	
318.15	2	.09471	.001194	
318.15	2	.12884	.001222	
318.15	2	.15332	.001242	

System: methyl .alpha.-D-glucoside + water + potassium phosphate; phases: Liquid
Fixed: Pressure, kPa = 100
Property: Viscosity, Pa*s (Liquid); method: Capillary tube (Ostwald; Ubbelohde) method
Temperature, K	Solvent: Molality, mol/kg of potassium phosphate	Molality, mol/kg of methyl .alpha.-D-glucoside	Viscosity, Pa*s	uncertainty
288.15	.5	.04368	.001455	
288.15	.5	.06122	.001471	
288.15	.5	.0816	.00149	
288.15	.5	.10407	.00151	
288.15	.5	.13131	.001535	
288.15	.5	.14952	.001551	
298.15	.5	.04368	.001163	
298.15	.5	.06122	.001175	
298.15	.5	.0816	.001188	
298.15	.5	.10407	.001203	
298.15	.5	.13131	.001221	
298.15	.5	.14952	.001233	
308.15	.5	.04368	.000938	
308.15	.5	.06122	.000947	
308.15	.5	.0816	.000957	
308.15	.5	.10407	.000968	
308.15	.5	.13131	.000981	
308.15	.5	.14952	.00099	
318.15	.5	.04368	.000724	
318.15	.5	.06122	.00073	
318.15	.5	.0816	.000737	
318.15	.5	.10407	.000745	
318.15	.5	.13131	.000755	
318.15	.5	.14952	.000761	
288.15	1	.05238	.001766	
288.15	1	.06661	.001784	
288.15	1	.08409	.001805	
288.15	1	.09977	.001824	
288.15	1	.11767	.001846	
288.15	1	.14161	.001875	
298.15	1	.05238	.001397	
298.15	1	.06661	.00141	
298.15	1	.08409	.001426	
298.15	1	.09977	.001439	
298.15	1	.11767	.001455	
298.15	1	.14161	.001476	
308.15	1	.05238	.001126	
308.15	1	.06661	.001135	
308.15	1	.08409	.001147	
308.15	1	.09977	.001157	
308.15	1	.11767	.001169	
308.15	1	.14161	.001185	
318.15	1	.05238	.000863	
318.15	1	.06661	.000869	
318.15	1	.08409	.000877	
318.15	1	.09977	.000885	
318.15	1	.11767	.000893	
318.15	1	.14161	.000904	
288.15	1.5	.0519	.00209	
288.15	1.5	.06499	.002111	
288.15	1.5	.08038	.002136	
288.15	1.5	.09956	.002166	
288.15	1.5	.12127	.002201	
288.15	1.5	.13998	.00223	
288.15	1.5	.15915	.00226	
298.15	1.5	.0519	.001659	
298.15	1.5	.06499	.001675	
298.15	1.5	.08038	.001693	
298.15	1.5	.09956	.001715	
298.15	1.5	.12127	.00174	
298.15	1.5	.13998	.001761	
298.15	1.5	.15915	.001783	
308.15	1.5	.0519	.001327	
308.15	1.5	.06499	.001338	
308.15	1.5	.08038	.001352	
308.15	1.5	.09956	.001369	
308.15	1.5	.12127	.001387	
308.15	1.5	.13998	.001403	
308.15	1.5	.15915	.00142	
318.15	1.5	.0519	.001036	
318.15	1.5	.06499	.001044	
318.15	1.5	.08038	.001053	
318.15	1.5	.09956	.001065	
318.15	1.5	.12127	.001078	
318.15	1.5	.13998	.001089	
318.15	1.5	.15915	.001101	
288.15	2	.05636	.002415	
288.15	2	.0757	.002454	
288.15	2	.08603	.002475	
288.15	2	.10506	.002513	
288.15	2	.12386	.00255	
288.15	2	.14039	.002583	
288.15	2	.14873	.002599	
298.15	2	.05636	.001889	
298.15	2	.0757	.001917	
298.15	2	.08603	.001932	
298.15	2	.10506	.00196	
298.15	2	.12386	.001986	
298.15	2	.14039	.00201	
298.15	2	.14873	.002022	
308.15	2	.05636	.001503	
308.15	2	.0757	.001524	
308.15	2	.08603	.001535	
308.15	2	.10506	.001555	
308.15	2	.12386	.001575	
308.15	2	.14039	.001592	
308.15	2	.14873	.001601	
318.15	2	.05636	.001159	
318.15	2	.0757	.001174	
318.15	2	.08603	.001181	
318.15	2	.10506	.001196	
318.15	2	.12386	.00121	
318.15	2	.14039	.001222	
318.15	2	.14873	.001228	

System: D-(+)-maltose + water + potassium phosphate; phases: Liquid
Fixed: Pressure, kPa = 100
Property: Viscosity, Pa*s (Liquid); method: Capillary tube (Ostwald; Ubbelohde) method
Temperature, K	Solvent: Molality, mol/kg of potassium phosphate	Molality, mol/kg of D-(+)-maltose	Viscosity, Pa*s	uncertainty
288.15	.5	.05094	.001521	
288.15	.5	.06037	.00154	
288.15	.5	.07422	.001568	
288.15	.5	.08932	.001599	
288.15	.5	.10566	.001632	
288.15	.5	.12532	.001671	
288.15	.5	.13916	.001699	
298.15	.5	.05094	.001214	
298.15	.5	.06037	.001229	
298.15	.5	.07422	.001251	
298.15	.5	.08932	.001274	
298.15	.5	.10566	.001299	
298.15	.5	.12532	.001329	
298.15	.5	.13916	.00135	
308.15	.5	.05094	.000978	
308.15	.5	.06037	.00099	
308.15	.5	.07422	.001006	
308.15	.5	.08932	.001024	
308.15	.5	.10566	.001044	
308.15	.5	.12532	.001067	
308.15	.5	.13916	.001083	
318.15	.5	.05094	.000754	
318.15	.5	.06037	.000763	
318.15	.5	.07422	.000775	
318.15	.5	.08932	.000788	
318.15	.5	.10566	.000803	
318.15	.5	.12532	.000819	
318.15	.5	.13916	.000831	
288.15	1	.04915	.001843	
288.15	1	.06096	.001877	
288.15	1	.0768	.001922	
288.15	1	.08465	.001944	
288.15	1	.10751	.002008	
288.15	1	.12224	.002049	
288.15	1	.14374	.002108	
298.15	1	.04915	.001457	
298.15	1	.06096	.001482	
298.15	1	.0768	.001516	
298.15	1	.08465	.001532	
298.15	1	.10751	.00158	
298.15	1	.12224	.001611	
298.15	1	.14374	.001655	
308.15	1	.04915	.001172	
308.15	1	.06096	.001192	
308.15	1	.0768	.001218	
308.15	1	.08465	.00123	
308.15	1	.10751	.001267	
308.15	1	.12224	.001291	
308.15	1	.14374	.001325	
318.15	1	.04915	.000898	
318.15	1	.06096	.000912	
318.15	1	.0768	.00093	
318.15	1	.08465	.00094	
318.15	1	.10751	.000966	
318.15	1	.12224	.000983	
318.15	1	.14374	.001008	
288.15	1.5	.04392	.002173	
288.15	1.5	.06217	.002242	
288.15	1.5	.08111	.002313	
288.15	1.5	.09368	.00236	
288.15	1.5	.11493	.002438	
288.15	1.5	.1249	.002474	
288.15	1.5	.14083	.002531	
298.15	1.5	.04392	.001724	
298.15	1.5	.06217	.001776	
298.15	1.5	.08111	.001829	
298.15	1.5	.09368	.001864	
298.15	1.5	.11493	.001922	
298.15	1.5	.1249	.00195	
298.15	1.5	.14083	.001993	
308.15	1.5	.04392	.001377	
308.15	1.5	.06217	.001416	
308.15	1.5	.08111	.001456	
308.15	1.5	.09368	.001482	
308.15	1.5	.11493	.001526	
308.15	1.5	.1249	.001547	
308.15	1.5	.14083	.001579	
318.15	1.5	.04392	.001074	
318.15	1.5	.06217	.001102	
318.15	1.5	.08111	.001132	
318.15	1.5	.09368	.001151	
318.15	1.5	.11493	.001184	
318.15	1.5	.1249	.001199	
318.15	1.5	.14083	.001223	
288.15	2	.04647	.002521	
288.15	2	.06053	.002587	
288.15	2	.07908	.002673	
288.15	2	.09108	.002728	
288.15	2	.11102	.002819	
288.15	2	.12825	.002897	
288.15	2	.14533	.002973	
298.15	2	.04647	.001972	
298.15	2	.06053	.002021	
298.15	2	.07908	.002086	
298.15	2	.09108	.002127	
298.15	2	.11102	.002195	
298.15	2	.12825	.002253	
298.15	2	.14533	.00231	
308.15	2	.04647	.001567	
308.15	2	.06053	.001605	
308.15	2	.07908	.001654	
308.15	2	.09108	.001685	
308.15	2	.11102	.001737	
308.15	2	.12825	.001781	
308.15	2	.14533	.001824	
318.15	2	.04647	.001207	
318.15	2	.06053	.001234	
318.15	2	.07908	.00127	
318.15	2	.09108	.001293	
318.15	2	.11102	.00133	
318.15	2	.12825	.001362	
318.15	2	.14533	.001394	

System: raffinose + water + potassium phosphate; phases: Liquid
Fixed: Pressure, kPa = 100
Property: Viscosity, Pa*s (Liquid); method: Capillary tube (Ostwald; Ubbelohde) method
Temperature, K	Solvent: Molality, mol/kg of potassium phosphate	Molality, mol/kg of raffinose	Viscosity, Pa*s	uncertainty
288.15	.5	.05138	.00156	
288.15	.5	.06177	.001589	
288.15	.5	.08014	.001639	
288.15	.5	.09201	.001672	
288.15	.5	.11411	.001731	
288.15	.5	.13822	.001795	
298.15	.5	.05138	.001243	
298.15	.5	.06177	.001265	
298.15	.5	.08014	.001303	
298.15	.5	.09201	.001327	
298.15	.5	.11411	.001372	
298.15	.5	.13822	.00142	
308.15	.5	.05138	.000999	
308.15	.5	.06177	.001016	
308.15	.5	.08014	.001045	
308.15	.5	.09201	.001064	
308.15	.5	.11411	.001098	
308.15	.5	.13822	.001135	
318.15	.5	.05138	.000769	
318.15	.5	.06177	.000781	
318.15	.5	.08014	.000803	
318.15	.5	.09201	.000816	
318.15	.5	.11411	.000841	
318.15	.5	.13822	.000868	
288.15	1	.04649	.001878	
288.15	1	.06104	.001933	
288.15	1	.07842	.001997	
288.15	1	.09278	.002049	
288.15	1	.11487	.002129	
288.15	1	.12583	.002168	
298.15	1	.04649	.001482	
298.15	1	.06104	.001523	
298.15	1	.07842	.001571	
298.15	1	.09278	.00161	
298.15	1	.11487	.001669	
298.15	1	.12583	.001698	
308.15	1	.04649	.001192	
308.15	1	.06104	.001223	
308.15	1	.07842	.00126	
308.15	1	.09278	.00129	
308.15	1	.11487	.001336	
308.15	1	.12583	.001358	
318.15	1	.04649	.000911	
318.15	1	.06104	.000934	
318.15	1	.07842	.00096	
318.15	1	.09278	.000982	
318.15	1	.11487	.001015	
318.15	1	.12583	.001031	
288.15	1.5	.04487	.002227	
288.15	1.5	.05779	.00229	
288.15	1.5	.07137	.002355	
288.15	1.5	.08311	.00241	
288.15	1.5	.10194	.002498	
288.15	1.5	.12245	.002593	
298.15	1.5	.04487	.001764	
298.15	1.5	.05779	.001811	
298.15	1.5	.07137	.001859	
298.15	1.5	.08311	.001901	
298.15	1.5	.10194	.001966	
298.15	1.5	.12245	.002037	
308.15	1.5	.04487	.001407	
308.15	1.5	.05779	.001443	
308.15	1.5	.07137	.00148	
308.15	1.5	.08311	.001511	
308.15	1.5	.10194	.001562	
308.15	1.5	.12245	.001615	
318.15	1.5	.04487	.001096	
318.15	1.5	.05779	.001122	
318.15	1.5	.07137	.001149	
318.15	1.5	.08311	.001172	
318.15	1.5	.10194	.001209	
318.15	1.5	.12245	.001248	
288.15	2	.04576	.002583	
288.15	2	.06024	.002671	
288.15	2	.07704	.002771	
288.15	2	.09377	.002869	
288.15	2	.12056	.003023	
288.15	2	.13089	.003082	
298.15	2	.04576	.002016	
298.15	2	.06024	.00208	
298.15	2	.07704	.002154	
298.15	2	.09377	.002226	
298.15	2	.12056	.00234	
298.15	2	.13089	.002383	
308.15	2	.04576	.001599	
308.15	2	.06024	.001648	
308.15	2	.07704	.001704	
308.15	2	.09377	.001758	
308.15	2	.12056	.001844	
308.15	2	.13089	.001876	
318.15	2	.04576	.00123	
318.15	2	.06024	.001265	
318.15	2	.07704	.001305	
318.15	2	.09377	.001345	
318.15	2	.12056	.001407	
318.15	2	.13089	.001431	

System: 2-deoxy-D-glucose + water + potassium phosphate; phases: Liquid
Fixed: Pressure, kPa = 100
Property: Viscosity, Pa*s (Liquid); method: Capillary tube (Ostwald; Ubbelohde) method
Temperature, K	Solvent: Molality, mol/kg of potassium phosphate	Molality, mol/kg of 2-deoxy-D-glucose	Viscosity, Pa*s	uncertainty
288.15	.5	.04782	.001454	
288.15	.5	.06303	.001467	
288.15	.5	.08366	.001484	
288.15	.5	.10384	.0015	
288.15	.5	.12467	.001517	
288.15	.5	.14206	.001532	
298.15	.5	.04782	.001163	
298.15	.5	.06303	.001172	
298.15	.5	.08366	.001185	
298.15	.5	.10384	.001197	
298.15	.5	.12467	.00121	
298.15	.5	.14206	.001221	
308.15	.5	.04782	.000938	
308.15	.5	.06303	.000945	
308.15	.5	.08366	.000954	
308.15	.5	.10384	.000963	
308.15	.5	.12467	.000973	
308.15	.5	.14206	.000981	
318.15	.5	.04782	.000724	
318.15	.5	.06303	.000729	
318.15	.5	.08366	.000736	
318.15	.5	.10384	.000742	
318.15	.5	.12467	.000749	
318.15	.5	.14206	.000755	
288.15	1	.05176	.00176	
288.15	1	.07155	.001783	
288.15	1	.08866	.001802	
288.15	1	.11615	.001833	
288.15	1	.13912	.001859	
288.15	1	.15867	.001881	
298.15	1	.05176	.001393	
298.15	1	.07155	.00141	
298.15	1	.08866	.001424	
298.15	1	.11615	.001447	
298.15	1	.13912	.001466	
298.15	1	.15867	.001482	
308.15	1	.05176	.001123	
308.15	1	.07155	.001136	
308.15	1	.08866	.001146	
308.15	1	.11615	.001163	
308.15	1	.13912	.001178	
308.15	1	.15867	.00119	
318.15	1	.05176	.000862	
318.15	1	.07155	.00087	
318.15	1	.08866	.000878	
318.15	1	.11615	.00089	
318.15	1	.13912	.0009	
318.15	1	.15867	.000909	
288.15	1.5	.04659	.002064	
288.15	1.5	.06008	.002081	
288.15	1.5	.08378	.00211	
288.15	1.5	.10512	.002137	
288.15	1.5	.13045	.002168	
288.15	1.5	.14203	.002183	
298.15	1.5	.04659	.001642	
298.15	1.5	.06008	.001654	
298.15	1.5	.08378	.001676	
298.15	1.5	.10512	.001696	
298.15	1.5	.13045	.001719	
298.15	1.5	.14203	.00173	
308.15	1.5	.04659	.001314	
308.15	1.5	.06008	.001323	
308.15	1.5	.08378	.00134	
308.15	1.5	.10512	.001355	
308.15	1.5	.13045	.001372	
308.15	1.5	.14203	.00138	
318.15	1.5	.04659	.001027	
318.15	1.5	.06008	.001034	
318.15	1.5	.08378	.001046	
318.15	1.5	.10512	.001057	
318.15	1.5	.13045	.00107	
318.15	1.5	.14203	.001076	
288.15	2	.05604	.002387	
288.15	2	.07019	.002409	
288.15	2	.09082	.002441	
288.15	2	.11865	.002484	
288.15	2	.13851	.002514	
288.15	2	.15772	.002543	
298.15	2	.05604	.001871	
298.15	2	.07019	.001887	
298.15	2	.09082	.001911	
298.15	2	.11865	.001942	
298.15	2	.13851	.001965	
298.15	2	.15772	.001986	
308.15	2	.05604	.00149	
308.15	2	.07019	.001502	
308.15	2	.09082	.001519	
308.15	2	.11865	.001543	
308.15	2	.13851	.001559	
308.15	2	.15772	.001575	
318.15	2	.05604	.001151	
318.15	2	.07019	.001159	
318.15	2	.09082	.001172	
318.15	2	.11865	.001189	
318.15	2	.13851	.001201	
318.15	2	.15772	.001213	

System: methyl .alpha.-D-glucoside + ammonium biphosphate + water; phases: Liquid
Fixed: Pressure, kPa = 100
Property: Viscosity, Pa*s (Liquid); method: Capillary tube (Ostwald; Ubbelohde) method
Temperature, K	Solvent: Molality, mol/kg of ammonium biphosphate	Molality, mol/kg of methyl .alpha.-D-glucoside	Viscosity, Pa*s	uncertainty
288.15	.5	.05302	.001327	
288.15	.5	.07187	.00134	
288.15	.5	.08461	.001349	
288.15	.5	.11076	.001367	
288.15	.5	.13248	.001381	
288.15	.5	.15339	.001396	
288.15	.5	.16233	.001402	
298.15	.5	.05302	.001043	
298.15	.5	.07187	.001053	
298.15	.5	.08461	.00106	
298.15	.5	.11076	.001073	
298.15	.5	.13248	.001085	
298.15	.5	.15339	.001096	
298.15	.5	.16233	.0011	
308.15	.5	.05302	.000845	
308.15	.5	.07187	.000853	
308.15	.5	.08461	.000858	
308.15	.5	.11076	.00087	
308.15	.5	.13248	.000879	
308.15	.5	.15339	.000888	
308.15	.5	.16233	.000892	
318.15	.5	.05302	.000677	
318.15	.5	.07187	.000684	
318.15	.5	.08461	.000688	
318.15	.5	.11076	.000697	
318.15	.5	.13248	.000704	
318.15	.5	.15339	.000711	
318.15	.5	.16233	.000714	
288.15	1	.05132	.001517	
288.15	1	.0621	.001526	
288.15	1	.08185	.001543	
288.15	1	.09409	.001553	
288.15	1	.11908	.001574	
288.15	1	.13209	.001585	
288.15	1	.15452	.001604	
298.15	1	.05132	.001207	
298.15	1	.0621	.001214	
298.15	1	.08185	.001228	
298.15	1	.09409	.001236	
298.15	1	.11908	.001252	
298.15	1	.13209	.001261	
298.15	1	.15452	.001276	
308.15	1	.05132	.00097	
308.15	1	.0621	.000976	
308.15	1	.08185	.000987	
308.15	1	.09409	.000994	
308.15	1	.11908	.001007	
308.15	1	.13209	.001014	
308.15	1	.15452	.001026	
318.15	1	.05132	.000763	
318.15	1	.0621	.000768	
318.15	1	.08185	.000776	
318.15	1	.09409	.000781	
318.15	1	.11908	.000792	
318.15	1	.13209	.000797	
318.15	1	.15452	.000807	
288.15	1.5	.04371	.001718	
288.15	1.5	.06142	.001736	
288.15	1.5	.08299	.001759	
288.15	1.5	.09768	.001774	
288.15	1.5	.1181	.001795	
288.15	1.5	.13419	.001811	
288.15	1.5	.15664	.001834	
298.15	1.5	.04371	.001368	
298.15	1.5	.06142	.001383	
298.15	1.5	.08299	.0014	
298.15	1.5	.09768	.001412	
298.15	1.5	.1181	.001429	
298.15	1.5	.13419	.001442	
298.15	1.5	.15664	.00146	
308.15	1.5	.04371	.001078	
308.15	1.5	.06142	.00109	
308.15	1.5	.08299	.001104	
308.15	1.5	.09768	.001114	
308.15	1.5	.1181	.001127	
308.15	1.5	.13419	.001137	
308.15	1.5	.15664	.001152	
318.15	1.5	.04371	.000845	
318.15	1.5	.06142	.000854	
318.15	1.5	.08299	.000865	
318.15	1.5	.09768	.000872	
318.15	1.5	.1181	.000883	
318.15	1.5	.13419	.000891	
318.15	1.5	.15664	.000902	
288.15	2	.05314	.001898	
288.15	2	.06845	.001917	
288.15	2	.07836	.001929	
288.15	2	.09535	.00195	
288.15	2	.11603	.001975	
288.15	2	.13179	.001994	
288.15	2	.16101	.002029	
298.15	2	.05314	.001516	
298.15	2	.06845	.001531	
298.15	2	.07836	.00154	
298.15	2	.09535	.001557	
298.15	2	.11603	.001577	
298.15	2	.13179	.001592	
298.15	2	.16101	.00162	
308.15	2	.05314	.001205	
308.15	2	.06845	.001218	
308.15	2	.07836	.001226	
308.15	2	.09535	.00124	
308.15	2	.11603	.001257	
308.15	2	.13179	.001269	
308.15	2	.16101	.001293	
318.15	2	.05314	.000943	
318.15	2	.06845	.000952	
318.15	2	.07836	.000959	
318.15	2	.09535	.00097	
318.15	2	.11603	.000983	
318.15	2	.13179	.000993	
318.15	2	.16101	.001011	

System: water + monobasic potassium phosphate; phases: Liquid
Property: Viscosity, Pa*s (Liquid); method: Capillary tube (Ostwald; Ubbelohde) method
Temperature, K	Molality, mol/kg of monobasic potassium phosphate	Pressure, kPa	Viscosity, Pa*s	uncertainty
288.15	.25	100	.001236	
298.15	.25	100	.000972	
308.15	.25	100	.000777	
318.15	.25	100	.000633	
288.15	.5	100	.001301	
298.15	.5	100	.001025	
308.15	.5	100	.000815	
318.15	.5	100	.000666	
288.15	1	100	.001539	
298.15	1	100	.001159	
308.15	1	100	.000939	
318.15	1	100	.000763	
288.15	1.25	100	.001636	
298.15	1.25	100	.001294	
308.15	1.25	100	.001027	
318.15	1.25	100	.00084	

System: (+)-xylose + water; phases: Liquid
Property: Viscosity, Pa*s (Liquid); method: Capillary tube (Ostwald; Ubbelohde) method
Temperature, K	Molality, mol/kg of (+)-xylose	Pressure, kPa	Viscosity, Pa*s	uncertainty
288.15	.05317	100	.001159	
288.15	.06636	100	.001165	
288.15	.07781	100	.001169	
288.15	.08585	100	.001173	
288.15	.10086	100	.001179	
288.15	.11453	100	.001185	
298.15	.05317	100	.000906	
298.15	.06636	100	.00091	
298.15	.07781	100	.000914	
298.15	.08585	100	.000917	
298.15	.10086	100	.000921	
298.15	.11453	100	.000925	
308.15	.05317	100	.000732	
308.15	.06636	100	.000735	
308.15	.07781	100	.000737	
308.15	.08585	100	.000739	
308.15	.10086	100	.000743	
308.15	.11453	100	.000746	
318.15	.05317	100	.000606	
318.15	.06636	100	.000608	
318.15	.07781	100	.00061	
318.15	.08585	100	.000612	
318.15	.10086	100	.000614	
318.15	.11453	100	.000618	

System: ammonium biphosphate + water; phases: Liquid
Property: Viscosity, Pa*s (Liquid); method: Capillary tube (Ostwald; Ubbelohde) method
Temperature, K	Molality, mol/kg of ammonium biphosphate	Pressure, kPa	Viscosity, Pa*s	uncertainty
288.15	.5	100	.00129	
298.15	.5	100	.001014	
308.15	.5	100	.000822	
318.15	.5	100	.000659	
288.15	1	100	.001472	
298.15	1	100	.001172	
308.15	1	100	.000942	
318.15	1	100	.000741	
288.15	1.5	100	.001672	
298.15	1.5	100	.001332	
308.15	1.5	100	.001049	
318.15	1.5	100	.000822	
288.15	2	100	.001831	
298.15	2	100	.001463	
308.15	2	100	.001161	
318.15	2	100	.000908	

System: water + potassium phosphate; phases: Liquid
Property: Viscosity, Pa*s (Liquid); method: Capillary tube (Ostwald; Ubbelohde) method
Temperature, K	Molality, mol/kg of potassium phosphate	Pressure, kPa	Viscosity, Pa*s	uncertainty
288.15	.5	100	.001414	
298.15	.5	100	.001133	
308.15	.5	100	.000915	
318.15	.5	100	.000708	
288.15	1	100	.0017	
298.15	1	100	.001349	
308.15	1	100	.00109	
318.15	1	100	.000838	
288.15	1.5	100	.002004	
298.15	1.5	100	.001598	
308.15	1.5	100	.001281	
318.15	1.5	100	.001003	
288.15	2	100	.002299	
298.15	2	100	.001806	
308.15	2	100	.001441	
318.15	2	100	.001116	

System: D-(-)-ribose + water; phases: Liquid
Property: Viscosity, Pa*s (Liquid); method: Capillary tube (Ostwald; Ubbelohde) method
Temperature, K	Molality, mol/kg of D-(-)-ribose	Pressure, kPa	Viscosity, Pa*s	uncertainty
308.15	.05682	100	.000731	
318.15	.05682	100	.000605	
288.15	.05682	100	.001159	
298.15	.05682	100	.000906	
308.15	.06586	100	.000733	
288.15	.06586	100	.001163	
318.15	.06586	100	.000607	
298.15	.06586	100	.000909	
288.15	.07814	100	.001168	
298.15	.07814	100	.000912	
318.15	.07814	100	.000609	
308.15	.07814	100	.000736	
288.15	.09455	100	.001174	
298.15	.09455	100	.000917	
318.15	.09455	100	.000612	
308.15	.09455	100	.000739	
298.15	.1051	100	.000919	
288.15	.1051	100	.001178	
308.15	.1051	100	.000741	
318.15	.1051	100	.000614	
288.15	.12855	100	.001187	
318.15	.12855	100	.000618	
308.15	.12855	100	.000746	
298.15	.12855	100	.000926	

System: D-(-)-fructose + water; phases: Liquid
Property: Viscosity, Pa*s (Liquid); method: Capillary tube (Ostwald; Ubbelohde) method
Temperature, K	Amount concentration (molarity), mol/dm3 of D-(-)-fructose	Pressure, kPa	Viscosity, Pa*s	uncertainty
288.15	.0628	100	.001174	
288.15	.06594	100	.001175	
288.15	.08345	100	.001185	
288.15	.11242	100	.001201	
288.15	.12848	100	.001209	
288.15	.15231	100	.001222	
298.15	.08345	100	.000924	
298.15	.0628	100	.000916	
298.15	.11242	100	.000935	
298.15	.06594	100	.000917	
298.15	.12848	100	.000941	
298.15	.15231	100	.000951	
308.15	.08345	100	.000745	
308.15	.11242	100	.000754	
308.15	.06594	100	.00074	
308.15	.0628	100	.000739	
308.15	.12848	100	.000759	
308.15	.15231	100	.000766	
318.15	.12848	100	.000624	
318.15	.11242	100	.000621	
318.15	.06594	100	.000611	
318.15	.0628	100	.00061	
318.15	.08345	100	.000614	
318.15	.15231	100	.000629	

System: D(+)-glucose + water; phases: Liquid
Property: Viscosity, Pa*s (Liquid); method: Capillary tube (Ostwald; Ubbelohde) method
Temperature, K	Molality, mol/kg of D(+)-glucose	Pressure, kPa	Viscosity, Pa*s	uncertainty
288.15	.05335	100	.001167	
288.15	.06616	100	.001175	
288.15	.08424	100	.001185	
288.15	.10383	100	.001196	
288.15	.11415	100	.001202	
288.15	.13225	100	.001211	
298.15	.05335	100	.000912	
298.15	.06616	100	.000918	
298.15	.08424	100	.000924	
298.15	.10383	100	.000932	
298.15	.11415	100	.000936	
298.15	.13225	100	.000943	
308.15	.05335	100	.000736	
308.15	.06616	100	.00074	
308.15	.08424	100	.000744	
308.15	.10383	100	.00075	
308.15	.11415	100	.000754	
308.15	.13225	100	.000759	
318.15	.05335	100	.000609	
318.15	.06616	100	.000612	
318.15	.08424	100	.000616	
318.15	.10383	100	.000621	
318.15	.11415	100	.000623	
318.15	.13225	100	.000628	

System: D-mannose + water; phases: Liquid
Property: Viscosity, Pa*s (Liquid); method: Capillary tube (Ostwald; Ubbelohde) method
Temperature, K	Molality, mol/kg of D-mannose	Pressure, kPa	Viscosity, Pa*s	uncertainty
288.15	.0537	100	.001169	
288.15	.07266	100	.001179	
288.15	.08053	100	.001184	
288.15	.08978	100	.001189	
288.15	.10584	100	.001199	
288.15	.11763	100	.001206	
298.15	.0537	100	.000912	
298.15	.07266	100	.00092	
298.15	.08053	100	.000924	
298.15	.08978	100	.000928	
298.15	.10584	100	.000934	
298.15	.11763	100	.000939	
308.15	.0537	100	.000736	
308.15	.07266	100	.000741	
308.15	.08053	100	.000744	
308.15	.08978	100	.000747	
308.15	.10584	100	.000753	
308.15	.11763	100	.000756	
318.15	.0537	100	.000609	
318.15	.07266	100	.000614	
318.15	.08053	100	.000616	
318.15	.08978	100	.000618	
318.15	.10584	100	.000622	
318.15	.11763	100	.000625	

System: deoxyribose + water; phases: Liquid
Property: Viscosity, Pa*s (Liquid); method: Capillary tube (Ostwald; Ubbelohde) method
Temperature, K	Molality, mol/kg of deoxyribose	Pressure, kPa	Viscosity, Pa*s	uncertainty
288.15	.05709	100	.001163	
288.15	.07583	100	.001172	
288.15	.09188	100	.001179	
288.15	.09812	100	.001181	
288.15	.11241	100	.001188	
288.15	.13656	100	.001198	
288.15	.14659	100	.001202	
298.15	.05709	100	.000909	
298.15	.07583	100	.000915	
298.15	.09188	100	.00092	
298.15	.09812	100	.000922	
298.15	.11241	100	.000927	
298.15	.13656	100	.000935	
298.15	.14659	100	.000938	
308.15	.05709	100	.000734	
308.15	.07583	100	.000738	
308.15	.09188	100	.000742	
308.15	.09812	100	.000744	
308.15	.11241	100	.000747	
308.15	.13656	100	.000753	
308.15	.14659	100	.000755	
318.15	.05709	100	.000607	
318.15	.07583	100	.000611	
318.15	.09188	100	.000614	
318.15	.09812	100	.000615	
318.15	.11241	100	.000618	
318.15	.13656	100	.000623	
318.15	.14659	100	.000624	

System: 2-deoxy-D-glucose + water; phases: Liquid
Property: Viscosity, Pa*s (Liquid); method: Capillary tube (Ostwald; Ubbelohde) method
Temperature, K	Molality, mol/kg of 2-deoxy-D-glucose	Pressure, kPa	Viscosity, Pa*s	uncertainty
288.15	.04241	100	.00116	
288.15	.05017	100	.001164	
288.15	.05842	100	.001168	
288.15	.08671	100	.001182	
288.15	.09745	100	.001188	
288.15	.12227	100	.0012	
288.15	.14099	100	.00121	
298.15	.04241	100	.000907	
298.15	.05017	100	.000909	
298.15	.05842	100	.000913	
298.15	.08671	100	.000923	
298.15	.09745	100	.000927	
298.15	.12227	100	.000936	
298.15	.14099	100	.000943	
308.15	.04241	100	.000732	
308.15	.05017	100	.000734	
308.15	.05842	100	.000736	
308.15	.08671	100	.000744	
308.15	.09745	100	.000747	
308.15	.12227	100	.000754	
308.15	.14099	100	.00076	
318.15	.04241	100	.000606	
318.15	.05017	100	.000608	
318.15	.05842	100	.000609	
318.15	.08671	100	.000616	
318.15	.09745	100	.000618	
318.15	.12227	100	.000624	
318.15	.14099	100	.000628	

System: 6-deoxy-.alpha.-L-mannopyranose + water; phases: Liquid
Property: Viscosity, Pa*s (Liquid); method: Capillary tube (Ostwald; Ubbelohde) method
Temperature, K	Molality, mol/kg of 6-deoxy-.alpha.-L-mannopyranose	Pressure, kPa	Viscosity, Pa*s	uncertainty
288.15	.04655	100	.001165	
288.15	.05637	100	.001171	
288.15	.08317	100	.001186	
288.15	.0856	100	.001187	
288.15	.11085	100	.001202	
288.15	.12478	100	.00121	
288.15	.14709	100	.001222	
298.15	.04655	100	.00091	
298.15	.05637	100	.000914	
298.15	.08317	100	.000925	
298.15	.0856	100	.000926	
298.15	.11085	100	.000937	
298.15	.12478	100	.000943	
298.15	.14709	100	.000952	
308.15	.04655	100	.000734	
308.15	.05637	100	.000737	
308.15	.08317	100	.000746	
308.15	.0856	100	.000747	
308.15	.11085	100	.000755	
308.15	.12478	100	.000759	
308.15	.14709	100	.000766	
318.15	.04655	100	.000608	
318.15	.05637	100	.00061	
318.15	.08317	100	.000617	
318.15	.0856	100	.000618	
318.15	.11085	100	.000623	
318.15	.12478	100	.000627	
318.15	.14709	100	.000632	

System: methyl .alpha.-D-mannopyranoside + water; phases: Liquid
Property: Viscosity, Pa*s (Liquid); method: Capillary tube (Ostwald; Ubbelohde) method
Temperature, K	Molality, mol/kg of methyl .alpha.-D-mannopyranoside	Pressure, kPa	Viscosity, Pa*s	uncertainty
288.15	.05551	100	.001172	
288.15	.0769	100	.001185	
288.15	.09681	100	.001197	
288.15	.11658	100	.001209	
288.15	.1344	100	.00122	
288.15	.1466	100	.001227	
288.15	.16324	100	.001237	
298.15	.05551	100	.000916	
298.15	.0769	100	.000925	
298.15	.09681	100	.000934	
298.15	.11658	100	.000943	
298.15	.1344	100	.000951	
298.15	.1466	100	.000956	
298.15	.16324	100	.000964	
308.15	.05551	100	.000739	
308.15	.0769	100	.000746	
308.15	.09681	100	.000753	
308.15	.11658	100	.00076	
308.15	.1344	100	.000766	
308.15	.1466	100	.00077	
308.15	.16324	100	.000775	
318.15	.05551	100	.000611	
318.15	.0769	100	.000617	
318.15	.09681	100	.000623	
318.15	.11658	100	.000628	
318.15	.1344	100	.000633	
318.15	.1466	100	.000636	
318.15	.16324	100	.00064	

System: methyl .alpha.-D-glucoside + water; phases: Liquid
Property: Viscosity, Pa*s (Liquid); method: Capillary tube (Ostwald; Ubbelohde) method
Temperature, K	Molality, mol/kg of methyl .alpha.-D-glucoside	Pressure, kPa	Viscosity, Pa*s	uncertainty
288.15	.06502	100	.001174	
288.15	.07733	100	.001181	
288.15	.09597	100	.001191	
288.15	.1109	100	.0012	
288.15	.12198	100	.001206	
288.15	.12189	100	.001207	
288.15	.14653	100	.001219	
298.15	.06502	100	.000917	
298.15	.07733	100	.000922	
298.15	.09597	100	.000929	
298.15	.1109	100	.000935	
298.15	.12198	100	.00094	
298.15	.12189	100	.000941	
298.15	.14653	100	.00095	
308.15	.06502	100	.00074	
308.15	.07733	100	.000744	
308.15	.09597	100	.000749	
308.15	.1109	100	.000754	
308.15	.12198	100	.000757	
308.15	.12189	100	.000758	
308.15	.14653	100	.000765	
318.15	.06502	100	.000612	
318.15	.07733	100	.000615	
318.15	.09597	100	.000619	
318.15	.1109	100	.000623	
318.15	.12198	100	.000626	
318.15	.12189	100	.000625	
318.15	.14653	100	.000631	

System: D-(+)-Saccharose + water; phases: Liquid
Property: Viscosity, Pa*s (Liquid); method: Capillary tube (Ostwald; Ubbelohde) method
Temperature, K	Molality, mol/kg of D-(+)-Saccharose	Pressure, kPa	Viscosity, Pa*s	uncertainty
288.15	.05768	100	.001205	
288.15	.06994	100	.001219	
288.15	.07682	100	.001227	
288.15	.08384	100	.001235	
288.15	.09221	100	.001244	
288.15	.11026	100	.001265	
288.15	.12371	100	.00128	
288.15	.14366	100	.001302	
298.15	.05768	100	.000941	
298.15	.06994	100	.000951	
298.15	.07682	100	.000957	
298.15	.08384	100	.000963	
298.15	.09221	100	.00097	
298.15	.11026	100	.000986	
298.15	.12371	100	.000997	
298.15	.14366	100	.001014	
308.15	.05768	100	.000758	
308.15	.06994	100	.000766	
308.15	.07682	100	.000771	
308.15	.08384	100	.000776	
308.15	.09221	100	.000781	
308.15	.11026	100	.000793	
308.15	.12371	100	.000802	
308.15	.14366	100	.000815	
318.15	.05768	100	.000627	
318.15	.06994	100	.000634	
318.15	.07682	100	.000637	
318.15	.08384	100	.000641	
318.15	.09221	100	.000645	
318.15	.11026	100	.000655	
318.15	.12371	100	.000662	
318.15	.14366	100	.000672	

System: D-(+)-cellobiose + water; phases: Liquid
Property: Viscosity, Pa*s (Liquid); method: Capillary tube (Ostwald; Ubbelohde) method
Temperature, K	Molality, mol/kg of D-(+)-cellobiose	Pressure, kPa	Viscosity, Pa*s	uncertainty
288.15	.0502	100	.00119	
288.15	.06216	100	.001202	
288.15	.07229	100	.001212	
288.15	.08229	100	.001222	
288.15	.09269	100	.001233	
288.15	.10307	100	.001243	
288.15	.12924	100	.001269	
288.15	.15199	100	.001291	
298.15	.0502	100	.000929	
298.15	.06216	100	.000938	
298.15	.07229	100	.000946	
298.15	.08229	100	.000953	
298.15	.09269	100	.000961	
298.15	.10307	100	.000969	
298.15	.12924	100	.000988	
298.15	.15199	100	.001005	
308.15	.0502	100	.000749	
308.15	.06216	100	.000756	
308.15	.07229	100	.000762	
308.15	.08229	100	.000768	
308.15	.09269	100	.000774	
308.15	.10307	100	.00078	
308.15	.12924	100	.000795	
308.15	.15199	100	.000808	
318.15	.0502	100	.00062	
318.15	.06216	100	.000625	
318.15	.07229	100	.00063	
318.15	.08229	100	.000635	
318.15	.09269	100	.00064	
318.15	.10307	100	.000644	
318.15	.12924	100	.000656	
318.15	.15199	100	.000666	

System: D-(+)-lactose + water; phases: Liquid
Property: Viscosity, Pa*s (Liquid); method: Capillary tube (Ostwald; Ubbelohde) method
Temperature, K	Molality, mol/kg of D-(+)-lactose	Pressure, kPa	Viscosity, Pa*s	uncertainty
288.15	.04915	100	.001198	
288.15	.0521	100	.001202	
288.15	.06429	100	.001216	
288.15	.07299	100	.001227	
288.15	.09149	100	.001249	
288.15	.10007	100	.001259	
288.15	.12106	100	.001284	
288.15	.15282	100	.001321	
298.15	.04915	100	.000936	
298.15	.0521	100	.000938	
298.15	.06429	100	.000949	
298.15	.07299	100	.000957	
298.15	.09149	100	.000974	
298.15	.10007	100	.000982	
298.15	.12106	100	.001	
298.15	.15282	100	.001028	
308.15	.04915	100	.000755	
308.15	.0521	100	.000757	
308.15	.06429	100	.000766	
308.15	.07299	100	.000772	
308.15	.09149	100	.000785	
308.15	.10007	100	.000791	
308.15	.12106	100	.000806	
308.15	.15282	100	.000828	
318.15	.04915	100	.000625	
318.15	.0521	100	.000626	
318.15	.06429	100	.000633	
318.15	.07299	100	.000638	
318.15	.09149	100	.000649	
318.15	.10007	100	.000654	
318.15	.12106	100	.000665	
318.15	.15282	100	.000683	

System: D-(+)-maltose + water; phases: Liquid
Property: Viscosity, Pa*s (Liquid); method: Capillary tube (Ostwald; Ubbelohde) method
Temperature, K	Molality, mol/kg of D-(+)-maltose	Pressure, kPa	Viscosity, Pa*s	uncertainty
288.15	.05259	100	.001205	
288.15	.06076	100	.001215	
288.15	.07261	100	.00123	
288.15	.08156	100	.001241	
288.15	.08876	100	.00125	
288.15	.10339	100	.001268	
288.15	.12708	100	.001297	
288.15	.1479	100	.001322	
298.15	.05259	100	.000941	
298.15	.06076	100	.000948	
298.15	.07261	100	.00096	
298.15	.08156	100	.000968	
298.15	.08876	100	.000975	
298.15	.10339	100	.000988	
298.15	.12708	100	.00101	
298.15	.1479	100	.001029	
308.15	.05259	100	.000759	
308.15	.06076	100	.000765	
308.15	.07261	100	.000773	
308.15	.08156	100	.00078	
308.15	.08876	100	.000785	
308.15	.10339	100	.000796	
308.15	.12708	100	.000813	
308.15	.1479	100	.000827	
318.15	.05259	100	.000627	
318.15	.06076	100	.000632	
318.15	.07261	100	.000639	
318.15	.08156	100	.000644	
318.15	.08876	100	.000648	
318.15	.10339	100	.000656	
318.15	.12708	100	.00067	
318.15	.1479	100	.000682	

System: melezitose + water; phases: Liquid
Property: Viscosity, Pa*s (Liquid); method: Capillary tube (Ostwald; Ubbelohde) method
Temperature, K	Molality, mol/kg of melezitose	Pressure, kPa	Viscosity, Pa*s	uncertainty
288.15	.06211	100	.001237	
288.15	.07242	100	.001253	
288.15	.08043	100	.001266	
288.15	.09028	100	.001281	
288.15	.10447	100	.001303	
288.15	.12557	100	.001335	
288.15	.13442	100	.001348	
288.15	.14565	100	.001365	
298.15	.06211	100	.000965	
298.15	.07242	100	.000977	
298.15	.08043	100	.000987	
298.15	.09028	100	.000998	
298.15	.10447	100	.001015	
298.15	.12557	100	.001039	
298.15	.13442	100	.001049	
298.15	.14565	100	.001061	
308.15	.06211	100	.000777	
308.15	.07242	100	.000786	
308.15	.08043	100	.000793	
308.15	.09028	100	.000802	
308.15	.10447	100	.000815	
308.15	.12557	100	.000833	
308.15	.13442	100	.000841	
308.15	.14565	100	.000851	
318.15	.06211	100	.000642	
318.15	.07242	100	.00065	
318.15	.08043	100	.000655	
318.15	.09028	100	.000663	
318.15	.10447	100	.000673	
318.15	.12557	100	.000687	
318.15	.13442	100	.000694	
318.15	.14565	100	.000701	

System: raffinose + water; phases: Liquid
Property: Viscosity, Pa*s (Liquid); method: Capillary tube (Ostwald; Ubbelohde) method
Temperature, K	Molality, mol/kg of raffinose	Pressure, kPa	Viscosity, Pa*s	uncertainty
288.15	.0515	100	.001227	
288.15	.06262	100	.001246	
288.15	.08002	100	.001275	
288.15	.09691	100	.001303	
288.15	.10846	100	.001322	
288.15	.11325	100	.00133	
288.15	.12727	100	.001353	
288.15	.13869	100	.001371	
298.15	.0515	100	.000957	
298.15	.06262	100	.000971	
298.15	.08002	100	.000993	
298.15	.09691	100	.001014	
298.15	.10846	100	.001028	
298.15	.11325	100	.001034	
298.15	.12727	100	.001051	
298.15	.13869	100	.001065	
308.15	.0515	100	.000771	
308.15	.06262	100	.000782	
308.15	.08002	100	.000799	
308.15	.09691	100	.000816	
308.15	.10846	100	.000827	
308.15	.11325	100	.000831	
308.15	.12727	100	.000845	
308.15	.13869	100	.000855	
318.15	.0515	100	.000637	
318.15	.06262	100	.000646	
318.15	.08002	100	.000659	
318.15	.09691	100	.000672	
318.15	.10846	100	.000681	
318.15	.11325	100	.000684	
318.15	.12727	100	.000695	
318.15	.13869	100	.000703	

System: sodium dihydrogen phosphate + water; phases: Liquid
Property: Viscosity, Pa*s (Liquid); method: Capillary tube (Ostwald; Ubbelohde) method
Temperature, K	Molality, mol/kg of sodium dihydrogen phosphate	Pressure, kPa	Viscosity, Pa*s	uncertainty
288.15	.5	100	.001427	
298.15	.5	100	.001093	
308.15	.5	100	.00088	
318.15	.5	100	.000723	
288.15	1	100	.001731	
298.15	1	100	.001332	
308.15	1	100	.001074	
318.15	1	100	.000875	
288.15	1.5	100	.002139	
298.15	1.5	100	.00163	
308.15	1.5	100	.001267	
318.15	1.5	100	.001051	
288.15	2	100	.00265	
298.15	2	100	.001987	
308.15	2	100	.001457	
318.15	2	100	.001257	
