Measured thermophysical data. Mutual solubility of aromatic hydrocarbons in pyrrolidinium and ammonium-based ionic liquids and its modeling using the Cubic-Plus-Association (CPA) Equation of State
Source: J. Chem. Eng. Data, 2017, 10.1021/acs.jced.6b00655
Compound 1: benzene, C6H6, purity 99.9%
Compound 2: ethylbenzene, C8H10, purity 99.8%
Compound 3: toluene, C7H8, purity 99.8%
Compound 4: o-xylene, C8H10, purity 99.0%
Compound 5: m-xylene, C8H10, purity 99.0%
Compound 6: p-xylene, C8H10, purity 99.0%
Compound 7: 1-butyl-1-methylpyrrolidinium bis(trifluoromethylsulfonyl)imide, C11H20F6N2O4S2, purity 99%
Compound 8: 1-butyl-1-methylpyrrolidinium trifluoromethanesulfonate, C10H20F3NO3S, purity 99%
Compound 9: 1-butyl-1-methylpyrrolidinium dicyanamide, C11H20N4, purity 98%
Compound 10: butyltrimethylammonium bis(trifluoromethylsulfonyl)imide, C9H18F6N2O4S2, purity 99%
Compound 11: tributylmethylammonium bis((trifluoromethyl)sulfonyl)imide, C15H30F6N2O4S2, purity 99%

System: benzene + 1-butyl-1-methylpyrrolidinium bis(trifluoromethylsulfonyl)imide; phases: Liquid mixture 1, Liquid mixture 2
Fixed: Pressure, kPa = 100
Property: Mole fraction of benzene (Liquid mixture 1); method: Density calibration data
Temperature, K	Mole fraction of benzene	uncertainty
293.15	.812	
298.15	.811	
303.15	.808	
308.15	.812	
313.15	.809	
318.15	.811	
323.15	.809	
328.15	.808	
333.15	.807	

System: benzene + 1-butyl-1-methylpyrrolidinium bis(trifluoromethylsulfonyl)imide; phases: Liquid
Fixed: Temperature, K = 283.15
Fixed: Pressure, kPa = 100
Property: Mass density, kg/m3 (Liquid); method: Vibrating tube method
Mole fraction of benzene	Mass density, kg/m3	uncertainty
0	1410.45	
.106	1394.11	
.309	1355.03	
.505	1296.91	
.714	1203.57	
.813	1133.23	

System: toluene + 1-butyl-1-methylpyrrolidinium bis(trifluoromethylsulfonyl)imide; phases: Liquid mixture 1, Liquid mixture 2
Fixed: Pressure, kPa = 100
Property: Mole fraction of toluene (Liquid mixture 1); method: Density calibration data
Temperature, K	Mole fraction of toluene	uncertainty
293.15	.728	
298.15	.728	
303.15	.725	
308.15	.727	
313.15	.727	
318.15	.725	
323.15	.717	
328.15	.72	
333.15	.719	

System: toluene + 1-butyl-1-methylpyrrolidinium bis(trifluoromethylsulfonyl)imide; phases: Liquid
Fixed: Temperature, K = 283.15
Fixed: Pressure, kPa = 100
Property: Mass density, kg/m3 (Liquid); method: Vibrating tube method
Mole fraction of toluene	Mass density, kg/m3	uncertainty
0	1407.6	
.574	1250.95	
.509	1276.06	
.611	1228.59	
.73	1160.93	

System: ethylbenzene + 1-butyl-1-methylpyrrolidinium bis(trifluoromethylsulfonyl)imide; phases: Liquid mixture 1, Liquid mixture 2
Fixed: Pressure, kPa = 100
Property: Mole fraction of ethylbenzene (Liquid mixture 1); method: Density calibration data
Temperature, K	Mole fraction of ethylbenzene	uncertainty
293.15	.634	
298.15	.634	
303.15	.631	
308.15	.632	
313.15	.627	
318.15	.626	
323.15	.626	
328.15	.626	
333.15	.627	

System: ethylbenzene + 1-butyl-1-methylpyrrolidinium bis(trifluoromethylsulfonyl)imide; phases: Liquid
Fixed: Temperature, K = 283.15
Fixed: Pressure, kPa = 100
Property: Mass density, kg/m3 (Liquid); method: Vibrating tube method
Mole fraction of ethylbenzene	Mass density, kg/m3	uncertainty
0	1410.45	
.312	1332.47	
.417	1296.15	
.489	1268.45	
.636	1201.58	

System: o-xylene + 1-butyl-1-methylpyrrolidinium bis(trifluoromethylsulfonyl)imide; phases: Liquid mixture 1, Liquid mixture 2
Fixed: Pressure, kPa = 100
Property: Mole fraction of o-xylene (Liquid mixture 1); method: Density calibration data
Temperature, K	Mole fraction of o-xylene	uncertainty
293.15	.697	
298.15	.694	
303.15	.692	
308.15	.692	
313.15	.692	
318.15	.69	
323.15	.69	
328.15	.69	
333.15	.69	

System: o-xylene + 1-butyl-1-methylpyrrolidinium bis(trifluoromethylsulfonyl)imide; phases: Liquid
Fixed: Temperature, K = 283.15
Fixed: Pressure, kPa = 100
Property: Mass density, kg/m3 (Liquid); method: Vibrating tube method
Mole fraction of o-xylene	Mass density, kg/m3	uncertainty
0	1407.6	
.21	1360.77	
.409	1303.44	
.622	1224.4	
.673	1207.6	

System: m-xylene + 1-butyl-1-methylpyrrolidinium bis(trifluoromethylsulfonyl)imide; phases: Liquid mixture 1, Liquid mixture 2
Fixed: Pressure, kPa = 100
Property: Mole fraction of m-xylene (Liquid mixture 1); method: Density calibration data
Temperature, K	Mole fraction of m-xylene	uncertainty
293.15	.595	
298.15	.595	
303.15	.593	
308.15	.593	
313.15	.593	
318.15	.592	
323.15	.59	
328.15	.591	
333.15	.591	

System: m-xylene + 1-butyl-1-methylpyrrolidinium bis(trifluoromethylsulfonyl)imide; phases: Liquid
Fixed: Temperature, K = 283.15
Fixed: Pressure, kPa = 100
Property: Mass density, kg/m3 (Liquid); method: Vibrating tube method
Mole fraction of m-xylene	Mass density, kg/m3	uncertainty
0	1410.45	
.206	1361.63	
.372	1318.08	
.491	1259.92	
.616	1191.7	

System: p-xylene + 1-butyl-1-methylpyrrolidinium bis(trifluoromethylsulfonyl)imide; phases: Liquid mixture 1, Liquid mixture 2
Fixed: Pressure, kPa = 100
Property: Mole fraction of p-xylene (Liquid mixture 1); method: Density calibration data
Temperature, K	Mole fraction of p-xylene	uncertainty
293.15	.596	
298.15	.597	
303.15	.596	
308.15	.596	
313.15	.594	
318.15	.591	
323.15	.593	
328.15	.588	
333.15	.588	

System: p-xylene + 1-butyl-1-methylpyrrolidinium bis(trifluoromethylsulfonyl)imide; phases: Liquid
Fixed: Temperature, K = 283.15
Fixed: Pressure, kPa = 100
Property: Mass density, kg/m3 (Liquid); method: Vibrating tube method
Mole fraction of p-xylene	Mass density, kg/m3	uncertainty
0	1407.6	
.207	1361.17	
.357	1315.5	
.507	1254.4	
.617	1193.73	

System: benzene + 1-butyl-1-methylpyrrolidinium trifluoromethanesulfonate; phases: Liquid mixture 1, Liquid mixture 2
Fixed: Pressure, kPa = 100
Property: Mole fraction of benzene (Liquid mixture 1); method: Density calibration data
Temperature, K	Mole fraction of benzene	uncertainty
293.15	.726	
298.15	.725	
303.15	.724	
308.15	.723	
313.15	.722	
318.15	.721	
323.15	.718	
328.15	.719	
333.15	.715	

System: benzene + 1-butyl-1-methylpyrrolidinium trifluoromethanesulfonate; phases: Liquid
Fixed: Temperature, K = 283.15
Fixed: Pressure, kPa = 100
Property: Mass density, kg/m3 (Liquid); method: Vibrating tube method
Mole fraction of benzene	Mass density, kg/m3	uncertainty
0	1263.28	
.047	1257.62	
.095	1251.22	
.199	1235.63	
.293	1218.76	
.405	1195.65	
.503	1170.77	
.601	1140.47	
.644	1125.22	
.675	1112.49	
.701	1101.39	
.718	1093.71	
.738	1084.59	

System: toluene + 1-butyl-1-methylpyrrolidinium trifluoromethanesulfonate; phases: Liquid mixture 1, Liquid mixture 2
Fixed: Pressure, kPa = 100
Property: Mole fraction of toluene (Liquid mixture 1); method: Density calibration data
Temperature, K	Mole fraction of toluene	uncertainty
293.15	.578	
298.15	.581	
303.15	.576	
308.15	.571	
313.15	.57	
318.15	.564	
323.15	.563	
328.15	.56	
333.15	.558	

System: toluene + 1-butyl-1-methylpyrrolidinium trifluoromethanesulfonate; phases: Liquid
Fixed: Temperature, K = 283.15
Fixed: Pressure, kPa = 100
Property: Mass density, kg/m3 (Liquid); method: Vibrating tube method
Mole fraction of toluene	Mass density, kg/m3	uncertainty
0	1263.17	
.052	1255.13	
.102	1246.47	
.221	1223.94	
.313	1203.6	
.4	1181.98	
.516	1147.19	
.579	1124.97	

System: ethylbenzene + 1-butyl-1-methylpyrrolidinium trifluoromethanesulfonate; phases: Liquid mixture 1, Liquid mixture 2
Fixed: Pressure, kPa = 100
Property: Mole fraction of ethylbenzene (Liquid mixture 1); method: Density calibration data
Temperature, K	Mole fraction of ethylbenzene	uncertainty
293.15	.437	
298.15	.433	
303.15	.432	
308.15	.429	
313.15	.425	
318.15	.424	
323.15	.423	
328.15	.421	
333.15	.424	

System: ethylbenzene + 1-butyl-1-methylpyrrolidinium trifluoromethanesulfonate; phases: Liquid
Fixed: Temperature, K = 283.15
Fixed: Pressure, kPa = 100
Property: Mass density, kg/m3 (Liquid); method: Vibrating tube method
Mole fraction of ethylbenzene	Mass density, kg/m3	uncertainty
0	1263.17	
.044	1254.99	
.107	1240.68	
.209	1220.18	
.309	1193.98	
.391	1174.45	
.42	1164.28	

System: o-xylene + 1-butyl-1-methylpyrrolidinium trifluoromethanesulfonate; phases: Liquid mixture 1, Liquid mixture 2
Fixed: Pressure, kPa = 100
Property: Mole fraction of o-xylene (Liquid mixture 1); method: Density calibration data
Temperature, K	Mole fraction of o-xylene	uncertainty
293.15	.469	
298.15	.469	
303.15	.462	
308.15	.46	
313.15	.454	
318.15	.453	
323.15	.453	
328.15	.456	
333.15	.458	

System: o-xylene + 1-butyl-1-methylpyrrolidinium trifluoromethanesulfonate; phases: Liquid
Fixed: Temperature, K = 283.15
Fixed: Pressure, kPa = 100
Property: Mass density, kg/m3 (Liquid); method: Vibrating tube method
Mole fraction of o-xylene	Mass density, kg/m3	uncertainty
0	1263.17	
.054	1252.3	
.107	1243.62	
.19	1225.81	
.308	1197.9	
.399	1174.56	
.451	1160.97	

System: m-xylene + 1-butyl-1-methylpyrrolidinium trifluoromethanesulfonate; phases: Liquid mixture 1, Liquid mixture 2
Fixed: Pressure, kPa = 100
Property: Mole fraction of m-xylene (Liquid mixture 1); method: Density calibration data
Temperature, K	Mole fraction of m-xylene	uncertainty
293.15	.425	
298.15	.421	
303.15	.414	
308.15	.412	
313.15	.411	
318.15	.407	
323.15	.409	
328.15	.405	
333.15	.405	

System: m-xylene + 1-butyl-1-methylpyrrolidinium trifluoromethanesulfonate; phases: Liquid
Fixed: Temperature, K = 283.15
Fixed: Pressure, kPa = 100
Property: Mass density, kg/m3 (Liquid); method: Vibrating tube method
Mole fraction of m-xylene	Mass density, kg/m3	uncertainty
0	1263.17	
.054	1253.29	
.11	1241.72	
.202	1221.84	
.308	1195.52	
.352	1184.04	
.402	1170.32	
.418	1165.83	

System: p-xylene + 1-butyl-1-methylpyrrolidinium trifluoromethanesulfonate; phases: Liquid mixture 1, Liquid mixture 2
Fixed: Pressure, kPa = 100
Property: Mole fraction of p-xylene (Liquid mixture 1); method: Density calibration data
Temperature, K	Mole fraction of p-xylene	uncertainty
293.15	.428	
298.15	.426	
303.15	.417	
308.15	.412	
313.15	.409	
318.15	.404	
323.15	.406	
328.15	.399	
333.15	.41	

System: p-xylene + 1-butyl-1-methylpyrrolidinium trifluoromethanesulfonate; phases: Liquid
Fixed: Temperature, K = 283.15
Fixed: Pressure, kPa = 100
Property: Mass density, kg/m3 (Liquid); method: Vibrating tube method
Mole fraction of p-xylene	Mass density, kg/m3	uncertainty
0	1263.17	
.053	1249.16	
.102	1242.37	
.203	1216.86	
.306	1195.95	
.361	1180.48	
.415	1164.5	

System: benzene + 1-butyl-1-methylpyrrolidinium dicyanamide; phases: Liquid mixture 1, Liquid mixture 2
Fixed: Pressure, kPa = 100
Property: Mole fraction of benzene (Liquid mixture 1); method: Density calibration data
Temperature, K	Mole fraction of benzene	uncertainty
293.15	.713	
298.15	.711	
303.15	.708	
308.15	.705	
313.15	.704	
318.15	.699	
323.15	.695	
328.15	.691	
333.15	.688	

System: benzene + 1-butyl-1-methylpyrrolidinium dicyanamide; phases: Liquid
Fixed: Temperature, K = 283.15
Fixed: Pressure, kPa = 100
Property: Mass density, kg/m3 (Liquid); method: Vibrating tube method
Mole fraction of benzene	Mass density, kg/m3	uncertainty
0	1021.84	
.051	1020.09	
.099	1018.22	
.199	1014.33	
.293	1009.95	
.401	1004.03	
.505	996.7	
.61	987.41	
.637	984.55	
.665	981.11	
.69	978.4	
.718	973.87	

System: toluene + 1-butyl-1-methylpyrrolidinium dicyanamide; phases: Liquid mixture 1, Liquid mixture 2
Fixed: Pressure, kPa = 100
Property: Mole fraction of toluene (Liquid mixture 1); method: Density calibration data
Temperature, K	Mole fraction of toluene	uncertainty
293.15	.547	
298.15	.545	
303.15	.534	
308.15	.531	
313.15	.524	
318.15	.522	
323.15	.514	
328.15	.502	
333.15	.505	

System: toluene + 1-butyl-1-methylpyrrolidinium dicyanamide; phases: Liquid
Fixed: Temperature, K = 283.15
Fixed: Pressure, kPa = 100
Property: Mass density, kg/m3 (Liquid); method: Vibrating tube method
Mole fraction of toluene	Mass density, kg/m3	uncertainty
0	1022.97	
.054	1020.33	
.103	1018.02	
.205	1012.43	
.304	1006.23	
.387	1000.63	
.454	993.84	
.528	986.94	

System: ethylbenzene + 1-butyl-1-methylpyrrolidinium dicyanamide; phases: Liquid mixture 1, Liquid mixture 2
Fixed: Pressure, kPa = 100
Property: Mole fraction of ethylbenzene (Liquid mixture 1); method: Density calibration data
Temperature, K	Mole fraction of ethylbenzene	uncertainty
293.15	.394	
298.15	.391	
303.15	.373	
308.15	.379	
313.15	.366	
318.15	.374	
323.15	.366	
328.15	.365	
333.15	.365	

System: ethylbenzene + 1-butyl-1-methylpyrrolidinium dicyanamide; phases: Liquid
Fixed: Temperature, K = 283.15
Fixed: Pressure, kPa = 100
Property: Mass density, kg/m3 (Liquid); method: Vibrating tube method
Mole fraction of ethylbenzene	Mass density, kg/m3	uncertainty
0	1022.97	
.044	1020.28	
.11	1016.49	
.2	1010.5	
.307	1002.43	
.359	997.98	
.397	994.71	

System: o-xylene + 1-butyl-1-methylpyrrolidinium dicyanamide; phases: Liquid mixture 1, Liquid mixture 2
Fixed: Pressure, kPa = 100
Property: Mole fraction of o-xylene (Liquid mixture 1); method: Density calibration data
Temperature, K	Mole fraction of o-xylene	uncertainty
293.15	.447	
298.15	.447	
303.15	.435	
308.15	.424	
313.15	.423	
318.15	.417	
323.15	.406	
328.15	.405	
333.15	.397	

System: o-xylene + 1-butyl-1-methylpyrrolidinium dicyanamide; phases: Liquid
Fixed: Temperature, K = 283.15
Fixed: Pressure, kPa = 100
Property: Mass density, kg/m3 (Liquid); method: Vibrating tube method
Mole fraction of o-xylene	Mass density, kg/m3	uncertainty
0	1022.97	
.001	1022.98	
.102	1018.02	
.202	1011.22	
.305	1005.51	
.385	999.83	
.433	997.35	

System: m-xylene + 1-butyl-1-methylpyrrolidinium dicyanamide; phases: Liquid mixture 1, Liquid mixture 2
Fixed: Pressure, kPa = 100
Property: Mole fraction of m-xylene (Liquid mixture 1); method: Density calibration data
Temperature, K	Mole fraction of m-xylene	uncertainty
293.15	.358	
298.15	.35	
303.15	.351	
308.15	.346	
313.15	.353	
318.15	.354	
323.15	.351	
328.15	.342	
333.15	.358	

System: m-xylene + 1-butyl-1-methylpyrrolidinium dicyanamide; phases: Liquid
Fixed: Temperature, K = 283.15
Fixed: Pressure, kPa = 100
Property: Mass density, kg/m3 (Liquid); method: Vibrating tube method
Mole fraction of m-xylene	Mass density, kg/m3	uncertainty
0	1022.94	
.057	1019.68	
.112	1016.11	
.202	1009.68	
.318	1000.45	
.26	1006.3	
.388	995.25	

System: p-xylene + 1-butyl-1-methylpyrrolidinium dicyanamide; phases: Liquid mixture 1, Liquid mixture 2
Fixed: Pressure, kPa = 100
Property: Mole fraction of p-xylene (Liquid mixture 1); method: Density calibration data
Temperature, K	Mole fraction of p-xylene	uncertainty
293.15	.348	
298.15	.34	
303.15	.342	
308.15	.337	
313.15	.343	
318.15	.344	
323.15	.341	
328.15	.333	
333.15	.348	

System: p-xylene + 1-butyl-1-methylpyrrolidinium dicyanamide; phases: Liquid
Fixed: Temperature, K = 283.15
Fixed: Pressure, kPa = 100
Property: Mass density, kg/m3 (Liquid); method: Vibrating tube method
Mole fraction of p-xylene	Mass density, kg/m3	uncertainty
0	1022.94	
.055	1019.77	
.109	1015.55	
.21	1009.54	
.27	1005.7	
.335	1000.17	
.389	993.97	

System: benzene + butyltrimethylammonium bis(trifluoromethylsulfonyl)imide; phases: Liquid mixture 1, Liquid mixture 2
Fixed: Pressure, kPa = 100
Property: Mole fraction of benzene (Liquid mixture 1); method: Density calibration data
Temperature, K	Mole fraction of benzene	uncertainty
293.15	.755	
298.15	.754	
303.15	.753	
308.15	.755	
313.15	.755	
318.15	.758	
323.15	.756	
328.15	.758	
333.15	.758	

System: benzene + butyltrimethylammonium bis(trifluoromethylsulfonyl)imide; phases: Liquid
Fixed: Temperature, K = 343.15
Fixed: Pressure, kPa = 100
Property: Mass density, kg/m3 (Liquid); method: Vibrating tube method
Mole fraction of benzene	Mass density, kg/m3	uncertainty
0	1348.32	
.096	1335.57	
.2	1316.52	
.308	1288.49	
.414	1262.43	
.512	1229.56	
.613	1185.89	
.762	1105.62	

System: toluene + butyltrimethylammonium bis(trifluoromethylsulfonyl)imide; phases: Liquid mixture 1, Liquid mixture 2
Fixed: Pressure, kPa = 100
Property: Mole fraction of toluene (Liquid mixture 1); method: Density calibration data
Temperature, K	Mole fraction of toluene	uncertainty
293.15	.635	
298.15	.636	
303.15	.636	
308.15	.637	
313.15	.637	
318.15	.638	
323.15	.639	
328.15	.64	
333.15	.641	

System: toluene + butyltrimethylammonium bis(trifluoromethylsulfonyl)imide; phases: Liquid
Fixed: Temperature, K = 343.15
Fixed: Pressure, kPa = 100
Property: Mass density, kg/m3 (Liquid); method: Vibrating tube method
Mole fraction of toluene	Mass density, kg/m3	uncertainty
0	1346.21	
.1	1333.19	
.202	1310.32	
.316	1279.85	
.404	1252.66	
.502	1211.78	
.61	1167.51	
.643	1150.47	

System: ethylbenzene + butyltrimethylammonium bis(trifluoromethylsulfonyl)imide; phases: Liquid mixture 1, Liquid mixture 2
Fixed: Pressure, kPa = 100
Property: Mole fraction of ethylbenzene (Liquid mixture 1); method: Density calibration data
Temperature, K	Mole fraction of ethylbenzene	uncertainty
293.15	.494	
298.15	.493	
303.15	.494	
308.15	.494	
313.15	.495	
318.15	.495	
323.15	.496	
328.15	.497	
333.15	.498	

System: ethylbenzene + butyltrimethylammonium bis(trifluoromethylsulfonyl)imide; phases: Liquid
Fixed: Temperature, K = 343.15
Fixed: Pressure, kPa = 100
Property: Mass density, kg/m3 (Liquid); method: Vibrating tube method
Mole fraction of ethylbenzene	Mass density, kg/m3	uncertainty
0	1348.32	
.037	1345.32	
.099	1330.93	
.245	1295.53	
.309	1271.7	
.397	1243.17	
.448	1221.88	
.498	1201.31	

System: o-xylene + butyltrimethylammonium bis(trifluoromethylsulfonyl)imide; phases: Liquid mixture 1, Liquid mixture 2
Fixed: Pressure, kPa = 100
Property: Mole fraction of o-xylene (Liquid mixture 1); method: Density calibration data
Temperature, K	Mole fraction of o-xylene	uncertainty
293.15	.535	
298.15	.535	
303.15	.535	
308.15	.536	
313.15	.537	
318.15	.537	
323.15	.537	
328.15	.538	
333.15	.539	

System: o-xylene + butyltrimethylammonium bis(trifluoromethylsulfonyl)imide; phases: Liquid
Fixed: Temperature, K = 343.15
Fixed: Pressure, kPa = 100
Property: Mass density, kg/m3 (Liquid); method: Vibrating tube method
Mole fraction of o-xylene	Mass density, kg/m3	uncertainty
0	1348.32	
.046	1343.67	
.099	1331.9	
.207	1306.39	
.309	1276.95	
.398	1246.25	
.481	1213.91	
.542	1191.25	

System: m-xylene + butyltrimethylammonium bis(trifluoromethylsulfonyl)imide; phases: Liquid mixture 1, Liquid mixture 2
Fixed: Pressure, kPa = 100
Property: Mole fraction of m-xylene (Liquid mixture 1); method: Density calibration data
Temperature, K	Mole fraction of m-xylene	uncertainty
293.15	.491	
298.15	.492	
303.15	.492	
308.15	.492	
313.15	.493	
318.15	.493	
323.15	.495	
328.15	.496	
333.15	.496	

System: m-xylene + butyltrimethylammonium bis(trifluoromethylsulfonyl)imide; phases: Liquid
Fixed: Temperature, K = 343.15
Fixed: Pressure, kPa = 100
Property: Mass density, kg/m3 (Liquid); method: Vibrating tube method
Mole fraction of m-xylene	Mass density, kg/m3	uncertainty
0	1348.32	
.057	1340.71	
.099	1330.46	
.2	1304.78	
.305	1274.33	
.45	1222.37	
.411	1235.86	
.502	1201.38	

System: p-xylene + butyltrimethylammonium bis(trifluoromethylsulfonyl)imide; phases: Liquid mixture 1, Liquid mixture 2
Fixed: Pressure, kPa = 100
Property: Mole fraction of p-xylene (Liquid mixture 1); method: Density calibration data
Temperature, K	Mole fraction of p-xylene	uncertainty
293.15	.481	
298.15	.482	
303.15	.482	
308.15	.484	
313.15	.484	
318.15	.485	
323.15	.485	
328.15	.486	
333.15	.487	

System: p-xylene + butyltrimethylammonium bis(trifluoromethylsulfonyl)imide; phases: Liquid
Fixed: Temperature, K = 343.15
Fixed: Pressure, kPa = 100
Property: Mass density, kg/m3 (Liquid); method: Vibrating tube method
Mole fraction of p-xylene	Mass density, kg/m3	uncertainty
0	1348.32	
.056	1341.21	
.096	1332.06	
.196	1307.74	
.307	1273.97	
.414	1235.93	
.486	1205.85	

System: benzene + tributylmethylammonium bis((trifluoromethyl)sulfonyl)imide; phases: Liquid mixture 1, Liquid mixture 2
Fixed: Pressure, kPa = 100
Property: Mole fraction of benzene (Liquid mixture 1); method: Density calibration data
Temperature, K	Mole fraction of benzene	uncertainty
293.15	.881	
298.15	.881	
303.15	.882	
308.15	.882	
313.15	.882	
318.15	.88	
323.15	.879	
328.15	.877	
333.15	.876	

System: benzene + tributylmethylammonium bis((trifluoromethyl)sulfonyl)imide; phases: Liquid
Fixed: Temperature, K = 343.15
Fixed: Pressure, kPa = 100
Property: Mass density, kg/m3 (Liquid); method: Vibrating tube method
Mole fraction of benzene	Mass density, kg/m3	uncertainty
0	1224.15	
.048	1220.37	
.097	1216.25	
.198	1204.31	
.294	1188.64	
.393	1168.17	
.506	1139.35	
.596	1112.34	
.701	1076.48	
.738	1062.44	
.774	1048.36	
.801	1037.22	
.823	1028.14	
.85	1016.43	
.865	1010.24	

System: toluene + tributylmethylammonium bis((trifluoromethyl)sulfonyl)imide; phases: Liquid mixture 1, Liquid mixture 2
Fixed: Pressure, kPa = 100
Property: Mole fraction of toluene (Liquid mixture 1); method: Density calibration data
Temperature, K	Mole fraction of toluene	uncertainty
293.15	.822	
298.15	.822	
303.15	.822	
308.15	.822	
313.15	.822	
318.15	.822	
323.15	.822	
328.15	.822	
333.15	.824	

System: toluene + tributylmethylammonium bis((trifluoromethyl)sulfonyl)imide; phases: Liquid
Fixed: Temperature, K = 343.15
Fixed: Pressure, kPa = 100
Property: Mass density, kg/m3 (Liquid); method: Vibrating tube method
Mole fraction of toluene	Mass density, kg/m3	uncertainty
0	1224.15	
.055	1218.2	
.104	1212.25	
.199	1200.37	
.303	1184.47	
.411	1163.41	
.586	1117.48	
.84	1016.08	
.799	1036.86	

System: ethylbenzene + tributylmethylammonium bis((trifluoromethyl)sulfonyl)imide; phases: Liquid mixture 1, Liquid mixture 2
Fixed: Pressure, kPa = 100
Property: Mole fraction of ethylbenzene (Liquid mixture 1); method: Density calibration data
Temperature, K	Mole fraction of ethylbenzene	uncertainty
293.15	.734	
298.15	.735	
303.15	.736	
308.15	.737	
313.15	.737	
318.15	.738	
323.15	.738	
328.15	.738	
333.15	.738	

System: ethylbenzene + tributylmethylammonium bis((trifluoromethyl)sulfonyl)imide; phases: Liquid
Fixed: Temperature, K = 343.15
Fixed: Pressure, kPa = 100
Property: Mass density, kg/m3 (Liquid); method: Vibrating tube method
Mole fraction of ethylbenzene	Mass density, kg/m3	uncertainty
0	1224.15	
.105	1210.81	
.203	1197.48	
.295	1179.85	
.389	1160.38	
.461	1142.53	
.584	1105.8	
.701	1065.88	
.732	1053.69	

System: o-xylene + tributylmethylammonium bis((trifluoromethyl)sulfonyl)imide; phases: Liquid mixture 1, Liquid mixture 2
Fixed: Pressure, kPa = 100
Property: Mole fraction of o-xylene (Liquid mixture 1); method: Density calibration data
Temperature, K	Mole fraction of o-xylene	uncertainty
293.15	.738	
298.15	.738	
303.15	.738	
308.15	.737	
313.15	.737	
318.15	.738	
323.15	.736	
328.15	.735	
333.15	.734	

System: o-xylene + tributylmethylammonium bis((trifluoromethyl)sulfonyl)imide; phases: Liquid
Fixed: Temperature, K = 343.15
Fixed: Pressure, kPa = 100
Property: Mass density, kg/m3 (Liquid); method: Vibrating tube method
Mole fraction of o-xylene	Mass density, kg/m3	uncertainty
0	1224.15	
.152	1204.93	
.26	1188.05	
.365	1168.37	
.506	1134.17	
.623	1096.91	
.751	1046.57	

System: m-xylene + tributylmethylammonium bis((trifluoromethyl)sulfonyl)imide; phases: Liquid mixture 1, Liquid mixture 2
Fixed: Pressure, kPa = 100
Property: Mole fraction of m-xylene (Liquid mixture 1); method: Density calibration data
Temperature, K	Mole fraction of m-xylene	uncertainty
293.15	.697	
298.15	.698	
303.15	.699	
308.15	.698	
313.15	.698	
318.15	.699	
323.15	.698	
328.15	.699	
333.15	.699	

System: m-xylene + tributylmethylammonium bis((trifluoromethyl)sulfonyl)imide; phases: Liquid
Fixed: Temperature, K = 343.15
Fixed: Pressure, kPa = 100
Property: Mass density, kg/m3 (Liquid); method: Vibrating tube method
Mole fraction of m-xylene	Mass density, kg/m3	uncertainty
0	1224.18	
.148	1203.79	
.262	1185.69	
.363	1165.61	
.498	1130.77	
.605	1095.81	
.708	1059.94	

System: p-xylene + tributylmethylammonium bis((trifluoromethyl)sulfonyl)imide; phases: Liquid mixture 1, Liquid mixture 2
Fixed: Pressure, kPa = 100
Property: Mole fraction of p-xylene (Liquid mixture 1); method: Density calibration data
Temperature, K	Mole fraction of p-xylene	uncertainty
293.15	.623	
298.15	.624	
303.15	.624	
308.15	.624	
313.15	.625	
318.15	.625	
323.15	.625	
328.15	.625	
333.15	.625	

System: p-xylene + tributylmethylammonium bis((trifluoromethyl)sulfonyl)imide; phases: Liquid
Fixed: Temperature, K = 343.15
Fixed: Pressure, kPa = 100
Property: Mass density, kg/m3 (Liquid); method: Vibrating tube method
Mole fraction of p-xylene	Mass density, kg/m3	uncertainty
0	1224.15	
.106	1209.82	
.257	1187.07	
.37	1163.42	
.459	1143.06	
.552	1114.23	
.7	1057.46	
