Measured thermophysical data. Density, Viscosity, and Refractive Index of Ionic Liquid Mixtures Containing Cyano and Amino Acid-Based Anions
Source: J. Chem. Eng. Data, 2016, 10.1021/acs.jced.5b00242
Compound 1: 1-ethyl-3-methylimidazolium ammonioacetate, C8H15N3O2
Compound 2: 1-ethyl-3-methylimidazolium L-alaninate, C9H17N3O2
Compound 3: 1-ethyl-3-methylimidazolium taurinate, C8H17N3O3S
Compound 4: 3-ethyl-1-methyl-1H-imidazolium L-serinate, C9H17N3O3
Compound 5: 1-ethyl-3-methyl-1H-imidazolium L-prolinate, C11H19N3O2
Compound 6: 1-ethyl-3-methylimidazolium tricyanomethanide, C10H11N5, purity 98%

System: 1-ethyl-3-methylimidazolium ammonioacetate; phases: Liquid
Fixed: Pressure, kPa = 101.325
Property: Mass density, kg/m3 (Liquid); method: Vibrating tube method
Temperature, K	Mass density, kg/m3	uncertainty
293.15	1164.3	4.6572
298.15	1161.2	4.6448
303.15	1158.1	4.6324
308.15	1155	4.62
313.15	1152	4.608
318.15	1149	4.596
323.15	1146	4.584
328.15	1143	4.572
333.15	1139.9	4.5596
338.15	1136.9	4.5476
343.15	1133.8	4.5352
348.15	1130.7	4.5228
353.15	1127.4	4.5096

System: 1-ethyl-3-methylimidazolium ammonioacetate; phases: Liquid
Property: Viscosity, Pa*s (Liquid); method: Stabinger viscometer
Temperature, K	Pressure, kPa	Viscosity, Pa*s	uncertainty
293.15	101	.24018	.0024018
298.15	101	.17197	.0017197
303.15	101	.12619	.0012619
308.15	101	.09504	.0009504
313.15	101	.0735	.000735
318.15	101	.05766	.0005766
323.15	101	.04621	.0004621
328.15	101	.03766	.0003766
333.15	101	.03124	.0003124
338.15	101	.02608	.0002608
343.15	101	.02211	.0002211
348.15	101	.01895	.0001895
353.15	101	.01645	.0001645

System: 1-ethyl-3-methylimidazolium ammonioacetate; phases: Liquid
Property: Refractive index (Na D-line) (Liquid); method: Standard Abbe refractometry
Temperature, K	Pressure, kPa	Refractive index (Na D-line)	uncertainty
293.15	101	1.52134	.0001
298.15	101	1.51997	.0001
303.15	101	1.5186	.0001
308.15	101	1.51724	.0001
313.15	101	1.51585	.0001
318.15	101	1.5145	.0001
323.15	101	1.51313	.0001
328.15	101	1.51179	.0001
333.15	101	1.51041	.0001
338.15	101	1.50904	.0001
343.15	101	1.50769	.0001
348.15	101	1.50637	.0001
353.15	101	1.50495	.0001

System: 1-ethyl-3-methylimidazolium L-alaninate; phases: Liquid
Fixed: Pressure, kPa = 101.325
Property: Mass density, kg/m3 (Liquid); method: Vibrating tube method
Temperature, K	Mass density, kg/m3	uncertainty
293.15	1126.3	5.6315
298.15	1123	5.615
303.15	1119.8	5.599
308.15	1116.6	5.583
313.15	1113.5	5.5675
318.15	1110.5	5.5525
323.15	1107.5	5.5375
328.15	1104.4	5.522
333.15	1101.3	5.5065
338.15	1098.3	5.4915
343.15	1095.2	5.476
348.15	1092.1	5.4605
353.15	1088.9	5.4445

System: 1-ethyl-3-methylimidazolium L-alaninate; phases: Liquid
Property: Viscosity, Pa*s (Liquid); method: Stabinger Viscometer
Temperature, K	Pressure, kPa	Viscosity, Pa*s	uncertainty
293.15	101	.38206	.0038206
298.15	101	.26398	.0026398
303.15	101	.18779	.0018779
308.15	101	.13747	.0013747
313.15	101	.10354	.0010354
318.15	101	.07934	.0007934
323.15	101	.06221	.0006221
328.15	101	.04969	.0004969
333.15	101	.0405	.000405
338.15	101	.03322	.0003322
343.15	101	.02772	.0002772
348.15	101	.02338	.0002338
353.15	101	.02003	.0002003

System: 1-ethyl-3-methylimidazolium L-alaninate; phases: Liquid
Property: Refractive index (Na D-line) (Liquid); method: Standard Abbe refractometry
Temperature, K	Pressure, kPa	Refractive index (Na D-line)	uncertainty
293.15	101	1.51366	.0001
298.15	101	1.51223	.0001
303.15	101	1.51081	.0001
308.15	101	1.50937	.0001
313.15	101	1.50793	.0001
318.15	101	1.50651	.0001
323.15	101	1.50505	.0001
328.15	101	1.50358	.0001
333.15	101	1.50217	.0001
338.15	101	1.50074	.0001
343.15	101	1.49932	.0001
348.15	101	1.49795	.0001
353.15	101	1.49656	.0001

System: 1-ethyl-3-methylimidazolium taurinate; phases: Liquid
Fixed: Pressure, kPa = 101.325
Property: Mass density, kg/m3 (Liquid); method: Vibrating tube method
Temperature, K	Mass density, kg/m3	uncertainty
293.15	1255	6.275
298.15	1251.5	6.2575
303.15	1248.1	6.2405
308.15	1244.8	6.224
313.15	1241.6	6.208
318.15	1238.6	6.193
323.15	1235.5	6.1775
328.15	1232.4	6.162
333.15	1229.2	6.146
338.15	1226.1	6.1305
343.15	1223	6.115
348.15	1219.9	6.0995
353.15	1216.8	6.084

System: 1-ethyl-3-methylimidazolium taurinate; phases: Liquid
Property: Viscosity, Pa*s (Liquid); method: Stabinger Viscometer
Temperature, K	Pressure, kPa	Viscosity, Pa*s	uncertainty
293.15	101	.76089	.0076089
298.15	101	.51467	.0051467
303.15	101	.35936	.0035936
308.15	101	.25804	.0025804
313.15	101	.19044	.0019044
318.15	101	.14331	.0014331
323.15	101	.11035	.0011035
328.15	101	.08659	.0008659
333.15	101	.06936	.0006936
338.15	101	.05605	.0005605
343.15	101	.0461	.000461
348.15	101	.0384	.000384
353.15	101	.03253	.0003253

System: 1-ethyl-3-methylimidazolium taurinate; phases: Liquid
Property: Refractive index (Na D-line) (Liquid); method: Standard Abbe refractometry
Temperature, K	Pressure, kPa	Refractive index (Na D-line)	uncertainty
293.15	101	1.5135	.0008
298.15	101	1.51217	.0008
303.15	101	1.51084	.0008
308.15	101	1.5095	.0008
313.15	101	1.50816	.0008
318.15	101	1.5068	.0008
323.15	101	1.50543	.0008
328.15	101	1.50403	.0008
333.15	101	1.5027	.0008
338.15	101	1.50136	.0008
343.15	101	1.49997	.0008
348.15	101	1.4986	.0008
353.15	101	1.49726	.0008

System: 3-ethyl-1-methyl-1H-imidazolium L-serinate; phases: Liquid
Fixed: Pressure, kPa = 101.325
Property: Mass density, kg/m3 (Liquid); method: Vibrating tube method
Temperature, K	Mass density, kg/m3	uncertainty
293.15	1206.8	6.034
298.15	1203.7	6.0185
303.15	1200.5	6.0025
308.15	1197.3	5.9865
313.15	1194	5.97
318.15	1190.9	5.9545
323.15	1187.8	5.939
328.15	1184.7	5.9235
333.15	1181.7	5.9085
338.15	1178.7	5.8935
343.15	1175.7	5.8785
348.15	1172.8	5.864
353.15	1169.7	5.8485

System: 3-ethyl-1-methyl-1H-imidazolium L-serinate; phases: Liquid
Property: Viscosity, Pa*s (Liquid); method: Stabinger Viscometer
Temperature, K	Pressure, kPa	Viscosity, Pa*s	uncertainty
293.15	101	3.7968	.037968
298.15	101	2.23555	.0223555
303.15	101	1.37625	.0137625
308.15	101	.88282	.0088282
313.15	101	.58827	.0058827
318.15	101	.40512	.0040512
323.15	101	.2876	.002876
328.15	101	.20991	.0020991
333.15	101	.15729	.0015729
338.15	101	.11986	.0011986
343.15	101	.09336	.0009336
348.15	101	.07403	.0007403
353.15	101	.05991	.0005991

System: 3-ethyl-1-methyl-1H-imidazolium L-serinate; phases: Liquid
Property: Refractive index (Na D-line) (Liquid); method: Standard Abbe refractometry
Temperature, K	Pressure, kPa	Refractive index (Na D-line)	uncertainty
293.15	101	1.52699	.002
298.15	101	1.52565	.002
303.15	101	1.52429	.002
308.15	101	1.52294	.002
313.15	101	1.52159	.002
318.15	101	1.52022	.002
323.15	101	1.51887	.002
328.15	101	1.51755	.002
333.15	101	1.5162	.002
338.15	101	1.51486	.002
343.15	101	1.51353	.002
348.15	101	1.5122	.002
353.15	101	1.51084	.002

System: 1-ethyl-3-methyl-1H-imidazolium L-prolinate; phases: Liquid
Fixed: Pressure, kPa = 101.325
Property: Mass density, kg/m3 (Liquid); method: Vibrating tube method
Temperature, K	Mass density, kg/m3	uncertainty
293.15	1145.9	3.4377
298.15	1142.8	3.4284
303.15	1139.6	3.4188
308.15	1136.4	3.4092
313.15	1133.2	3.3996
318.15	1130.1	3.3903
323.15	1127.1	3.3813
328.15	1124	3.372
333.15	1121	3.363
338.15	1118	3.354
343.15	1115	3.345
348.15	1112	3.336
353.15	1109.1	3.3273

System: 1-ethyl-3-methyl-1H-imidazolium L-prolinate; phases: Liquid
Property: Viscosity, Pa*s (Liquid); method: Stabinger Viscometer
Temperature, K	Pressure, kPa	Viscosity, Pa*s	uncertainty
293.15	101	1.92843	.0192843
298.15	101	1.19463	.0119463
303.15	101	.77151	.0077151
308.15	101	.51761	.0051761
313.15	101	.35921	.0035921
318.15	101	.25692	.0025692
323.15	101	.18866	.0018866
328.15	101	.14176	.0014176
333.15	101	.10885	.0010885
338.15	101	.08512	.0008512
343.15	101	.06769	.0006769
348.15	101	.05473	.0005473
353.15	101	.04489	.0004489

System: 1-ethyl-3-methyl-1H-imidazolium L-prolinate; phases: Liquid
Property: Refractive index (Na D-line) (Liquid); method: Standard Abbe refractometry
Temperature, K	Pressure, kPa	Refractive index (Na D-line)	uncertainty
293.15	101	1.52291	.0001
298.15	101	1.52151	.0001
303.15	101	1.52009	.0001
308.15	101	1.5187	.0001
313.15	101	1.51731	.0001
318.15	101	1.51591	.0001
323.15	101	1.51454	.0001
328.15	101	1.51315	.0001
333.15	101	1.51177	.0001
338.15	101	1.51035	.0001
343.15	101	1.50897	.0001
348.15	101	1.50757	.0001
353.15	101	1.5062	.0001

System: 1-ethyl-3-methylimidazolium tricyanomethanide; phases: Liquid
Property: Mass density, kg/m3 (Liquid); method: Vibrating tube method
Temperature, K	Pressure, kPa	Mass density, kg/m3	uncertainty
293.15	101	1085	2.17
298.15	101	1081	2.162
303.15	101	1077	2.154
308.15	101	1074	2.148
313.15	101	1070	2.14
318.15	101	1067	2.134
323.15	101	1064	2.128
328.15	101	1060	2.12
333.15	101	1057	2.114
338.15	101	1054	2.108
343.15	101	1050	2.1
348.15	101	1047	2.094
353.15	101	1043	2.086

System: 1-ethyl-3-methylimidazolium tricyanomethanide; phases: Liquid
Property: Viscosity, Pa*s (Liquid); method: Stabinger viscometer
Temperature, K	Pressure, kPa	Viscosity, Pa*s	uncertainty
293.15	101	.01662	.0003324
298.15	101	.01419	.0002838
303.15	101	.01218	.0002436
308.15	101	.01058	.0002116
313.15	101	.00902	.0001804
318.15	101	.0082	.000164
323.15	101	.00731	.0001462
328.15	101	.00656	.0001312
333.15	101	.00572	.0001144
338.15	101	.00538	.0001076
343.15	101	.00491	.0000982
348.15	101	.0045	.00009
353.15	101	.00398	.0000796

System: 1-ethyl-3-methylimidazolium tricyanomethanide; phases: Liquid
Property: Refractive index (Na D-line) (Liquid); method: Standard Abbe refractometry
Temperature, K	Pressure, kPa	Refractive index (Na D-line)	uncertainty
293.15	101	1.51454	.0002
298.15	101	1.51286	.0002
303.15	101	1.51114	.0002
308.15	101	1.50938	.0002
313.15	101	1.50765	.0002
318.15	101	1.50595	.0002
323.15	101	1.50419	.0002
328.15	101	1.50255	.0002
333.15	101	1.50087	.0002
338.15	101	1.49921	.0002
343.15	101	1.49757	.0002
348.15	101	1.49593	.0002
353.15	101	1.49429	.0002

System: 1-ethyl-3-methylimidazolium tricyanomethanide + 1-ethyl-3-methylimidazolium ammonioacetate; phases: Liquid
Fixed: Pressure, kPa = 101
Property: Mass density, kg/m3 (Liquid); method: Vibrating tube method
Temperature, K	Mole fraction of 1-ethyl-3-methylimidazolium tricyanomethanide	Mass density, kg/m3	uncertainty
293.15	.5001	1118.4	6.7104
298.15	.5001	1115	6.69
303.15	.5001	1111.7	6.6702
308.15	.5001	1108.4	6.6504
313.15	.5001	1105.2	6.6312
318.15	.5001	1102.1	6.6126
323.15	.5001	1098.9	6.5934
328.15	.5001	1095.7	6.5742
333.15	.5001	1092.5	6.555
338.15	.5001	1089.3	6.5358
343.15	.5001	1086.1	6.5166
348.15	.5001	1082.9	6.4974
353.15	.5001	1079.7	6.4782
293.15	.2498	1140.2	6.8412
298.15	.2498	1136.9	6.8214
303.15	.2498	1133.7	6.8022
308.15	.2498	1130.5	6.783
313.15	.2498	1127.3	6.7638
318.15	.2498	1124.3	6.7458
323.15	.2498	1121.1	6.7266
328.15	.2498	1118	6.708
333.15	.2498	1114.8	6.6888
338.15	.2498	1111.7	6.6702
343.15	.2498	1108.6	6.6516
348.15	.2498	1105.5	6.633
353.15	.2498	1102.4	6.6144
293.15	.7501	1101.2	6.6072
298.15	.7501	1097.8	6.5868
303.15	.7501	1094.4	6.5664
308.15	.7501	1091	6.546
313.15	.7501	1087.7	6.5262
318.15	.7501	1084.4	6.5064
323.15	.7501	1081	6.486
328.15	.7501	1077.7	6.4662
333.15	.7501	1074.5	6.447
338.15	.7501	1071.2	6.4272
343.15	.7501	1068	6.408
348.15	.7501	1064.7	6.3882
353.15	.7501	1061.5	6.369
293.15	1	1084.6	6.5076
298.15	1	1081	6.486
303.15	1	1077.5	6.465
308.15	1	1073.9	6.4434
313.15	1	1070.4	6.4224
318.15	1	1067.1	6.4026
323.15	1	1063.7	6.3822
328.15	1	1060.3	6.3618
333.15	1	1056.9	6.3414
338.15	1	1053.6	6.3216
343.15	1	1050.2	6.3012
348.15	1	1046.8	6.2808
353.15	1	1043.4	6.2604
293.15	0	1164.3	6.9858
298.15	0	1161.2	6.9672
303.15	0	1158.1	6.9486
308.15	0	1155	6.93
313.15	0	1152	6.912
318.15	0	1149	6.894
323.15	0	1146	6.876
328.15	0	1143	6.858
333.15	0	1139.9	6.8394
338.15	0	1136.9	6.8214
343.15	0	1133.8	6.8028
348.15	0	1130.7	6.7842
353.15	0	1127.4	6.7644

System: 1-ethyl-3-methylimidazolium tricyanomethanide + 1-ethyl-3-methylimidazolium ammonioacetate; phases: Liquid
Fixed: Pressure, kPa = 101
Property: Viscosity, Pa*s (Liquid); method: Stabinger viscometer
Temperature, K	Mole fraction of 1-ethyl-3-methylimidazolium tricyanomethanide	Viscosity, Pa*s	uncertainty
293.15	0	.24018	.001
298.15	0	.17197	.001
303.15	0	.12619	.001
308.15	0	.09504	.001
313.15	0	.0735	.001
318.15	0	.05766	.001
323.15	0	.04621	.001
328.15	0	.03766	.001
333.15	0	.03124	.001
338.15	0	.02608	.001
343.15	0	.02211	.001
348.15	0	.01895	.001
353.15	0	.01645	.001
293.15	.5001	.053975	.005
298.15	.5001	.042139	.005
303.15	.5001	.03355	.005
308.15	.5001	.027193	.005
313.15	.5001	.022254	.005
318.15	.5001	.018687	.005
323.15	.5001	.015895	.005
328.15	.5001	.013839	.005
333.15	.5001	.011884	.005
338.15	.5001	.010468	.005
343.15	.5001	.009233	.005
348.15	.5001	.008191	.005
353.15	.5001	.007189	.005
293.15	.2498	.09403	.002
298.15	.2498	.07085	.002
303.15	.2498	.0547	.002
308.15	.2498	.04319	.002
313.15	.2498	.03481	.002
318.15	.2498	.02843	.002
323.15	.2498	.02359	.002
328.15	.2498	.01987	.002
333.15	.2498	.01692	.002
338.15	.2498	.01458	.002
343.15	.2498	.01267	.002
348.15	.2498	.0111	.002
353.15	.2498	.00977	.002
293.15	.7501	.02905	.001
298.15	.7501	.02345	.001
303.15	.7501	.01943	.001
308.15	.7501	.01635	.001
313.15	.7501	.0139	.001
318.15	.7501	.01202	.001
323.15	.7501	.01047	.001
328.15	.7501	.00921	.001
333.15	.7501	.00812	.001
338.15	.7501	.00729	.001
343.15	.7501	.00655	.001
348.15	.7501	.00592	.001
353.15	.7501	.00535	.001
293.15	1	.01662	.002
298.15	1	.01419	.002
303.15	1	.01218	.002
308.15	1	.01058	.002
313.15	1	.00902	.002
318.15	1	.0082	.002
323.15	1	.00731	.002
328.15	1	.00656	.002
333.15	1	.00572	.002
338.15	1	.00538	.002
343.15	1	.00491	.002
348.15	1	.0045	.002
353.15	1	.00398	.002

System: 1-ethyl-3-methylimidazolium tricyanomethanide + 1-ethyl-3-methylimidazolium ammonioacetate; phases: Liquid
Fixed: Pressure, kPa = 101
Property: Refractive index (Na D-line) (Liquid); method: Standard Abbe refractometry
Temperature, K	Mole fraction of 1-ethyl-3-methylimidazolium tricyanomethanide	Refractive index (Na D-line)	uncertainty
293.15	0	1.52134	.0001
298.15	0	1.51997	.0001
303.15	0	1.5186	.0001
308.15	0	1.51724	.0001
313.15	0	1.51585	.0001
318.15	0	1.5145	.0001
323.15	0	1.51313	.0001
328.15	0	1.51179	.0001
333.15	0	1.51041	.0001
338.15	0	1.50904	.0001
343.15	0	1.50769	.0001
348.15	0	1.50637	.0001
353.15	0	1.50495	.0001
293.15	.5001	1.51815	.0003
298.15	.5001	1.51656	.0003
303.15	.5001	1.51505	.0003
308.15	.5001	1.51355	.0003
313.15	.5001	1.51205	.0003
318.15	.5001	1.51057	.0003
323.15	.5001	1.50908	.0003
328.15	.5001	1.5076	.0003
333.15	.5001	1.50613	.0003
338.15	.5001	1.50462	.0003
343.15	.5001	1.50315	.0003
348.15	.5001	1.5017	.0003
353.15	.5001	1.50021	.0003
293.15	.2498	1.52032	.0003
298.15	.2498	1.51892	.0003
303.15	.2498	1.51743	.0003
308.15	.2498	1.51596	.0003
313.15	.2498	1.51457	.0003
318.15	.2498	1.51315	.0003
323.15	.2498	1.51173	.0003
328.15	.2498	1.51031	.0003
333.15	.2498	1.5089	.0003
338.15	.2498	1.50751	.0003
343.15	.2498	1.50614	.0003
348.15	.2498	1.50472	.0003
353.15	.2498	1.50334	.0003
293.15	.7501	1.51562	.0003
298.15	.7501	1.51399	.0003
303.15	.7501	1.51238	.0003
308.15	.7501	1.5108	.0003
313.15	.7501	1.50922	.0003
318.15	.7501	1.50764	.0003
323.15	.7501	1.50609	.0003
328.15	.7501	1.50449	.0003
333.15	.7501	1.50295	.0003
338.15	.7501	1.50143	.0003
343.15	.7501	1.49987	.0003
348.15	.7501	1.49834	.0003
353.15	.7501	1.49682	.0003
293.15	1	1.51454	.0002
298.15	1	1.51286	.0002
303.15	1	1.51114	.0002
308.15	1	1.50938	.0002
313.15	1	1.50765	.0002
318.15	1	1.50595	.0002
323.15	1	1.50419	.0002
328.15	1	1.50255	.0002
333.15	1	1.50087	.0002
338.15	1	1.49921	.0002
343.15	1	1.49757	.0002
348.15	1	1.49593	.0002
353.15	1	1.49429	.0002

System: 1-ethyl-3-methylimidazolium tricyanomethanide + 1-ethyl-3-methylimidazolium L-alaninate; phases: Liquid
Fixed: Pressure, kPa = 101
Property: Mass density, kg/m3 (Liquid); method: Vibrating tube method
Temperature, K	Mole fraction of 1-ethyl-3-methylimidazolium tricyanomethanide	Mass density, kg/m3	uncertainty
293.15	.5	1102.2	7.7154
298.15	.5	1098.9	7.6923
303.15	.5	1095.6	7.6692
308.15	.5	1092.3	7.6461
313.15	.5	1089.1	7.6237
318.15	.5	1085.9	7.6013
323.15	.5	1082.7	7.5789
328.15	.5	1079.5	7.5565
333.15	.5	1076.3	7.5341
338.15	.5	1073.1	7.5117
343.15	.5	1069.9	7.4893
348.15	.5	1066.6	7.4662
353.15	.5	1063.1	7.4417
293.15	.2506	1113.7	7.7959
298.15	.2506	1110.4	7.7728
303.15	.2506	1107.1	7.7497
308.15	.2506	1104	7.728
313.15	.2506	1100.8	7.7056
318.15	.2506	1097.8	7.6846
323.15	.2506	1094.6	7.6622
328.15	.2506	1091.5	7.6405
333.15	.2506	1088.4	7.6188
338.15	.2506	1085.3	7.5971
343.15	.2506	1082.2	7.5754
348.15	.2506	1079.1	7.5537
353.15	.2506	1075.9	7.5313
293.15	.7499	1092.9	7.6503
298.15	.7499	1089.3	7.6251
303.15	.7499	1085.9	7.6013
308.15	.7499	1082.6	7.5782
313.15	.7499	1079.2	7.5544
318.15	.7499	1075.9	7.5313
323.15	.7499	1072.7	7.5089
328.15	.7499	1069.4	7.4858
333.15	.7499	1066.1	7.4627
338.15	.7499	1062.9	7.4403
343.15	.7499	1059.6	7.4172
348.15	.7499	1056.3	7.3941
353.15	.7499	1052.9	7.3703
293.15	1	1084.6	7.5922
298.15	1	1081	7.567
303.15	1	1077.5	7.5425
308.15	1	1073.9	7.5173
313.15	1	1070.4	7.4928
318.15	1	1067.1	7.4697
323.15	1	1063.7	7.4459
328.15	1	1060.3	7.4221
333.15	1	1056.9	7.3983
338.15	1	1053.6	7.3752
343.15	1	1050.2	7.3514
348.15	1	1046.8	7.3276
353.15	1	1043.4	7.3038
293.15	0	1126.3	7.8841
298.15	0	1123	7.861
303.15	0	1119.8	7.8386
308.15	0	1116.6	7.8162
313.15	0	1113.5	7.7945
318.15	0	1110.5	7.7735
323.15	0	1107.5	7.7525
328.15	0	1104.4	7.7308
333.15	0	1101.3	7.7091
338.15	0	1098.3	7.6881
343.15	0	1095.2	7.6664
348.15	0	1092.1	7.6447
353.15	0	1088.9	7.6223

System: 1-ethyl-3-methylimidazolium tricyanomethanide + 1-ethyl-3-methylimidazolium L-alaninate; phases: Liquid
Fixed: Pressure, kPa = 101
Property: Viscosity, Pa*s (Liquid); method: Stabinger Viscometer
Temperature, K	Mole fraction of 1-ethyl-3-methylimidazolium tricyanomethanide	Viscosity, Pa*s	uncertainty
293.15	0	.38206	.001
298.15	0	.26398	.001
303.15	0	.18779	.001
308.15	0	.13747	.001
313.15	0	.10354	.001
318.15	0	.07934	.001
323.15	0	.06221	.001
328.15	0	.04969	.001
333.15	0	.0405	.001
338.15	0	.03322	.001
343.15	0	.02772	.001
348.15	0	.02338	.001
353.15	0	.02003	.001
293.15	.5	.0786	.001
298.15	.5	.06026	.001
303.15	.5	.04689	.001
308.15	.5	.03729	.001
313.15	.5	.03022	.001
318.15	.5	.0249	.001
323.15	.5	.02083	.001
328.15	.5	.01764	.001
333.15	.5	.01508	.001
338.15	.5	.01309	.001
343.15	.5	.01145	.001
348.15	.5	.0101	.001
353.15	.5	.00893	.001
293.15	.2506	.14657	.002
298.15	.2506	.1072	.002
303.15	.2506	.08047	.002
308.15	.2506	.06183	.002
313.15	.2506	.04916	.002
318.15	.2506	.03896	.002
323.15	.2506	.03175	.002
328.15	.2506	.02627	.002
333.15	.2506	.02229	.002
338.15	.2506	.0187	.002
343.15	.2506	.01604	.002
348.15	.2506	.01389	.002
353.15	.2506	.01228	.002
293.15	.7499	.03155	.003
298.15	.7499	.02568	.003
303.15	.7499	.02118	.003
308.15	.7499	.01774	.003
313.15	.7499	.01483	.003
318.15	.7499	.01294	.003
323.15	.7499	.01123	.003
328.15	.7499	.00984	.003
333.15	.7499	.00851	.003
338.15	.7499	.00774	.003
343.15	.7499	.00693	.003
348.15	.7499	.00626	.003
353.15	.7499	.00545	.003
293.15	1	.01662	.002
298.15	1	.01419	.002
303.15	1	.01218	.002
308.15	1	.01058	.002
313.15	1	.00902	.002
318.15	1	.0082	.002
323.15	1	.00731	.002
328.15	1	.00656	.002
333.15	1	.00572	.002
338.15	1	.00538	.002
343.15	1	.00491	.002
348.15	1	.0045	.002
353.15	1	.00398	.002

System: 1-ethyl-3-methylimidazolium tricyanomethanide + 1-ethyl-3-methylimidazolium L-alaninate; phases: Liquid
Fixed: Pressure, kPa = 101
Property: Refractive index (Na D-line) (Liquid); method: Standard Abbe refractometry
Temperature, K	Mole fraction of 1-ethyl-3-methylimidazolium tricyanomethanide	Refractive index (Na D-line)	uncertainty
293.15	0	1.51366	.0001
298.15	0	1.51223	.0001
303.15	0	1.51081	.0001
308.15	0	1.50937	.0001
313.15	0	1.50793	.0001
318.15	0	1.50651	.0001
323.15	0	1.50505	.0001
328.15	0	1.50358	.0001
333.15	0	1.50217	.0001
338.15	0	1.50074	.0001
343.15	0	1.49932	.0001
348.15	0	1.49795	.0001
353.15	0	1.49656	.0001
293.15	.5	1.51409	.0001
298.15	.5	1.51258	.0001
303.15	.5	1.51107	.0001
308.15	.5	1.5095	.0001
313.15	.5	1.50796	.0001
318.15	.5	1.50643	.0001
323.15	.5	1.50488	.0001
328.15	.5	1.50338	.0001
333.15	.5	1.50191	.0001
338.15	.5	1.50039	.0001
343.15	.5	1.49888	.0001
348.15	.5	1.49739	.0001
353.15	.5	1.49589	.0001
293.15	.2506	1.51476	.0006
298.15	.2506	1.5133	.0006
303.15	.2506	1.51184	.0006
308.15	.2506	1.51038	.0006
313.15	.2506	1.50888	.0006
318.15	.2506	1.50736	.0006
323.15	.2506	1.5059	.0006
328.15	.2506	1.50436	.0006
333.15	.2506	1.50293	.0006
338.15	.2506	1.50148	.0006
343.15	.2506	1.49997	.0006
348.15	.2506	1.49851	.0006
353.15	.2506	1.49704	.0006
293.15	.7499	1.51367	.0003
298.15	.7499	1.5121	.0003
303.15	.7499	1.51053	.0003
308.15	.7499	1.50893	.0003
313.15	.7499	1.50731	.0003
318.15	.7499	1.50568	.0003
323.15	.7499	1.50401	.0003
328.15	.7499	1.50244	.0003
333.15	.7499	1.50085	.0003
338.15	.7499	1.49926	.0003
343.15	.7499	1.49771	.0003
348.15	.7499	1.49613	.0003
353.15	.7499	1.49456	.0003
293.15	1	1.51454	.0002
298.15	1	1.51286	.0002
303.15	1	1.51114	.0002
308.15	1	1.50938	.0002
313.15	1	1.50765	.0002
318.15	1	1.50595	.0002
323.15	1	1.50419	.0002
328.15	1	1.50255	.0002
333.15	1	1.50087	.0002
338.15	1	1.49921	.0002
343.15	1	1.49757	.0002
348.15	1	1.49593	.0002
353.15	1	1.49429	.0002

System: 1-ethyl-3-methylimidazolium tricyanomethanide + 1-ethyl-3-methylimidazolium taurinate; phases: Liquid
Fixed: Pressure, kPa = 101
Property: Mass density, kg/m3 (Liquid); method: Vibrating tube method
Temperature, K	Mole fraction of 1-ethyl-3-methylimidazolium tricyanomethanide	Mass density, kg/m3	uncertainty
293.15	.5001	1164.8	8.1536
298.15	.5001	1161.4	8.1298
303.15	.5001	1158	8.106
308.15	.5001	1154.7	8.0829
313.15	.5001	1151.4	8.0598
318.15	.5001	1148.2	8.0374
323.15	.5001	1145	8.015
328.15	.5001	1141.7	7.9919
333.15	.5001	1138.4	7.9688
338.15	.5001	1135.2	7.9464
343.15	.5001	1132	7.924
348.15	.5001	1128.8	7.9016
353.15	.5001	1125.6	7.8792
293.15	.2503	1207.7	8.4539
298.15	.2503	1204.4	8.4308
303.15	.2503	1201.1	8.4077
308.15	.2503	1197.9	8.3853
313.15	.2503	1194.7	8.3629
318.15	.2503	1191.7	8.3419
323.15	.2503	1188.5	8.3195
328.15	.2503	1185.3	8.2971
333.15	.2503	1182.1	8.2747
338.15	.2503	1179	8.253
343.15	.2503	1175.9	8.2313
348.15	.2503	1172.7	8.2089
353.15	.2503	1169.4	8.1858
293.15	.7496	1124.1	7.8687
298.15	.7496	1120.6	7.8442
303.15	.7496	1117.2	7.8204
308.15	.7496	1113.8	7.7966
313.15	.7496	1110.4	7.7728
318.15	.7496	1107.2	7.7504
323.15	.7496	1103.8	7.7266
328.15	.7496	1100.5	7.7035
333.15	.7496	1097.2	7.6804
338.15	.7496	1093.9	7.6573
343.15	.7496	1090.6	7.6342
348.15	.7496	1087.3	7.6111
353.15	.7496	1083.9	7.5873
293.15	1	1084.6	7.5922
298.15	1	1081	7.567
303.15	1	1077.5	7.5425
308.15	1	1073.9	7.5173
313.15	1	1070.4	7.4928
318.15	1	1067.1	7.4697
323.15	1	1063.7	7.4459
328.15	1	1060.3	7.4221
333.15	1	1056.9	7.3983
338.15	1	1053.6	7.3752
343.15	1	1050.2	7.3514
348.15	1	1046.8	7.3276
353.15	1	1043.4	7.3038
293.15	0	1255	8.785
298.15	0	1251.5	8.7605
303.15	0	1248.1	8.7367
308.15	0	1244.8	8.7136
313.15	0	1241.6	8.6912
318.15	0	1238.6	8.6702
323.15	0	1235.5	8.6485
328.15	0	1232.4	8.6268
333.15	0	1229.2	8.6044
338.15	0	1226.1	8.5827
343.15	0	1223	8.561
348.15	0	1219.9	8.5393
353.15	0	1216.8	8.5176

System: 1-ethyl-3-methylimidazolium tricyanomethanide + 1-ethyl-3-methylimidazolium taurinate; phases: Liquid
Fixed: Pressure, kPa = 101
Property: Viscosity, Pa*s (Liquid); method: Stabinger Viscometer
Temperature, K	Mole fraction of 1-ethyl-3-methylimidazolium tricyanomethanide	Viscosity, Pa*s	uncertainty
293.15	0	.76089	.001
298.15	0	.51467	.001
303.15	0	.35936	.001
308.15	0	.25804	.001
313.15	0	.19044	.001
318.15	0	.14331	.001
323.15	0	.11035	.001
328.15	0	.08659	.001
333.15	0	.06936	.001
338.15	0	.05605	.001
343.15	0	.0461	.001
348.15	0	.0384	.001
353.15	0	.03253	.001
293.15	.5001	.0845	.003
298.15	.5001	.06477	.003
303.15	.5001	.05077	.003
308.15	.5001	.04059	.003
313.15	.5001	.03304	.003
318.15	.5001	.02727	.003
323.15	.5001	.02283	.003
328.15	.5001	.01937	.003
333.15	.5001	.0166	.003
338.15	.5001	.0144	.003
343.15	.5001	.01259	.003
348.15	.5001	.0111	.003
353.15	.5001	.00983	.003
293.15	.2503	.25033	.002
298.15	.2503	.18068	.002
303.15	.2503	.1336	.002
308.15	.2503	.10133	.002
313.15	.2503	.07859	.002
318.15	.2503	.06169	.002
323.15	.2503	.04965	.002
328.15	.2503	.04056	.002
333.15	.2503	.03369	.002
338.15	.2503	.02815	.002
343.15	.2503	.02386	.002
348.15	.2503	.02046	.002
353.15	.2503	.01779	.002
293.15	.7496	.03542	.001
298.15	.7496	.02877	.001
303.15	.7496	.02371	.001
308.15	.7496	.01984	.001
313.15	.7496	.01661	.001
318.15	.7496	.01444	.001
323.15	.7496	.01251	.001
328.15	.7496	.01094	.001
333.15	.7496	.00952	.001
338.15	.7496	.00862	.001
343.15	.7496	.00772	.001
348.15	.7496	.00696	.001
353.15	.7496	.00619	.001
293.15	1	.01662	.002
298.15	1	.01419	.002
303.15	1	.01218	.002
308.15	1	.01058	.002
313.15	1	.00902	.002
318.15	1	.0082	.002
323.15	1	.00731	.002
328.15	1	.00656	.002
333.15	1	.00572	.002
338.15	1	.00538	.002
343.15	1	.00491	.002
348.15	1	.0045	.002
353.15	1	.00398	.002

System: 1-ethyl-3-methylimidazolium tricyanomethanide + 1-ethyl-3-methylimidazolium taurinate; phases: Liquid
Fixed: Pressure, kPa = 101
Property: Refractive index (Na D-line) (Liquid); method: Standard Abbe refractometry
Temperature, K	Mole fraction of 1-ethyl-3-methylimidazolium tricyanomethanide	Refractive index (Na D-line)	uncertainty
293.15	0	1.5135	.0008
298.15	0	1.51217	.0008
303.15	0	1.51084	.0008
308.15	0	1.5095	.0008
313.15	0	1.50816	.0008
318.15	0	1.5068	.0008
323.15	0	1.50543	.0008
328.15	0	1.50403	.0008
333.15	0	1.5027	.0008
338.15	0	1.50136	.0008
343.15	0	1.49997	.0008
348.15	0	1.4986	.0008
353.15	0	1.49726	.0008
293.15	.5001	1.51322	.0007
298.15	.5001	1.51166	.0007
303.15	.5001	1.5102	.0007
308.15	.5001	1.50871	.0007
313.15	.5001	1.50723	.0007
318.15	.5001	1.50574	.0007
323.15	.5001	1.50428	.0007
328.15	.5001	1.50286	.0007
333.15	.5001	1.50142	.0007
338.15	.5001	1.49996	.0007
343.15	.5001	1.49854	.0007
348.15	.5001	1.49709	.0007
353.15	.5001	1.49563	.0007
293.15	.2503	1.51268	.0002
298.15	.2503	1.51131	.0002
303.15	.2503	1.50995	.0002
308.15	.2503	1.50858	.0002
313.15	.2503	1.50716	.0002
318.15	.2503	1.50578	.0002
323.15	.2503	1.50436	.0002
328.15	.2503	1.50296	.0002
333.15	.2503	1.50159	.0002
338.15	.2503	1.50019	.0002
343.15	.2503	1.49878	.0002
348.15	.2503	1.49742	.0002
353.15	.2503	1.49603	.0002
293.15	.7496	1.51365	.0006
298.15	.7496	1.5121	.0006
303.15	.7496	1.51054	.0006
308.15	.7496	1.50894	.0006
313.15	.7496	1.50736	.0006
318.15	.7496	1.50576	.0006
323.15	.7496	1.5042	.0006
328.15	.7496	1.50267	.0006
333.15	.7496	1.50113	.0006
338.15	.7496	1.49959	.0006
343.15	.7496	1.4981	.0006
348.15	.7496	1.49657	.0006
353.15	.7496	1.49505	.0006
293.15	1	1.51454	.0002
298.15	1	1.51286	.0002
303.15	1	1.51114	.0002
308.15	1	1.50938	.0002
313.15	1	1.50765	.0002
318.15	1	1.50595	.0002
323.15	1	1.50419	.0002
328.15	1	1.50255	.0002
333.15	1	1.50087	.0002
338.15	1	1.49921	.0002
343.15	1	1.49757	.0002
348.15	1	1.49593	.0002
353.15	1	1.49429	.0002

System: 1-ethyl-3-methylimidazolium tricyanomethanide + 3-ethyl-1-methyl-1H-imidazolium L-serinate; phases: Liquid
Fixed: Pressure, kPa = 101
Property: Mass density, kg/m3 (Liquid); method: Vibrating tube method
Temperature, K	Mole fraction of 1-ethyl-3-methylimidazolium tricyanomethanide	Mass density, kg/m3	uncertainty
293.15	.5005	1141.8	7.9926
298.15	.5005	1138.4	7.9688
303.15	.5005	1135	7.945
308.15	.5005	1131.7	7.9219
313.15	.5005	1128.4	7.8988
318.15	.5005	1125.1	7.8757
323.15	.5005	1121.8	7.8526
328.15	.5005	1118.5	7.8295
333.15	.5005	1115.1	7.8057
338.15	.5005	1111.9	7.7833
343.15	.5005	1108.6	7.7602
348.15	.5005	1105.2	7.7364
353.15	.5005	1101.8	7.7126
293.15	.2502	1177.2	8.2404
298.15	.2502	1173.6	8.2152
303.15	.2502	1170.1	8.1907
308.15	.2502	1166.8	8.1676
313.15	.2502	1163.5	8.1445
318.15	.2502	1160.5	8.1235
323.15	.2502	1157.3	8.1011
328.15	.2502	1154	8.078
333.15	.2502	1150.8	8.0556
338.15	.2502	1147.6	8.0332
343.15	.2502	1144.4	8.0108
348.15	.2502	1141.2	7.9884
353.15	.2502	1138	7.966
293.15	.7497	1112.9	7.7903
298.15	.7497	1109.3	7.7651
303.15	.7497	1105.8	7.7406
308.15	.7497	1102.3	7.7161
313.15	.7497	1098.9	7.6923
318.15	.7497	1095.6	7.6692
323.15	.7497	1092.2	7.6454
328.15	.7497	1088.9	7.6223
333.15	.7497	1085.6	7.5992
338.15	.7497	1082.2	7.5754
343.15	.7497	1078.9	7.5523
348.15	.7497	1075.7	7.5299
353.15	.7497	1072.3	7.5061
293.15	1	1084.6	7.5922
298.15	1	1081	7.567
303.15	1	1077.5	7.5425
308.15	1	1073.9	7.5173
313.15	1	1070.4	7.4928
318.15	1	1067.1	7.4697
323.15	1	1063.7	7.4459
328.15	1	1060.3	7.4221
333.15	1	1056.9	7.3983
338.15	1	1053.6	7.3752
343.15	1	1050.2	7.3514
348.15	1	1046.8	7.3276
353.15	1	1043.4	7.3038
293.15	0	1206.8	8.4476
298.15	0	1203.7	8.4259
303.15	0	1200.5	8.4035
308.15	0	1197.3	8.3811
313.15	0	1194	8.358
318.15	0	1190.9	8.3363
323.15	0	1187.8	8.3146
328.15	0	1184.7	8.2929
333.15	0	1181.7	8.2719
338.15	0	1178.7	8.2509
343.15	0	1175.7	8.2299
348.15	0	1172.8	8.2096
353.15	0	1169.7	8.1879

System: 1-ethyl-3-methylimidazolium tricyanomethanide + 3-ethyl-1-methyl-1H-imidazolium L-serinate; phases: Liquid
Fixed: Pressure, kPa = 101
Property: Viscosity, Pa*s (Liquid); method: Stabinger Viscometer
Temperature, K	Mole fraction of 1-ethyl-3-methylimidazolium tricyanomethanide	Viscosity, Pa*s	uncertainty
293.15	0	3.7968	.001
298.15	0	2.23555	.001
303.15	0	1.37625	.001
308.15	0	.88282	.001
313.15	0	.58827	.001
318.15	0	.40512	.001
323.15	0	.2876	.001
328.15	0	.20991	.001
333.15	0	.15729	.001
338.15	0	.11986	.001
343.15	0	.09336	.001
348.15	0	.07403	.001
353.15	0	.05991	.001
293.15	.5005	.16852	.002
298.15	.5005	.12068	.002
303.15	.5005	.08895	.002
308.15	.5005	.06728	.002
313.15	.5005	.05228	.002
318.15	.5005	.04125	.002
323.15	.5005	.03328	.002
328.15	.5005	.02729	.002
333.15	.5005	.02278	.002
338.15	.5005	.01918	.002
343.15	.5005	.01637	.002
348.15	.5005	.01412	.002
353.15	.5005	.01231	.002
293.15	.2502	.58684	.005
298.15	.2502	.38417	.005
303.15	.2502	.26107	.005
308.15	.2502	.18369	.005
313.15	.2502	.13341	.005
318.15	.2502	.09894	.005
323.15	.2502	.07539	.005
328.15	.2502	.05875	.005
333.15	.2502	.0469	.005
338.15	.2502	.03779	.005
343.15	.2502	.03101	.005
348.15	.2502	.02575	.005
353.15	.2502	.02114	.005
293.15	.7497	.04201	.001
298.15	.7497	.03337	.001
303.15	.7497	.02698	.001
308.15	.7497	.0222	.001
313.15	.7497	.01836	.001
318.15	.7497	.01572	.001
323.15	.7497	.01348	.001
328.15	.7497	.01168	.001
333.15	.7497	.01007	.001
338.15	.7497	.00903	.001
343.15	.7497	.00803	.001
348.15	.7497	.00719	.001
353.15	.7497	.00636	.001
293.15	1	.01662	.002
298.15	1	.01419	.002
303.15	1	.01218	.002
308.15	1	.01058	.002
313.15	1	.00902	.002
318.15	1	.0082	.002
323.15	1	.00731	.002
328.15	1	.00656	.002
333.15	1	.00572	.002
338.15	1	.00538	.002
343.15	1	.00491	.002
348.15	1	.0045	.002
353.15	1	.00398	.002

System: 1-ethyl-3-methylimidazolium tricyanomethanide + 3-ethyl-1-methyl-1H-imidazolium L-serinate; phases: Liquid
Fixed: Pressure, kPa = 101
Property: Refractive index (Na D-line) (Liquid); method: Standard Abbe refractometry
Temperature, K	Mole fraction of 1-ethyl-3-methylimidazolium tricyanomethanide	Refractive index (Na D-line)	uncertainty
293.15	0	1.52699	.002
298.15	0	1.52565	.002
303.15	0	1.52429	.002
308.15	0	1.52294	.002
313.15	0	1.52159	.002
318.15	0	1.52022	.002
323.15	0	1.51887	.002
328.15	0	1.51755	.002
333.15	0	1.5162	.002
338.15	0	1.51486	.002
343.15	0	1.51353	.002
348.15	0	1.5122	.002
353.15	0	1.51084	.002
293.15	.5005	1.51865	.0001
298.15	.5005	1.51718	.0001
303.15	.5005	1.51563	.0001
308.15	.5005	1.51409	.0001
313.15	.5005	1.51254	.0001
318.15	.5005	1.51099	.0001
323.15	.5005	1.50943	.0001
328.15	.5005	1.50784	.0001
333.15	.5005	1.50632	.0001
338.15	.5005	1.50475	.0001
343.15	.5005	1.50324	.0001
348.15	.5005	1.50173	.0001
353.15	.5005	1.50018	.0001
293.15	.2502	1.52075	.0003
298.15	.2502	1.51929	.0003
303.15	.2502	1.51784	.0003
308.15	.2502	1.51636	.0003
313.15	.2502	1.51489	.0003
318.15	.2502	1.51343	.0003
323.15	.2502	1.51199	.0003
328.15	.2502	1.51051	.0003
333.15	.2502	1.50902	.0003
338.15	.2502	1.50755	.0003
343.15	.2502	1.50611	.0003
348.15	.2502	1.50459	.0003
353.15	.2502	1.50318	.0003
293.15	.7497	1.51552	.0004
298.15	.7497	1.5139	.0004
303.15	.7497	1.51228	.0004
308.15	.7497	1.51064	.0004
313.15	.7497	1.50899	.0004
318.15	.7497	1.50736	.0004
323.15	.7497	1.50574	.0004
328.15	.7497	1.50408	.0004
333.15	.7497	1.50253	.0004
338.15	.7497	1.50093	.0004
343.15	.7497	1.49932	.0004
348.15	.7497	1.49774	.0004
353.15	.7497	1.49615	.0004
293.15	1	1.51454	.0002
298.15	1	1.51286	.0002
303.15	1	1.51114	.0002
308.15	1	1.50938	.0002
313.15	1	1.50765	.0002
318.15	1	1.50595	.0002
323.15	1	1.50419	.0002
328.15	1	1.50255	.0002
333.15	1	1.50087	.0002
338.15	1	1.49921	.0002
343.15	1	1.49757	.0002
348.15	1	1.49593	.0002
353.15	1	1.49429	.0002

System: 1-ethyl-3-methylimidazolium tricyanomethanide + 1-ethyl-3-methyl-1H-imidazolium L-prolinate; phases: Liquid
Fixed: Pressure, kPa = 101
Property: Mass density, kg/m3 (Liquid); method: Vibrating tube method
Temperature, K	Mole fraction of 1-ethyl-3-methylimidazolium tricyanomethanide	Mass density, kg/m3	uncertainty
293.15	0	1145.9	5.7295
298.15	0	1142.8	5.714
303.15	0	1139.6	5.698
308.15	0	1136.4	5.682
313.15	0	1133.2	5.666
318.15	0	1130.1	5.6505
323.15	0	1127.1	5.6355
328.15	0	1124	5.62
333.15	0	1121	5.605
338.15	0	1118	5.59
343.15	0	1115	5.575
348.15	0	1112	5.56
353.15	0	1109.1	5.5455
293.15	.2501	1131.7	5.6585
298.15	.2501	1128.4	5.642
303.15	.2501	1125.1	5.6255
308.15	.2501	1121.8	5.609
313.15	.2501	1118.7	5.5935
318.15	.2501	1115.5	5.5775
323.15	.2501	1112.4	5.562
328.15	.2501	1109.3	5.5465
333.15	.2501	1106.2	5.531
338.15	.2501	1103.1	5.5155
343.15	.2501	1100	5.5
348.15	.2501	1096.9	5.4845
353.15	.2501	1093.8	5.469
293.15	.5002	1116.4	5.582
298.15	.5002	1113.1	5.5655
303.15	.5002	1109.8	5.549
308.15	.5002	1106.6	5.533
313.15	.5002	1103.3	5.5165
318.15	.5002	1100.1	5.5005
323.15	.5002	1096.8	5.484
328.15	.5002	1093.6	5.468
333.15	.5002	1090.4	5.452
338.15	.5002	1087.2	5.436
343.15	.5002	1084	5.42
348.15	.5002	1080.8	5.404
353.15	.5002	1077.7	5.3885
293.15	.7501	1100.6	5.503
298.15	.7501	1097.2	5.486
303.15	.7501	1093.8	5.469
308.15	.7501	1090.4	5.452
313.15	.7501	1087	5.435
318.15	.7501	1083.7	5.4185
323.15	.7501	1080.3	5.4015
328.15	.7501	1077	5.385
333.15	.7501	1073.6	5.368
338.15	.7501	1070.3	5.3515
343.15	.7501	1067	5.335
348.15	.7501	1063.8	5.319
353.15	.7501	1060.5	5.3025
293.15	1	1084.6	5.423
298.15	1	1081	5.405
303.15	1	1077.5	5.3875
308.15	1	1073.9	5.3695
313.15	1	1070.4	5.352
318.15	1	1067.1	5.3355
323.15	1	1063.7	5.3185
328.15	1	1060.3	5.3015
333.15	1	1056.9	5.2845
338.15	1	1053.6	5.268
343.15	1	1050.2	5.251
348.15	1	1046.8	5.234
353.15	1	1043.4	5.217

System: 1-ethyl-3-methylimidazolium tricyanomethanide + 1-ethyl-3-methyl-1H-imidazolium L-prolinate; phases: Liquid
Fixed: Pressure, kPa = 101
Property: Viscosity, Pa*s (Liquid); method: Stabinger Viscometer
Temperature, K	Mole fraction of 1-ethyl-3-methylimidazolium tricyanomethanide	Viscosity, Pa*s	uncertainty
293.15	0	1.92843	.001
298.15	0	1.19463	.001
303.15	0	.77151	.001
308.15	0	.51761	.001
313.15	0	.35921	.001
318.15	0	.25692	.001
323.15	0	.18866	.001
328.15	0	.14176	.001
333.15	0	.10885	.001
338.15	0	.08512	.001
343.15	0	.06769	.001
348.15	0	.05473	.001
353.15	0	.04489	.001
293.15	.5002	.18374	.002
298.15	.5002	.13111	.002
303.15	.5002	.0966	.002
308.15	.5002	.07315	.002
313.15	.5002	.05672	.002
318.15	.5002	.04493	.002
323.15	.5002	.03625	.002
328.15	.5002	.02973	.002
333.15	.5002	.02475	.002
338.15	.5002	.02087	.002
343.15	.5002	.0178	.002
348.15	.5002	.01535	.002
353.15	.5002	.01337	.002
293.15	.2501	.73138	.001
298.15	.2501	.47482	.001
303.15	.2501	.32094	.001
308.15	.2501	.22485	.001
313.15	.2501	.16254	.001
318.15	.2501	.12081	.001
323.15	.2501	.092	.001
328.15	.2501	.07161	.001
333.15	.2501	.0568	.001
338.15	.2501	.04583	.001
343.15	.2501	.03755	.001
348.15	.2501	.0312	.001
353.15	.2501	.02624	.001
293.15	.7501	.0491	.001
298.15	.7501	.0386	.001
303.15	.7501	.03096	.001
308.15	.7501	.02529	.001
313.15	.7501	.021	.001
318.15	.7501	.01768	.001
323.15	.7501	.01508	.001
328.15	.7501	.013	.001
333.15	.7501	.01132	.001
338.15	.7501	.00995	.001
343.15	.7501	.00882	.001
348.15	.7501	.00787	.001
353.15	.7501	.00707	.001
293.15	1	.01662	.002
298.15	1	.01419	.002
303.15	1	.01218	.002
308.15	1	.01058	.002
313.15	1	.00902	.002
318.15	1	.0082	.002
323.15	1	.00731	.002
328.15	1	.00656	.002
333.15	1	.00572	.002
338.15	1	.00538	.002
343.15	1	.00491	.002
348.15	1	.0045	.002
353.15	1	.00398	.002

System: 1-ethyl-3-methylimidazolium tricyanomethanide + 1-ethyl-3-methyl-1H-imidazolium L-prolinate; phases: Liquid
Fixed: Pressure, kPa = 101
Property: Refractive index (Na D-line) (Liquid); method: Standard Abbe refractometry
Temperature, K	Mole fraction of 1-ethyl-3-methylimidazolium tricyanomethanide	Refractive index (Na D-line)	uncertainty
293.15	0	1.52291	.0001
298.15	0	1.52151	.0001
303.15	0	1.52009	.0001
308.15	0	1.5187	.0001
313.15	0	1.51731	.0001
318.15	0	1.51591	.0001
323.15	0	1.51454	.0001
328.15	0	1.51315	.0001
333.15	0	1.51177	.0001
338.15	0	1.51035	.0001
343.15	0	1.50897	.0001
348.15	0	1.50757	.0001
353.15	0	1.5062	.0001
293.15	.5002	1.5191	.0003
298.15	.5002	1.5176	.0003
303.15	.5002	1.51611	.0003
308.15	.5002	1.5146	.0003
313.15	.5002	1.51306	.0003
318.15	.5002	1.51153	.0003
323.15	.5002	1.51006	.0003
328.15	.5002	1.50858	.0003
333.15	.5002	1.5071	.0003
338.15	.5002	1.50564	.0003
343.15	.5002	1.50412	.0003
348.15	.5002	1.50269	.0003
353.15	.5002	1.50126	.0003
293.15	.2501	1.52057	.0003
298.15	.2501	1.51913	.0003
303.15	.2501	1.51769	.0003
308.15	.2501	1.51622	.0003
313.15	.2501	1.51477	.0003
318.15	.2501	1.51333	.0003
323.15	.2501	1.51191	.0003
328.15	.2501	1.51046	.0003
333.15	.2501	1.50899	.0003
338.15	.2501	1.50752	.0003
343.15	.2501	1.50611	.0003
348.15	.2501	1.50461	.0003
353.15	.2501	1.50319	.0003
293.15	.7501	1.51665	.0004
298.15	.7501	1.51508	.0004
303.15	.7501	1.51349	.0004
308.15	.7501	1.5119	.0004
313.15	.7501	1.51033	.0004
318.15	.7501	1.50875	.0004
323.15	.7501	1.50717	.0004
328.15	.7501	1.50561	.0004
333.15	.7501	1.504	.0004
338.15	.7501	1.50249	.0004
343.15	.7501	1.50096	.0004
348.15	.7501	1.49941	.0004
353.15	.7501	1.49791	.0004
293.15	1	1.51454	.0002
298.15	1	1.51286	.0002
303.15	1	1.51114	.0002
308.15	1	1.50938	.0002
313.15	1	1.50765	.0002
318.15	1	1.50595	.0002
323.15	1	1.50419	.0002
328.15	1	1.50255	.0002
333.15	1	1.50087	.0002
338.15	1	1.49921	.0002
343.15	1	1.49757	.0002
348.15	1	1.49593	.0002
353.15	1	1.49429	.0002
