Measured thermophysical data. Estimation and Structural Effect on Physicochemical Properties of Alkylimidazolium-Based Ionic Liquids with Different Anions
Source: J. Chem. Eng. Data, 2016, 10.1021/acs.jced.5b00860
Compound 1: 1-metyl-3-propylimidazolium hydrogen carbonate, C8H14N2O3, purity 99%
Compound 2: 1-butyl-3-methylimidazolium hydrogen carbonate, C9H16N2O3, purity 99%
Compound 3: 3-methyl-1-pentylimidazolium hydrogen carbonate, C10H18N2O3, purity 99%
Compound 4: 1-methyl-3-propylimidazolium dihydrogen phosphate, C7H15N2O4P, purity 99%
Compound 5: 1-butyl-3-methylimidazolium dihydrogen phosphate, C8H17N2O4P, purity 99%
Compound 6: 1-methyl-3-pentylimidazolium dihydrogen phosphate, C9H19N2O4P, purity 99%
Compound 7: 1-ethyl-2,3-dimethylimidazolium hydrogen sulfate, C7H14N2O4S, purity 99%
Compound 8: 2,3-dimethyl-1-propylimidazolium hydrogen sulfate, C8H16N2O4S, purity 99%
Compound 9: 1-butyl-2,3-dimethylimidazolium hydrogen sulfate, C9H18N2O4S, purity 99%
Compound 10: 2,3-dimethyl-1-pentylimidazolium hydrogen sulfate, C10H20N2O4S, purity 99%

System: 1-metyl-3-propylimidazolium hydrogen carbonate; phases: Liquid
Fixed: Pressure, kPa = 101.325
Property: Mass density, kg/m3 (Liquid); method: Vibrating tube method
Temperature, K	Mass density, kg/m3	uncertainty
288.15	1172.51	
293.15	1169.04	
298.15	1165.53	
303.15	1162.01	
308.15	1158.5	
313.15	1154.99	
318.15	1151.47	
323.15	1147.95	
328.15	1144.42	
333.15	1140.87	
338.15	1137.33	
343.15	1133.77	

System: 1-metyl-3-propylimidazolium hydrogen carbonate; phases: Liquid, Air at 1 atmosphere
Property: Surface tension liquid-gas, N/m (Liquid); method: Maximum bubble pressure
Temperature, K	Surface tension liquid-gas, N/m	uncertainty
288.15	.0381	
293.15	.0377	
298.15	.0373	
303.15	.0368	
308.15	.0364	
313.15	.036	
318.15	.0356	
323.15	.0352	
328.15	.0348	
333.15	.0344	
338.15	.034	
343.15	.0336	

System: 1-metyl-3-propylimidazolium hydrogen carbonate; phases: Liquid
Fixed: Pressure, kPa = 101.325
Property: Viscosity, Pa*s (Liquid); method: Concentric cylinders viscometry
Temperature, K	Viscosity, Pa*s	uncertainty
288.15	.07367	
293.15	.05563	
298.15	.04267	
303.15	.03324	
308.15	.02587	
313.15	.02051	
318.15	.01665	
323.15	.01318	
328.15	.011	
333.15	.00906	
338.15	.00741	
343.15	.00629	

System: 1-metyl-3-propylimidazolium hydrogen carbonate; phases: Liquid
Fixed: Pressure, kPa = 101.325
Property: Electrical conductivity, S/m (Liquid); method: Alternating current cell with electrodes
Temperature, K	Electrical conductivity, S/m	uncertainty
288.15	.487	
293.15	.547	
298.15	.606	
303.15	.662	
308.15	.725	
313.15	.785	
318.15	.846	
323.15	.908	
328.15	.968	
333.15	1.026	
338.15	1.083	
343.15	1.142	

System: 1-butyl-3-methylimidazolium hydrogen carbonate; phases: Liquid
Fixed: Pressure, kPa = 101.325
Property: Mass density, kg/m3 (Liquid); method: Vibrating tube method
Temperature, K	Mass density, kg/m3	uncertainty
288.15	1164.1	
293.15	1160.5	
298.15	1157.08	
303.15	1153.64	
308.15	1150	
313.15	1146.51	
318.15	1142.95	
323.15	1139.45	
328.15	1136.1	
333.15	1132.53	
338.15	1128.92	
343.15	1125.52	

System: 1-butyl-3-methylimidazolium hydrogen carbonate; phases: Liquid, Air at 1 atmosphere
Property: Surface tension liquid-gas, N/m (Liquid); method: Maximum bubble pressure
Temperature, K	Surface tension liquid-gas, N/m	uncertainty
288.15	.0349	
293.15	.0344	
298.15	.034	
303.15	.0335	
308.15	.0331	
313.15	.0326	
318.15	.0322	
323.15	.0317	
328.15	.0312	
333.15	.0308	
338.15	.0304	
343.15	.0299	

System: 1-butyl-3-methylimidazolium hydrogen carbonate; phases: Liquid
Fixed: Pressure, kPa = 101.325
Property: Viscosity, Pa*s (Liquid); method: Concentric cylinders viscometry
Temperature, K	Viscosity, Pa*s	uncertainty
288.15	.1229	
293.15	.0948	
298.15	.07373	
303.15	.05764	
308.15	.04533	
313.15	.03586	
318.15	.02885	
323.15	.02293	
328.15	.01854	
333.15	.01481	
338.15	.01188	
343.15	.01004	

System: 1-butyl-3-methylimidazolium hydrogen carbonate; phases: Liquid
Fixed: Pressure, kPa = 101.325
Property: Electrical conductivity, S/m (Liquid); method: Alternating current cell with electrodes
Temperature, K	Electrical conductivity, S/m	uncertainty
288.15	.274	
293.15	.322	
298.15	.376	
303.15	.439	
308.15	.496	
313.15	.557	
318.15	.622	
323.15	.689	
328.15	.755	
333.15	.823	
338.15	.893	
343.15	.963	

System: 3-methyl-1-pentylimidazolium hydrogen carbonate; phases: Liquid
Fixed: Pressure, kPa = 101.325
Property: Mass density, kg/m3 (Liquid); method: Vibrating tube method
Temperature, K	Mass density, kg/m3	uncertainty
288.15	1148.91	
293.15	1145.21	
298.15	1141.79	
303.15	1138.28	
308.15	1134.77	
313.15	1131.33	
318.15	1127.75	
323.15	1124.28	
328.15	1120.73	
333.15	1117.27	
338.15	1113.75	
343.15	1110.3	

System: 3-methyl-1-pentylimidazolium hydrogen carbonate; phases: Liquid, Air at 1 atmosphere
Property: Surface tension liquid-gas, N/m (Liquid); method: Maximum bubble pressure
Temperature, K	Surface tension liquid-gas, N/m	uncertainty
288.15	.0319	
293.15	.0314	
298.15	.0309	
303.15	.0304	
308.15	.0299	
313.15	.0294	
318.15	.029	
323.15	.0285	
328.15	.028	
333.15	.0275	
338.15	.0269	
343.15	.0265	

System: 3-methyl-1-pentylimidazolium hydrogen carbonate; phases: Liquid
Fixed: Pressure, kPa = 101.325
Property: Viscosity, Pa*s (Liquid); method: Concentric cylinders viscometry
Temperature, K	Viscosity, Pa*s	uncertainty
288.15	.1796	
293.15	.1389	
298.15	.1086	
303.15	.08509	
308.15	.06677	
313.15	.05312	
318.15	.04253	
323.15	.03329	
328.15	.02692	
333.15	.02142	
338.15	.01765	
343.15	.01471	

System: 3-methyl-1-pentylimidazolium hydrogen carbonate; phases: Liquid
Fixed: Pressure, kPa = 101.325
Property: Electrical conductivity, S/m (Liquid); method: Alternating current cell with electrodes
Temperature, K	Electrical conductivity, S/m	uncertainty
288.15	.143	
293.15	.193	
298.15	.248	
303.15	.305	
308.15	.367	
313.15	.428	
318.15	.489	
323.15	.553	
328.15	.612	
333.15	.671	
338.15	.733	
343.15	.794	

System: 1-methyl-3-propylimidazolium dihydrogen phosphate; phases: Liquid
Fixed: Pressure, kPa = 101.325
Property: Mass density, kg/m3 (Liquid); method: Vibrating tube method
Temperature, K	Mass density, kg/m3	uncertainty
288.15	1202.41	
293.15	1198.96	
298.15	1195.45	
303.15	1191.95	
308.15	1188.45	
313.15	1184.95	
318.15	1181.43	
323.15	1177.89	
328.15	1174.36	
333.15	1170.8	
338.15	1167.24	
343.15	1163.66	

System: 1-methyl-3-propylimidazolium dihydrogen phosphate; phases: Liquid, Air at 1 atmosphere
Property: Surface tension liquid-gas, N/m (Liquid); method: Maximum bubble pressure
Temperature, K	Surface tension liquid-gas, N/m	uncertainty
288.15	.0464	
293.15	.0461	
298.15	.0458	
303.15	.0455	
308.15	.0452	
313.15	.0449	
318.15	.0446	
323.15	.0443	
328.15	.044	
333.15	.0437	
338.15	.0434	
343.15	.0431	

System: 1-methyl-3-propylimidazolium dihydrogen phosphate; phases: Liquid
Fixed: Pressure, kPa = 101.325
Property: Viscosity, Pa*s (Liquid); method: Concentric cylinders viscometry
Temperature, K	Viscosity, Pa*s	uncertainty
288.15	.09938	
293.15	.07841	
298.15	.06192	
303.15	.04958	
308.15	.0393	
313.15	.03216	
318.15	.02581	
323.15	.02102	
328.15	.01717	
333.15	.01385	
338.15	.01143	
343.15	.01004	

System: 1-methyl-3-propylimidazolium dihydrogen phosphate; phases: Liquid
Fixed: Pressure, kPa = 101.325
Property: Electrical conductivity, S/m (Liquid); method: Alternating current cell with electrodes
Temperature, K	Electrical conductivity, S/m	uncertainty
288.15	.469	
293.15	.536	
298.15	.613	
303.15	.693	
308.15	.785	
313.15	.879	
318.15	.977	
323.15	1.082	
328.15	1.186	
333.15	1.302	
338.15	1.412	
343.15	1.546	

System: 1-butyl-3-methylimidazolium dihydrogen phosphate; phases: Liquid
Fixed: Pressure, kPa = 101.325
Property: Mass density, kg/m3 (Liquid); method: Vibrating tube method
Temperature, K	Mass density, kg/m3	uncertainty
288.15	1183.24	
293.15	1179.91	
298.15	1176.54	
303.15	1173.18	
308.15	1169.69	
313.15	1166.3	
318.15	1162.8	
323.15	1159.53	
328.15	1156.13	
333.15	1152.67	
338.15	1149.36	
343.15	1146.03	

System: 1-butyl-3-methylimidazolium dihydrogen phosphate; phases: Liquid, Air at 1 atmosphere
Property: Surface tension liquid-gas, N/m (Liquid); method: Maximum bubble pressure
Temperature, K	Surface tension liquid-gas, N/m	uncertainty
288.15	.0442	
293.15	.0439	
298.15	.0436	
303.15	.0432	
308.15	.0429	
313.15	.0426	
318.15	.0423	
323.15	.042	
328.15	.0417	
333.15	.0414	
338.15	.0411	
343.15	.0408	

System: 1-butyl-3-methylimidazolium dihydrogen phosphate; phases: Liquid
Fixed: Pressure, kPa = 101.325
Property: Viscosity, Pa*s (Liquid); method: Concentric cylinders viscometry
Temperature, K	Viscosity, Pa*s	uncertainty
288.15	.1987	
293.15	.159	
298.15	.1256	
303.15	.1011	
308.15	.08078	
313.15	.06521	
318.15	.05362	
323.15	.04367	
328.15	.03675	
333.15	.02977	
338.15	.02521	
343.15	.02096	

System: 1-butyl-3-methylimidazolium dihydrogen phosphate; phases: Liquid
Fixed: Pressure, kPa = 101.325
Property: Electrical conductivity, S/m (Liquid); method: Alternating current cell with electrodes
Temperature, K	Electrical conductivity, S/m	uncertainty
288.15	.303	
293.15	.359	
298.15	.419	
303.15	.483	
308.15	.555	
313.15	.628	
318.15	.707	
323.15	.788	
328.15	.868	
333.15	.965	
338.15	1.059	
343.15	1.159	

System: 1-methyl-3-pentylimidazolium dihydrogen phosphate; phases: Liquid
Fixed: Pressure, kPa = 101.325
Property: Mass density, kg/m3 (Liquid); method: Vibrating tube method
Temperature, K	Mass density, kg/m3	uncertainty
288.15	1148.62	
293.15	1145.42	
298.15	1142.29	
303.15	1139.09	
308.15	1135.81	
313.15	1132.55	
318.15	1129.43	
323.15	1126.27	
328.15	1122.94	
333.15	1119.93	
338.15	1116.63	
343.15	1113.49	

System: 1-methyl-3-pentylimidazolium dihydrogen phosphate; phases: Liquid, Air at 1 atmosphere
Property: Surface tension liquid-gas, N/m (Liquid); method: Maximum bubble pressure
Temperature, K	Surface tension liquid-gas, N/m	uncertainty
288.15	.0418	
293.15	.0415	
298.15	.0412	
303.15	.0409	
308.15	.0406	
313.15	.0403	
318.15	.04	
323.15	.0397	
328.15	.0393	
333.15	.039	
338.15	.0387	
343.15	.0384	

System: 1-methyl-3-pentylimidazolium dihydrogen phosphate; phases: Liquid
Fixed: Pressure, kPa = 101.325
Property: Viscosity, Pa*s (Liquid); method: Concentric cylinders viscometry
Temperature, K	Viscosity, Pa*s	uncertainty
288.15	.3278	
293.15	.2591	
298.15	.205	
303.15	.1626	
308.15	.13	
313.15	.1033	
318.15	.08404	
323.15	.06845	
328.15	.05655	
333.15	.04691	
338.15	.03855	
343.15	.03143	

System: 1-methyl-3-pentylimidazolium dihydrogen phosphate; phases: Liquid
Fixed: Pressure, kPa = 101.325
Property: Electrical conductivity, S/m (Liquid); method: Alternating current cell with electrodes
Temperature, K	Electrical conductivity, S/m	uncertainty
288.15	.164	
293.15	.201	
298.15	.243	
303.15	.29	
308.15	.341	
313.15	.398	
318.15	.457	
323.15	.523	
328.15	.588	
333.15	.665	
338.15	.744	
343.15	.825	

System: 1-ethyl-2,3-dimethylimidazolium hydrogen sulfate; phases: Liquid
Fixed: Pressure, kPa = 101.325
Property: Mass density, kg/m3 (Liquid); method: Vibrating tube method
Temperature, K	Mass density, kg/m3	uncertainty
288.15	1261.94	
293.15	1258.09	
298.15	1254.43	
303.15	1250.77	
308.15	1247.08	
313.15	1243.3	
318.15	1239.59	
323.15	1235.8	
328.15	1232.2	
333.15	1228.52	
338.15	1224.82	
343.15	1221.18	

System: 1-ethyl-2,3-dimethylimidazolium hydrogen sulfate; phases: Liquid, Air at 1 atmosphere
Property: Surface tension liquid-gas, N/m (Liquid); method: Maximum bubble pressure
Temperature, K	Surface tension liquid-gas, N/m	uncertainty
288.15	.0504	
293.15	.0501	
298.15	.0498	
303.15	.0495	
308.15	.0493	
313.15	.049	
318.15	.0487	
323.15	.0484	
328.15	.0481	
333.15	.0478	
338.15	.0475	
343.15	.0472	

System: 1-ethyl-2,3-dimethylimidazolium hydrogen sulfate; phases: Liquid
Fixed: Pressure, kPa = 101.325
Property: Viscosity, Pa*s (Liquid); method: Concentric cylinders viscometry
Temperature, K	Viscosity, Pa*s	uncertainty
288.15	.375	
293.15	.2636	
298.15	.186	
303.15	.1349	
308.15	.09841	
313.15	.07294	
318.15	.05372	
323.15	.04012	
328.15	.0302	
333.15	.02237	
338.15	.01796	
343.15	.01257	

System: 1-ethyl-2,3-dimethylimidazolium hydrogen sulfate; phases: Liquid
Fixed: Pressure, kPa = 101.325
Property: Electrical conductivity, S/m (Liquid); method: Alternating current cell with electrodes
Temperature, K	Electrical conductivity, S/m	uncertainty
298.15	.15	
303.15	.193	
308.15	.244	
313.15	.308	
318.15	.377	
323.15	.458	
328.15	.554	
333.15	.665	
338.15	.787	
343.15	.925	

System: 2,3-dimethyl-1-propylimidazolium hydrogen sulfate; phases: Liquid
Fixed: Pressure, kPa = 101.325
Property: Mass density, kg/m3 (Liquid); method: Vibrating tube method
Temperature, K	Mass density, kg/m3	uncertainty
288.15	1239.79	
293.15	1236.23	
298.15	1232.82	
303.15	1229.24	
308.15	1225.73	
313.15	1222.13	
318.15	1218.82	
323.15	1215.29	
328.15	1211.74	
333.15	1208.35	
338.15	1204.81	
343.15	1201.46	

System: 2,3-dimethyl-1-propylimidazolium hydrogen sulfate; phases: Liquid, Air at 1 atmosphere
Property: Surface tension liquid-gas, N/m (Liquid); method: Maximum bubble pressure
Temperature, K	Surface tension liquid-gas, N/m	uncertainty
288.15	.0477	
293.15	.0474	
298.15	.0472	
303.15	.0469	
308.15	.0466	
313.15	.0463	
318.15	.0461	
323.15	.0458	
328.15	.0455	
333.15	.0452	
338.15	.0449	
343.15	.0447	

System: 2,3-dimethyl-1-propylimidazolium hydrogen sulfate; phases: Liquid
Fixed: Pressure, kPa = 101.325
Property: Viscosity, Pa*s (Liquid); method: Concentric cylinders viscometry
Temperature, K	Viscosity, Pa*s	uncertainty
288.15	.5004	
293.15	.3623	
298.15	.2637	
303.15	.1942	
308.15	.1422	
313.15	.107	
318.15	.08127	
323.15	.06204	
328.15	.04783	
333.15	.03571	
338.15	.02747	
343.15	.02117	

System: 2,3-dimethyl-1-propylimidazolium hydrogen sulfate; phases: Liquid
Fixed: Pressure, kPa = 101.325
Property: Electrical conductivity, S/m (Liquid); method: Alternating current cell with electrodes
Temperature, K	Electrical conductivity, S/m	uncertainty
298.15	.123	
303.15	.162	
308.15	.211	
313.15	.267	
318.15	.333	
323.15	.409	
328.15	.496	
333.15	.6	
338.15	.711	
343.15	.832	

System: 1-butyl-2,3-dimethylimidazolium hydrogen sulfate; phases: Liquid
Fixed: Pressure, kPa = 101.325
Property: Mass density, kg/m3 (Liquid); method: Vibrating tube method
Temperature, K	Mass density, kg/m3	uncertainty
288.15	1217.09	
293.15	1213.74	
298.15	1210.61	
303.15	1207.35	
308.15	1203.89	
313.15	1200.63	
318.15	1197.49	
323.15	1194.03	
328.15	1190.8	
333.15	1187.57	
338.15	1184.29	
343.15	1180.99	

System: 1-butyl-2,3-dimethylimidazolium hydrogen sulfate; phases: Liquid, Air at 1 atmosphere
Property: Surface tension liquid-gas, N/m (Liquid); method: Maximum bubble pressure
Temperature, K	Surface tension liquid-gas, N/m	uncertainty
288.15	.0453	
293.15	.045	
298.15	.0448	
303.15	.0445	
308.15	.0442	
313.15	.0439	
318.15	.0437	
323.15	.0434	
328.15	.0431	
333.15	.0428	
338.15	.0426	
343.15	.0423	

System: 1-butyl-2,3-dimethylimidazolium hydrogen sulfate; phases: Liquid
Fixed: Pressure, kPa = 101.325
Property: Viscosity, Pa*s (Liquid); method: Concentric cylinders viscometry
Temperature, K	Viscosity, Pa*s	uncertainty
288.15	.6285	
293.15	.4697	
298.15	.3552	
303.15	.2713	
308.15	.2063	
313.15	.1572	
318.15	.1218	
323.15	.09586	
328.15	.07449	
333.15	.0607	
338.15	.04652	
343.15	.03813	

System: 1-butyl-2,3-dimethylimidazolium hydrogen sulfate; phases: Liquid
Fixed: Pressure, kPa = 101.325
Property: Electrical conductivity, S/m (Liquid); method: Alternating current cell with electrodes
Temperature, K	Electrical conductivity, S/m	uncertainty
298.15	.1	
303.15	.135	
308.15	.179	
313.15	.231	
318.15	.292	
323.15	.36	
328.15	.441	
333.15	.531	
338.15	.631	
343.15	.739	

System: 2,3-dimethyl-1-pentylimidazolium hydrogen sulfate; phases: Liquid
Fixed: Pressure, kPa = 101.325
Property: Mass density, kg/m3 (Liquid); method: Vibrating tube method
Temperature, K	Mass density, kg/m3	uncertainty
288.15	1196.47	
293.15	1193.23	
298.15	1190.07	
303.15	1186.89	
308.15	1183.89	
313.15	1180.69	
318.15	1177.69	
323.15	1174.61	
328.15	1171.29	
333.15	1168.33	
338.15	1165.21	
343.15	1162.18	

System: 2,3-dimethyl-1-pentylimidazolium hydrogen sulfate; phases: Liquid, Air at 1 atmosphere
Property: Surface tension liquid-gas, N/m (Liquid); method: Maximum bubble pressure
Temperature, K	Surface tension liquid-gas, N/m	uncertainty
288.15	.0425	
293.15	.0422	
298.15	.042	
303.15	.0417	
308.15	.0415	
313.15	.0412	
318.15	.0409	
323.15	.0407	
328.15	.0404	
333.15	.0401	
338.15	.0399	
343.15	.0396	

System: 2,3-dimethyl-1-pentylimidazolium hydrogen sulfate; phases: Liquid
Fixed: Pressure, kPa = 101.325
Property: Viscosity, Pa*s (Liquid); method: Concentric cylinders viscometry
Temperature, K	Viscosity, Pa*s	uncertainty
288.15	.7724	
293.15	.597	
298.15	.4628	
303.15	.3587	
308.15	.2811	
313.15	.2242	
318.15	.176	
323.15	.1401	
328.15	.113	
333.15	.09	
338.15	.07377	
343.15	.05754	

System: 2,3-dimethyl-1-pentylimidazolium hydrogen sulfate; phases: Liquid
Fixed: Pressure, kPa = 101.325
Property: Electrical conductivity, S/m (Liquid); method: Alternating current cell with electrodes
Temperature, K	Electrical conductivity, S/m	uncertainty
298.15	.075	
303.15	.105	
308.15	.145	
313.15	.197	
318.15	.257	
323.15	.324	
328.15	.399	
333.15	.485	
338.15	.573	
343.15	.675	
