Measured thermophysical data. Solubility of 2-Ethylanthraquinone in Binary Mixtures of Oligooxymethylene Dimethyl Ethers with Different Number of CH2O Groups of n = 2, 3, and 4 from 293.15 to 343.15 K
Source: J. Chem. Eng. Data, 2016, 10.1021/acs.jced.6b00334
Compound 1: 2-ethylanthraquinone, C16H12O2, purity 0.99%
Compound 2: 1,1'-oxybis[1-methoxy]methane, C4H10O3, purity 94.6%
Compound 3: 2,4,6,8-tetraoxanonane, C5H12O4, purity 92.3%
Compound 4: 2,4,6,8,10-pentaoxaundecane, C6H14O5, purity 97.6%
Compound 5: hexane, C6H14, purity 99.5%
Compound 6: heptane, C7H16, purity 99.5%
Compound 7: octane, C8H18, purity 99.5%
Compound 8: decane, C10H22, purity 99.5%
Compound 9: cyclohexane, C6H12, purity 99.5%
Compound 10: methylcyclohexane, C7H14, purity 99.5%
Compound 11: 2,2,4-trimethylpentane, C8H18, purity 99.5%
Compound 12: methanol, CH4O, purity 99.5%
Compound 13: ethanol, C2H6O, purity 99.5%
Compound 14: ethyl acetate, C4H8O2, purity 99.5%
Compound 15: 1,3,5-trimethylbenzene, C9H12, purity 99.5%
Compound 16: 2-tert-butylanthraquinone, C18H16O2, purity 99%

System: 2-ethylanthraquinone; phases: Crystal, Liquid, Air at 1 atmosphere
Property: Molar enthalpy of transition or fusion, kJ/mol (Crystal); method: DSC
Molar enthalpy of transition or fusion, kJ/mol	uncertainty
18.794	

System: 2-ethylanthraquinone; phases: Crystal, Liquid
Property: Solid-liquid equilibrium temperature, K (Crystal); method: DSC/DTA
Pressure, kPa	Solid-liquid equilibrium temperature, K	uncertainty
101.325	384.15	

System: 2-ethylanthraquinone + 2,4,6,8,10-pentaoxaundecane + 2,4,6,8-tetraoxanonane; phases: Liquid, Crystal
Fixed: Pressure, kPa = 101.325
Property: Mole fraction of 2-ethylanthraquinone (Liquid); method: Titration method
Solvent: Mole fraction of 2,4,6,8-tetraoxanonane	Temperature, K	Mole fraction of 2-ethylanthraquinone	uncertainty
.1	293.15	.0375	
.1	298.15	.0465	
.1	303.15	.0572	
.1	308.15	.0708	
.1	313.15	.0876	
.1	318.15	.1085	
.1	323.15	.1328	
.1	328.15	.1631	
.1	333.15	.2001	
.1	338.15	.2442	
.1	343.15	.2951	
.2	293.15	.0396	
.2	298.15	.0488	
.2	303.15	.06	
.2	308.15	.0743	
.2	313.15	.0917	
.2	318.15	.1127	
.2	323.15	.138	
.2	328.15	.1689	
.2	333.15	.207	
.2	338.15	.251	
.2	343.15	.3049	
.3	293.15	.0425	
.3	298.15	.052	
.3	303.15	.0637	
.3	308.15	.0785	
.3	313.15	.0962	
.3	318.15	.1172	
.3	323.15	.1433	
.3	328.15	.1745	
.3	333.15	.2131	
.3	338.15	.2579	
.3	343.15	.3094	
.4	293.15	.0445	
.4	298.15	.0541	
.4	303.15	.0664	
.4	308.15	.081	
.4	313.15	.1002	
.4	318.15	.1209	
.4	323.15	.1481	
.4	328.15	.1808	
.4	333.15	.2198	
.4	338.15	.2646	
.4	343.15	.3185	
.5	293.15	.0458	
.5	298.15	.056	
.5	303.15	.0686	
.5	308.15	.083	
.5	313.15	.1027	
.5	318.15	.1244	
.5	323.15	.1516	
.5	328.15	.1842	
.5	333.15	.2241	
.5	338.15	.2709	
.5	343.15	.3247	
.6	293.15	.0481	
.6	298.15	.0588	
.6	303.15	.0715	
.6	308.15	.0868	
.6	313.15	.1061	
.6	318.15	.1291	
.6	323.15	.1564	
.6	328.15	.1906	
.6	333.15	.2308	
.6	338.15	.2789	
.6	343.15	.3296	
.7	293.15	.0508	
.7	298.15	.0615	
.7	303.15	.0745	
.7	308.15	.0903	
.7	313.15	.11	
.7	318.15	.1329	
.7	323.15	.1607	
.7	328.15	.1936	
.7	333.15	.2346	
.7	338.15	.2814	
.7	343.15	.3336	
.8	293.15	.0528	
.8	298.15	.0635	
.8	303.15	.0768	
.8	308.15	.0928	
.8	313.15	.113	
.8	318.15	.1361	
.8	323.15	.1642	
.8	328.15	.1975	
.8	333.15	.2371	
.8	338.15	.2853	
.8	343.15	.338	
.9	293.15	.0559	
.9	298.15	.066	
.9	303.15	.0799	
.9	308.15	.0961	
.9	313.15	.1159	
.9	318.15	.1396	
.9	323.15	.1674	
.9	328.15	.2003	
.9	333.15	.2408	
.9	338.15	.2874	
.9	343.15	.3398	

System: 2-ethylanthraquinone + 1,1'-oxybis[1-methoxy]methane + 2,4,6,8,10-pentaoxaundecane; phases: Liquid, Crystal
Fixed: Pressure, kPa = 101.325
Property: Mole fraction of 2-ethylanthraquinone (Liquid); method: Titration method
Solvent: Mole fraction of 1,1'-oxybis[1-methoxy]methane	Temperature, K	Mole fraction of 2-ethylanthraquinone	uncertainty
.1	293.15	.042	
.1	298.15	.0514	
.1	303.15	.0627	
.1	308.15	.0769	
.1	313.15	.0944	
.1	318.15	.1156	
.1	323.15	.1407	
.1	328.15	.1709	
.1	333.15	.2079	
.1	338.15	.2513	
.1	343.15	.3011	
.2	293.15	.0432	
.2	298.15	.0528	
.2	303.15	.0641	
.2	308.15	.0783	
.2	313.15	.0966	
.2	318.15	.1178	
.2	323.15	.1435	
.2	328.15	.1751	
.2	333.15	.2122	
.2	338.15	.2562	
.2	343.15	.3056	
.3	293.15	.0435	
.3	298.15	.0531	
.3	303.15	.0649	
.3	308.15	.0794	
.3	313.15	.0975	
.3	318.15	.1199	
.3	323.15	.1449	
.3	328.15	.1751	
.3	333.15	.2146	
.3	338.15	.2593	
.3	343.15	.3095	
.4	293.15	.0465	
.4	298.15	.0565	
.4	303.15	.0677	
.4	308.15	.0833	
.4	313.15	.1011	
.4	318.15	.1239	
.4	323.15	.1498	
.4	328.15	.1799	
.4	333.15	.2187	
.4	338.15	.266	
.4	343.15	.3189	
.5	293.15	.0518	
.5	298.15	.0626	
.5	303.15	.0748	
.5	308.15	.0892	
.5	313.15	.1075	
.5	318.15	.1303	
.5	323.15	.1571	
.5	328.15	.1893	
.5	333.15	.2281	
.5	338.15	.2734	
.5	343.15	.3267	
.6	293.15	.0543	
.6	298.15	.0649	
.6	303.15	.0771	
.6	308.15	.092	
.6	313.15	.1104	
.6	318.15	.1333	
.6	323.15	.1613	
.6	328.15	.1935	
.6	333.15	.2314	
.6	338.15	.2789	
.6	343.15	.3313	
.7	293.15	.0573	
.7	298.15	.0685	
.7	303.15	.0805	
.7	308.15	.0959	
.7	313.15	.1146	
.7	318.15	.1375	
.7	323.15	.1655	
.7	328.15	.1983	
.7	333.15	.2387	
.7	338.15	.2865	
.7	343.15	.3403	
.8	293.15	.0595	
.8	298.15	.0711	
.8	303.15	.0832	
.8	308.15	.0992	
.8	313.15	.1183	
.8	318.15	.1414	
.8	323.15	.1708	
.8	328.15	.2053	
.8	333.15	.2456	
.8	338.15	.2939	
.8	343.15	.3487	
.9	293.15	.0575	
.9	298.15	.0687	
.9	303.15	.0814	
.9	308.15	.0978	
.9	313.15	.1173	
.9	318.15	.1406	
.9	323.15	.172	
.9	328.15	.2072	
.9	333.15	.2488	
.9	338.15	.3009	
.9	343.15	.3576	

System: 2-ethylanthraquinone + 1,1'-oxybis[1-methoxy]methane + 2,4,6,8-tetraoxanonane; phases: Liquid, Crystal
Fixed: Pressure, kPa = 101.325
Property: Mole fraction of 2-ethylanthraquinone (Liquid); method: Titration method
Solvent: Mole fraction of 1,1'-oxybis[1-methoxy]methane	Temperature, K	Mole fraction of 2-ethylanthraquinone	uncertainty
.1	293.15	.0418	
.1	298.15	.052	
.1	303.15	.0644	
.1	308.15	.0792	
.1	313.15	.0986	
.1	318.15	.1196	
.1	323.15	.1468	
.1	328.15	.1792	
.1	333.15	.2205	
.1	338.15	.2708	
.1	343.15	.3334	
.2	293.15	.0434	
.2	298.15	.054	
.2	303.15	.067	
.2	308.15	.0822	
.2	313.15	.1012	
.2	318.15	.1227	
.2	323.15	.1509	
.2	328.15	.1848	
.2	333.15	.2261	
.2	338.15	.2772	
.2	343.15	.3409	
.3	293.15	.0438	
.3	298.15	.0545	
.3	303.15	.0675	
.3	308.15	.0829	
.3	313.15	.1018	
.3	318.15	.1239	
.3	323.15	.1518	
.3	328.15	.186	
.3	333.15	.2284	
.3	338.15	.2789	
.3	343.15	.3434	
.4	293.15	.0454	
.4	298.15	.0562	
.4	303.15	.0695	
.4	308.15	.0857	
.4	313.15	.1037	
.4	318.15	.1259	
.4	323.15	.1548	
.4	328.15	.188	
.4	333.15	.2311	
.4	338.15	.2814	
.4	343.15	.3455	
.5	293.15	.0527	
.5	298.15	.0644	
.5	303.15	.0786	
.5	308.15	.0958	
.5	313.15	.1151	
.5	318.15	.1375	
.5	323.15	.1661	
.5	328.15	.201	
.5	333.15	.2448	
.5	338.15	.2956	
.5	343.15	.3588	
.6	293.15	.0566	
.6	298.15	.0687	
.6	303.15	.0832	
.6	308.15	.1004	
.6	313.15	.1199	
.6	318.15	.1431	
.6	323.15	.1716	
.6	328.15	.2066	
.6	333.15	.2494	
.6	338.15	.3025	
.6	343.15	.3678	
.7	293.15	.0594	
.7	298.15	.0719	
.7	303.15	.0869	
.7	308.15	.1049	
.7	313.15	.1251	
.7	318.15	.1481	
.7	323.15	.1775	
.7	328.15	.2126	
.7	333.15	.2541	
.7	338.15	.3078	
.7	343.15	.3719	
.8	293.15	.0612	
.8	298.15	.0739	
.8	303.15	.0891	
.8	308.15	.1063	
.8	313.15	.1269	
.8	318.15	.1513	
.8	323.15	.1812	
.8	328.15	.2163	
.8	333.15	.2595	
.8	338.15	.3101	
.8	343.15	.3755	
.9	293.15	.0667	
.9	298.15	.0799	
.9	303.15	.0956	
.9	308.15	.1132	
.9	313.15	.1349	
.9	318.15	.1582	
.9	323.15	.1882	
.9	328.15	.2233	
.9	333.15	.2666	
.9	338.15	.3181	
.9	343.15	.3816	

System: 2-ethylanthraquinone + hexane; phases: Liquid, Crystal
Fixed: Pressure, kPa = 101.3
Property: Mole fraction of 2-ethylanthraquinone (Liquid); method: Titration method
Temperature, K	Mole fraction of 2-ethylanthraquinone	uncertainty
298.15	.0033	

System: 2-ethylanthraquinone + heptane; phases: Liquid, Crystal
Fixed: Pressure, kPa = 101.3
Property: Mole fraction of 2-ethylanthraquinone (Liquid); method: Titration method
Temperature, K	Mole fraction of 2-ethylanthraquinone	uncertainty
298.15	.00394	

System: 2-ethylanthraquinone + octane; phases: Liquid, Crystal
Fixed: Pressure, kPa = 101.3
Property: Mole fraction of 2-ethylanthraquinone (Liquid); method: Titration method
Temperature, K	Mole fraction of 2-ethylanthraquinone	uncertainty
298.15	.00454	

System: 2-ethylanthraquinone + decane; phases: Liquid, Crystal
Fixed: Pressure, kPa = 101.3
Property: Mole fraction of 2-ethylanthraquinone (Liquid); method: Titration method
Temperature, K	Mole fraction of 2-ethylanthraquinone	uncertainty
298.15	.00585	

System: 2-ethylanthraquinone + cyclohexane; phases: Liquid, Crystal
Fixed: Pressure, kPa = 101.3
Property: Mole fraction of 2-ethylanthraquinone (Liquid); method: Titration method
Temperature, K	Mole fraction of 2-ethylanthraquinone	uncertainty
298.15	.00388	

System: 2-ethylanthraquinone + methylcyclohexane; phases: Liquid, Crystal
Fixed: Pressure, kPa = 101.3
Property: Mole fraction of 2-ethylanthraquinone (Liquid); method: Titration method
Temperature, K	Mole fraction of 2-ethylanthraquinone	uncertainty
298.15	.00452	

System: 2-ethylanthraquinone + 2,2,4-trimethylpentane; phases: Liquid, Crystal
Fixed: Pressure, kPa = 101.3
Property: Mole fraction of 2-ethylanthraquinone (Liquid); method: Titration method
Temperature, K	Mole fraction of 2-ethylanthraquinone	uncertainty
298.15	.00241	

System: methanol + 2-ethylanthraquinone; phases: Liquid, Crystal
Fixed: Pressure, kPa = 101.3
Property: Mole fraction of 2-ethylanthraquinone (Liquid); method: Titration method
Temperature, K	Mole fraction of 2-ethylanthraquinone	uncertainty
298.15	.00124	

System: ethanol + 2-ethylanthraquinone; phases: Liquid, Crystal
Fixed: Pressure, kPa = 101.3
Property: Mole fraction of 2-ethylanthraquinone (Liquid); method: Titration method
Temperature, K	Mole fraction of 2-ethylanthraquinone	uncertainty
298.15	.0023	

System: 2-ethylanthraquinone + ethyl acetate; phases: Liquid, Crystal
Fixed: Pressure, kPa = 101.3
Property: Mole fraction of 2-ethylanthraquinone (Liquid); method: Titration method
Temperature, K	Mole fraction of 2-ethylanthraquinone	uncertainty
298.15	.03863	

System: 2-tert-butylanthraquinone + 1,3,5-trimethylbenzene; phases: Liquid, Crystal
Fixed: Pressure, kPa = 101.3
Property: Mole fraction of 2-tert-butylanthraquinone (Liquid); method: Titration method
Temperature, K	Mole fraction of 2-tert-butylanthraquinone	uncertainty
303.15	.2823	
308.15	.3165	
313.15	.3447	
318.15	.3855	
323.15	.4433	
333.15	.604	
