Measured thermophysical data. Densities and Viscosities of Binary Mixtures of 2-Ethyl-1,1,3,3- tetramethylguanidinium Ionic Liquids with Ethanol and 1-Propanol
Source: J. Chem. Eng. Data, 2015, 10.1021/acs.jced.5b00259
Compound 1: 2-ethyl-1,1,3,3-tetramethylguanidinium bis(trifluoromethylsulfonyl)imide, C9H18F6N4O4S2, purity 94.8%
Compound 2: 2-ethyl-1,1,3,3-tetramethylguanidinium ethyl sulfate, C9H23N3O4S, purity 98%
Compound 3: ethanol, C2H6O, purity 99.8%
Compound 4: 1-propanol, C3H8O, purity 99.9%

System: 2-ethyl-1,1,3,3-tetramethylguanidinium bis(trifluoromethylsulfonyl)imide; phases: Liquid
Property: Mass density, kg/m3 (Liquid); method: Vibrating tube method
Temperature, K	Pressure, kPa	Mass density, kg/m3	uncertainty
293.15	100	1414.89	.03
298.15	100	1410.03	.03
303.15	100	1405.19	.03
308.15	100	1400.38	.03
313.15	100	1395.59	.03
318.15	100	1390.8	.03
323.15	100	1386.03	.03

System: 2-ethyl-1,1,3,3-tetramethylguanidinium bis(trifluoromethylsulfonyl)imide; phases: Liquid
Property: Viscosity, Pa*s (Liquid); method: Falling or rolling sphere viscometry
Temperature, K	Pressure, kPa	Viscosity, Pa*s	uncertainty
293.15	100	.07461	
298.15	100	.05886	
303.15	100	.04727	
308.15	100	.03871	
313.15	100	.0322	
318.15	100	.02709	
323.15	100	.02314	

System: 2-ethyl-1,1,3,3-tetramethylguanidinium ethyl sulfate; phases: Liquid
Property: Mass density, kg/m3 (Liquid); method: Vibrating tube method
Temperature, K	Pressure, kPa	Mass density, kg/m3	uncertainty
293.15	100	1170.76	.03
298.15	100	1167.24	.03
303.15	100	1163.76	.03
308.15	100	1160.28	.03
313.15	100	1156.8	.03
318.15	100	1153.33	.03
323.15	100	1149.87	.03

System: 2-ethyl-1,1,3,3-tetramethylguanidinium ethyl sulfate; phases: Liquid
Property: Viscosity, Pa*s (Liquid); method: Falling or rolling sphere viscometry
Temperature, K	Pressure, kPa	Viscosity, Pa*s	uncertainty
293.15	100	.6734	
298.15	100	.4415	
303.15	100	.3025	
308.15	100	.2146	
313.15	100	.1572	
318.15	100	.1183	
323.15	100	.09122	

System: ethanol; phases: Liquid
Property: Mass density, kg/m3 (Liquid); method: Vibrating tube method
Temperature, K	Pressure, kPa	Mass density, kg/m3	uncertainty
293.15	100	789.62	.03
298.15	100	785.25	.03
303.15	100	780.89	.03
308.15	100	776.52	.03
313.15	100	772.12	.03
318.15	100	767.71	.03
323.15	100	763.26	.03

System: ethanol; phases: Liquid
Property: Viscosity, Pa*s (Liquid); method: Falling or rolling sphere viscometry
Temperature, K	Pressure, kPa	Viscosity, Pa*s	uncertainty
293.15	100	.001177	
298.15	100	.001071	
303.15	100	.000978	
308.15	100	.000895	
313.15	100	.000822	
318.15	100	.000756	
323.15	100	.000698	

System: 1-propanol; phases: Liquid
Property: Mass density, kg/m3 (Liquid); method: Vibrating tube method
Temperature, K	Pressure, kPa	Mass density, kg/m3	uncertainty
293.15	100	803.49	.03
298.15	100	799.49	.03
303.15	100	795.46	.03
308.15	100	791.39	.03
313.15	100	787.29	.03
318.15	100	783.14	.03
323.15	100	778.93	.03

System: 1-propanol; phases: Liquid
Property: Viscosity, Pa*s (Liquid); method: Falling or rolling sphere viscometry
Temperature, K	Pressure, kPa	Viscosity, Pa*s	uncertainty
293.15	100	.002164	
298.15	100	.001948	
303.15	100	.001707	
308.15	100	.001525	
313.15	100	.001366	
318.15	100	.001228	
323.15	100	.001107	

System: ethanol + 2-ethyl-1,1,3,3-tetramethylguanidinium bis(trifluoromethylsulfonyl)imide; phases: Liquid
Fixed: Pressure, kPa = 100
Property: Mass density, kg/m3 (Liquid); method: Vibrating tube method
Temperature, K	Mole fraction of 2-ethyl-1,1,3,3-tetramethylguanidinium bis(trifluoromethylsulfonyl)imide	Mass density, kg/m3	uncertainty
293.15	0	789.62	.03
293.15	.1006	1023.01	.03
293.15	.2004	1148.25	.03
293.15	.3001	1225.91	.03
293.15	.4005	1278.7	.03
293.15	.5018	1316.97	.03
293.15	.6011	1345.48	.03
293.15	.6999	1367.71	.03
293.15	.802	1386.71	.03
293.15	.892	1400.66	.03
293.15	1	1414.89	.03
298.15	0	785.25	.03
298.15	.1006	1018.29	.03
298.15	.2004	1143.37	.03
298.15	.3001	1221.07	.03
298.15	.4005	1273.82	.03
298.15	.5018	1312.1	.03
298.15	.6011	1340.6	.03
298.15	.6999	1362.79	.03
298.15	.802	1381.82	.03
298.15	.892	1395.79	.03
298.15	1	1410.03	.03
303.15	0	780.89	.03
303.15	.1006	1013.56	.03
303.15	.2004	1138.51	.03
303.15	.3001	1216.29	.03
303.15	.4005	1268.94	.03
303.15	.5018	1307.24	.03
303.15	.6011	1335.71	.03
303.15	.6999	1357.94	.03
303.15	.802	1376.95	.03
303.15	.892	1390.94	.03
303.15	1	1405.19	.03
308.15	0	776.52	.03
308.15	.1006	1008.82	.03
308.15	.2004	1133.65	.03
308.15	.3001	1211.51	.03
308.15	.4005	1264.09	.03
308.15	.5018	1302.36	.03
308.15	.6011	1330.83	.03
308.15	.6999	1353.07	.03
308.15	.802	1372.11	.03
308.15	.892	1386.12	.03
308.15	1	1400.38	.03
313.15	0	772.12	.03
313.15	.1006	1004.07	.03
313.15	.2004	1128.85	.03
313.15	.3001	1206.71	.03
313.15	.4005	1259.25	.03
313.15	.5018	1297.45	.03
313.15	.6011	1325.97	.03
313.15	.6999	1348.22	.03
313.15	.802	1367.28	.03
313.15	.892	1381.31	.03
313.15	1	1395.59	.03
318.15	0	767.71	.03
318.15	.1006	999.26	.03
318.15	.2004	1124.03	.03
318.15	.3001	1201.81	.03
318.15	.4005	1254.43	.03
318.15	.5018	1292.57	.03
318.15	.6011	1321.11	.03
318.15	.6999	1343.4	.03
318.15	.802	1362.45	.03
318.15	.892	1376.52	.03
318.15	1	1390.8	.03
323.15	0	763.26	.03
323.15	.1006	994.44	.03
323.15	.2004	1119.21	.03
323.15	.3001	1197.01	.03
323.15	.4005	1249.62	.03
323.15	.5018	1287.74	.03
323.15	.6011	1316.28	.03
323.15	.6999	1338.59	.03
323.15	.802	1357.63	.03
323.15	.892	1371.74	.03
323.15	1	1386.03	.03

System: ethanol + 2-ethyl-1,1,3,3-tetramethylguanidinium bis(trifluoromethylsulfonyl)imide; phases: Liquid
Fixed: Pressure, kPa = 100
Property: Viscosity, Pa*s (Liquid); method: Falling or rolling sphere viscometry
Temperature, K	Mole fraction of 2-ethyl-1,1,3,3-tetramethylguanidinium bis(trifluoromethylsulfonyl)imide	Viscosity, Pa*s	uncertainty
293.15	0	.001177	
293.15	.1006	.002873	
293.15	.2004	.00527	
293.15	.3001	.00821	
293.15	.4005	.01314	
293.15	.5018	.01952	
293.15	.6011	.02748	
293.15	.6999	.03642	
293.15	.802	.04747	
293.15	.892	.05917	
293.15	1	.07461	
298.15	0	.001071	
298.15	.1006	.002557	
298.15	.2004	.004596	
298.15	.3001	.007081	
298.15	.4005	.01113	
298.15	.5018	.01632	
298.15	.6011	.02271	
298.15	.6999	.02985	
298.15	.802	.03834	
298.15	.892	.04722	
298.15	1	.05886	
303.15	0	.000978	
303.15	.1006	.002289	
303.15	.2004	.004049	
303.15	.3001	.006157	
303.15	.4005	.009534	
303.15	.5018	.0138	
303.15	.6011	.0191	
303.15	.6999	.02485	
303.15	.802	.03152	
303.15	.892	.03837	
303.15	1	.04727	
308.15	0	.000895	
308.15	.1006	.002058	
308.15	.2004	.003587	
308.15	.3001	.005391	
308.15	.4005	.008252	
308.15	.5018	.01195	
308.15	.6011	.01625	
308.15	.6999	.02096	
308.15	.802	.02635	
308.15	.892	.03173	
308.15	1	.03871	
313.15	0	.000822	
313.15	.1006	.001861	
313.15	.2004	.003213	
313.15	.3001	.004757	
313.15	.4005	.007206	
313.15	.5018	.01032	
313.15	.6011	.01399	
313.15	.6999	.01794	
313.15	.802	.0223	
313.15	.892	.02665	
313.15	1	.0322	
318.15	0	.000756	
318.15	.1006	.001689	
318.15	.2004	.002884	
318.15	.3001	.004227	
318.15	.4005	.006344	
318.15	.5018	.008977	
318.15	.6011	.01215	
318.15	.6999	.01552	
318.15	.802	.01911	
318.15	.892	.02255	
318.15	1	.02709	
323.15	0	.000698	
323.15	.1006	.001515	
323.15	.2004	.002606	
323.15	.3001	.00378	
323.15	.4005	.005627	
323.15	.5018	.007837	
323.15	.6011	.01065	
323.15	.6999	.01358	
323.15	.802	.01654	
323.15	.892	.01932	
323.15	1	.02314	

System: 1-propanol + 2-ethyl-1,1,3,3-tetramethylguanidinium bis(trifluoromethylsulfonyl)imide; phases: Liquid
Fixed: Pressure, kPa = 100
Property: Mass density, kg/m3 (Liquid); method: Vibrating tube method
Temperature, K	Mole fraction of 2-ethyl-1,1,3,3-tetramethylguanidinium bis(trifluoromethylsulfonyl)imide	Mass density, kg/m3	uncertainty
293.15	0	803.49	.03
293.15	.1024	997.39	.03
293.15	.2019	1114.71	.03
293.15	.2973	1192.09	.03
293.15	.4011	1252.75	.03
293.15	.4988	1295.36	.03
293.15	.5962	1328.36	.03
293.15	.6997	1356.59	.03
293.15	.7931	1377.81	.03
293.15	.9014	1398.72	.03
293.15	1	1414.89	.03
298.15	0	799.49	.03
298.15	.1024	992.96	.03
298.15	.2019	1110.07	.03
298.15	.2973	1187.4	.03
298.15	.4011	1247.97	.03
298.15	.4988	1290.53	.03
298.15	.5962	1323.53	.03
298.15	.6997	1351.73	.03
298.15	.7931	1372.97	.03
298.15	.9014	1393.86	.03
298.15	1	1410.03	.03
303.15	0	795.46	.03
303.15	.1024	988.5	.03
303.15	.2019	1105.48	.03
303.15	.2973	1182.67	.03
303.15	.4011	1243.16	.03
303.15	.4988	1285.7	.03
303.15	.5962	1318.7	.03
303.15	.6997	1346.89	.03
303.15	.7931	1368.14	.03
303.15	.9014	1389.02	.03
303.15	1	1405.19	.03
308.15	0	791.39	.03
308.15	.1024	984.03	.03
308.15	.2019	1100.81	.03
308.15	.2973	1177.93	.03
308.15	.4011	1238.35	.03
308.15	.4988	1280.88	.03
308.15	.5962	1313.87	.03
308.15	.6997	1342.09	.03
308.15	.7931	1363.32	.03
308.15	.9014	1384.21	.03
308.15	1	1400.38	.03
313.15	0	787.29	.03
313.15	.1024	979.55	.03
313.15	.2019	1096.13	.03
313.15	.2973	1173.18	.03
313.15	.4011	1233.59	.03
313.15	.4988	1276.07	.03
313.15	.5962	1309.06	.03
313.15	.6997	1337.29	.03
313.15	.7931	1358.51	.03
313.15	.9014	1379.42	.03
313.15	1	1395.59	.03
318.15	0	783.14	.03
318.15	.1024	975.03	.03
318.15	.2019	1091.46	.03
318.15	.2973	1168.42	.03
318.15	.4011	1228.78	.03
318.15	.4988	1271.27	.03
318.15	.5962	1304.24	.03
318.15	.6997	1332.49	.03
318.15	.7931	1353.72	.03
318.15	.9014	1374.63	.03
318.15	1	1390.8	.03
323.15	0	778.93	.03
323.15	.1024	970.48	.03
323.15	.2019	1086.71	.03
323.15	.2973	1163.66	.03
323.15	.4011	1223.97	.03
323.15	.4988	1266.46	.03
323.15	.5962	1299.4	.03
323.15	.6997	1327.7	.03
323.15	.7931	1348.94	.03
323.15	.9014	1369.87	.03
323.15	1	1386.03	.03

System: 1-propanol + 2-ethyl-1,1,3,3-tetramethylguanidinium bis(trifluoromethylsulfonyl)imide; phases: Liquid
Fixed: Pressure, kPa = 100
Property: Viscosity, Pa*s (Liquid); method: Falling or rolling sphere viscometry
Temperature, K	Mole fraction of 2-ethyl-1,1,3,3-tetramethylguanidinium bis(trifluoromethylsulfonyl)imide	Viscosity, Pa*s	uncertainty
293.15	0	.002164	
293.15	.1024	.004462	
293.15	.2019	.00727	
293.15	.2973	.01087	
293.15	.4011	.0161	
293.15	.4988	.02163	
293.15	.5962	.02819	
293.15	.6997	.03671	
293.15	.7931	.04587	
293.15	.9014	.05837	
293.15	1	.07461	
298.15	0	.001948	
298.15	.1024	.003868	
298.15	.2019	.006213	
298.15	.2973	.009224	
298.15	.4011	.01349	
298.15	.4988	.01801	
298.15	.5962	.02323	
298.15	.6997	.02987	
298.15	.7931	.03715	
298.15	.9014	.04691	
298.15	1	.05886	
303.15	0	.001707	
303.15	.1024	.00338	
303.15	.2019	.005362	
303.15	.2973	.007898	
303.15	.4011	.01148	
303.15	.4988	.01521	
303.15	.5962	.01943	
303.15	.6997	.02476	
303.15	.7931	.03048	
303.15	.9014	.03817	
303.15	1	.04727	
308.15	0	.001525	
308.15	.1024	.002972	
308.15	.2019	.004667	
308.15	.2973	.006831	
308.15	.4011	.00985	
308.15	.4988	.01298	
308.15	.5962	.01647	
308.15	.6997	.02085	
308.15	.7931	.02537	
308.15	.9014	.03153	
308.15	1	.03871	
313.15	0	.001366	
313.15	.1024	.00263	
313.15	.2019	.004093	
313.15	.2973	.005966	
313.15	.4011	.008525	
313.15	.4988	.01121	
313.15	.5962	.01412	
313.15	.6997	.01773	
313.15	.7931	.02142	
313.15	.9014	.02643	
313.15	1	.0322	
318.15	0	.001228	
318.15	.1024	.00234	
318.15	.2019	.003684	
318.15	.2973	.005248	
318.15	.4011	.007433	
318.15	.4988	.009743	
318.15	.5962	.01224	
318.15	.6997	.01526	
318.15	.7931	.01828	
318.15	.9014	.02243	
318.15	1	.02709	
323.15	0	.001107	
323.15	.1024	.002094	
323.15	.2019	.003283	
323.15	.2973	.00464	
323.15	.4011	.006437	
323.15	.4988	.008553	
323.15	.5962	.0107	
323.15	.6997	.01327	
323.15	.7931	.01577	
323.15	.9014	.01926	
323.15	1	.02314	

System: ethanol + 2-ethyl-1,1,3,3-tetramethylguanidinium ethyl sulfate; phases: Liquid
Fixed: Pressure, kPa = 100
Property: Mass density, kg/m3 (Liquid); method: Vibrating tube method
Temperature, K	Mole fraction of 2-ethyl-1,1,3,3-tetramethylguanidinium ethyl sulfate	Mass density, kg/m3	uncertainty
293.15	0	789.62	.03
293.15	.0998	910.21	.03
293.15	.2003	984.3	.03
293.15	.3006	1033.78	.03
293.15	.4016	1069.61	.03
293.15	.498	1095.76	.03
293.15	.5996	1117.54	.03
293.15	.6976	1134.51	.03
293.15	.7969	1148.58	.03
293.15	.9008	1160.83	.03
293.15	1	1170.76	.03
298.15	0	785.25	.03
298.15	.0998	906.2	.03
298.15	.2003	980.34	.03
298.15	.3006	1030	.03
298.15	.4016	1065.96	.03
298.15	.498	1092.12	.03
298.15	.5996	1113.91	.03
298.15	.6976	1130.91	.03
298.15	.7969	1145.02	.03
298.15	.9008	1157.3	.03
298.15	1	1167.24	.03
303.15	0	780.89	.03
303.15	.0998	902.18	.03
303.15	.2003	976.55	.03
303.15	.3006	1026.22	.03
303.15	.4016	1062.27	.03
303.15	.498	1088.47	.03
303.15	.5996	1110.31	.03
303.15	.6976	1127.33	.03
303.15	.7969	1141.46	.03
303.15	.9008	1153.79	.03
303.15	1	1163.76	.03
308.15	0	776.52	.03
308.15	.0998	898.18	.03
308.15	.2003	972.66	.03
308.15	.3006	1022.45	.03
308.15	.4016	1058.6	.03
308.15	.498	1084.84	.03
308.15	.5996	1106.73	.03
308.15	.6976	1123.77	.03
308.15	.7969	1137.92	.03
308.15	.9008	1150.29	.03
308.15	1	1160.28	.03
313.15	0	772.12	.03
313.15	.0998	894.15	.03
313.15	.2003	968.7	.03
313.15	.3006	1018.66	.03
313.15	.4016	1054.91	.03
313.15	.498	1081.22	.03
313.15	.5996	1103.16	.03
313.15	.6976	1120.23	.03
313.15	.7969	1134.39	.03
313.15	.9008	1146.78	.03
313.15	1	1156.8	.03
318.15	0	767.71	.03
318.15	.0998	890.12	.03
318.15	.2003	964.81	.03
318.15	.3006	1014.86	.03
318.15	.4016	1051.24	.03
318.15	.498	1077.62	.03
318.15	.5996	1099.62	.03
318.15	.6976	1116.66	.03
318.15	.7969	1130.88	.03
318.15	.9008	1143.26	.03
318.15	1	1153.33	.03
323.15	0	763.26	.03
323.15	.0998	886.07	.03
323.15	.2003	960.91	.03
323.15	.3006	1011.05	.03
323.15	.4016	1047.55	.03
323.15	.498	1074.02	.03
323.15	.5996	1096.11	.03
323.15	.6976	1113.14	.03
323.15	.7969	1127.39	.03
323.15	.9008	1139.76	.03
323.15	1	1149.87	.03

System: ethanol + 2-ethyl-1,1,3,3-tetramethylguanidinium ethyl sulfate; phases: Liquid
Fixed: Pressure, kPa = 100
Property: Viscosity, Pa*s (Liquid); method: Falling or rolling sphere viscometry
Temperature, K	Mole fraction of 2-ethyl-1,1,3,3-tetramethylguanidinium ethyl sulfate	Viscosity, Pa*s	uncertainty
293.15	0	.001177	
293.15	.0998	.002824	
293.15	.2003	.005826	
293.15	.3006	.01142	
293.15	.4016	.02283	
293.15	.498	.04088	
293.15	.5996	.07339	
293.15	.6976	.1274	
293.15	.7969	.2136	
293.15	.9008	.3856	
293.15	1	.6734	
298.15	0	.001071	
298.15	.0998	.002546	
298.15	.2003	.005136	
298.15	.3006	.009821	
298.15	.4016	.01907	
298.15	.498	.03316	
298.15	.5996	.0572	
298.15	.6976	.09544	
298.15	.7969	.154	
298.15	.9008	.2644	
298.15	1	.4415	
303.15	0	.000978	
303.15	.0998	.002307	
303.15	.2003	.004559	
303.15	.3006	.008524	
303.15	.4016	.01615	
303.15	.498	.02711	
303.15	.5996	.04541	
303.15	.6976	.07308	
303.15	.7969	.1142	
303.15	.9008	.1879	
303.15	1	.3025	
308.15	0	.000895	
308.15	.0998	.002096	
308.15	.2003	.004072	
308.15	.3006	.007459	
308.15	.4016	.01381	
308.15	.498	.02256	
308.15	.5996	.03671	
308.15	.6976	.05739	
308.15	.7969	.08655	
308.15	.9008	.1349	
308.15	1	.2146	
313.15	0	.000822	
313.15	.0998	.00191	
313.15	.2003	.003656	
313.15	.3006	.006577	
313.15	.4016	.01192	
313.15	.498	.01904	
313.15	.5996	.03014	
313.15	.6976	.04597	
313.15	.7969	.06731	
313.15	.9008	.1037	
313.15	1	.1572	
318.15	0	.000756	
318.15	.0998	.001746	
318.15	.2003	.003298	
318.15	.3006	.005839	
318.15	.4016	.01038	
318.15	.498	.01626	
318.15	.5996	.02565	
318.15	.6976	.03727	
318.15	.7969	.05338	
318.15	.9008	.0796	
318.15	1	.1183	
323.15	0	.000698	
323.15	.0998	.001601	
323.15	.2003	.00299	
323.15	.3006	.005215	
323.15	.4016	.009094	
323.15	.498	.01401	
323.15	.5996	.0212	
323.15	.6976	.03075	
323.15	.7969	.04306	
323.15	.9008	.0627	
323.15	1	.09122	

System: 1-propanol + 2-ethyl-1,1,3,3-tetramethylguanidinium ethyl sulfate; phases: Liquid
Fixed: Pressure, kPa = 100
Property: Mass density, kg/m3 (Liquid); method: Vibrating tube method
Temperature, K	Mole fraction of 2-ethyl-1,1,3,3-tetramethylguanidinium ethyl sulfate	Mass density, kg/m3	uncertainty
293.15	0	803.49	.03
293.15	.0997	898.6	.03
293.15	.2003	964.92	.03
293.15	.3066	1016.48	.03
293.15	.3996	1051.52	.03
293.15	.5016	1082.4	.03
293.15	.5989	1106.32	.03
293.15	.6984	1126.59	.03
293.15	.7999	1144.02	.03
293.15	.8981	1158.38	.03
293.15	1	1170.76	.03
298.15	0	799.49	.03
298.15	.0997	894.7	.03
298.15	.2003	961.16	.03
298.15	.3066	1012.78	.03
298.15	.3996	1047.86	.03
298.15	.5016	1078.78	.03
298.15	.5989	1102.73	.03
298.15	.6984	1123.01	.03
298.15	.7999	1140.47	.03
298.15	.8981	1154.86	.03
298.15	1	1167.24	.03
303.15	0	795.46	.03
303.15	.0997	890.9	.03
303.15	.2003	957.41	.03
303.15	.3066	1009.1	.03
303.15	.3996	1044.26	.03
303.15	.5016	1075.17	.03
303.15	.5989	1099.15	.03
303.15	.6984	1119.44	.03
303.15	.7999	1136.93	.03
303.15	.8981	1151.36	.03
303.15	1	1163.76	.03
308.15	0	791.39	.03
308.15	.0997	887.03	.03
308.15	.2003	953.65	.03
308.15	.3066	1005.42	.03
308.15	.3996	1040.62	.03
308.15	.5016	1071.58	.03
308.15	.5989	1095.58	.03
308.15	.6984	1115.89	.03
308.15	.7999	1133.41	.03
308.15	.8981	1147.85	.03
308.15	1	1160.28	.03
313.15	0	787.29	.03
313.15	.0997	883.16	.03
313.15	.2003	949.88	.03
313.15	.3066	1001.73	.03
313.15	.3996	1036.98	.03
313.15	.5016	1068	.03
313.15	.5989	1092.03	.03
313.15	.6984	1112.37	.03
313.15	.7999	1129.9	.03
313.15	.8981	1144.35	.03
313.15	1	1156.8	.03
318.15	0	783.14	.03
318.15	.0997	879.26	.03
318.15	.2003	946.11	.03
318.15	.3066	998.04	.03
318.15	.3996	1033.37	.03
318.15	.5016	1064.43	.03
318.15	.5989	1088.5	.03
318.15	.6984	1108.86	.03
318.15	.7999	1126.4	.03
318.15	.8981	1140.87	.03
318.15	1	1153.33	.03
323.15	0	778.93	.03
323.15	.0997	875.35	.03
323.15	.2003	942.33	.03
323.15	.3066	994.35	.03
323.15	.3996	1029.73	.03
323.15	.5016	1060.87	.03
323.15	.5989	1084.97	.03
323.15	.6984	1105.36	.03
323.15	.7999	1122.93	.03
323.15	.8981	1137.4	.03
323.15	1	1149.87	.03

System: 1-propanol + 2-ethyl-1,1,3,3-tetramethylguanidinium ethyl sulfate; phases: Liquid
Fixed: Pressure, kPa = 100
Property: Viscosity, Pa*s (Liquid); method: Falling or rolling sphere viscometry
Temperature, K	Mole fraction of 2-ethyl-1,1,3,3-tetramethylguanidinium ethyl sulfate	Viscosity, Pa*s	uncertainty
293.15	0	.002164	
293.15	.0997	.004426	
293.15	.2003	.008127	
293.15	.3066	.01678	
293.15	.3996	.02709	
293.15	.5016	.04851	
293.15	.5989	.08264	
293.15	.6984	.1344	
293.15	.7999	.2431	
293.15	.8981	.4055	
293.15	1	.6734	
298.15	0	.001948	
298.15	.0997	.0039	
298.15	.2003	.007044	
298.15	.3066	.01397	
298.15	.3996	.02236	
298.15	.5016	.03884	
298.15	.5989	.06388	
298.15	.6984	.1003	
298.15	.7999	.1743	
298.15	.8981	.2782	
298.15	1	.4415	
303.15	0	.001707	
303.15	.0997	.003455	
303.15	.2003	.006152	
303.15	.3066	.0123	
303.15	.3996	.01874	
303.15	.5016	.03158	
303.15	.5989	.0504	
303.15	.6984	.07666	
303.15	.7999	.1285	
303.15	.8981	.1975	
303.15	1	.3025	
308.15	0	.001525	
308.15	.0997	.003077	
308.15	.2003	.005412	
308.15	.3066	.01072	
308.15	.3996	.01588	
308.15	.5016	.02607	
308.15	.5989	.04053	
308.15	.6984	.05978	
308.15	.7999	.0975	
308.15	.8981	.1453	
308.15	1	.2146	
313.15	0	.001366	
313.15	.0997	.002751	
313.15	.2003	.00479	
313.15	.3066	.009145	
313.15	.3996	.01359	
313.15	.5016	.02182	
313.15	.5989	.0331	
313.15	.6984	.04759	
313.15	.7999	.07547	
313.15	.8981	.11	
313.15	1	.1572	
318.15	0	.001228	
318.15	.0997	.002471	
318.15	.2003	.004266	
318.15	.3066	.00769	
318.15	.3996	.01173	
318.15	.5016	.01848	
318.15	.5989	.02742	
318.15	.6984	.03853	
318.15	.7999	.0597	
318.15	.8981	.08419	
318.15	1	.1183	
323.15	0	.001107	
323.15	.0997	.002228	
323.15	.2003	.003819	
323.15	.3066	.006777	
323.15	.3996	.0102	
323.15	.5016	.01579	
323.15	.5989	.02301	
323.15	.6984	.03166	
323.15	.7999	.04799	
323.15	.8981	.06648	
323.15	1	.09122	
