Measured thermophysical data. Measurement and Correlation of Isothermal Vapor Liquid Equilibrium of Fluoroethane + Dimethyl Ether Triethylene Glycol, 1,1-Difluoroethane + Dimethyl Ether Triethylene Glycol, and 1,1-Difluoroethane + N-Methyl-2-pyrrolidone Systems
Source: J. Chem. Eng. Data, 2016, 10.1021/acs.jced.5b00782
Compound 1: fluoroethane, C2H5F, purity 99.95%
Compound 2: 1,1-difluoroethane, C2H4F2, purity 99.90%
Compound 3: triethylene glycol, dimethyl ether, C8H18O4, purity 99.90%
Compound 4: N-methyl-2-pyrrolidone, C5H9NO, purity 99.90%
Compound 5: N,N-dimethylformamide, C3H7NO, purity 99.90%
Compound 6: 1,1,1,2-tetrafluoroethane, C2H2F4, purity 99.90%

System: triethylene glycol, dimethyl ether + fluoroethane; phases: Gas, Liquid
Property: Vapor or sublimation pressure, kPa (Gas); method: Closed cell (Static) method
Temperature, K	Mole fraction of fluoroethane	Vapor or sublimation pressure, kPa	uncertainty
293.15	.286	148.7	
293.15	.363	219.2	
293.15	.496	308.5	
293.15	.589	406.7	
293.15	.677	479.2	
293.15	.732	543.1	
293.15	.853	653.4	
293.15	.932	739.6	
303.15	.231	160.4	
303.15	.347	247.2	
303.15	.465	334.1	
303.15	.578	441.6	
303.15	.685	560.6	
303.15	.766	672.3	
303.15	.877	826.5	
303.15	.954	963.1	
313.15	.243	226.2	
313.15	.313	304.5	
313.15	.464	412.6	
313.15	.577	553.9	
313.15	.683	692.6	
313.15	.772	833.8	
313.15	.863	980.1	
313.15	.936	1151.3	
323.15	.261	306.3	
323.15	.387	432.6	
323.15	.461	536.4	
323.15	.542	640.1	
323.15	.671	826.7	
323.15	.756	957.3	
323.15	.853	1228.6	
323.15	.951	1560.6	
333.15	.271	376.2	
333.15	.366	512.3	
333.15	.462	676.5	
333.15	.543	806.8	
333.15	.676	1092.8	
333.15	.763	1221.2	
333.15	.855	1485.7	
333.15	.95	1916.3	
343.15	.263	402.2	
343.15	.365	568.2	
343.15	.443	736.6	
343.15	.537	912.6	
343.15	.682	1188.6	
343.15	.783	1520.4	
343.15	.872	1876.2	
343.15	.954	2368.3	
353.15	.247	446.8	
353.15	.327	612.4	
353.15	.412	779.3	
353.15	.51	1022.4	
353.15	.62	1249.9	
353.15	.723	1543.2	
353.15	.853	2013.6	
353.15	.932	2512.3	

System: 1,1-difluoroethane + triethylene glycol, dimethyl ether; phases: Gas, Liquid
Property: Vapor or sublimation pressure, kPa (Gas); method: Closed cell (Static) method
Temperature, K	Mole fraction of 1,1-difluoroethane	Vapor or sublimation pressure, kPa	uncertainty
293.15	.246	121.5	
293.15	.353	173.8	
293.15	.462	221.3	
293.15	.554	274.1	
293.15	.638	329.6	
293.15	.761	391.2	
293.15	.841	423.8	
293.15	.932	471.3	
303.15	.231	143.2	
303.15	.347	227.6	
303.15	.471	317.5	
303.15	.568	389.7	
303.15	.654	463.5	
303.15	.773	546.1	
303.15	.862	600.5	
303.15	.952	651.2	
313.15	.236	173.6	
313.15	.346	278.1	
313.15	.472	383.5	
313.15	.564	467.6	
313.15	.684	562.9	
313.15	.769	651.6	
313.15	.846	733.8	
313.15	.936	844.8	
323.15	.231	244.6	
323.15	.377	366.3	
323.15	.45	461.8	
323.15	.526	572.2	
323.15	.644	744.9	
323.15	.716	833.9	
323.15	.832	972.6	
323.15	.941	1178	
333.15	.22	319.5	
333.15	.337	444.9	
333.15	.417	598.6	
333.15	.516	726.4	
333.15	.622	907.3	
333.15	.756	1135.2	
333.15	.864	1267.5	
333.15	.957	1411.6	
343.15	.217	366.7	
343.15	.355	617.2	
343.15	.418	728.7	
343.15	.531	923.5	
343.15	.611	1097.6	
343.15	.72	1299.6	
343.15	.867	1586.6	
343.15	.952	1806.3	
353.15	.257	519.6	
353.15	.349	763.2	
353.15	.441	928.7	
353.15	.562	1203.3	
353.15	.632	1433.6	
353.15	.777	1776.1	
353.15	.861	2022.3	
353.15	.961	2312.8	

System: 1,1-difluoroethane + N-methyl-2-pyrrolidone; phases: Gas, Liquid
Property: Vapor or sublimation pressure, kPa (Gas); method: Closed cell (Static) method
Temperature, K	Mole fraction of 1,1-difluoroethane	Vapor or sublimation pressure, kPa	uncertainty
293.15	.212	171.5	
293.15	.323	216.5	
293.15	.441	264.8	
293.15	.535	314.1	
293.15	.629	361.3	
293.15	.718	413.6	
293.15	.826	475.2	
293.15	.901	510.7	
303.15	.238	249.8	
303.15	.349	311.6	
303.15	.468	375.1	
303.15	.539	420.7	
303.15	.652	487.8	
303.15	.751	544.2	
303.15	.829	601.8	
303.15	.912	673.5	
313.15	.227	272.1	
313.15	.336	342.8	
313.15	.454	422.7	
313.15	.562	501.3	
313.15	.684	600.6	
313.15	.781	704.5	
313.15	.877	810.5	
313.15	.916	870.9	
323.15	.237	358.9	
323.15	.354	451.2	
323.15	.472	553.4	
323.15	.581	661.8	
323.15	.692	777.1	
323.15	.788	882.6	
323.15	.879	993.7	
323.15	.926	1082.7	
333.15	.242	422.6	
333.15	.381	578.6	
333.15	.468	691.7	
333.15	.571	817.5	
333.15	.682	965.3	
333.15	.766	1138.8	
333.15	.851	1286.7	
333.15	.921	1496.8	
343.15	.236	526.8	
343.15	.351	715.7	
343.15	.448	895.9	
343.15	.561	1082.3	
343.15	.659	1271.8	
343.15	.738	1431.5	
343.15	.841	1651.1	
343.15	.916	1842.3	
353.15	.236	641.5	
353.15	.361	882.7	
353.15	.443	1070.8	
353.15	.558	1286.7	
353.15	.661	1492.6	
353.15	.753	1751.6	
353.15	.844	2023.4	
353.15	.914	2299.6	

System: N,N-dimethylformamide + 1,1,1,2-tetrafluoroethane; phases: Gas, Liquid
Property: Vapor or sublimation pressure, kPa (Gas); method: Closed cell (Static) method
Mole fraction of 1,1,1,2-tetrafluoroethane	Temperature, K	Vapor or sublimation pressure, kPa	uncertainty
.241	293.15	116	
.324	293.15	169.2	
.396	293.15	195.8	
.488	293.15	255.7	
.242	303.15	155.8	
.328	303.15	226.8	
.388	303.15	258.9	
.501	303.15	340.4	
