Measured thermophysical data. Stable Phase Equilibrium in the Aqueous Quaternary System Rb+, Mg2+//Cl , borate H2O at 323 K
Source: J. Chem. Eng. Data, 2016, 10.1021/acs.jced.6b00024
Compound 1: rubidium chloride, ClRb, purity 99%
Compound 2: dirubidium tetraborate, B4O7Rb2, purity 99%
Compound 3: magnesium chloride, Cl2Mg, purity 99%
Compound 4: magnesium tetraborate, B4MgO7, purity 99%
Compound 5: water, H2O, purity 99%

System: water + rubidium chloride + dirubidium tetraborate; phases: Liquid, Crystal of intercomponent compound 1
Fixed: Temperature, K = 323
Fixed: Pressure, kPa = 100
Property: Mass fraction of rubidium chloride (Liquid); method: Titration method
Mass fraction of dirubidium tetraborate	Mass fraction of rubidium chloride	uncertainty
.0165	.5065	

System: water + rubidium chloride + dirubidium tetraborate; phases: Liquid, Crystal
Fixed: Temperature, K = 323
Fixed: Pressure, kPa = 100
Property: Mass fraction of rubidium chloride (Liquid); method: Titration method
Mass fraction of dirubidium tetraborate	Mass fraction of rubidium chloride	uncertainty
.0165	.5065	

System: water + rubidium chloride + dirubidium tetraborate; phases: Liquid
Fixed: Temperature, K = 323
Fixed: Pressure, kPa = 100
Property: Mass density, kg/m3 (Liquid); method: Pycnometric method
Mass fraction of dirubidium tetraborate	Mass fraction of rubidium chloride	Mass density, kg/m3	uncertainty
.0165	.5065	1645.1	

System: water + rubidium chloride + dirubidium tetraborate; phases: Liquid
Fixed: Pressure, kPa = 100
Fixed: Temperature, K = 323
Property: Refractive index (Na D-line) (Liquid); method: Standard Abbe refractometry
Mass fraction of dirubidium tetraborate	Mass fraction of rubidium chloride	Refractive index (Na D-line)	uncertainty
.0165	.5065	1.3965	

System: water + magnesium chloride + rubidium chloride; phases: Liquid, Crystal of intercomponent compound 2
Fixed: Temperature, K = 323
Fixed: Pressure, kPa = 100
Property: Mass fraction of magnesium chloride (Liquid); method: Titration method
Mass fraction of rubidium chloride	Mass fraction of magnesium chloride	uncertainty
.0032	.3585	

System: water + magnesium chloride + rubidium chloride; phases: Liquid, Crystal of intercomponent compound 3
Fixed: Temperature, K = 323
Fixed: Pressure, kPa = 100
Property: Mass fraction of magnesium chloride (Liquid); method: Titration method
Mass fraction of rubidium chloride	Mass fraction of magnesium chloride	uncertainty
.0032	.3585	

System: water + magnesium chloride + rubidium chloride; phases: Liquid
Fixed: Temperature, K = 323
Fixed: Pressure, kPa = 100
Property: Mass density, kg/m3 (Liquid); method: Pycnometric method
Mass fraction of rubidium chloride	Mass fraction of magnesium chloride	Mass density, kg/m3	uncertainty
.0032	.3585	1421	

System: water + magnesium chloride + rubidium chloride; phases: Liquid
Fixed: Pressure, kPa = 100
Fixed: Temperature, K = 323
Property: Refractive index (Na D-line) (Liquid); method: Standard Abbe refractometry
Mass fraction of rubidium chloride	Mass fraction of magnesium chloride	Refractive index (Na D-line)	uncertainty
.0032	.3585	1.4295	

System: water + magnesium chloride + magnesium tetraborate; phases: Liquid, Crystal of intercomponent compound 3
Fixed: Temperature, K = 323
Fixed: Pressure, kPa = 100
Property: Mass fraction of magnesium chloride (Liquid); method: Titration method
Mass fraction of magnesium tetraborate	Mass fraction of magnesium chloride	uncertainty
.0322	.3491	

System: water + magnesium chloride + magnesium tetraborate; phases: Liquid, Crystal of intercomponent compound 1
Fixed: Temperature, K = 323
Fixed: Pressure, kPa = 100
Property: Mass fraction of magnesium chloride (Liquid); method: Titration method
Mass fraction of magnesium tetraborate	Mass fraction of magnesium chloride	uncertainty
.0322	.3491	

System: water + magnesium chloride + magnesium tetraborate; phases: Liquid
Fixed: Temperature, K = 323
Fixed: Pressure, kPa = 100
Property: Mass density, kg/m3 (Liquid); method: Pycnometric method
Mass fraction of magnesium tetraborate	Mass fraction of magnesium chloride	Mass density, kg/m3	uncertainty
.0322	.3491	1428.3	

System: water + magnesium chloride + magnesium tetraborate; phases: Liquid
Fixed: Pressure, kPa = 100
Fixed: Temperature, K = 323
Property: Refractive index (Na D-line) (Liquid); method: Standard Abbe refractometry
Mass fraction of magnesium tetraborate	Mass fraction of magnesium chloride	Refractive index (Na D-line)	uncertainty
.0322	.3491	1.4369	

System: water + magnesium tetraborate + dirubidium tetraborate; phases: Liquid, Crystal of intercomponent compound 1
Fixed: Temperature, K = 323
Fixed: Pressure, kPa = 100
Property: Mass fraction of magnesium tetraborate (Liquid); method: Titration method
Mass fraction of dirubidium tetraborate	Mass fraction of magnesium tetraborate	uncertainty
.0414	.0046	

System: water + magnesium tetraborate + dirubidium tetraborate; phases: Liquid, Crystal of intercomponent compound 1
Fixed: Temperature, K = 323
Fixed: Pressure, kPa = 100
Property: Mass fraction of magnesium tetraborate (Liquid); method: Titration method
Mass fraction of dirubidium tetraborate	Mass fraction of magnesium tetraborate	uncertainty
.0414	.0046	

System: water + magnesium tetraborate + dirubidium tetraborate; phases: Liquid
Fixed: Temperature, K = 323
Fixed: Pressure, kPa = 100
Property: Mass density, kg/m3 (Liquid); method: Pycnometric method
Mass fraction of dirubidium tetraborate	Mass fraction of magnesium tetraborate	Mass density, kg/m3	uncertainty
.0414	.0046	1114	

System: water + magnesium tetraborate + dirubidium tetraborate; phases: Liquid
Fixed: Pressure, kPa = 100
Fixed: Temperature, K = 323
Property: Refractive index (Na D-line) (Liquid); method: Standard Abbe refractometry
Mass fraction of dirubidium tetraborate	Mass fraction of magnesium tetraborate	Refractive index (Na D-line)	uncertainty
.0414	.0046	1.3414	
