Measured thermophysical data. Micellization and Adsorption of Heterogemini Surfactants Containing a Hydroxyl Headgroup in Aqueous Solution
Source: J. Chem. Eng. Data, 2016, 10.1021/acs.jced.5b00778
Compound 1: N-(3-(hexadecyloxy)-2-hydroxypropyl)-N,N-dimethyloctan-1-aminium bromide, C29H62BrNO2
Compound 2: N-(2-hydroxy-3-(tetradecyloxy)propyl)-N,N-dimethyloctan-1-aminium bromide, C27H58BrNO2, purity 99%
Compound 3: N-(3-(dodecyloxy)-2-hydroxypropyl)-N,N-dimethyloctan-1-aminium bromide, C25H54BrNO2, purity 95%
Compound 4: N-(3-(decyloxy)-2-hydroxypropyl)-N,N-dimethyloctan-1-aminium bromide, C23H50BrNO2, purity 95%
Compound 5: N-(3-(decyloxy)-2-hydroxypropyl)-N,N-dimethyltetradecan-1-aminium bromide, C29H62BrNO2, purity 95%
Compound 6: water, H2O, purity 99.8%

System: water + N-(3-(decyloxy)-2-hydroxypropyl)-N,N-dimethyloctan-1-aminium bromide; phases: Liquid, Air at 1 atmosphere
Fixed: Temperature, K = 298.15
Property: Surface tension liquid-gas, N/m (Liquid); method: Ring tensiometer
Molality, mol/kg of N-(3-(decyloxy)-2-hydroxypropyl)-N,N-dimethyloctan-1-aminium bromide	Surface tension liquid-gas, N/m	uncertainty
.00074131	.03329	
.000524807	.03586	
.000371535	.03903	
.000263027	.04195	
.000190546	.04513	
.000151356	.047	
.0001122	.04975	
.00007413	.05371	
.00003715	.05962	
.00003388	.06078	
.00002399	.06384	

System: water + N-(3-(decyloxy)-2-hydroxypropyl)-N,N-dimethyloctan-1-aminium bromide; phases: Liquid
Fixed: Temperature, K = 298.15
Fixed: Pressure, kPa = 100
Property: Electrical conductivity, S/m (Liquid); method: Alternating current cell with electrodes
Molality, mol/kg of N-(3-(decyloxy)-2-hydroxypropyl)-N,N-dimethyloctan-1-aminium bromide	Electrical conductivity, S/m	uncertainty
.0010623	.00937	
.0009105	.00827	
.000835	.00758	
.0007588	.00697	
.000607	.00573	
.000535	.00496	
.0004553	.00439	
.0003035	.00316	
.000235	.0023	
.0001518	.00161	
.0000759	.00088	

System: water + N-(3-(dodecyloxy)-2-hydroxypropyl)-N,N-dimethyloctan-1-aminium bromide; phases: Liquid, Air at 1 atmosphere
Fixed: Temperature, K = 298.15
Property: Surface tension liquid-gas, N/m (Liquid); method: Ring tensiometer
Molality, mol/kg of N-(3-(dodecyloxy)-2-hydroxypropyl)-N,N-dimethyloctan-1-aminium bromide	Surface tension liquid-gas, N/m	uncertainty
.000190546	.03342	
.000147911	.03643	
.000104713	.03979	
.000085114	.0425	
.000063096	.0461	
.000048978	.04846	
.000035481	.05204	
.000028184	.05397	
.000020893	.05765	
.000017378	.06007	
.000010471	.06492	

System: water + N-(3-(dodecyloxy)-2-hydroxypropyl)-N,N-dimethyloctan-1-aminium bromide; phases: Liquid
Fixed: Pressure, kPa = 100
Fixed: Temperature, K = 298.15
Property: Electrical conductivity, S/m (Liquid); method: Alternating current cell with electrodes
Molality, mol/kg of N-(3-(dodecyloxy)-2-hydroxypropyl)-N,N-dimethyloctan-1-aminium bromide	Electrical conductivity, S/m	uncertainty
.2243	.00226	
.1962	.00195	
.1682	.00173	
.1402	.00141	
.1121	.00117	
.0841	.00105	
.0561	.00065	
.028	.00034	
.014	.00023	

System: water + N-(2-hydroxy-3-(tetradecyloxy)propyl)-N,N-dimethyloctan-1-aminium bromide; phases: Liquid, Air at 1 atmosphere
Fixed: Temperature, K = 298.15
Property: Surface tension liquid-gas, N/m (Liquid); method: Ring tensiometer
Molality, mol/kg of N-(2-hydroxy-3-(tetradecyloxy)propyl)-N,N-dimethyloctan-1-aminium bromide	Surface tension liquid-gas, N/m	uncertainty
.000045709	.03374	
.000033884	.03616	
.000025119	.03909	
.000019953	.0415	
.000015136	.04486	
.000011749	.0479	
.000008511	.05191	
.000006761	.05453	
.000005012	.05867	
.000004169	.05907	
.000003388	.06085	

System: water + N-(2-hydroxy-3-(tetradecyloxy)propyl)-N,N-dimethyloctan-1-aminium bromide; phases: Liquid
Fixed: Pressure, kPa = 100
Fixed: Temperature, K = 298.15
Property: Electrical conductivity, S/m (Liquid); method: Alternating current cell with electrodes
Molality, mol/kg of N-(2-hydroxy-3-(tetradecyloxy)propyl)-N,N-dimethyloctan-1-aminium bromide	Electrical conductivity, S/m	uncertainty
.0414	.000683	
.036	.000636	
.0306	.000521	
.0252	.000427	
.0198	.000343	
.0144	.000255	
.009	.000161	

System: water + N-(3-(hexadecyloxy)-2-hydroxypropyl)-N,N-dimethyloctan-1-aminium bromide; phases: Liquid, Air at 1 atmosphere
Fixed: Temperature, K = 298.15
Property: Surface tension liquid-gas, N/m (Liquid); method: Ring tensiometer
Molality, mol/kg of N-(3-(hexadecyloxy)-2-hydroxypropyl)-N,N-dimethyloctan-1-aminium bromide	Surface tension liquid-gas, N/m	uncertainty
.00001023	.03764	
.00000794	.0416	
.00000589	.04465	
.00000437	.04871	
.00000407	.05595	
.0000038	.06095	
.00000355	.06194	
.00000263	.06855	
.00000204	.06909	

System: water + N-(3-(hexadecyloxy)-2-hydroxypropyl)-N,N-dimethyloctan-1-aminium bromide; phases: Liquid
Fixed: Pressure, kPa = 100
Fixed: Temperature, K = 298.15
Property: Electrical conductivity, S/m (Liquid); method: Alternating current cell with electrodes
Molality, mol/kg of N-(3-(hexadecyloxy)-2-hydroxypropyl)-N,N-dimethyloctan-1-aminium bromide	Electrical conductivity, S/m	uncertainty
.0067	.000056	
.0076	.000058	
.0086	.000064	
.0095	.000074	
.0105	.000077	
.0114	.000078	
.0124	.000093	
.0133	.000096	
.0143	.000114	
.0152	.000111	
.0162	.000121	
.0171	.000132	
.0181	.000144	
.019	.000147	
.0209	.000168	
.0219	.000176	
.0229	.00019	
.0238	.000201	
.0248	.000212	

System: water + N-(3-(decyloxy)-2-hydroxypropyl)-N,N-dimethyltetradecan-1-aminium bromide; phases: Liquid, Air at 1 atmosphere
Fixed: Temperature, K = 298.15
Property: Surface tension liquid-gas, N/m (Liquid); method: Ring tensiometer
Molality, mol/kg of N-(3-(decyloxy)-2-hydroxypropyl)-N,N-dimethyltetradecan-1-aminium bromide	Surface tension liquid-gas, N/m	uncertainty
.000002818	.03363	
.000002291	.03565	
.000001698	.04095	
.000001413	.04406	
.000001148	.04814	
.000000851	.05377	
.000000724	.05718	
.000000562	.06568	
.000000417	.06941	
.000000282	.06987	
.00000024	.07044	

System: water + N-(3-(decyloxy)-2-hydroxypropyl)-N,N-dimethyltetradecan-1-aminium bromide; phases: Liquid
Fixed: Temperature, K = 298.15
Fixed: Pressure, kPa = 100
Property: Electrical conductivity, S/m (Liquid); method: Alternating current cell with electrodes
Molality, mol/kg of N-(3-(decyloxy)-2-hydroxypropyl)-N,N-dimethyltetradecan-1-aminium bromide	Electrical conductivity, S/m	uncertainty
.0013	.000028	
.0027	.000049	
.004	.000049	
.0053	.000058	
.0067	.00008	
.008	.000102	
.0093	.000111	
.0107	.000117	
.012	.000157	
.0133	.00017	
.0147	.000166	
.016	.000201	
.0174	.000211	
.0187	.000243	
.02	.000261	
.0214	.000284	
.0227	.000297	
.024	.000319	
.0254	.00033	
.0267	.000361	
.028	.000376	
