Measured thermophysical data. Interfacial Tension and Related Properties of Ionic Liquids in CH4 and CO2 at Elevated Pressures: Experimental Data and Molecular Dynamics Simulation
Source: J. Chem. Eng. Data, 2017, 10.1021/acs.jced.6b00751
Compound 1: carbon dioxide, CO2
Compound 2: methane, CH4
Compound 3: 1-butyl-3-methylimidazolium hexafluorophosphate [BMIM][PF6], C8H15F6N2P, purity 99.6%
Compound 4: 1-ethyl-3-methylimidazolium ethyl sulfate, C8H16N2O4S, purity 99.4%
Compound 5: water, H2O, purity 99.8%

System: 1-butyl-3-methylimidazolium hexafluorophosphate [BMIM][PF6]; phases: Liquid
Fixed: Pressure, kPa = 101.325
Property: Mass density, kg/m3 (Liquid); method: Vibrating tube method
Temperature, K	Mass density, kg/m3	uncertainty
298.15	1369.9	
313.15	1350.4	
333.15	1325.2	
353.15	1288.4	

System: 1-ethyl-3-methylimidazolium ethyl sulfate; phases: Liquid
Fixed: Pressure, kPa = 101.325
Property: Mass density, kg/m3 (Liquid); method: Vibrating tube method
Temperature, K	Mass density, kg/m3	uncertainty
298.15	1234.1	
313.15	1219.1	
333.15	1199.1	
353.15	1170.4	

System: 1-ethyl-3-methylimidazolium ethyl sulfate + carbon dioxide; phases: Liquid, Gas
Property: Mass density, kg/m3 (Liquid); method: Vibrating tube method
Temperature, K	Pressure, kPa	Mass density, kg/m3	uncertainty
298.15	100	1234.1	
298.15	500	1234.3	
298.15	1000	1234.5	
298.15	2000	1235	
298.15	2500	1235.2	
298.15	3000	1235.4	
298.15	4000	1235.8	
298.15	5000	1236.2	
298.15	6000	1236.6	
298.15	7000	1237	
298.15	7500	1237.2	
298.15	8000	1237.4	
298.15	9000	1237.8	
298.15	10000	1238.2	
298.15	15000	1240.1	
298.15	20000	1241.8	
298.15	25000	1243.4	
313.15	100	1219.1	
313.15	500	1219.3	
313.15	2500	1220.4	
313.15	5000	1221.7	
313.15	7500	1222.9	
313.15	10000	1224.1	
313.15	12500	1225.1	
313.15	15000	1226.1	
313.15	17500	1227	
313.15	20000	1227.9	
313.15	25000	1229.5	
333.15	100	1199.1	
333.15	500	1199.3	
333.15	2500	1200.3	
333.15	5000	1201.5	
333.15	7500	1202.6	
333.15	10000	1203.7	
333.15	12500	1204.7	
333.15	15000	1205.7	
333.15	17500	1206.6	
333.15	20000	1207.4	
333.15	25000	1208.9	
353.15	100	1170.4	
353.15	500	1170.5	
353.15	2500	1171.4	
353.15	5000	1172.5	
353.15	7500	1173.6	
353.15	10000	1174.7	
353.15	12500	1175.7	
353.15	15000	1176.6	
353.15	17500	1177.6	
353.15	20000	1178.5	
353.15	25000	1180.2	

System: 1-ethyl-3-methylimidazolium ethyl sulfate + carbon dioxide; phases: Liquid, Gas
Property: Surface tension liquid-gas, N/m (Liquid); method: Pendant drop shape
Temperature, K	Pressure, kPa	Surface tension liquid-gas, N/m	uncertainty
298.15	100	.0473	
298.15	1000	.0401	
298.15	2000	.0344	
298.15	3000	.0291	
298.15	4000	.0242	
298.15	5000	.0191	
298.15	6000	.0137	
298.15	7000	.0103	
298.15	8000	.01	
298.15	9000	.0098	
298.15	10000	.0097	
313.15	100	.0537	
313.15	500	.0448	
313.15	2500	.0344	
313.15	5000	.0241	
313.15	7500	.0188	
313.15	10000	.0121	
313.15	12500	.0117	
313.15	15000	.0112	
313.15	17500	.0112	
313.15	20000	.0103	
333.15	100	.047	
333.15	500	.0431	
333.15	2500	.0378	
333.15	5000	.0335	
333.15	7500	.0246	
333.15	10000	.019	
333.15	12500	.0162	
333.15	15000	.015	
333.15	17500	.0129	
333.15	20000	.013	
353.15	100	.044	
353.15	500	.0425	
353.15	2500	.0367	
353.15	5000	.0344	
353.15	7500	.0283	
353.15	10000	.0239	
353.15	12500	.0199	
353.15	15000	.0177	
353.15	17500	.0173	
353.15	20000	.0158	

System: 1-ethyl-3-methylimidazolium ethyl sulfate + carbon dioxide; phases: Liquid, Gas
Property: Mass fraction of carbon dioxide (Liquid); method: Phase equilibration
Temperature, K	Pressure, kPa	Mass fraction of carbon dioxide	uncertainty
353.6	15630	.192	

System: 1-ethyl-3-methylimidazolium ethyl sulfate + carbon dioxide; phases: Liquid, Gas
Property: Binary diffusion coefficient, m2/s (Liquid); method: Open capillary
Temperature, K	Pressure, kPa	Binary diffusion coefficient, m2/s	uncertainty
353.6	15630	0.000000008	

System: 1-butyl-3-methylimidazolium hexafluorophosphate [BMIM][PF6] + carbon dioxide; phases: Liquid, Gas
Property: Mass density, kg/m3 (Liquid); method: Vibrating tube method
Temperature, K	Pressure, kPa	Mass density, kg/m3	uncertainty
298.15	100	1369.9	
298.15	500	1370.3	
298.15	1000	1370.7	
298.15	2000	1371.6	
298.15	2500	1372	
298.15	3000	1372.4	
298.15	4000	1373.3	
298.15	5000	1374.1	
298.15	6000	1374.8	
298.15	7000	1375.6	
298.15	7500	1376	
298.15	8000	1376.3	
298.15	9000	1377	
298.15	10000	1377.7	
298.15	15000	1380.6	
298.15	20000	1382.8	
298.15	25000	1382	
313.15	100	1350.4	
313.15	500	1350.8	
313.15	2500	1352.6	
313.15	5000	1354.8	
313.15	7500	1356.7	
313.15	10000	1358.5	
313.15	12500	1360.1	
313.15	15000	1361.5	
313.15	17500	1362.8	
313.15	20000	1363.8	
313.15	25000	1366.2	
333.15	100	1325.2	
333.15	500	1325.5	
333.15	2500	1326.9	
333.15	5000	1328.6	
333.15	7500	1330.2	
333.15	10000	1331.7	
333.15	12500	1333.2	
333.15	15000	1334.6	
333.15	17500	1335.9	
333.15	20000	1337.2	
333.15	25000	1339.6	
353.15	100	1288.4	
353.15	500	1288.8	
353.15	2500	1290.5	
353.15	5000	1292.6	
353.15	7500	1294.5	
353.15	10000	1296.3	
353.15	12500	1297.9	
353.15	15000	1299.3	
353.15	17500	1300.7	
353.15	20000	1301.8	
353.15	25000	1304	

System: 1-butyl-3-methylimidazolium hexafluorophosphate [BMIM][PF6] + carbon dioxide; phases: Liquid, Gas
Property: Surface tension liquid-gas, N/m (Liquid); method: Pendant drop shape
Temperature, K	Pressure, kPa	Surface tension liquid-gas, N/m	uncertainty
313.15	100	.0465	
313.15	500	.0443	
313.15	2500	.0342	
313.15	5000	.0233	
313.15	7500	.0145	
313.15	12500	.0097	
313.15	15000	.0091	
313.15	17500	.0088	
313.15	20000	.0085	
333.15	100	.0405	
333.15	500	.0386	
333.15	2500	.0322	
333.15	5000	.0255	
333.15	7500	.0196	
333.15	10000	.0148	
333.15	12500	.0122	
333.15	15000	.0122	
333.15	17500	.011	
333.15	20000	.0103	
353.15	100	.0433	
353.15	500	.042	
353.15	2500	.0355	
353.15	5000	.0287	
353.15	7500	.0238	
353.15	10000	.0196	
353.15	12500	.015	
353.15	15000	.0141	
353.15	17500	.0127	
353.15	20000	.0118	

System: 1-butyl-3-methylimidazolium hexafluorophosphate [BMIM][PF6] + carbon dioxide; phases: Liquid, Gas
Property: Mass fraction of carbon dioxide (Liquid); method: Phase equilibration
Temperature, K	Pressure, kPa	Mass fraction of carbon dioxide	uncertainty
314.8	18200	.174	
353.3	15530	.145	

System: 1-butyl-3-methylimidazolium hexafluorophosphate [BMIM][PF6] + carbon dioxide; phases: Liquid, Gas
Property: Binary diffusion coefficient, m2/s (Liquid); method: Open capillary
Temperature, K	Pressure, kPa	Binary diffusion coefficient, m2/s	uncertainty
353.3	15530	0.000000005	

System: 1-ethyl-3-methylimidazolium ethyl sulfate + methane; phases: Liquid, Gas
Property: Mass density, kg/m3 (Liquid); method: Vibrating tube method
Temperature, K	Pressure, kPa	Mass density, kg/m3	uncertainty
298.15	100	1234.1	
298.15	1000	1234.5	
298.15	2000	1235	
298.15	3000	1235.4	
298.15	4000	1235.8	
298.15	5000	1236.2	
298.15	6000	1236.6	
298.15	7000	1237	
298.15	8000	1237.4	
298.15	9000	1237.8	
298.15	10000	1238.2	

System: 1-ethyl-3-methylimidazolium ethyl sulfate + methane; phases: Liquid, Gas
Property: Surface tension liquid-gas, N/m (Liquid); method: Pendant drop shape
Temperature, K	Pressure, kPa	Surface tension liquid-gas, N/m	uncertainty
298.15	100	.0475	
298.15	1000	.0452	
298.15	2000	.0433	
298.15	3000	.0415	
298.15	4000	.04	
298.15	5000	.0386	
298.15	6000	.0372	
298.15	7000	.0359	
298.15	8000	.0348	
298.15	9000	.0338	
298.15	10000	.0328	

System: 1-ethyl-3-methylimidazolium ethyl sulfate + methane; phases: Liquid, Gas
Property: Mass fraction of methane (Liquid); method: Phase equilibration
Temperature, K	Pressure, kPa	Mass fraction of methane	uncertainty
353.9	15340	.0093	

System: 1-ethyl-3-methylimidazolium ethyl sulfate + methane; phases: Liquid, Gas
Property: Binary diffusion coefficient, m2/s (Liquid); method: Open capillary
Temperature, K	Pressure, kPa	Binary diffusion coefficient, m2/s	uncertainty
353.9	15340	0.0000000012	

System: 1-butyl-3-methylimidazolium hexafluorophosphate [BMIM][PF6] + methane; phases: Liquid, Gas
Property: Mass fraction of methane (Liquid); method: Phase equilibration
Temperature, K	Pressure, kPa	Mass fraction of methane	uncertainty
312.8	20490	.0069	
312.9	25380	.0073	
353.4	15230	.0046	
353.9	20640	.0051	
354.3	26030	.0065	

System: 1-butyl-3-methylimidazolium hexafluorophosphate [BMIM][PF6] + methane; phases: Liquid, Gas
Property: Binary diffusion coefficient, m2/s (Liquid); method: Open capillary
Temperature, K	Pressure, kPa	Binary diffusion coefficient, m2/s	uncertainty
312.8	20490	0.0000000018	
312.9	25380	0.0000000012	
353.4	15230	0.0000000023	
353.9	20640	0.000000003	
354.3	26030	0.0000000036	
