Measured thermophysical data. Self-Diffusion Coefficients and Related Transport Properties for a Number of Fragile Ionic Liquids
Source: J. Chem. Eng. Data, 2016, 10.1021/acs.jced.6b00021
Compound 1: 1-ethyl-3-methylimidazolium tetracyanoborate, C10H11BN6, purity 99.9%
Compound 2: 1-ethyl-3-methylimidazolium methanesulfonate, C7H14N2O3S, purity 99.9%
Compound 3: 1-ethyl-3-methyl-1H-imidazol-3-ium trifluoromethanesulfonate, C7H11F3N2O3S, purity 99.2%
Compound 4: 1-ethyl-3-methylimidazolium tris(pentafluoroethyl)trifluorophosphate, C12H11F18N2P, purity 99.9%
Compound 5: 2-hydroxyethyl-N,N,N-trimethylammonium bis(trifluoromethylsulfonyl)imide, C7H14F6N2O5S2, purity 98%
Compound 6: 1,2-propylene carbonate, C4H6O3, purity 99.88%

System: 1-ethyl-3-methylimidazolium tetracyanoborate; phases: Liquid
Property: Mass density, kg/m3 (Liquid); method: Vibrating tube method
Pressure, kPa	Temperature, K	Mass density, kg/m3	uncertainty
100	273.15	1056.29	
100	283.15	1048.19	
100	293.15	1040.2	
100	298.15	1036.25	
100	303.15	1032.31	
100	313.15	1024.52	
100	323.15	1016.81	
100	333.15	1009.19	
100	343.15	1001.66	
100	353.15	994.2	
100	363.15	986.83	

System: 1-ethyl-3-methylimidazolium tetracyanoborate; phases: Liquid
Fixed: Pressure, kPa = 101.325
Property: Viscosity, Pa*s (Liquid); method: Falling or rolling sphere viscometry
Temperature, K	Viscosity, Pa*s	uncertainty
268.15	.08178	
268.15	.08081	
273.15	.06007	
273.15	.06007	
278.15	.04477	
283.15	.03473	
283.15	.03473	
293.15	.02235	
293.15	.02225	
293.15	.02209	
293.15	.02249	
293.15	.02247	
298.15	.01852	
298.15	.01852	
298.15	.01851	
263.15	.1113	
264.05	.1084	
265.65	.09635	
265.65	.09652	
268.15	.081	
268.15	.07985	
268.15	.08133	
268.15	.08099	
273.15	.05891	
273.15	.05887	
283.15	.03455	
283.15	.03465	
288.15	.0274	
288.15	.0273	
288.15	.02714	
293.15	.02203	
293.15	.02235	
296.15	.01964	
296.15	.01947	
296.15	.01962	
296.15	.01959	
298.15	.01802	
298.15	.01799	
300.15	.01716	
303.15	.01547	
303.15	.01547	
313.15	.01107	
313.15	.01121	
313.15	.01127	
313.15	.01125	
323.15	.008531	
323.15	.008521	
323.15	.008518	
333.15	.00668	
333.15	.00668	
333.15	.00668	
338.15	.005992	
338.15	.006022	
343.15	.005399	
343.15	.0054	
343.15	.005395	
348.15	.004921	
348.15	.00492	
353.15	.004458	
353.15	.004455	
353.15	.004454	
300.15	.01693	
303.15	.01564	
303.15	.01562	
313.15	.01139	

System: 1-ethyl-3-methylimidazolium methanesulfonate; phases: Liquid
Property: Mass density, kg/m3 (Liquid); method: Vibrating tube method
Pressure, kPa	Temperature, K	Mass density, kg/m3	uncertainty
100	278.15	1256.19	
100	280.65	1254.4	
100	283.15	1252.62	
100	285.65	1250.84	
100	288.15	1249.07	
100	293.15	1245.55	
100	293.15	1245.55	
100	298.15	1242.06	
100	298.15	1242.06	
100	303.15	1238.7	
100	313.15	1231.94	
100	323.15	1225.21	
100	333.15	1218.52	
100	343.15	1211.87	
100	353.15	1205.26	
100	363.15	1198.74	

System: 1-ethyl-3-methylimidazolium methanesulfonate; phases: Liquid
Fixed: Pressure, kPa = 101.325
Property: Viscosity, Pa*s (Liquid); method: Falling or rolling sphere viscometry
Temperature, K	Viscosity, Pa*s	uncertainty
283.15	.4722	
283.15	.4724	
285.65	.379	
285.65	.379	
288.15	.3148	
288.15	.3157	
293.15	.2189	
293.15	.2193	
296.15	.1795	
296.15	.1798	
296.15	.1815	
298.15	.1598	
298.15	.1606	
300.15	.1381	
300.15	.1387	
300.15	.1387	
300.15	.1388	
300.15	.1402	
303.15	.1163	
303.15	.1163	
305.65	.1018	
305.65	.102	
308.15	.08934	
308.15	.08937	
313.15	.06908	
313.15	.06913	
313.15	.06974	
323.15	.04452	
323.15	.04454	
333.15	.03049	
333.15	.03068	
343.15	.02193	
343.15	.02198	
353.15	.01642	
353.15	.01646	
363.15	.01273	
363.15	.01281	

System: 1-ethyl-3-methylimidazolium methanesulfonate; phases: Liquid
Fixed: Pressure, kPa = 101.325
Property: Viscosity, Pa*s (Liquid); method: Concentric cylinders viscometry
Temperature, K	Viscosity, Pa*s	uncertainty
273.15	1.2504	
278.15	.7493	
283.15	.4758	
288.15	.3171	
293.15	.2197	
293.15	.2202	
293.15	.22	
298.15	.1582	
303.15	.1156	
313.15	.06671	
323.15	.04342	
333.15	.03027	
343.15	.02211	
353.15	.01666	
363.15	.01294	

System: 1-ethyl-3-methylimidazolium methanesulfonate; phases: Liquid
Fixed: Pressure, kPa = 101.325
Property: Electrical conductivity, S/m (Liquid); method: Alternating current cell with electrodes
Temperature, K	Electrical conductivity, S/m	uncertainty
273.15	.04134	
278.15	.06556	
283.15	.09878	
288.15	.142	
293.15	.1972	
298.15	.265	
298.15	.2649	
298.15	.2594	
300.65	.2981	
303.15	.3402	
303.15	.3464	
305.65	.3862	
308.15	.4351	
310.65	.4882	
313.15	.5532	
323.15	.8208	
333.15	1.151	
343.15	1.546	
353.15	1.994	

System: 1-ethyl-3-methylimidazolium methanesulfonate; phases: Liquid
Fixed: Pressure, kPa = 101.325
Property: Self diffusion coefficient, m2/s (Liquid); method: NMR spin-echo technique
Temperature, K	Self diffusion coefficient, m2/s	uncertainty
294	0.00000000000763	
296.58	0.000000000009	
296.62	0.00000000000907	
298.98	0.0000000000102	
299.01	0.0000000000103	
301.63	0.0000000000123	
301.77	0.0000000000124	
304	0.0000000000135	
304.01	0.0000000000134	
306.53	0.0000000000152	
306.58	0.0000000000155	
313.69	0.0000000000221	
313.74	0.0000000000221	
323.7	0.0000000000342	
323.73	0.0000000000343	
333.42	0.0000000000506	
333.52	0.0000000000507	
343.66	0.0000000000713	
343.73	0.0000000000712	
353.4	0.0000000000971	
353.61	0.000000000097	

System: 1-ethyl-3-methyl-1H-imidazol-3-ium trifluoromethanesulfonate; phases: Liquid
Property: Mass density, kg/m3 (Liquid); method: Vibrating tube method
Pressure, kPa	Temperature, K	Mass density, kg/m3	uncertainty
100	273.15	1407.23	
100	278.15	1402.99	
100	283.15	1398.75	
100	293.15	1390.28	
100	293.15	1390.27	
100	298.15	1386.04	
100	298.15	1386.06	
100	303.15	1381.85	
100	313.15	1373.47	
100	313.15	1373.45	
100	323.15	1365.14	
100	333.15	1356.86	
100	343.15	1348.64	
100	353.15	1340.46	
100	363.15	1332.32	

System: 1-ethyl-3-methyl-1H-imidazol-3-ium trifluoromethanesulfonate; phases: Liquid
Fixed: Pressure, kPa = 101.325
Property: Viscosity, Pa*s (Liquid); method: Falling or rolling sphere viscometry
Temperature, K	Viscosity, Pa*s	uncertainty
268.15	.1722	
268.15	.1724	
273.15	.1307	
273.15	.1306	
278.15	.1023	
278.15	.102	
283.15	.08026	
283.15	.08024	
293.15	.05245	
293.15	.05245	
298.15	.04356	
298.15	.04354	
298.15	.04336	
298.15	.04333	
300.65	.03967	
300.65	.03964	
303.15	.03627	
303.15	.03627	
305.65	.0333	
305.65	.03329	
308.15	.03075	
308.15	.0307	
313.15	.02621	
313.15	.0262	
323.15	.01957	
323.15	.01948	
333.15	.01502	
333.15	.01502	
343.15	.01178	
343.15	.01178	
343.15	.01178	
343.15	.01173	
348.15	.01051	
348.15	.01051	
348.15	.01051	

System: 1-ethyl-3-methyl-1H-imidazol-3-ium trifluoromethanesulfonate; phases: Liquid
Fixed: Pressure, kPa = 101.325
Property: Electrical conductivity, S/m (Liquid); method: Alternating current cell with electrodes
Temperature, K	Electrical conductivity, S/m	uncertainty
273.15	.3461	
278.15	.4333	
283.15	.5339	
288.15	.6473	
293.15	.7722	
298.15	.9147	
298.15	.9102	
303.15	1.061	
313.15	1.419	
323.15	1.82	
333.15	2.246	
343.15	2.756	
353.15	3.287	

System: 1-ethyl-3-methylimidazolium tris(pentafluoroethyl)trifluorophosphate; phases: Liquid
Property: Mass density, kg/m3 (Liquid); method: Vibrating tube method
Pressure, kPa	Temperature, K	Mass density, kg/m3	uncertainty
100	273.15	1738.87	
100	283.15	1726.85	
100	293.15	1714.98	
100	298.15	1709.05	
100	303.15	1703.13	
100	313.15	1691.32	
100	323.15	1679.57	
100	333.15	1667.88	
100	343.15	1656.25	
100	353.15	1644.69	
100	363.15	1633.18	

System: 1-ethyl-3-methylimidazolium tris(pentafluoroethyl)trifluorophosphate; phases: Liquid
Fixed: Pressure, kPa = 101.325
Property: Viscosity, Pa*s (Liquid); method: Falling or rolling sphere viscometry
Temperature, K	Viscosity, Pa*s	uncertainty
273.15	.2264	
278.15	.1666	
278.15	.1665	
283.15	.1249	
283.15	.1232	
293.15	.07572	
293.15	.07568	
298.15	.06077	
298.15	.06054	
298.15	.05935	
298.15	.05931	
303.15	.04918	
303.15	.04909	
313.15	.03375	
313.15	.03378	
313.15	.03327	
313.15	.03336	
323.15	.02379	
323.15	.02408	
333.15	.01793	
333.15	.0178	
338.15	.01576	
338.15	.01568	
343.15	.01376	

System: 2-hydroxyethyl-N,N,N-trimethylammonium bis(trifluoromethylsulfonyl)imide; phases: Liquid
Property: Mass density, kg/m3 (Liquid); method: Vibrating tube method
Pressure, kPa	Temperature, K	Mass density, kg/m3	uncertainty
100	313.15	1513.41	
100	313.15	1513.41	
100	315.65	1511.12	
100	318.15	1508.82	
100	323.15	1504.27	
100	323.15	1504.27	
100	328.15	1499.7	
100	333.15	1495.16	
100	338.15	1490.66	
100	343.15	1486.16	
100	348.15	1481.69	
100	353.15	1477.22	
100	358.15	1472.78	
100	363.15	1468.35	

System: 1,2-propylene carbonate; phases: Liquid
Property: Mass density, kg/m3 (Liquid); method: Vibrating tube method
Pressure, kPa	Temperature, K	Mass density, kg/m3	uncertainty
100	273.15	1226.25	
100	278.15	1220.9	
100	283.15	1215.55	
100	293.15	1204.89	
100	298.15	1199.58	
100	303.15	1194.27	
100	313.15	1183.67	
100	323.15	1173.08	
100	333.15	1162.5	
100	343.15	1151.92	
100	353.15	1141.33	
100	363.15	1130.73	

System: 1,2-propylene carbonate; phases: Liquid
Fixed: Pressure, kPa = 101.325
Property: Self diffusion coefficient, m2/s (Liquid); method: NMR spin-echo technique
Temperature, K	Self diffusion coefficient, m2/s	uncertainty
251.94	0.000000000129	
251.94	0.000000000129	
251.99	0.000000000125	
251.99	0.000000000124	
262.92	0.000000000195	
262.92	0.00000000019	
262.93	0.000000000196	
262.93	0.000000000193	
273.09	0.000000000276	
273.09	0.000000000273	
273.15	0.000000000273	
273.15	0.000000000265	
278.27	0.000000000312	
278.28	0.000000000319	
278.51	0.000000000319	
283.25	0.00000000037	
283.25	0.000000000363	
283.27	0.00000000037	
283.27	0.000000000368	
288.26	0.000000000406	
288.26	0.00000000041	
288.26	0.000000000407	
288.26	0.000000000407	
293.21	0.000000000458	
293.27	0.000000000462	
293.27	0.00000000046	
298.05	0.000000000514	
298.14	0.000000000502	
298.14	0.000000000501	
298.19	0.000000000524	
298.19	0.000000000521	
298.21	0.000000000523	
298.26	0.000000000524	
303.18	0.000000000599	
303.18	0.000000000589	
303.19	0.000000000598	
303.19	0.000000000586	
308.21	0.000000000671	
308.21	0.000000000658	
308.27	0.000000000674	
308.27	0.000000000654	
308.78	0.000000000655	
308.86	0.000000000659	
313.39	0.000000000744	
313.39	0.000000000743	
313.41	0.000000000732	
313.41	0.000000000746	
318.26	0.000000000817	
318.26	0.000000000806	
318.4	0.000000000814	
318.4	0.000000000818	
323.2	0.000000000897	
323.2	0.000000000906	
323.25	0.000000000905	
323.25	0.000000000892	
323.65	0.000000000896	
323.65	0.000000000876	
323.67	0.000000000878	
323.67	0.000000000871	
333.08	0.00000000105	
333.13	0.00000000104	
342.8	0.00000000122	
342.86	0.00000000118	
352.52	0.0000000014	
352.61	0.00000000142	
352.68	0.00000000135	
352.68	0.00000000135	
