Measured thermophysical data. (Solid + Liquid) Phase Equilibria for the Systems CsBr + EuBr3 + H2O and CsBr + EuBr3 + HBr (~12.3%) + H2O at 298.15 K and Atmospheric Pressure and Thermodynamic and Fluorescent Properties of the New Solid-Phase Compound
Source: J. Chem. Eng. Data, 2016, 10.1021/acs.jced.6b00242
Compound 1: cesium bromide, BrCs, purity 99.5%
Compound 2: hydrogen bromide, BrH, purity 99%
Compound 3: europium (III) bromide, Br3Eu
Compound 4: water, H2O, purity 99.9%
Compound 5: 5CsBr*2EuBr3*20H2O, Br11Cs5Eu2H40O20, purity 98%

System: water + cesium bromide + europium (III) bromide; phases: Liquid, Crystal
Fixed: Temperature, K = 298.15
Fixed: Pressure, kPa = 100
Property: Mass fraction of cesium bromide (Liquid); method: Titration method
Mass fraction of europium (III) bromide	Mass fraction of cesium bromide	uncertainty
0	.5543	
.0776	.4736	
.1453	.4038	
.2383	.3158	
.3662	.221	
.4221	.185	
.4619	.1705	
.4811	.1666	

System: water + cesium bromide + europium (III) bromide; phases: Liquid, Crystal of intercomponent compound 1
Fixed: Temperature, K = 298.15
Fixed: Pressure, kPa = 100
Property: Mass fraction of cesium bromide (Liquid); method: Titration method
Mass fraction of europium (III) bromide	Mass fraction of cesium bromide	uncertainty
.4811	.1666	
.5332	.1267	
.5629	.0968	
.602	.0684	
.6087	.0637	
.61	.0629	
.6114	.0603	
.61	.0636	
.6128	.0615	

System: water + cesium bromide + europium (III) bromide; phases: Liquid, Crystal of intercomponent compound 2
Fixed: Temperature, K = 298.15
Fixed: Pressure, kPa = 100
Property: Mass fraction of cesium bromide (Liquid); method: Titration method
Mass fraction of europium (III) bromide	Mass fraction of cesium bromide	uncertainty
.61	.0629	
.6114	.0603	
.61	.0636	
.6128	.0615	
.6103	.0559	
.6408	0	

System: water + cesium bromide + hydrogen bromide; phases: Liquid, Crystal
Fixed: Temperature, K = 298.15
Fixed: Pressure, kPa = 100
Property: Mass fraction of hydrogen bromide (Liquid); method: Titration method
Mass fraction of cesium bromide	Mass fraction of hydrogen bromide	uncertainty
.3677	.1246	

System: water + hydrogen bromide + europium (III) bromide; phases: Liquid, Crystal
Fixed: Temperature, K = 298.15
Fixed: Pressure, kPa = 100
Property: Mass fraction of hydrogen bromide (Liquid); method: Titration method
Mass fraction of europium (III) bromide	Mass fraction of hydrogen bromide	uncertainty
.5039	.1161	

System: water + cesium bromide; phases: Liquid, Crystal
Property: Mass fraction of cesium bromide (Liquid); method: Titration method
Temperature, K	Pressure, kPa	Mass fraction of cesium bromide	uncertainty
298.15	100	.5543	

System: water + europium (III) bromide; phases: Liquid, Crystal of intercomponent compound 2
Property: Mass fraction of europium (III) bromide (Liquid); method: Titration method
Temperature, K	Pressure, kPa	Mass fraction of europium (III) bromide	uncertainty
298.15	100	.6408	

System: 5CsBr*2EuBr3*20H2O + water; phases: Liquid
Fixed: Temperature, K = 298.15
Fixed: Pressure, kPa = 100
Property: Molar enthalpy of solution, kJ/mol (Liquid); method: Calvet calorimetry
Mole fraction of 5CsBr*2EuBr3*20H2O	Molar enthalpy of solution, kJ/mol	uncertainty
0	104.7	
