Measured thermophysical data. Carbon Dioxide Solubilities and Diffusivities in 1-Alkyl-3-methylimidazolium Tricyanomethanide Ionic Liquids: An Experimental and Modeling Study
Source: J. Chem. Eng. Data, 2016, 10.1021/acs.jced.6b00657
Compound 1: 1-ethyl-3-methylimidazolium tricyanomethanide, C10H11N5, purity 98.0%
Compound 2: 1-butyl-3-methylimidazolium tricyanomethane, C12H15N5, purity 98.0%
Compound 3: 3-hexyl-1-methylimidazolium tricyanomethanide, C14H19N5, purity 98.0%
Compound 4: 1-heptyl-3-methylimidazolium tricyanomethanide, C15H21N5, purity 98.0%
Compound 5: 1-octyl-3-methylimidazolium tricyanomethanide, C16H23N5, purity 98.0%
Compound 6: carbon dioxide, CO2, purity 99.995%

System: carbon dioxide + 1-ethyl-3-methylimidazolium tricyanomethanide; phases: Liquid, Gas
Property: Mole fraction of carbon dioxide (Liquid); method: gravimetric
Pressure, kPa	Temperature, K	Mole fraction of carbon dioxide	uncertainty
96	298.15	.0161	
194	298.15	.0334	
294	298.15	.0509	
393	298.15	.0681	
493	298.15	.0846	
793	298.15	.1323	
893	298.15	.1476	
993	298.15	.1627	
1293	298.15	.2049	
1393	298.15	.2186	
1493	298.15	.2316	
1793	298.15	.2699	
1893	298.15	.2817	
1992	298.15	.2935	
95	308.15	.0135	
194	308.15	.0284	
293	308.15	.0429	
393	308.15	.0572	
493	308.15	.0713	
593	308.15	.0853	
693	308.15	.0994	
792	308.15	.1126	
893	308.15	.1253	
993	308.15	.138	
1093	308.15	.1506	
1192	308.15	.1626	
1293	308.15	.1747	
1393	308.15	.1866	
1493	308.15	.198	
1593	308.15	.2093	
1693	308.15	.2204	
1792	308.15	.2311	
1893	308.15	.2419	
1993	308.15	.2522	
94	323.15	.0112	
194	323.15	.0227	
294	323.15	.034	
394	323.15	.045	
494	323.15	.0563	
593	323.15	.0673	
692	323.15	.078	
793	323.15	.0886	
892	323.15	.0987	
993	323.15	.1089	
1093	323.15	.1192	
1193	323.15	.1288	
1294	323.15	.1383	
1392	323.15	.1475	
1492	323.15	.157	
1593	323.15	.1666	
1693	323.15	.1758	
1793	323.15	.1845	
1893	323.15	.1933	
1993	323.15	.2018	
94	338.25	.0082	
194	338.25	.0174	
294	338.25	.0271	
394	338.25	.0362	
494	338.25	.0452	
594	338.25	.0539	
693	338.25	.0627	
793	338.25	.0715	
893	338.25	.0804	
993	338.25	.0888	
1093	338.25	.0973	
1192	338.25	.1054	
1293	338.25	.1134	
1393	338.25	.121	
1493	338.25	.1285	
1592	338.25	.1364	
1693	338.25	.1443	
1792	338.25	.1518	
1893	338.25	.159	
1993	338.25	.1662	
95	353.25	.0072	
194	353.25	.0155	
294	353.25	.0227	
394	353.25	.0308	
494	353.25	.0382	
594	353.25	.0451	
694	353.25	.0527	
794	353.25	.0598	
894	353.25	.0668	
994	353.25	.0739	
1093	353.25	.0806	
1192	353.25	.0876	
1293	353.25	.094	
1393	353.25	.1008	
1493	353.25	.1076	
1593	353.25	.1142	
1693	353.25	.1205	
1793	353.25	.1269	
1893	353.25	.1333	
1993	353.25	.1394	

System: carbon dioxide + 1-ethyl-3-methylimidazolium tricyanomethanide; phases: Liquid
Fixed: Mole fraction of carbon dioxide = 0
Property: Binary diffusion coefficient, m2/s (Liquid); method: absorption in thin film
Pressure, kPa	Temperature, K	Binary diffusion coefficient, m2/s	uncertainty
96	298.15	0.00000000033	
194	298.15	0.00000000024	
294	298.15	0.00000000027	
393	298.15	0.00000000026	
493	298.15	0.00000000028	
793	298.15	0.00000000036	
893	298.15	0.00000000032	
993	298.15	0.00000000032	
1293	298.15	0.00000000039	
1393	298.15	0.00000000038	
1493	298.15	0.00000000041	
1793	298.15	0.00000000044	
1893	298.15	0.00000000041	
1992	298.15	0.00000000042	
194	308.15	0.00000000029	
293	308.15	0.0000000003	
393	308.15	0.0000000003	
493	308.15	0.0000000003	
593	308.15	0.00000000031	
693	308.15	0.00000000033	
792	308.15	0.00000000038	
893	308.15	0.00000000036	
993	308.15	0.00000000035	
1093	308.15	0.00000000036	
1192	308.15	0.00000000041	
1293	308.15	0.00000000037	
1393	308.15	0.00000000039	
1493	308.15	0.00000000041	
1593	308.15	0.00000000039	
1693	308.15	0.00000000041	
1792	308.15	0.00000000042	
1893	308.15	0.00000000045	
1993	308.15	0.00000000041	
194	323.15	0.00000000044	
294	323.15	0.00000000048	
394	323.15	0.00000000044	
494	323.15	0.00000000039	
593	323.15	0.00000000041	
692	323.15	0.00000000041	
793	323.15	0.00000000044	
892	323.15	0.0000000005	
993	323.15	0.00000000044	
1093	323.15	0.00000000042	
1193	323.15	0.00000000053	
1392	323.15	0.00000000046	
1492	323.15	0.00000000042	
1593	323.15	0.00000000042	
1693	323.15	0.00000000042	
1793	323.15	0.00000000059	
1993	323.15	0.00000000049	
94	338.25	0.00000000051	
194	338.25	0.0000000005	
294	338.25	0.00000000051	
394	338.25	0.00000000049	
494	338.25	0.00000000058	
594	338.25	0.00000000045	
693	338.25	0.00000000046	
793	338.25	0.00000000056	
893	338.25	0.00000000052	
1093	338.25	0.00000000051	
1192	338.25	0.00000000052	
1393	338.25	0.00000000058	
1493	338.25	0.00000000049	
1592	338.25	0.00000000051	
1693	338.25	0.00000000046	
1792	338.25	0.00000000052	
1993	338.25	0.00000000054	
95	353.25	0.00000000061	
294	353.25	0.0000000009	
494	353.25	0.00000000074	
594	353.25	0.00000000066	
694	353.25	0.00000000066	
794	353.25	0.00000000068	
894	353.25	0.00000000078	
994	353.25	0.00000000067	
1093	353.25	0.00000000068	
1192	353.25	0.0000000007	
1593	353.25	0.00000000075	
1693	353.25	0.00000000082	
1893	353.25	0.00000000074	
1993	353.25	0.00000000078	

System: carbon dioxide + 3-hexyl-1-methylimidazolium tricyanomethanide; phases: Liquid, Gas
Property: Mole fraction of carbon dioxide (Liquid); method: gravimetric
Pressure, kPa	Temperature, K	Mole fraction of carbon dioxide	uncertainty
94	298.15	.02	
194	298.15	.0418	
293	298.15	.0633	
393	298.15	.0833	
493	298.15	.1032	
693	298.15	.141	
793	298.15	.159	
893	298.15	.1765	
993	298.15	.1939	
1193	298.15	.2259	
1293	298.15	.2411	
1393	298.15	.2563	
1493	298.15	.2713	
1693	298.15	.2997	
1793	298.15	.3132	
1993	298.15	.3388	
101	308.15	.0181	
198	308.15	.0358	
297	308.15	.0535	
394	308.15	.0699	
494	308.15	.087	
593	308.15	.1033	
692	308.15	.119	
793	308.15	.1351	
892	308.15	.1495	
993	308.15	.1642	
1093	308.15	.1789	
1192	308.15	.1927	
1292	308.15	.2065	
1393	308.15	.2198	
1492	308.15	.2328	
1592	308.15	.2454	
1693	308.15	.2577	
1793	308.15	.2698	
1893	308.15	.2814	
1993	308.15	.2929	
94	323.15	.0142	
194	323.15	.0275	
293	323.15	.0418	
393	323.15	.0552	
493	323.15	.0681	
594	323.15	.0807	
693	323.15	.0933	
793	323.15	.1053	
893	323.15	.1174	
993	323.15	.1288	
1093	323.15	.1401	
1193	323.15	.151	
1293	323.15	.1619	
1393	323.15	.1723	
1493	323.15	.1823	
1593	323.15	.1923	
1693	323.15	.2019	
1793	323.15	.2114	
1893	323.15	.2209	
1993	323.15	.2296	
94	338.25	.0105	
194	338.25	.0223	
294	338.25	.0337	
393	338.25	.045	
494	338.25	.0549	
594	338.25	.0652	
693	338.25	.0754	
793	338.25	.0851	
893	338.25	.0952	
993	338.25	.1049	
1092	338.25	.1141	
1193	338.25	.1232	
1292	338.25	.1323	
1393	338.25	.1413	
1493	338.25	.15	
1592	338.25	.1584	
1693	338.25	.1666	
1792	338.25	.1746	
1893	338.25	.1824	
1993	338.25	.1899	
94	353.25	.0094	
193	353.25	.0182	
294	353.25	.0276	
393	353.25	.0372	
493	353.25	.0462	
594	353.25	.055	
694	353.25	.0632	
794	353.25	.0714	
893	353.25	.0797	
993	353.25	.0878	
1093	353.25	.0954	
1193	353.25	.1034	
1293	353.25	.111	
1393	353.25	.1188	
1493	353.25	.1263	
1593	353.25	.1335	
1693	353.25	.1403	
1793	353.25	.1472	
1893	353.25	.1541	
1993	353.25	.1609	

System: carbon dioxide + 3-hexyl-1-methylimidazolium tricyanomethanide; phases: Liquid
Fixed: Mole fraction of carbon dioxide = 0
Property: Binary diffusion coefficient, m2/s (Liquid); method: absorption in thin film
Pressure, kPa	Temperature, K	Binary diffusion coefficient, m2/s	uncertainty
94	298.15	0.0000000002	
194	298.15	0.00000000018	
293	298.15	0.00000000018	
393	298.15	0.0000000002	
493	298.15	0.0000000002	
693	298.15	0.00000000024	
793	298.15	0.00000000024	
893	298.15	0.00000000024	
993	298.15	0.00000000022	
1193	298.15	0.0000000003	
1293	298.15	0.00000000032	
1393	298.15	0.00000000029	
1493	298.15	0.0000000003	
1693	298.15	0.00000000031	
1793	298.15	0.00000000033	
101	308.15	0.00000000026	
198	308.15	0.00000000024	
297	308.15	0.00000000025	
394	308.15	0.00000000025	
494	308.15	0.00000000025	
593	308.15	0.00000000025	
692	308.15	0.00000000027	
793	308.15	0.00000000022	
892	308.15	0.00000000033	
993	308.15	0.00000000029	
1093	308.15	0.00000000031	
1192	308.15	0.00000000033	
1292	308.15	0.00000000033	
1393	308.15	0.00000000034	
1492	308.15	0.00000000034	
1592	308.15	0.0000000004	
1693	308.15	0.00000000038	
1793	308.15	0.00000000041	
1893	308.15	0.0000000004	
1993	308.15	0.00000000041	
94	323.15	0.00000000028	
194	323.15	0.00000000041	
293	323.15	0.00000000031	
393	323.15	0.00000000035	
493	323.15	0.00000000039	
594	323.15	0.00000000042	
693	323.15	0.00000000037	
793	323.15	0.00000000037	
893	323.15	0.00000000039	
993	323.15	0.0000000004	
1093	323.15	0.00000000038	
1193	323.15	0.0000000004	
1293	323.15	0.0000000004	
1393	323.15	0.00000000044	
1493	323.15	0.00000000043	
1593	323.15	0.00000000042	
1693	323.15	0.00000000047	
1793	323.15	0.00000000045	
1893	323.15	0.00000000037	
1993	323.15	0.00000000054	
194	338.25	0.00000000051	
294	338.25	0.00000000037	
393	338.25	0.00000000049	
494	338.25	0.00000000067	
693	338.25	0.00000000049	
793	338.25	0.00000000048	
893	338.25	0.00000000058	
993	338.25	0.00000000053	
1092	338.25	0.00000000053	
1193	338.25	0.00000000053	
1292	338.25	0.00000000056	
1393	338.25	0.00000000048	
1493	338.25	0.00000000055	
1592	338.25	0.00000000049	
1693	338.25	0.00000000066	
1792	338.25	0.0000000006	
1893	338.25	0.00000000061	
1993	338.25	0.00000000063	
594	353.25	0.00000000064	
694	353.25	0.00000000071	
893	353.25	0.0000000006	
993	353.25	0.00000000065	
1193	353.25	0.00000000063	
1293	353.25	0.00000000068	
1393	353.25	0.00000000063	
1593	353.25	0.00000000053	
1693	353.25	0.00000000076	
1793	353.25	0.00000000077	
1893	353.25	0.00000000077	
1993	353.25	0.00000000067	

System: carbon dioxide + 1-heptyl-3-methylimidazolium tricyanomethanide; phases: Liquid, Gas
Property: Mole fraction of carbon dioxide (Liquid); method: gravimetric
Pressure, kPa	Temperature, K	Mole fraction of carbon dioxide	uncertainty
95	298.15	.0213	
195	298.15	.0443	
296	298.15	.0669	
394	298.15	.0877	
494	298.15	.1084	
693	298.15	.1473	
793	298.15	.1656	
893	298.15	.1836	
993	298.15	.2009	
1193	298.15	.2343	
1293	298.15	.2502	
1392	298.15	.2657	
1493	298.15	.2807	
1693	298.15	.3092	
1793	298.15	.3229	
1893	298.15	.3363	
1993	298.15	.3497	
94	308.15	.0168	
194	308.15	.0365	
294	308.15	.0556	
394	308.15	.0725	
493	308.15	.0899	
593	308.15	.1069	
693	308.15	.1236	
792	308.15	.1392	
893	308.15	.1552	
993	308.15	.17	
1093	308.15	.1846	
1192	308.15	.1995	
1293	308.15	.2138	
1392	308.15	.2273	
1493	308.15	.2403	
1593	308.15	.2535	
1692	308.15	.2655	
1793	308.15	.2779	
1893	308.15	.2901	
1993	308.15	.3018	
95	323.15	.0145	
195	323.15	.029	
294	323.15	.0437	
394	323.15	.0578	
494	323.15	.0715	
594	323.15	.0857	
692	323.15	.0993	
793	323.15	.1124	
893	323.15	.1256	
993	323.15	.1376	
1093	323.15	.1493	
1192	323.15	.1611	
1293	323.15	.1737	
1393	323.15	.1856	
1493	323.15	.1961	
1593	323.15	.2086	
1693	323.15	.219	
1792	323.15	.2298	
1993	323.15	.2501	
95	338.25	.0118	
196	338.25	.0246	
295	338.25	.0363	
394	338.25	.0475	
493	338.25	.0589	
594	338.25	.0702	
693	338.25	.0812	
793	338.25	.0918	
892	338.25	.1022	
993	338.25	.1125	
1093	338.25	.123	
1193	338.25	.133	
1292	338.25	.1425	
1392	338.25	.1524	
1493	338.25	.1618	
1593	338.25	.1713	
1693	338.25	.1805	
1793	338.25	.1891	
1893	338.25	.198	
1993	338.25	.2067	
98	353.25	.0104	
197	353.25	.02	
297	353.25	.0295	
395	353.25	.0386	
494	353.25	.0479	
594	353.25	.0578	
693	353.25	.0672	
793	353.25	.0762	
894	353.25	.0849	
994	353.25	.0936	
1094	353.25	.1026	
1193	353.25	.1105	
1292	353.25	.1184	
1393	353.25	.1271	
1493	353.25	.1352	
1593	353.25	.1432	
1693	353.25	.1507	
1793	353.25	.159	
1893	353.25	.1666	
1992	353.25	.1736	

System: carbon dioxide + 1-heptyl-3-methylimidazolium tricyanomethanide; phases: Liquid
Fixed: Mole fraction of carbon dioxide = 0
Property: Binary diffusion coefficient, m2/s (Liquid); method: absorption in thin film
Pressure, kPa	Temperature, K	Binary diffusion coefficient, m2/s	uncertainty
93	298.15	0.0000000002	
193	298.15	0.00000000016	
293	298.15	0.00000000017	
393	298.15	0.00000000019	
492	298.15	0.0000000002	
692	298.15	0.00000000023	
792	298.15	0.00000000024	
893	298.15	0.00000000025	
993	298.15	0.00000000027	
1193	298.15	0.00000000031	
1293	298.15	0.00000000029	
1392	298.15	0.00000000029	
1493	298.15	0.00000000031	
1693	298.15	0.00000000028	
1792	298.15	0.00000000031	
1893	298.15	0.00000000036	
1993	298.15	0.00000000035	
94	308.15	0.00000000026	
194	308.15	0.00000000023	
294	308.15	0.00000000024	
394	308.15	0.00000000028	
493	308.15	0.00000000028	
593	308.15	0.00000000029	
693	308.15	0.00000000027	
993	308.15	0.0000000003	
1093	308.15	0.00000000032	
1192	308.15	0.00000000034	
1293	308.15	0.00000000033	
1392	308.15	0.00000000035	
1493	308.15	0.00000000036	
1893	308.15	0.00000000039	
1993	308.15	0.00000000042	
95	323.15	0.00000000032	
195	323.15	0.0000000004	
294	323.15	0.00000000038	
394	323.15	0.00000000035	
494	323.15	0.00000000038	
594	323.15	0.00000000039	
692	323.15	0.00000000032	
793	323.15	0.0000000004	
893	323.15	0.00000000035	
993	323.15	0.00000000044	
1093	323.15	0.00000000042	
1192	323.15	0.00000000044	
1293	323.15	0.00000000032	
95	338.25	0.00000000045	
196	338.25	0.00000000044	
295	338.25	0.00000000043	
394	338.25	0.00000000053	
493	338.25	0.00000000047	
594	338.25	0.00000000052	
793	338.25	0.00000000061	
993	338.25	0.00000000058	
1093	338.25	0.00000000056	
1292	338.25	0.00000000065	
1392	338.25	0.00000000056	
1793	338.25	0.00000000058	
1893	338.25	0.00000000056	
1993	338.25	0.00000000065	
494	353.25	0.00000000064	
594	353.25	0.00000000065	
693	353.25	0.00000000054	
793	353.25	0.0000000006	
894	353.25	0.00000000066	
994	353.25	0.00000000075	
1094	353.25	0.00000000057	
1193	353.25	0.00000000071	

System: carbon dioxide + 1-octyl-3-methylimidazolium tricyanomethanide; phases: Liquid, Gas
Property: Mole fraction of carbon dioxide (Liquid); method: gravimetric
Pressure, kPa	Temperature, K	Mole fraction of carbon dioxide	uncertainty
94	298.15	.0222	
194	298.15	.0456	
293	298.15	.0681	
393	298.15	.0894	
493	298.15	.1111	
593	298.15	.1309	
693	298.15	.1519	
793	298.15	.1701	
893	298.15	.1888	
993	298.15	.2065	
1093	298.15	.2239	
1192	298.15	.2409	
1292	298.15	.2565	
1392	298.15	.2721	
1493	298.15	.2874	
1593	298.15	.3025	
1692	298.15	.3171	
1793	298.15	.3303	
1892	298.15	.3442	
1992	298.15	.3567	
94	308.15	.0173	
194	308.15	.0372	
294	308.15	.056	
393	308.15	.0749	
493	308.15	.093	
593	308.15	.1106	
693	308.15	.1269	
793	308.15	.1439	
893	308.15	.1596	
992	308.15	.1747	
1093	308.15	.1906	
1193	308.15	.2054	
1293	308.15	.2197	
1392	308.15	.2335	
1492	308.15	.2471	
1593	308.15	.26	
1693	308.15	.2724	
1793	308.15	.2851	
1892	308.15	.2972	
1993	308.15	.3091	
94	323.15	.0138	
194	323.15	.0294	
293	323.15	.0444	
393	323.15	.0597	
493	323.15	.0746	
593	323.15	.0885	
693	323.15	.1023	
793	323.15	.1154	
893	323.15	.1285	
992	323.15	.1408	
1093	323.15	.1533	
1193	323.15	.1655	
1292	323.15	.178	
1393	323.15	.1897	
1493	323.15	.2008	
1593	323.15	.2119	
1692	323.15	.2228	
1793	323.15	.2338	
1892	323.15	.2442	
1993	323.15	.2546	
94	338.25	.012	
194	338.25	.0243	
294	338.25	.0367	
394	338.25	.0488	
494	338.25	.0612	
593	338.25	.0724	
692	338.25	.0838	
794	338.25	.0947	
892	338.25	.1052	
993	338.25	.1164	
1093	338.25	.127	
1193	338.25	.1369	
1292	338.25	.1471	
1392	338.25	.157	
1493	338.25	.1667	
1593	338.25	.1759	
1692	338.25	.1854	
1793	338.25	.1945	
1892	338.25	.2035	
1993	338.25	.2123	
94	353.25	.0096	
195	353.25	.0203	
294	353.25	.0305	
394	353.25	.0409	
494	353.25	.0503	
594	353.25	.0601	
693	353.25	.0691	
794	353.25	.0788	
894	353.25	.0887	
993	353.25	.0977	
1093	353.25	.1063	
1193	353.25	.1152	
1293	353.25	.1238	
1392	353.25	.1324	
1493	353.25	.1407	
1593	353.25	.1487	
1693	353.25	.1564	
1793	353.25	.1652	
1893	353.25	.1725	
1992	353.25	.1804	

System: carbon dioxide + 1-octyl-3-methylimidazolium tricyanomethanide; phases: Liquid
Fixed: Mole fraction of carbon dioxide = 0
Property: Binary diffusion coefficient, m2/s (Liquid); method: absorption in thin film
Pressure, kPa	Temperature, K	Binary diffusion coefficient, m2/s	uncertainty
94	298.15	0.00000000015	
194	298.15	0.00000000019	
293	298.15	0.00000000018	
393	298.15	0.0000000002	
593	298.15	0.0000000002	
194	308.15	0.00000000023	
294	308.15	0.00000000024	
393	308.15	0.00000000025	
493	308.15	0.00000000025	
593	308.15	0.00000000025	
693	308.15	0.00000000027	
793	308.15	0.00000000027	
893	308.15	0.0000000003	
992	308.15	0.00000000031	
1093	308.15	0.00000000027	
1193	308.15	0.00000000025	
1293	308.15	0.00000000032	
1392	308.15	0.00000000033	
1492	308.15	0.00000000035	
1593	308.15	0.00000000034	
1693	308.15	0.00000000038	
1793	308.15	0.0000000004	
1892	308.15	0.00000000039	
1993	308.15	0.00000000039	
94	323.15	0.00000000032	
194	323.15	0.00000000034	
293	323.15	0.00000000035	
393	323.15	0.00000000033	
493	323.15	0.00000000033	
593	323.15	0.00000000036	
693	323.15	0.00000000039	
793	323.15	0.0000000004	
893	323.15	0.00000000039	
992	323.15	0.00000000039	
1093	323.15	0.00000000038	
1193	323.15	0.00000000036	
1292	323.15	0.00000000039	
1393	323.15	0.0000000004	
1493	323.15	0.00000000042	
1593	323.15	0.00000000041	
1692	323.15	0.00000000046	
1793	323.15	0.00000000039	
1892	323.15	0.00000000045	
1993	323.15	0.00000000044	
94	338.25	0.00000000043	
194	338.25	0.00000000041	
294	338.25	0.00000000045	
394	338.25	0.00000000044	
494	338.25	0.00000000042	
593	338.25	0.00000000048	
692	338.25	0.00000000043	
794	338.25	0.00000000047	
892	338.25	0.00000000042	
993	338.25	0.00000000038	
1093	338.25	0.0000000005	
1193	338.25	0.00000000051	
1292	338.25	0.0000000005	
1392	338.25	0.00000000049	
1493	338.25	0.0000000005	
1692	338.25	0.0000000006	
1793	338.25	0.00000000059	
1892	338.25	0.00000000055	
1993	338.25	0.00000000052	
494	353.25	0.00000000057	
594	353.25	0.00000000055	
993	353.25	0.0000000006	
1093	353.25	0.00000000067	
1193	353.25	0.00000000051	
1293	353.25	0.00000000047	
1392	353.25	0.00000000065	
1493	353.25	0.00000000056	
1793	353.25	0.00000000076	
1893	353.25	0.00000000058	
