Measured thermophysical data. Micellization of Lactosylammonium Surfactants with Different Counter Ions and Their Interaction with DNA
Source: J. Chem. Eng. Data, 2016, 10.1021/acs.jced.5b01057
Compound 1: water, H2O, purity 99.8%
Compound 2: N-dodecyllactosylammonium malonate, C51H98N2O24
Compound 3: N-dodecyllactosylammonium adipate, C54H104N2O24
Compound 4: N-dodecyllactosylammonium propanoate, C27H53NO12
Compound 5: N-dodecyllactosylammonium hexanoate, C30H59NO12
Compound 6: N-dodecyllactosylamine, C24H47NO10

System: N-dodecyllactosylamine; phases: Crystal, Liquid, Air at 1 atmosphere
Property: Triple point temperature, K (Crystal); method: Visual observation
Triple point temperature, K	uncertainty
398.65	

System: water + N-dodecyllactosylammonium malonate; phases: Liquid
Fixed: Pressure, kPa = 100
Property: Electrical conductivity, S/m (Liquid); method: Alternating current cell with electrodes
Molality, mol/kg of N-dodecyllactosylammonium malonate	Temperature, K	Electrical conductivity, S/m	uncertainty
.00159	298.15	.00597	
.00317	298.15	.01155	
.00474	298.15	.01683	
.00552	298.15	.01943	
.0063	298.15	.0227	
.00707	298.15	.0251	
.00784	298.15	.0271	
.00861	298.15	.0288	
.00159	323.15	.00958	
.00317	323.15	.01636	
.00474	323.15	.0257	
.0063	323.15	.0329	
.00784	323.15	.0387	

System: water + N-dodecyllactosylammonium malonate; phases: Liquid, Gas
Property: Surface tension liquid-gas, N/m (Liquid); method: Pendant drop shape
Molality, mol/kg of N-dodecyllactosylammonium malonate	Temperature, K	Surface tension liquid-gas, N/m	uncertainty
0	298.15	.07176	
.0005	298.15	.06812	
.001	298.15	.06114	
.0015	298.15	.05599	
.002	298.15	.05191	
.0025	298.15	.0475	
.003	298.15	.0449	
.004	298.15	.04037	
.005	298.15	.03539	
.006	298.15	.03288	
.007	298.15	.03063	
.008	298.15	.02897	
0	323.15	.06805	
.0004	323.15	.06573	
.0006	323.15	.06269	
.0008	323.15	.05926	
.001	323.15	.05685	
.0014	323.15	.05269	
.002	323.15	.0474	
.0024	323.15	.0447	
.003	323.15	.04132	
.004	323.15	.03719	
.005	323.15	.0333	
.006	323.15	.03053	
.007	323.15	.02843	
.008	323.15	.02679	

System: water + N-dodecyllactosylammonium adipate; phases: Liquid
Fixed: Pressure, kPa = 100
Property: Electrical conductivity, S/m (Liquid); method: Alternating current cell with electrodes
Molality, mol/kg of N-dodecyllactosylammonium adipate	Temperature, K	Electrical conductivity, S/m	uncertainty
.00159	298.15	.00604	
.00317	298.15	.01126	
.00396	298.15	.01371	
.00474	298.15	.01589	
.00552	298.15	.01818	
.0063	298.15	.0212	
.00707	298.15	.023	
.00159	323.15	.00898	
.00317	323.15	.0165	
.00474	323.15	.0258	
.0063	323.15	.0334	

System: water + N-dodecyllactosylammonium adipate; phases: Liquid, Gas
Property: Surface tension liquid-gas, N/m (Liquid); method: Pendant drop shape
Molality, mol/kg of N-dodecyllactosylammonium adipate	Temperature, K	Surface tension liquid-gas, N/m	uncertainty
0	298.15	.07271	
.0005	298.15	.06542	
.001	298.15	.05754	
.0015	298.15	.05244	
.002	298.15	.04872	
.0025	298.15	.04611	
.003	298.15	.04365	
.004	298.15	.0396	
.005	298.15	.03639	
.006	298.15	.03424	
.007	298.15	.0331	
0	323.15	.06894	
.0004	323.15	.06297	
.0006	323.15	.05809	
.001	323.15	.05258	
.0014	323.15	.04788	
.002	323.15	.04386	
.0024	323.15	.04118	
.003	323.15	.03837	
.004	323.15	.03516	
.005	323.15	.03273	

System: water + N-dodecyllactosylammonium propanoate; phases: Liquid
Fixed: Pressure, kPa = 100
Property: Electrical conductivity, S/m (Liquid); method: Alternating current cell with electrodes
Molality, mol/kg of N-dodecyllactosylammonium propanoate	Temperature, K	Electrical conductivity, S/m	uncertainty
0	323.15	.0001534	
.2	323.15	.001042	
.4	323.15	.001921	
.6	323.15	.00272	
.79	323.15	.00355	
.99	323.15	.00435	
1.19	323.15	.00512	

System: water + N-dodecyllactosylammonium propanoate; phases: Liquid, Gas
Property: Surface tension liquid-gas, N/m (Liquid); method: Pendant drop shape
Molality, mol/kg of N-dodecyllactosylammonium propanoate	Temperature, K	Surface tension liquid-gas, N/m	uncertainty
0	323.15	.06857	
.2	323.15	.06763	
.3	323.15	.06303	
.4	323.15	.05877	
.5	323.15	.05331	
.6	323.15	.05073	
.7	323.15	.04591	
.8	323.15	.04276	
.9	323.15	.03981	
1	323.15	.03773	
1.1	323.15	.03561	
1.2	323.15	.03486	

System: water + N-dodecyllactosylammonium hexanoate; phases: Liquid
Fixed: Pressure, kPa = 100
Property: Electrical conductivity, S/m (Liquid); method: Alternating current cell with electrodes
Molality, mol/kg of N-dodecyllactosylammonium hexanoate	Temperature, K	Electrical conductivity, S/m	uncertainty
0	323.15	.000255	
.4	323.15	.001851	
.79	323.15	.00335	
1.19	323.15	.0048	
1.57	323.15	.00609	
1.96	323.15	.00734	
2.34	323.15	.00864	
2.72	323.15	.00986	
3.1	323.15	.01083	

System: water + N-dodecyllactosylammonium hexanoate; phases: Liquid, Gas
Property: Surface tension liquid-gas, N/m (Liquid); method: Pendant drop shape
Molality, mol/kg of N-dodecyllactosylammonium hexanoate	Temperature, K	Surface tension liquid-gas, N/m	uncertainty
0	323.15	.06872	
.4	323.15	.05874	
.6	323.15	.05211	
.8	323.15	.04869	
1	323.15	.04557	
1.6	323.15	.03741	
2	323.15	.03464	
2.4	323.15	.03222	
3	323.15	.03032	
