Measured thermophysical data. Measurement and Thermodynamic Modeling of Ternary (Liquid + Liquid) Equilibrium for Extraction of N,N-Dimethylacetamide from Aqueous Solution with Different Solvents
Source: J. Chem. Eng. Data, 2017, 10.1021/acs.jced.7b00194
Compound 1: N,N-dimethylacetamide [DMA], C4H9NO, purity 99.8%
Compound 2: chloroform, CHCl3, purity 99.0%
Compound 3: methylisobutylcarbinol, C6H14O, purity 99.0%
Compound 4: methyl isobutyl ketone, C6H12O, purity 99.5%
Compound 5: isopropyl acetate, C5H10O2, purity 99.0%
Compound 6: isopropyl ether, C6H14O, purity 99.0%
Compound 7: pyridine, C5H5N, purity 99.0%
Compound 8: isopropanol, C3H8O, purity 99.5%
Compound 9: water, H2O, purity 99.8%

System: chloroform + N,N-dimethylacetamide [DMA] + water; phases: Liquid mixture 1, Liquid mixture 2
Fixed: Pressure, kPa = 101.3
Property: Mass fraction of chloroform (Liquid mixture 1); method: Chromatography
Property: Mass fraction of N,N-dimethylacetamide [DMA] (Liquid mixture 2); method: Chromatography
Property: Mass fraction of chloroform (Liquid mixture 2); method: Chromatography
Temperature, K	Mass fraction of N,N-dimethylacetamide [DMA]	Mass fraction of chloroform	uncertainty	Mass fraction of N,N-dimethylacetamide [DMA]	uncertainty	Mass fraction of chloroform	uncertainty
308.2	0	.0046	.007	0	.007	.9991	.007
298.2	.1978	.0164	.007	.1276	.007	.8632	.007
298.2	.2243	.0232	.007	.1422	.007	.848	.007
308.2	.0239	.01	.007	.0238	.007	.9713	.007
298.2	.2588	.0196	.007	.1568	.007	.83	.007
308.2	.0498	.0194	.007	.0464	.007	.9475	.007
308.2	.0926	.0107	.007	.0687	.007	.9232	.007
308.2	.1094	.0126	.007	.0864	.007	.9033	.007
308.2	.1385	.0192	.007	.1032	.007	.886	.007
308.2	.1681	.021	.007	.1189	.007	.8698	.007
308.2	.1991	.0243	.007	.1314	.007	.8552	.007
308.2	.2433	.0302	.007	.1572	.007	.8265	.007
308.2	.2214	.0237	.007	.1453	.007	.8382	.007
308.2	.2715	.0307	.007	.1715	.007	.8123	.007
298.2	0	.0059	.007	0	.007	.9992	.007
298.2	.0331	.007	.007	.03	.007	.9666	.007
298.2	.0528	.0102	.007	.0454	.007	.9512	.007
298.2	.0784	.013	.007	.0627	.007	.9328	.007
298.2	.1074	.0167	.007	.0798	.007	.9149	.007
298.2	.1366	.014	.007	.0955	.007	.8976	.007

System: methylisobutylcarbinol + N,N-dimethylacetamide [DMA] + water; phases: Liquid mixture 2, Liquid mixture 1
Fixed: Pressure, kPa = 101.3
Property: Mass fraction of methylisobutylcarbinol (Liquid mixture 2); method: Chromatography
Property: Mass fraction of N,N-dimethylacetamide [DMA] (Liquid mixture 1); method: Chromatography
Property: Mass fraction of methylisobutylcarbinol (Liquid mixture 1); method: Chromatography
Temperature, K	Mass fraction of N,N-dimethylacetamide [DMA]	Mass fraction of methylisobutylcarbinol	uncertainty	Mass fraction of N,N-dimethylacetamide [DMA]	uncertainty	Mass fraction of methylisobutylcarbinol	uncertainty
298.2	0	.9398	.007	0	.007	.0179	.007
298.2	.0126	.9211	.007	.0366	.007	.0244	.007
298.2	.0269	.9049	.007	.0792	.007	.0269	.007
298.2	.0399	.8884	.007	.118	.007	.0287	.007
298.2	.0525	.8724	.007	.1552	.007	.0316	.007
298.2	.0675	.8528	.007	.1909	.007	.0356	.007
298.2	.0798	.8382	.007	.2199	.007	.0361	.007
298.2	.0942	.8204	.007	.2497	.007	.0406	.007
298.2	.1057	.8065	.007	.276	.007	.0426	.007

System: methyl isobutyl ketone + N,N-dimethylacetamide [DMA] + water; phases: Liquid mixture 1, Liquid mixture 2
Fixed: Pressure, kPa = 101.3
Property: Mass fraction of methyl isobutyl ketone (Liquid mixture 1); method: Chromatography
Property: Mass fraction of N,N-dimethylacetamide [DMA] (Liquid mixture 2); method: Chromatography
Property: Mass fraction of methyl isobutyl ketone (Liquid mixture 2); method: Chromatography
Temperature, K	Mass fraction of N,N-dimethylacetamide [DMA]	Mass fraction of methyl isobutyl ketone	uncertainty	Mass fraction of N,N-dimethylacetamide [DMA]	uncertainty	Mass fraction of methyl isobutyl ketone	uncertainty
298.2	0	.0209	.007	0	.007	.9815	.007
298.2	.0449	.0285	.007	.0042	.007	.9765	.007
298.2	.0917	.0292	.007	.0084	.007	.972	.007
298.2	.1321	.0352	.007	.0124	.007	.9675	.007
298.2	.1706	.0378	.007	.0168	.007	.962	.007
298.2	.2072	.0423	.007	.0213	.007	.9568	.007
298.2	.2411	.043	.007	.0271	.007	.95	.007
298.2	.2714	.0457	.007	.0318	.007	.9449	.007
298.2	.2985	.0502	.007	.038	.007	.9378	.007

System: isopropyl acetate + N,N-dimethylacetamide [DMA] + water; phases: Liquid mixture 2, Liquid mixture 1
Fixed: Pressure, kPa = 101.3
Property: Mass fraction of isopropyl acetate (Liquid mixture 2); method: Chromatography
Property: Mass fraction of N,N-dimethylacetamide [DMA] (Liquid mixture 1); method: Chromatography
Property: Mass fraction of isopropyl acetate (Liquid mixture 1); method: Chromatography
Temperature, K	Mass fraction of N,N-dimethylacetamide [DMA]	Mass fraction of isopropyl acetate	uncertainty	Mass fraction of N,N-dimethylacetamide [DMA]	uncertainty	Mass fraction of isopropyl acetate	uncertainty
298.2	0	.9873	.007	0	.007	.0308	.007
298.2	.0027	.9785	.007	.0371	.007	.0338	.007
298.2	.0064	.9744	.007	.0908	.007	.0379	.007
298.2	.0091	.9717	.007	.1294	.007	.0411	.007
298.2	.0127	.968	.007	.1685	.007	.0426	.007
298.2	.0165	.963	.007	.2077	.007	.0455	.007
298.2	.0198	.9604	.007	.2416	.007	.0495	.007
298.2	.0245	.953	.007	.2676	.007	.0532	.007
298.2	.0289	.9479	.007	.2941	.007	.0564	.007

System: isopropyl ether + N,N-dimethylacetamide [DMA] + water; phases: Liquid mixture 2, Liquid mixture 1
Fixed: Pressure, kPa = 101.3
Property: Mass fraction of isopropyl ether (Liquid mixture 2); method: Chromatography
Property: Mass fraction of N,N-dimethylacetamide [DMA] (Liquid mixture 1); method: Chromatography
Property: Mass fraction of isopropyl ether (Liquid mixture 1); method: Chromatography
Temperature, K	Mass fraction of N,N-dimethylacetamide [DMA]	Mass fraction of isopropyl ether	uncertainty	Mass fraction of N,N-dimethylacetamide [DMA]	uncertainty	Mass fraction of isopropyl ether	uncertainty
298.2	0	.9971	.007	0	.007	.0162	.007
298.2	.001	.9936	.007	.0493	.007	.018	.007
298.2	.0017	.9926	.007	.0994	.007	.0159	.007
298.2	.0024	.9916	.007	.1375	.007	.0219	.007
298.2	.0035	.9902	.007	.1813	.007	.0202	.007
298.2	.004	.9902	.007	.2155	.007	.0217	.007
298.2	.0043	.9897	.007	.25	.007	.0233	.007
298.2	.0063	.9873	.007	.2836	.007	.0299	.007
298.2	.0068	.9871	.007	.3162	.007	.0289	.007

System: chloroform + water; phases: Liquid mixture 1, Liquid mixture 2
Property: Mass fraction of chloroform (Liquid mixture 1); method: Chromatography
Temperature, K	Pressure, kPa	Mass fraction of chloroform	uncertainty
308.2	101.3	.0046	
298.2	101.3	.0059	

System: chloroform + water; phases: Liquid mixture 2, Liquid mixture 1
Property: Mass fraction of chloroform (Liquid mixture 2); method: Chromatography
Temperature, K	Pressure, kPa	Mass fraction of chloroform	uncertainty
308.2	101.3	.9991	
298.2	101.3	.9992	

System: methylisobutylcarbinol + water; phases: Liquid mixture 2, Liquid mixture 1
Property: Mass fraction of methylisobutylcarbinol (Liquid mixture 2); method: Chromatography
Temperature, K	Pressure, kPa	Mass fraction of methylisobutylcarbinol	uncertainty
298.2	101.3	.9398	

System: methylisobutylcarbinol + water; phases: Liquid mixture 1, Liquid mixture 2
Property: Mass fraction of methylisobutylcarbinol (Liquid mixture 1); method: Chromatography
Temperature, K	Pressure, kPa	Mass fraction of methylisobutylcarbinol	uncertainty
298.2	101.3	.0179	

System: methyl isobutyl ketone + water; phases: Liquid mixture 1, Liquid mixture 2
Property: Mass fraction of methyl isobutyl ketone (Liquid mixture 1); method: Chromatography
Temperature, K	Pressure, kPa	Mass fraction of methyl isobutyl ketone	uncertainty
298.2	101.3	.0209	

System: methyl isobutyl ketone + water; phases: Liquid mixture 2, Liquid mixture 1
Property: Mass fraction of methyl isobutyl ketone (Liquid mixture 2); method: Chromatography
Temperature, K	Pressure, kPa	Mass fraction of methyl isobutyl ketone	uncertainty
298.2	101.3	.9815	

System: isopropyl acetate + water; phases: Liquid mixture 2, Liquid mixture 1
Property: Mass fraction of isopropyl acetate (Liquid mixture 2); method: Chromatography
Temperature, K	Pressure, kPa	Mass fraction of isopropyl acetate	uncertainty
298.2	101.3	.9873	

System: isopropyl acetate + water; phases: Liquid mixture 1, Liquid mixture 2
Property: Mass fraction of isopropyl acetate (Liquid mixture 1); method: Chromatography
Temperature, K	Pressure, kPa	Mass fraction of isopropyl acetate	uncertainty
298.2	101.3	.0308	

System: isopropyl ether + water; phases: Liquid mixture 2, Liquid mixture 1
Property: Mass fraction of isopropyl ether (Liquid mixture 2); method: Chromatography
Temperature, K	Pressure, kPa	Mass fraction of isopropyl ether	uncertainty
298.2	101.3	.9971	

System: isopropyl ether + water; phases: Liquid mixture 1, Liquid mixture 2
Property: Mass fraction of isopropyl ether (Liquid mixture 1); method: Chromatography
Temperature, K	Pressure, kPa	Mass fraction of isopropyl ether	uncertainty
298.2	101.3	.0162	
