Measured thermophysical data. Temperature and Pressure Dependence of the Viscosities of Krytox(R) GPL102 Oil, and Di(pentaerythritol) Hexa(isononanoate)
Source: J. Chem. Eng. Data, 2015, 10.1021/acs.jced.5b00099
Compound 1: dipentaerythritol isononanoate, C64H118O13, purity 95%

System: dipentaerythritol isononanoate; phases: Liquid
Fixed: Pressure, kPa = 101.325
Property: Mass density, kg/m3 (Liquid); method: Vibrating tube method
Temperature, K	Mass density, kg/m3	uncertainty
273.15	978.83	.195766
283.15	971.9	.19438
293.15	965.02	.193004
298.15	961.59	.192318
303.15	958.18	.191636
313.15	951.35	.19027
323.15	944.52	.188904
333.15	937.84	.187568
343.15	931.14	.186228
353.15	924.45	.18489
363.15	917.76	.183552

System: dipentaerythritol isononanoate; phases: Liquid
Property: Viscosity, Pa*s (Liquid); method: Falling or rolling sphere viscometry
Temperature, K	Pressure, kPa	Viscosity, Pa*s	uncertainty
293.15	100	2.0777	.041554
293.15	100	2.0771	.041542
298.15	100	1.307	.02614
298.15	100	1.3065	.02613
303.15	100	.8454	.016908
313.15	100	.396	.00792
323.15	100	.2034	.004068
323.15	100	.2041	.004082
323.15	100	.2041	.004082
323.15	100	.2092	.004184
323.15	100	.2066	.004132
323.15	100	.2067	.004134
323.15	100	.2061	.004122
323.15	100	.2061	.004122
323.15	1100	.2117	.004234
323.15	9600	.2783	.005566
323.15	11000	.2848	.005696
323.15	21100	.3849	.007698
323.15	30100	.4988	.009976
323.15	40600	.6658	.013316
323.15	50600	.8799	.017598
323.15	61700	1.1884	.023768
323.15	70400	1.4982	.029964
323.15	81600	2.0327	.040654
333.15	100	.1167	.002334
333.15	100	.1167	.002334
343.15	100	.07174	.0014348
343.15	100	.07169	.0014338
343.15	100	.07442	.0014884
343.15	100	.07402	.0014804
343.15	100	.07429	.0014858
343.15	100	.07356	.0014712
343.15	100	.07357	.0014714
343.15	100	.07273	.0014546
343.15	100	.07335	.001467
343.15	100	.07318	.0014636
343.15	9900	.09586	.0019172
343.15	19800	.1237	.002474
343.15	30300	.1601	.003202
343.15	40300	.2037	.004074
343.15	50300	.2577	.005154
343.15	50800	.2566	.005132
343.15	61100	.329	.00658
343.15	69400	.3995	.00799
343.15	81000	.5077	.010154
343.15	91000	.646	.01292
343.15	100300	.7828	.015656
343.15	111500	.9751	.019502
343.15	125600	1.3199	.026398
343.15	140900	1.8133	.036266
343.15	150700	2.2694	.045388
343.15	150800	2.2544	.045088
348.15	100	.05736	.0011472
353.15	100	.04688	.0009376
353.15	100	.04689	.0009378
353.15	100	.04691	.0009382
353.15	100	.04809	.0009618
353.15	100	.04796	.0009592
363.15	100	.03366	.0006732
363.15	100	.03364	.0006728
363.15	100	.03312	.0006624
363.15	100	.0331	.000662
363.15	100	.03281	.0006562
363.15	100	.03243	.0006486
363.15	10100	.04284	.0008568
363.15	20100	.05393	.0010786
363.15	30400	.06784	.0013568
363.15	40200	.08371	.0016742
363.15	50500	.1034	.002068
363.15	60500	.1261	.002522
363.15	70100	.1529	.003058
363.15	80400	.1865	.00373
363.15	90400	.2268	.004536
363.15	100600	.2787	.005574
363.15	120000	.3967	.007934
363.15	138800	.5584	.011168
363.15	161200	.813	.01626
363.15	180500	1.137	.02274
363.15	200200	1.622	.03244
