Measured thermophysical data. Density and Viscosity of the Ternary Systems [NMP][MSA] + LaCl3 + H2O, [NMP][BSA] + LaCl3 + H2O, and [NMP][p- TSA] + LaCl3 + H2O at Different Temperatures and Atmospheric Pressure
Source: J. Chem. Eng. Data, 2016, 10.1021/acs.jced.5b00580
Compound 1: 1-methyl-2-pyrrolidonium methylsulfonate, C6H13NO4S
Compound 2: 1-methyl-2-pyrrolidinone benzenesulfonate, C11H15NO4S
Compound 3: 1-methyl-2-pyrrolidinone p-toluenesulfonate, C12H17NO4S
Compound 4: lanthanum chloride, Cl3La, purity 99.99%
Compound 5: water, H2O, purity 99.9%

System: water + 1-methyl-2-pyrrolidonium methylsulfonate; phases: Liquid
Fixed: Pressure, kPa = 100
Property: Mass density, kg/m3 (Liquid); method: Vibrating tube method
Temperature, K	Molality, mol/kg of 1-methyl-2-pyrrolidonium methylsulfonate	Mass density, kg/m3	uncertainty
293.15	.0995	1003.11	
293.15	.1998	1007.69	
293.15	.2996	1011.67	
293.15	.4503	1017.89	
293.15	.5987	1023.86	
293.15	.7992	1031.61	
293.15	1.1882	1045.44	
293.15	1.4996	1055.51	
293.15	1.7999	1064.47	
298.15	.0995	1001.8	
298.15	.1998	1006.37	
298.15	.2996	1010.33	
298.15	.4503	1016.48	
298.15	.5987	1022.36	
298.15	.7992	1030.02	
298.15	1.1882	1043.63	
298.15	1.4996	1053.55	
298.15	1.7999	1062.38	
303.15	.0995	1000.33	
303.15	.1998	1004.81	
303.15	.2996	1008.67	
303.15	.4503	1014.86	
303.15	.5987	1020.66	
303.15	.7992	1028.1	
303.15	1.1882	1041.62	
303.15	1.4996	1051.43	
303.15	1.7999	1060.14	
308.15	.0995	998.64	
308.15	.1998	1003.1	
308.15	.2996	1006.99	
308.15	.4503	1013.03	
308.15	.5987	1018.77	
308.15	.7992	1026.03	
308.15	1.1882	1039.47	
308.15	1.4996	1049.18	
308.15	1.7999	1057.78	

System: water + 1-methyl-2-pyrrolidonium methylsulfonate; phases: Liquid
Fixed: Pressure, kPa = 100
Property: Viscosity, Pa*s (Liquid); method: Capillary tube (Ostwald; Ubbelohde) method
Temperature, K	Molality, mol/kg of 1-methyl-2-pyrrolidonium methylsulfonate	Viscosity, Pa*s	uncertainty
293.15	.0995	.0010569	
293.15	.1998	.0011057	
293.15	.2996	.0011514	
293.15	.4503	.0012216	
293.15	.5987	.0012945	
293.15	.7992	.0013963	
293.15	1.1882	.0015936	
293.15	1.4996	.0017542	
293.15	1.7999	.0019167	
298.15	.0995	.0009409	
298.15	.1998	.0009808	
298.15	.2996	.0010204	
298.15	.4503	.0010801	
298.15	.5987	.0011464	
298.15	.7992	.0012326	
298.15	1.1882	.0014091	
298.15	1.4996	.0015509	
298.15	1.7999	.0016814	
303.15	.0995	.0008421	
303.15	.1998	.0008782	
303.15	.2996	.0009124	
303.15	.4503	.0009664	
303.15	.5987	.0010223	
303.15	.7992	.0010992	
303.15	1.1882	.0012543	
303.15	1.4996	.0013737	
303.15	1.7999	.0014833	
308.15	.0995	.0007603	
308.15	.1998	.0007902	
308.15	.2996	.0008191	
308.15	.4503	.0008672	
308.15	.5987	.0009163	
308.15	.7992	.0009865	
308.15	1.1882	.001126	
308.15	1.4996	.0012321	
308.15	1.7999	.0013249	

System: water + 1-methyl-2-pyrrolidinone benzenesulfonate; phases: Liquid
Fixed: Pressure, kPa = 100
Property: Mass density, kg/m3 (Liquid); method: Vibrating tube method
Temperature, K	Molality, mol/kg of 1-methyl-2-pyrrolidinone benzenesulfonate	Mass density, kg/m3	uncertainty
293.15	.1	1004.21	
293.15	.2009	1009.97	
293.15	.2998	1015.22	
293.15	.45	1022.83	
293.15	.5999	1030.22	
293.15	.8	1039.56	
293.15	1.1995	1056.42	
293.15	1.4999	1067.65	
293.15	1.7998	1077.7	
298.15	.1	1002.83	
298.15	.2009	1008.44	
298.15	.2998	1013.61	
298.15	.45	1021.2	
298.15	.5999	1028.5	
298.15	.8	1037.64	
298.15	1.1995	1054.3	
298.15	1.4999	1065.48	
298.15	1.7998	1075.44	
303.15	.1	1001.32	
303.15	.2009	1006.71	
303.15	.2998	1011.67	
303.15	.45	1019.14	
303.15	.5999	1026.45	
303.15	.8	1035.56	
303.15	1.1995	1052.01	
303.15	1.4999	1063.06	
303.15	1.7998	1072.97	
308.15	.1	999.59	
308.15	.2009	1004.53	
308.15	.2998	1009.18	
308.15	.45	1016.44	
308.15	.5999	1023.7	
308.15	.8	1032.82	
308.15	1.1995	1049.65	
308.15	1.4999	1060.75	
308.15	1.7998	1070.41	

System: water + 1-methyl-2-pyrrolidinone benzenesulfonate; phases: Liquid
Fixed: Pressure, kPa = 100
Property: Viscosity, Pa*s (Liquid); method: Capillary tube (Ostwald; Ubbelohde) method
Temperature, K	Molality, mol/kg of 1-methyl-2-pyrrolidinone benzenesulfonate	Viscosity, Pa*s	uncertainty
293.15	.1	.0010742	
293.15	.2009	.0011374	
293.15	.2998	.0011982	
293.15	.45	.0012853	
293.15	.5999	.0013722	
293.15	.8	.001491	
293.15	1.1995	.001749	
293.15	1.4999	.0019706	
293.15	1.7998	.0022165	
298.15	.1	.0009472	
298.15	.2009	.0010012	
298.15	.2998	.0010531	
298.15	.45	.0011302	
298.15	.5999	.0012058	
298.15	.8	.0013095	
298.15	1.1995	.0015425	
298.15	1.4999	.0017458	
298.15	1.7998	.0019631	
303.15	.1	.0008439	
303.15	.2009	.0008882	
303.15	.2998	.0009316	
303.15	.45	.000998	
303.15	.5999	.0010644	
303.15	.8	.0011556	
303.15	1.1995	.0013626	
303.15	1.4999	.0015411	
303.15	1.7998	.0017365	
308.15	.1	.0007688	
308.15	.2009	.0008029	
308.15	.2998	.000839	
308.15	.45	.0008943	
308.15	.5999	.0009518	
308.15	.8	.0010342	
308.15	1.1995	.0012184	
308.15	1.4999	.0013687	
308.15	1.7998	.0015266	

System: water + 1-methyl-2-pyrrolidinone p-toluenesulfonate; phases: Liquid
Fixed: Pressure, kPa = 100
Property: Mass density, kg/m3 (Liquid); method: Vibrating tube method
Temperature, K	Molality, mol/kg of 1-methyl-2-pyrrolidinone p-toluenesulfonate	Mass density, kg/m3	uncertainty
293.15	.0998	1003.75	
293.15	.1999	1009.38	
293.15	.2965	1014.67	
293.15	.45	1022.68	
293.15	.5999	1029.86	
293.15	.7977	1038.7	
293.15	1.1997	1054.77	
293.15	1.5001	1065.08	
293.15	1.7998	1074.5	
298.15	.0998	1002.43	
298.15	.1999	1007.97	
298.15	.2965	1013.08	
298.15	.45	1020.86	
298.15	.5999	1027.99	
298.15	.7977	1036.75	
298.15	1.1997	1052.71	
298.15	1.5001	1063.08	
298.15	1.7998	1072.55	
303.15	.0998	1000.75	
303.15	.1999	1006.36	
303.15	.2965	1011.42	
303.15	.45	1018.94	
303.15	.5999	1025.9	
303.15	.7977	1034.59	
303.15	1.1997	1050.48	
303.15	1.5001	1060.86	
303.15	1.7998	1070.32	
308.15	.0998	999.05	
308.15	.1999	1004.53	
308.15	.2965	1009.51	
308.15	.45	1016.89	
308.15	.5999	1023.75	
308.15	.7977	1032.33	
308.15	1.1997	1048.15	
308.15	1.5001	1058.45	
308.15	1.7998	1067.94	

System: water + 1-methyl-2-pyrrolidinone p-toluenesulfonate; phases: Liquid
Fixed: Pressure, kPa = 100
Property: Viscosity, Pa*s (Liquid); method: Capillary tube (Ostwald; Ubbelohde) method
Temperature, K	Molality, mol/kg of 1-methyl-2-pyrrolidinone p-toluenesulfonate	Viscosity, Pa*s	uncertainty
293.15	.0998	.0010789	
293.15	.1999	.0011487	
293.15	.2965	.001212	
293.15	.45	.0013108	
293.15	.5999	.0014045	
293.15	.7977	.0015326	
293.15	1.1997	.0018064	
293.15	1.5001	.002029	
293.15	1.7998	.002274	
298.15	.0998	.0009575	
298.15	.1999	.001016	
298.15	.2965	.0010732	
298.15	.45	.0011571	
298.15	.5999	.0012419	
298.15	.7977	.0013576	
298.15	1.1997	.001611	
298.15	1.5001	.0018192	
298.15	1.7998	.0020484	
303.15	.0998	.0008523	
303.15	.1999	.0009062	
303.15	.2965	.0009554	
303.15	.45	.0010316	
303.15	.5999	.0011025	
303.15	.7977	.0012011	
303.15	1.1997	.00142	
303.15	1.5001	.0016112	
303.15	1.7998	.0018274	
308.15	.0998	.0007695	
308.15	.1999	.0008124	
308.15	.2965	.0008523	
308.15	.45	.0009156	
308.15	.5999	.0009784	
308.15	.7977	.001067	
308.15	1.1997	.0012702	
308.15	1.5001	.001444	
308.15	1.7998	.0016397	

System: water + lanthanum chloride; phases: Liquid
Fixed: Pressure, kPa = 100
Property: Mass density, kg/m3 (Liquid); method: Vibrating tube method
Temperature, K	Molality, mol/kg of lanthanum chloride	Mass density, kg/m3	uncertainty
293.15	.0299	1004.97	
293.15	.0504	1009.7	
293.15	.1002	1020.92	
293.15	.2003	1043.53	
293.15	.2998	1065.41	
293.15	.3996	1086.83	
293.15	.5005	1108.06	
293.15	.6004	1128.89	
298.15	.0299	1003.8	
298.15	.0504	1008.47	
298.15	.1002	1019.57	
298.15	.2003	1041.94	
298.15	.2998	1063.63	
298.15	.3996	1084.92	
298.15	.5005	1106.13	
298.15	.6004	1127.08	
303.15	.0299	1002.38	
303.15	.0504	1007.05	
303.15	.1002	1018.13	
303.15	.2003	1040.42	
303.15	.2998	1061.98	
303.15	.3996	1083.17	
303.15	.5005	1104.46	
303.15	.6004	1125.2	
308.15	.0299	1000.67	
308.15	.0504	1005.48	
308.15	.1002	1016.73	
308.15	.2003	1038.83	
308.15	.2998	1060.25	
308.15	.3996	1081.38	
308.15	.5005	1102.63	
308.15	.6004	1123.37	

System: water + lanthanum chloride; phases: Liquid
Fixed: Pressure, kPa = 100
Property: Viscosity, Pa*s (Liquid); method: Capillary tube (Ostwald; Ubbelohde) method
Temperature, K	Molality, mol/kg of lanthanum chloride	Viscosity, Pa*s	uncertainty
293.15	.0299	.0010264	
293.15	.0504	.0010373	
293.15	.1002	.0010663	
293.15	.2003	.0011196	
293.15	.2998	.0011828	
293.15	.3996	.0012564	
293.15	.5005	.0013405	
293.15	.6004	.0014329	
298.15	.0299	.0009124	
298.15	.0504	.000922	
298.15	.1002	.0009485	
298.15	.2003	.0009971	
298.15	.2998	.0010548	
298.15	.3996	.0011206	
298.15	.5005	.0011962	
298.15	.6004	.001278	
303.15	.0299	.0008179	
303.15	.0504	.0008265	
303.15	.1002	.0008506	
303.15	.2003	.0008947	
303.15	.2998	.0009462	
303.15	.3996	.0010058	
303.15	.5005	.0010756	
303.15	.6004	.0011517	
308.15	.0299	.0007374	
308.15	.0504	.0007452	
308.15	.1002	.0007674	
308.15	.2003	.0008106	
308.15	.2998	.000857	
308.15	.3996	.0009116	
308.15	.5005	.0009725	
308.15	.6004	.0010411	

System: water + lanthanum chloride + 1-methyl-2-pyrrolidonium methylsulfonate; phases: Liquid
Fixed: Pressure, kPa = 100
Property: Mass density, kg/m3 (Liquid); method: Vibrating tube method
Temperature, K	Molality, mol/kg of 1-methyl-2-pyrrolidonium methylsulfonate	Molality, mol/kg of lanthanum chloride	Mass density, kg/m3	uncertainty
293.15	.0796	.0199	1006.45	
293.15	.0498	.0499	1011.69	
293.15	.02	.0799	1017.2	
293.15	.2306	.0576	1021.04	
293.15	.1363	.1363	1034.02	
293.15	.0516	.207	1046.15	
293.15	.4544	.1083	1040.45	
293.15	.2567	.2569	1064.29	
298.15	.0796	.0199	1005.21	
298.15	.0498	.0499	1010.48	
298.15	.02	.0799	1015.98	
298.15	.2306	.0576	1019.72	
298.15	.1363	.1363	1032.79	
298.15	.0516	.207	1044.72	
298.15	.4544	.1083	1038.96	
298.15	.2567	.2569	1062.71	
303.15	.0796	.0199	1003.79	
303.15	.0498	.0499	1009.04	
303.15	.02	.0799	1014.53	
303.15	.2306	.0576	1018.12	
303.15	.1363	.1363	1031.25	
303.15	.0516	.207	1043.08	
303.15	.4544	.1083	1037.28	
303.15	.2567	.2569	1060.93	
308.15	.0796	.0199	1002.12	
308.15	.0498	.0499	1007.45	
308.15	.02	.0799	1012.95	
308.15	.2306	.0576	1016.42	
308.15	.1363	.1363	1029.61	
308.15	.0516	.207	1041.34	
308.15	.4544	.1083	1035.31	
308.15	.2567	.2569	1059.09	

System: water + lanthanum chloride + 1-methyl-2-pyrrolidonium methylsulfonate; phases: Liquid
Fixed: Pressure, kPa = 100
Property: Viscosity, Pa*s (Liquid); method: Capillary tube (Ostwald; Ubbelohde) method
Temperature, K	Molality, mol/kg of 1-methyl-2-pyrrolidonium methylsulfonate	Molality, mol/kg of lanthanum chloride	Viscosity, Pa*s	uncertainty
293.15	.0796	.0199	.0010561	
293.15	.0498	.0499	.0010585	
293.15	.02	.0799	.0010655	
293.15	.2306	.0576	.0011475	
293.15	.1363	.1363	.0011483	
293.15	.0516	.207	.0011487	
293.15	.4544	.1083	.0012839	
293.15	.2567	.2569	.0012883	
298.15	.0796	.0199	.0009368	
298.15	.0498	.0499	.0009406	
298.15	.02	.0799	.0009476	
298.15	.2306	.0576	.0010208	
298.15	.1363	.1363	.0010211	
298.15	.0516	.207	.0010245	
298.15	.4544	.1083	.0011394	
298.15	.2567	.2569	.0011422	
303.15	.0796	.0199	.0008396	
303.15	.0498	.0499	.0008468	
303.15	.02	.0799	.0008509	
303.15	.2306	.0576	.0009143	
303.15	.1363	.1363	.0009166	
303.15	.0516	.207	.0009177	
303.15	.4544	.1083	.0010175	
303.15	.2567	.2569	.0010213	
308.15	.0796	.0199	.0007559	
308.15	.0498	.0499	.0007645	
308.15	.02	.0799	.0007692	
308.15	.2306	.0576	.0008246	
308.15	.1363	.1363	.0008294	
308.15	.0516	.207	.0008297	
308.15	.4544	.1083	.0009161	
308.15	.2567	.2569	.0009226	

System: water + lanthanum chloride + 1-methyl-2-pyrrolidinone benzenesulfonate; phases: Liquid
Fixed: Pressure, kPa = 100
Property: Mass density, kg/m3 (Liquid); method: Vibrating tube method
Temperature, K	Molality, mol/kg of 1-methyl-2-pyrrolidinone benzenesulfonate	Molality, mol/kg of lanthanum chloride	Mass density, kg/m3	uncertainty
293.15	.08	.0199	1007.42	
293.15	.0498	.0502	1012.35	
293.15	.0202	.0799	1017.54	
293.15	.2305	.0578	1023.86	
293.15	.1345	.1355	1035.47	
293.15	.0505	.2	1045.43	
293.15	.4501	.1025	1043.63	
293.15	.2575	.2565	1066.79	
298.15	.08	.0199	1006.1	
298.15	.0498	.0502	1011.15	
298.15	.0202	.0799	1016.21	
298.15	.2305	.0578	1022.29	
298.15	.1345	.1355	1034.04	
298.15	.0505	.2	1044.01	
298.15	.4501	.1025	1041.74	
298.15	.2575	.2565	1064.92	
303.15	.08	.0199	1004.56	
303.15	.0498	.0502	1009.65	
303.15	.0202	.0799	1014.76	
303.15	.2305	.0578	1020.69	
303.15	.1345	.1355	1032.27	
303.15	.0505	.2	1042.17	
303.15	.4501	.1025	1040.08	
303.15	.2575	.2565	1063.26	
308.15	.08	.0199	1002.72	
308.15	.0498	.0502	1007.83	
308.15	.0202	.0799	1013.17	
308.15	.2305	.0578	1018.57	
308.15	.1345	.1355	1030.76	
308.15	.0505	.2	1040.65	
308.15	.4501	.1025	1038	
308.15	.2575	.2565	1061.37	

System: water + lanthanum chloride + 1-methyl-2-pyrrolidinone benzenesulfonate; phases: Liquid
Fixed: Pressure, kPa = 100
Property: Viscosity, Pa*s (Liquid); method: Capillary tube (Ostwald; Ubbelohde) method
Temperature, K	Molality, mol/kg of 1-methyl-2-pyrrolidinone benzenesulfonate	Molality, mol/kg of lanthanum chloride	Viscosity, Pa*s	uncertainty
293.15	.08	.0199	.0010706	
293.15	.0498	.0502	.0010666	
293.15	.0202	.0799	.0010645	
293.15	.2305	.0578	.0011757	
293.15	.1345	.1355	.0011636	
293.15	.0505	.2	.0011457	
293.15	.4501	.1025	.0013323	
293.15	.2575	.2565	.0013155	
298.15	.08	.0199	.0009478	
298.15	.0498	.0502	.0009463	
298.15	.0202	.0799	.0009459	
298.15	.2305	.0578	.0010387	
298.15	.1345	.1355	.0010314	
298.15	.0505	.2	.0010222	
298.15	.4501	.1025	.001183	
298.15	.2575	.2565	.0011716	
303.15	.08	.0199	.0008466	
303.15	.0498	.0502	.0008472	
303.15	.0202	.0799	.0008478	
303.15	.2305	.0578	.0009267	
303.15	.1345	.1355	.0009218	
303.15	.0505	.2	.0009163	
303.15	.4501	.1025	.0010493	
303.15	.2575	.2565	.0010446	
308.15	.08	.0199	.0007636	
308.15	.0498	.0502	.0007637	
308.15	.0202	.0799	.0007643	
308.15	.2305	.0578	.000835	
308.15	.1345	.1355	.0008318	
308.15	.0505	.2	.0008297	
308.15	.4501	.1025	.0009456	
308.15	.2575	.2565	.0009427	

System: water + lanthanum chloride + 1-methyl-2-pyrrolidinone p-toluenesulfonate; phases: Liquid
Fixed: Pressure, kPa = 100
Property: Mass density, kg/m3 (Liquid); method: Vibrating tube method
Temperature, K	Molality, mol/kg of 1-methyl-2-pyrrolidinone p-toluenesulfonate	Molality, mol/kg of lanthanum chloride	Mass density, kg/m3	uncertainty
293.15	.0799	.02	1007.32	
293.15	.0499	.0501	1012.38	
293.15	.02	.0801	1017.57	
293.15	.23	.0568	1023.54	
293.15	.1355	.1345	1035.21	
293.15	.0505	.2006	1045.5	
293.15	.4498	.112	1044.83	
293.15	.2574	.2567	1066.18	
298.15	.0799	.02	1005.98	
298.15	.0499	.0501	1011.08	
298.15	.02	.0801	1016.24	
298.15	.23	.0568	1021.98	
298.15	.1355	.1345	1033.69	
298.15	.0505	.2006	1043.92	
298.15	.4498	.112	1043.09	
298.15	.2574	.2567	1064.38	
303.15	.0799	.02	1004.46	
303.15	.0499	.0501	1009.54	
303.15	.02	.0801	1014.77	
303.15	.23	.0568	1020.35	
303.15	.1355	.1345	1032.12	
303.15	.0505	.2006	1042.34	
303.15	.4498	.112	1041.26	
303.15	.2574	.2567	1062.84	
308.15	.0799	.02	1002.74	
308.15	.0499	.0501	1007.98	
308.15	.02	.0801	1013.24	
308.15	.23	.0568	1018.52	
308.15	.1355	.1345	1030.4	
308.15	.0505	.2006	1040.5	
308.15	.4498	.112	1039.24	
308.15	.2574	.2567	1061.12	

System: water + lanthanum chloride + 1-methyl-2-pyrrolidinone p-toluenesulfonate; phases: Liquid
Fixed: Pressure, kPa = 100
Property: Viscosity, Pa*s (Liquid); method: Capillary tube (Ostwald; Ubbelohde) method
Temperature, K	Molality, mol/kg of 1-methyl-2-pyrrolidinone p-toluenesulfonate	Molality, mol/kg of lanthanum chloride	Viscosity, Pa*s	uncertainty
293.15	.0799	.02	.0010745	
293.15	.0499	.0501	.0010693	
293.15	.02	.0801	.0010665	
293.15	.23	.0568	.0011878	
293.15	.1355	.1345	.0011648	
293.15	.0505	.2006	.001154	
293.15	.4498	.112	.0013523	
293.15	.2574	.2567	.0013219	
298.15	.0799	.02	.0009537	
298.15	.0499	.0501	.0009499	
298.15	.02	.0801	.0009479	
298.15	.23	.0568	.0010516	
298.15	.1355	.1345	.0010378	
298.15	.0505	.2006	.0010296	
298.15	.4498	.112	.0012027	
298.15	.2574	.2567	.0011785	
303.15	.0799	.02	.0008529	
303.15	.0499	.0501	.000851	
303.15	.02	.0801	.0008499	
303.15	.23	.0568	.0009416	
303.15	.1355	.1345	.0009292	
303.15	.0505	.2006	.0009208	
303.15	.4498	.112	.0010729	
303.15	.2574	.2567	.0010566	
308.15	.0799	.02	.0007674	
308.15	.0499	.0501	.0007667	
308.15	.02	.0801	.0007668	
308.15	.23	.0568	.0008452	
308.15	.1355	.1345	.0008383	
308.15	.0505	.2006	.0008339	
308.15	.4498	.112	.0009643	
308.15	.2574	.2567	.000952	
