Measured thermophysical data. Solid Liquid Phase Equilibrium in the Ternary Systems (Li2B4O7 + MgB4O7 + H2O) and (Na2B4O7 + MgB4O7 + H2O) at 298.15 K
Source: J. Chem. Eng. Data, 2017, 10.1021/acs.jced.6b00626
Compound 1: sodium tetraborate, B4Na2O7, purity 99%
Compound 2: lithium borate, B4Li2O7, purity 99%
Compound 3: magnesium tetraborate, B4MgO7
Compound 4: water, H2O, purity 99.8%

System: water + lithium borate + magnesium tetraborate; phases: Liquid, Crystal of intercomponent compound 1
Fixed: Pressure, kPa = 100
Fixed: Temperature, K = 298.15
Property: Mass fraction of lithium borate (Liquid); method: Titration method
Mass fraction of magnesium tetraborate	Mass fraction of lithium borate	uncertainty
.0064	0	
.0034	.0045	
.0023	.007	
.0015	.0131	
.0013	.0172	
.0013	.0204	
.0013	.0291	

System: water + lithium borate + magnesium tetraborate; phases: Liquid, Crystal of intercomponent compound 2
Fixed: Pressure, kPa = 100
Fixed: Temperature, K = 298.15
Property: Mass fraction of lithium borate (Liquid); method: Titration method
Mass fraction of magnesium tetraborate	Mass fraction of lithium borate	uncertainty
.0011	.029	
.0006	.0288	
0	.0288	
.0013	.0291	

System: water + lithium borate + magnesium tetraborate; phases: Liquid
Fixed: Temperature, K = 298.15
Fixed: Pressure, kPa = 100
Property: Mass density, kg/m3 (Liquid); method: Vibrating tube method
Mass fraction of magnesium tetraborate	Mass fraction of lithium borate	Mass density, kg/m3	uncertainty
.0064	0	1002.77	
.0034	.0045	1002.25	
.0023	.007	1004.37	
.0015	.0131	1010.27	
.0013	.0172	1013.34	
.0013	.0204	1016.08	
.0013	.0291	1024.99	
.0011	.029	1024.61	
.0006	.0288	1023.89	
0	.0288	1023.42	

System: water + lithium borate + magnesium tetraborate; phases: Liquid
Fixed: Temperature, K = 298.15
Fixed: Pressure, kPa = 100
Property: Refractive index (Na D-line) (Liquid); method: Standard Abbe refractometry
Mass fraction of magnesium tetraborate	Mass fraction of lithium borate	Refractive index (Na D-line)	uncertainty
.0064	0	1.3345	
.0034	.0045	1.3351	
.0023	.007	1.3355	
.0015	.0131	1.3366	
.0013	.0172	1.3372	
.0013	.0204	1.338	
.0013	.0291	1.3395	
.0011	.029	1.3395	
.0006	.0288	1.3397	
0	.0288	1.3394	

System: sodium tetraborate + water + magnesium tetraborate; phases: Liquid, Crystal of intercomponent compound 1
Fixed: Pressure, kPa = 100
Fixed: Temperature, K = 298.15
Property: Mass fraction of sodium tetraborate (Liquid); method: Titration method
Mass fraction of magnesium tetraborate	Mass fraction of sodium tetraborate	uncertainty
.0064	0	
.0041	.004	
.0027	.008	
.0019	.0116	
.0018	.0141	
.0015	.0206	
.0014	.0227	
.0014	.0301	
.0014	.0311	

System: sodium tetraborate + water + magnesium tetraborate; phases: Liquid, Crystal of intercomponent compound 2
Fixed: Pressure, kPa = 100
Fixed: Temperature, K = 298.15
Property: Mass fraction of sodium tetraborate (Liquid); method: Titration method
Mass fraction of magnesium tetraborate	Mass fraction of sodium tetraborate	uncertainty
.0014	.0311	
.0014	.031	
.0013	.0309	
.0006	.0308	
.0003	.0308	
0	.0308	

System: sodium tetraborate + water + magnesium tetraborate; phases: Liquid
Fixed: Temperature, K = 298.15
Fixed: Pressure, kPa = 100
Property: Mass density, kg/m3 (Liquid); method: Vibrating tube method
Mass fraction of magnesium tetraborate	Mass fraction of sodium tetraborate	Mass density, kg/m3	uncertainty
.0064	0	1002.77	
.0041	.004	1005.28	
.0027	.008	1006.71	
.0019	.0116	1010.55	
.0018	.0141	1011.69	
.0015	.0206	1017.94	
.0014	.0227	1019.36	
.0014	.0301	1026.93	
.0014	.0311	1026.99	
.0014	.031	1026.77	
.0013	.0309	1026.36	
.0006	.0308	1026.16	
.0003	.0308	1026.1	
0	.0308	1025.65	

System: sodium tetraborate + water + magnesium tetraborate; phases: Liquid
Fixed: Temperature, K = 298.15
Fixed: Pressure, kPa = 100
Property: Refractive index (Na D-line) (Liquid); method: Standard Abbe refractometry
Mass fraction of magnesium tetraborate	Mass fraction of sodium tetraborate	Refractive index (Na D-line)	uncertainty
.0064	0	1.3345	
.0041	.004	1.3352	
.0027	.008	1.336	
.0019	.0116	1.3367	
.0018	.0141	1.337	
.0015	.0206	1.3378	
.0014	.0227	1.338	
.0014	.0301	1.3394	
.0014	.0311	1.3397	
.0014	.031	1.3397	
.0013	.0309	1.3394	
.0006	.0308	1.3393	
.0003	.0308	1.339	
0	.0308	1.339	

System: water + magnesium tetraborate; phases: Liquid, Crystal of intercomponent compound 1
Property: Mass fraction of magnesium tetraborate (Liquid); method: Titration method
Pressure, kPa	Temperature, K	Mass fraction of magnesium tetraborate	uncertainty
100	298.15	.0064	

System: water + magnesium tetraborate; phases: Liquid
Property: Mass density, kg/m3 (Liquid); method: Vibrating tube method
Mass fraction of magnesium tetraborate	Temperature, K	Pressure, kPa	Mass density, kg/m3	uncertainty
.0064	298.15	100	1002.77	

System: water + magnesium tetraborate; phases: Liquid
Property: Refractive index (Na D-line) (Liquid); method: Standard Abbe refractometry
Mass fraction of magnesium tetraborate	Temperature, K	Pressure, kPa	Refractive index (Na D-line)	uncertainty
.0064	298.15	100	1.3345	

System: water + lithium borate; phases: Liquid, Crystal of intercomponent compound 2
Property: Mass fraction of lithium borate (Liquid); method: Titration method
Pressure, kPa	Temperature, K	Mass fraction of lithium borate	uncertainty
100	298.15	.0288	

System: water + lithium borate; phases: Liquid
Property: Mass density, kg/m3 (Liquid); method: Vibrating tube method
Mass fraction of lithium borate	Temperature, K	Pressure, kPa	Mass density, kg/m3	uncertainty
.0288	298.15	100	1023.42	

System: water + lithium borate; phases: Liquid
Property: Refractive index (Na D-line) (Liquid); method: Standard Abbe refractometry
Mass fraction of lithium borate	Temperature, K	Pressure, kPa	Refractive index (Na D-line)	uncertainty
.0288	298.15	100	1.3394	

System: sodium tetraborate + water; phases: Liquid, Crystal of intercomponent compound 2
Property: Mass fraction of sodium tetraborate (Liquid); method: Titration method
Pressure, kPa	Temperature, K	Mass fraction of sodium tetraborate	uncertainty
100	298.15	.0308	

System: sodium tetraborate + water; phases: Liquid
Property: Mass density, kg/m3 (Liquid); method: Vibrating tube method
Mass fraction of sodium tetraborate	Temperature, K	Pressure, kPa	Mass density, kg/m3	uncertainty
.0308	298.15	100	1025.65	

System: sodium tetraborate + water; phases: Liquid
Property: Refractive index (Na D-line) (Liquid); method: Standard Abbe refractometry
Mass fraction of sodium tetraborate	Temperature, K	Pressure, kPa	Refractive index (Na D-line)	uncertainty
.0308	298.15	100	1.339	
