Measured thermophysical data. Phase Equilibria of Two Ternary Systems: Li2SO4 Li2B4O7 H2O and K2B4O7 K2SO4 H2O at 273 K
Source: J. Chem. Eng. Data, 2017, 10.1021/acs.jced.7b00219
Compound 1: lithium sulfate, Li2O4S, purity 99.5%
Compound 2: lithium borate, B4Li2O7, purity 99.5%
Compound 3: potassium tetraborate, B4K2O7, purity 99.5%
Compound 4: potassium sulfate, K2O4S, purity 99.0%
Compound 5: water, H2O, purity 99.8%

System: water + lithium sulfate + lithium borate; phases: Liquid, Crystal of intercomponent compound 1
Fixed: Temperature, K = 273
Fixed: Pressure, kPa = 94.77
Property: Mass fraction of lithium borate (Liquid); method: Titration method
Mass fraction of lithium sulfate	Mass fraction of lithium borate	uncertainty
0	.0181	
.0547	.0165	
.0832	.0131	
.1219	.01	
.2075	.007	
.2357	.0057	

System: water + lithium sulfate + lithium borate; phases: Liquid, Crystal of intercomponent compound 2
Fixed: Temperature, K = 273
Fixed: Pressure, kPa = 94.77
Property: Mass fraction of lithium borate (Liquid); method: Titration method
Mass fraction of lithium sulfate	Mass fraction of lithium borate	uncertainty
.2387	.0056	
.2463	.0055	
.2422	.0057	
.2435	.0056	
.2506	.0049	
.252	.0041	
.2519	.0038	
.2658	0	

System: potassium tetraborate + water + potassium sulfate; phases: Liquid, Crystal of intercomponent compound 1
Fixed: Temperature, K = 273
Fixed: Pressure, kPa = 94.77
Property: Mass fraction of potassium tetraborate (Liquid); method: Titration method
Mass fraction of potassium sulfate	Mass fraction of potassium tetraborate	uncertainty
.0692	0	
.0675	.0066	
.0638	.0165	
.0569	.0409	
.0492	.0564	
.0491	.0617	

System: potassium tetraborate + water + potassium sulfate; phases: Liquid, Crystal of intercomponent compound 2
Fixed: Temperature, K = 273
Fixed: Pressure, kPa = 94.77
Property: Mass fraction of potassium tetraborate (Liquid); method: Titration method
Mass fraction of potassium sulfate	Mass fraction of potassium tetraborate	uncertainty
.0451	.0638	
.0391	.0617	
.0191	.0678	
.0091	.0695	
0	.0736	

System: water + lithium borate; phases: Liquid, Crystal of intercomponent compound 1
Property: Mass fraction of lithium borate (Liquid); method: Titration method
Temperature, K	Pressure, kPa	Mass fraction of lithium borate	uncertainty
273	94.77	.0181	

System: water + lithium sulfate; phases: Liquid, Crystal of intercomponent compound 2
Property: Mass fraction of lithium sulfate (Liquid); method: Titration method
Temperature, K	Pressure, kPa	Mass fraction of lithium sulfate	uncertainty
273	94.77	.2658	

System: water + potassium sulfate; phases: Liquid, Crystal of intercomponent compound 1
Property: Mass fraction of potassium sulfate (Liquid); method: Titration method
Temperature, K	Pressure, kPa	Mass fraction of potassium sulfate	uncertainty
273	94.77	.0692	

System: potassium tetraborate + water; phases: Liquid, Crystal of intercomponent compound 2
Property: Mass fraction of potassium tetraborate (Liquid); method: Titration method
Temperature, K	Pressure, kPa	Mass fraction of potassium tetraborate	uncertainty
273	94.77	.0736	
