Measured thermophysical data. Ternary Liquid Liquid Equilibrium of Azeotropes (Ester + Alcohol) with Different Ionic Liquids at T = 298.15 K
Source: J. Chem. Eng. Data, 2017, 10.1021/acs.jced.6b00811
Compound 1: ethanol, C2H6O, purity 99.5%
Compound 2: 1-propanol, C3H8O, purity 99.5%
Compound 3: propyl acetate, C5H10O2, purity 99.5%
Compound 4: n-butanol, C4H10O, purity 99.5%
Compound 5: n-butyl acetate, C6H12O2, purity 99.5%
Compound 6: 1-butyl-3-methylimidazolium hexafluorophosphate [BMIM][PF6], C8H15F6N2P, purity 99.0%
Compound 7: 1-hexyl-3-methylimidazolium hexafluorophosphate, C10H19F6N2P, purity 99.0%

System: 1-propanol + propyl acetate + 1-butyl-3-methylimidazolium hexafluorophosphate [BMIM][PF6]; phases: Liquid mixture 1, Liquid mixture 2
Fixed: Temperature, K = 298.15
Fixed: Pressure, kPa = 100
Property: Mole fraction of 1-propanol (Liquid mixture 1); method: Chromatography
Property: Mole fraction of propyl acetate (Liquid mixture 2); method: Chromatography
Property: Mole fraction of 1-propanol (Liquid mixture 2); method: Chromatography
Mole fraction of propyl acetate	Mole fraction of 1-propanol	uncertainty	Mole fraction of propyl acetate	uncertainty	Mole fraction of 1-propanol	uncertainty
0	.999	.006	0	.006	.285	.006
.111	.887	.006	.12	.006	.291	.006
.17	.827	.006	.18	.006	.319	.006
.225	.768	.006	.233	.006	.333	.006
.287	.696	.006	.288	.006	.351	.006
.342	.627	.006	.357	.006	.359	.006
.406	.512	.006	.414	.006	.412	.006

System: 1-propanol + propyl acetate + 1-hexyl-3-methylimidazolium hexafluorophosphate; phases: Liquid mixture 1, Liquid mixture 2
Fixed: Temperature, K = 298.15
Fixed: Pressure, kPa = 100
Property: Mole fraction of propyl acetate (Liquid mixture 1); method: Chromatography
Property: Mole fraction of 1-propanol (Liquid mixture 2); method: Chromatography
Property: Mole fraction of propyl acetate (Liquid mixture 2); method: Chromatography
Mole fraction of 1-propanol	Mole fraction of propyl acetate	uncertainty	Mole fraction of 1-propanol	uncertainty	Mole fraction of propyl acetate	uncertainty
.995	0	.006	.415	.006	0	.006
.966	.029	.006	.425	.006	.044	.006
.942	.052	.006	.455	.006	.075	.006
.922	.071	.006	.492	.006	.101	.006
.889	.098	.006	.528	.006	.129	.006
.866	.112	.006	.542	.006	.143	.006
.833	.132	.006	.572	.006	.16	.006

System: n-butanol + n-butyl acetate + 1-butyl-3-methylimidazolium hexafluorophosphate [BMIM][PF6]; phases: Liquid mixture 1, Liquid mixture 2
Fixed: Temperature, K = 298.15
Fixed: Pressure, kPa = 100
Property: Mole fraction of n-butanol (Liquid mixture 1); method: Chromatography
Property: Mole fraction of n-butyl acetate (Liquid mixture 2); method: Chromatography
Property: Mole fraction of n-butanol (Liquid mixture 2); method: Chromatography
Mole fraction of n-butyl acetate	Mole fraction of n-butanol	uncertainty	Mole fraction of n-butyl acetate	uncertainty	Mole fraction of n-butanol	uncertainty
0	1	.006	0	.006	.155	.006
.176	.818	.006	.102	.006	.161	.006
.246	.747	.006	.144	.006	.17	.006
.319	.672	.006	.191	.006	.173	.006
.386	.603	.006	.23	.006	.172	.006
.439	.55	.006	.264	.006	.18	.006
.495	.492	.006	.307	.006	.178	.006
.539	.448	.006	.338	.006	.177	.006

System: n-butanol + n-butyl acetate + 1-hexyl-3-methylimidazolium hexafluorophosphate; phases: Liquid mixture 2, Liquid mixture 1
Fixed: Temperature, K = 298.15
Fixed: Pressure, kPa = 100
Property: Mole fraction of n-butanol (Liquid mixture 2); method: Chromatography
Property: Mole fraction of n-butanol (Liquid mixture 1); method: Chromatography
Property: Mole fraction of n-butyl acetate (Liquid mixture 1); method: Chromatography
Mole fraction of n-butyl acetate	Mole fraction of n-butanol	uncertainty	Mole fraction of n-butanol	uncertainty	Mole fraction of n-butyl acetate	uncertainty
0	.25	.006	.998	.006	0	.006
.093	.306	.006	.906	.006	.087	.006
.134	.34	.006	.881	.006	.112	.006
.187	.36	.006	.829	.006	.16	.006
.217	.389	.006	.775	.006	.209	.006
.262	.418	.006	.727	.006	.251	.006
.299	.444	.006	.663	.006	.293	.006

System: 1-propanol + 1-butyl-3-methylimidazolium hexafluorophosphate [BMIM][PF6]; phases: Liquid mixture 2, Liquid mixture 1
Property: Mole fraction of 1-propanol (Liquid mixture 2); method: Chromatography
Temperature, K	Pressure, kPa	Mole fraction of 1-propanol	uncertainty
298.15	100	.285	

System: 1-propanol + 1-butyl-3-methylimidazolium hexafluorophosphate [BMIM][PF6]; phases: Liquid mixture 1, Liquid mixture 2
Property: Mole fraction of 1-propanol (Liquid mixture 1); method: Chromatography
Temperature, K	Pressure, kPa	Mole fraction of 1-propanol	uncertainty
298.15	100	.999	

System: 1-propanol + 1-hexyl-3-methylimidazolium hexafluorophosphate; phases: Liquid mixture 2, Liquid mixture 1
Property: Mole fraction of 1-propanol (Liquid mixture 2); method: Chromatography
Temperature, K	Pressure, kPa	Mole fraction of 1-propanol	uncertainty
298.15	100	.415	

System: 1-propanol + 1-hexyl-3-methylimidazolium hexafluorophosphate; phases: Liquid mixture 1, Liquid mixture 2
Property: Mole fraction of 1-propanol (Liquid mixture 1); method: Chromatography
Temperature, K	Pressure, kPa	Mole fraction of 1-propanol	uncertainty
298.15	100	.995	

System: n-butanol + 1-butyl-3-methylimidazolium hexafluorophosphate [BMIM][PF6]; phases: Liquid mixture 2, Liquid mixture 1
Property: Mole fraction of n-butanol (Liquid mixture 2); method: Chromatography
Temperature, K	Pressure, kPa	Mole fraction of n-butanol	uncertainty
298.15	100	.155	

System: n-butanol + 1-hexyl-3-methylimidazolium hexafluorophosphate; phases: Liquid mixture 2, Liquid mixture 1
Property: Mole fraction of n-butanol (Liquid mixture 2); method: Chromatography
Temperature, K	Pressure, kPa	Mole fraction of n-butanol	uncertainty
298.15	100	.25	

System: n-butanol + 1-hexyl-3-methylimidazolium hexafluorophosphate; phases: Liquid mixture 1, Liquid mixture 2
Property: Mole fraction of n-butanol (Liquid mixture 1); method: Chromatography
Temperature, K	Pressure, kPa	Mole fraction of n-butanol	uncertainty
298.15	100	.998	
