Measured thermophysical data. Carbon Dioxide Solubility in Phosphonium-, Ammonium-, Sulfonyl-, and Pyrrolidinium-Based Ionic Liquids and their Mixtures at Moderate Pressures up to 10 bar
Source: J. Chem. Eng. Data, 2017, 10.1021/acs.jced.6b00833
Compound 1: carbon dioxide, CO2
Compound 2: tributylmethylphosphonium formate, C14H31O2P
Compound 3: butyltrimethylammonium bis(trifluoromethylsulfonyl)imide, C9H18F6N2O4S2
Compound 4: 1-methyl-1-propylpyrrolidinium dicyanamide, C10H18N4
Compound 5: 1-ethyl-3-methylimidazolium acetate, C8H14N2O2
Compound 6: DMSO, C2H6OS, purity 99%

System: tributylmethylphosphonium formate; phases: Liquid
Fixed: Pressure, kPa = 101.325
Property: Mass density, kg/m3 (Liquid); method: Vibrating tube method
Temperature, K	Mass density, kg/m3	uncertainty
298.15	950.7	
303.15	947.9	
308.15	945	
313.15	942.1	
318.15	939.2	
323.15	936.3	
328.15	933.5	

System: butyltrimethylammonium bis(trifluoromethylsulfonyl)imide; phases: Liquid
Fixed: Pressure, kPa = 101.325
Property: Mass density, kg/m3 (Liquid); method: Vibrating tube method
Temperature, K	Mass density, kg/m3	uncertainty
298.48	1392.89	4.17867

System: 1-methyl-1-propylpyrrolidinium dicyanamide; phases: Liquid
Fixed: Pressure, kPa = 101.325
Property: Mass density, kg/m3 (Liquid); method: Vibrating tube method
Temperature, K	Mass density, kg/m3	uncertainty
298.15	1026.76	
303.15	1023.9	
308.15	1021.05	
313.15	1018.22	
318.15	1015.41	
323.15	1012.62	
328.15	1009.85	
333.15	1007.08	
338.15	1004.33	
343.15	1001.6	
348.15	998.88	
353.15	996.18	
358.15	993.49	
363.15	990.81	

System: 1-ethyl-3-methylimidazolium acetate; phases: Liquid
Fixed: Pressure, kPa = 101.325
Property: Mass density, kg/m3 (Liquid); method: Vibrating tube method
Temperature, K	Mass density, kg/m3	uncertainty
298.15	1097.83	
303.15	1094.72	
308.15	1091.64	
313.15	1088.57	
318.15	1085.52	
323.15	1082.49	
328.15	1079.48	
333.15	1076.48	
338.15	1073.49	
343.15	1070.51	
348.15	1067.55	
353.15	1064.6	
358.15	1061.66	
363.15	1058.74	

System: DMSO; phases: Liquid
Fixed: Pressure, kPa = 101.325
Property: Mass density, kg/m3 (Liquid); method: Vibrating tube method
Temperature, K	Mass density, kg/m3	uncertainty
293.15	1100.42	
298.15	1095.41	
303.15	1090.383	
308.15	1085.36	
313.15	1080.34	
318.15	1075.32	
323.15	1070.31	
328.15	1065.29	
333.15	1060.277	
338.15	1055.26	
343.15	1050.233	
348.15	1045.21	
353.15	1040.187	
358.15	1035.153	
363.15	1030.117	

System: carbon dioxide + tributylmethylphosphonium formate; phases: Liquid, Gas
Fixed: Temperature, K = 298
Property: Molality, mol/kg of carbon dioxide (Liquid); method: phase equilibration
Pressure, kPa	Molality, mol/kg of carbon dioxide	uncertainty
6	.004	
93	.0898	
191	.1709	
292	.2494	
392	.3272	
492	.4048	
592	.4831	
692	.5611	
792	.641	
877	.7044	
990	.7833	
1000	.78	

System: carbon dioxide + butyltrimethylammonium bis(trifluoromethylsulfonyl)imide; phases: Liquid, Gas
Fixed: Temperature, K = 298
Property: Molality, mol/kg of carbon dioxide (Liquid); method: phase equilibration
Pressure, kPa	Molality, mol/kg of carbon dioxide	uncertainty
6	.004	
92	.0542	
193	.1137	
293	.1734	
394	.2345	
494	.2955	
594	.3567	
695	.4195	
795	.4774	
894	.5455	
995	.6105	
1000	.61	

System: carbon dioxide + 1-methyl-1-propylpyrrolidinium dicyanamide; phases: Liquid, Gas
Fixed: Temperature, K = 298
Property: Molality, mol/kg of carbon dioxide (Liquid); method: phase equilibration
Pressure, kPa	Molality, mol/kg of carbon dioxide	uncertainty
6	.0044	
92	.0634	
193	.1338	
294	.2049	
394	.276	
493	.3475	
595	.4217	
694	.4949	
794	.569	
895	.6446	
994	.7142	
1000	.71	

System: carbon dioxide + 1-ethyl-3-methylimidazolium acetate; phases: Liquid, Gas
Fixed: Temperature, K = 298
Property: Molality, mol/kg of carbon dioxide (Liquid); method: phase equilibration
Pressure, kPa	Molality, mol/kg of carbon dioxide	uncertainty
6	.0043	
92	.0659	
192	.1416	
293	.2233	
392	.3051	
492	.387	
592	.4672	
694	.5476	
794	.6256	
994	.779	
1000	.78	

System: carbon dioxide + 1-ethyl-3-methylimidazolium acetate + butyltrimethylammonium bis(trifluoromethylsulfonyl)imide; phases: Liquid, Gas
Fixed: Pressure, kPa = 1000
Fixed: Temperature, K = 298
Property: Molality, mol/kg of carbon dioxide (Liquid); method: phase equilibration
Solvent: Mole fraction of butyltrimethylammonium bis(trifluoromethylsulfonyl)imide	Molality, mol/kg of carbon dioxide	uncertainty
0	.78	
.2	.78	
.4	.61	
.6	.63	
.8	.63	
1	.61	

System: carbon dioxide + butyltrimethylammonium bis(trifluoromethylsulfonyl)imide + 1-methyl-1-propylpyrrolidinium dicyanamide; phases: Liquid, Gas
Fixed: Pressure, kPa = 1000
Fixed: Temperature, K = 298
Property: Molality, mol/kg of carbon dioxide (Liquid); method: phase equilibration
Solvent: Mole fraction of butyltrimethylammonium bis(trifluoromethylsulfonyl)imide	Molality, mol/kg of carbon dioxide	uncertainty
0	.71	
.2	.67	
.4	.65	
.6	.63	
.8	.63	
1	.61	

System: carbon dioxide + 1-ethyl-3-methylimidazolium acetate + 1-methyl-1-propylpyrrolidinium dicyanamide; phases: Liquid, Gas
Fixed: Pressure, kPa = 1000
Fixed: Temperature, K = 298
Property: Molality, mol/kg of carbon dioxide (Liquid); method: phase equilibration
Solvent: Mole fraction of 1-methyl-1-propylpyrrolidinium dicyanamide	Molality, mol/kg of carbon dioxide	uncertainty
0	.78	
.2	.85	
.4	.83	
.6	.77	
.8	.75	
1	.71	

System: carbon dioxide + tributylmethylphosphonium formate + 1-ethyl-3-methylimidazolium acetate; phases: Liquid, Gas
Fixed: Temperature, K = 298
Fixed: Pressure, kPa = 1000
Property: Molality, mol/kg of carbon dioxide (Liquid); method: phase equilibration
Solvent: Mole fraction of tributylmethylphosphonium formate	Molality, mol/kg of carbon dioxide	uncertainty
0	.78	
.2	.8	
.4	.86	
.6	.8	
.8	.84	
1	.78	

System: carbon dioxide + tributylmethylphosphonium formate + 1-methyl-1-propylpyrrolidinium dicyanamide; phases: Liquid, Gas
Fixed: Temperature, K = 298
Fixed: Pressure, kPa = 1000
Property: Molality, mol/kg of carbon dioxide (Liquid); method: phase equilibration
Solvent: Mole fraction of tributylmethylphosphonium formate	Molality, mol/kg of carbon dioxide	uncertainty
0	.71	
.2	.72	
.4	.72	
.6	.73	
.8	.7	
1	.78	
