Measured thermophysical data. Phase transitions, decomposition temperatures, viscosities and densities of phosphonium, ammonium and imidazolium ionic liquids with aprotic heterocyclic anions
Source: J. Chem. Eng. Data, 2016, 10.1021/acs.jced.6b00269
Compound 1: trihexyl(tetradecyl)phosphonium 1,2,3-triazolide, C34H70N3P
Compound 2: trihexyl(tetradecyl)phosphonium 4-nitropyrazolide, C35H70N3O2P
Compound 3: trihexyl(tetradecyl)phosphonium 4-nitroimidazolide, C35H70N3O2P
Compound 4: trihexyl(tetradecyl)phosphonium 4,5-dichloroimidazolide, C35H69Cl2N2P
Compound 5: trihexyl(tetradecyl)phosphonium 4,5-dicyanoimidazolide, C37H69N4P
Compound 6: trihexyl(tetradecyl)phosphonium 2-methyl-5-nitroimidazolide, C36H72N3O2P
Compound 7: trihexyl(tetradecyl)phosphonium tetrazolide, C33H69N4P
Compound 8: trihexyl(tetradecyl)phosphonium bis[(trifluoromethyl)sulfonyl]imide, C34H68F6NO4PS2
Compound 9: tributyl(dodecyl)phosphonium 1,2,3-triazolide, C26H54N3P
Compound 10: tributyl(octadecyl)phosphonium 1,2,3-triazolide, C32H66N3P
Compound 11: tributyl((2-methoxyethoxy)methyl)phosphonium 1,2,3-triazolide, C18H38N3O2P
Compound 12: tributyl(methoxymethyl)phosphonium 1,2,3-triazolide, C16H34N3OP
Compound 13: butyltriethylphosphonium 2-methyl-5-nitroimidazolide, C14H28N3O2P
Compound 14: butyltriethylphosphonium 4-nitropyrazolide, C13H26N3O2P
Compound 15: triethylheptylphosphonium 4-nitropyrazolide, C16H32N3O2P
Compound 16: triethyloctylphosphonium 4-nitropyrazolide, C17H34N3O2P
Compound 17: triethylnonylphosphonium 4-nitropyrazolide, C18H36N3O2P
Compound 18: decyltriethylphosphonium 4-nitropyrazolide, C19H38N3O2P
Compound 19: triethyloctylphosphonium 4-nitroimidazolide, C17H34N3O2P
Compound 20: triethyloctylphosphonium 2-methyl-5-nitroimidazolide, C18H36N3O2P
Compound 21: triethyloctylphosphonium 1,2,3-triazolide, C16H34N3P
Compound 22: triethyloctylphosphonium bis(trifluoromethylsulfonyl)imide, C16H32F6NO4PS2
Compound 23: triethylhexylammonium 1,2,3-triazolide, C14H30N4
Compound 24: triethylheptylammonium 1,2,3-triazolide, C15H32N4
Compound 25: triethyl((2-methoxyethoxy)methyl)phosphonium 1,2,3-triazolide, C12H26N3O2P
Compound 26: triethyl(methoxymethyl)phosphonium 1,2,3-triazolide, C10H22N3OP
Compound 27: (ethoxymethyl)triethylphosphonium 1,2,3-triazolide, C11H24N3OP
Compound 28: triethyl((2-methoxyethoxy)methyl)phosphonium 4-nitropyrazolide, C13H26N3O4P
Compound 29: triethyl((2-methoxyethoxy)methyl)phosphonium 2-methyl-5-nitroimidazolide, C14H28N3O4P
Compound 30: cyclopentyltriethylphosphonium 4-nitropyrazolide, C14H26N3O2P
Compound 31: (buten-1-yl)triethylphosphonium 4-nitropyrazolide, C13H24N3O2P
Compound 32: (buten-1-yl)triethylphosphonium bis(trifluoromethylsulfonyl)amide, C12H22F6NO4PS2
Compound 33: S-hexyl-1,1,3,3-tetramethylthiouronium bis(trifluoromethylsulfonyl)imide, C13H25F6N3O4S3
Compound 34: S-octyl-1,1,3,3-tetramethylthiouronium bis(trifluoromethylsulfonyl)imide, C15H29F6N3O4S3
Compound 35: 1-butylthianium bis(trifluoromethylsulfonyl)imide, C11H19F6NO4S3
Compound 36: 1-butyl-2-methylpyrazolium bis(trifluoromethylsulfonyl)imide, C10H15F6N3O4S2
Compound 37: butylthiolanium bis(trifluoromethylsulfonyl)imide, C10H17F6NO4S3
Compound 38: 1-hexyl-3-methylimidazolium bis[(trifluoromethyl)sulfonyl]imide, C12H19F6N3O4S2
Compound 39: 1-hexyl-3-methylimidazolium 4-nitropyrazolide, C13H21N5O2
Compound 40: 1-hexyl-2,3-dimethylimidazolium 4-nitropyrazolide, C14H23N5O2
Compound 41: 1-hexyl-3-methylimidazolium 1,2,3-triazolide, C12H21N5
Compound 42: 1-hexyl-3-methylimidazolium 1,2,4-triazolide, C12H21N5
Compound 43: 1-hexyl-3-methylimidazolium tetrazolide, C11H20N6
Compound 44: 1-hexyl-3-methylimidazolium 2-cyanopyrrolide, C15H22N4
Compound 45: 1,2-dimethyl-3-propylimidazolium 4-nitropyrazolide, C11H17N5O2
Compound 46: 1-cyclopentyl-2,3-dimethylimidazolium 4-nitropyrazolide, C13H19N5O2
Compound 47: 1-but-1-enyl-2,3-dimethylimidazolium 4-nitropyrazolide, C12H17N5O2
Compound 48: 2-(ethoxymethyl)-1-ethyl-3-methylimidazolium bis(trifluoromethylsulfonyl)imide, C11H17F6N3O5S2
Compound 49: 1-methoxymethyl-2,3-dimethylimidazolium 1,2,3-triazolide, C9H15N5O
Compound 50: 1-((2-methoxyethoxy)methyl)-2,3-dimethylimidazolium 1,2,3-triazolide, C11H19N5O2
Compound 51: 1-butyl-2-((methoxymethoxy)methyl)-3-methylimidazolium 1,2,3-triazolide, C13H23N5O2
Compound 52: 1-butyl-2-(((2-methoxyethoxy)methoxy)methyl)-3-methylimidazolium 1,2,3-triazolide, C15H27N5O3
Compound 53: trihexyl(tetradecyl)phosphonium acetate, C34H71O2P
Compound 54: 3-hexyl-1-methylimidazolium acetate, C12H22N2O2
Compound 55: triethyl((2-methoxyethoxy)methyl)phosphonium bis(trifluoromethylsulfonyl)imide, C12H24F6NO6PS2

System: trihexyl(tetradecyl)phosphonium 1,2,3-triazolide; phases: Glass, Liquid, Air at 1 atmosphere
Property: Triple point temperature, K (Glass); method: DSC
Triple point temperature, K	uncertainty
203	2

System: trihexyl(tetradecyl)phosphonium 1,2,3-triazolide; phases: Liquid
Fixed: Pressure, kPa = 101.325
Property: Viscosity, Pa*s (Liquid); method: Cone and plate viscometry
Temperature, K	Viscosity, Pa*s	uncertainty
278.15	1.97	
283.15	1.3	
288.15	.878	
293.15	.611	
298.15	.438	
303.15	.321	
308.15	.242	
313.15	.185	
318.15	.145	
323.15	.116	

System: trihexyl(tetradecyl)phosphonium 1,2,3-triazolide; phases: Liquid
Fixed: Pressure, kPa = 101.325
Property: Mass density, kg/m3 (Liquid); method: Vibrating tube method
Temperature, K	Mass density, kg/m3	uncertainty
283.15	907.5	
288.15	904.2	
293.15	901.2	
295.15	900	
298.15	898.2	
303.15	895.2	
308.15	892.2	
313.15	889.2	
318.15	886.3	
323.15	883.4	
328.15	880.4	
333.15	877.5	
338.15	874.6	
343.15	871.7	
348.15	868.7	
353.15	865.8	

System: trihexyl(tetradecyl)phosphonium 4-nitropyrazolide; phases: Glass, Liquid, Air at 1 atmosphere
Property: Triple point temperature, K (Glass); method: DSC
Triple point temperature, K	uncertainty
198	2

System: trihexyl(tetradecyl)phosphonium 4-nitropyrazolide; phases: Liquid
Fixed: Pressure, kPa = 101.325
Property: Viscosity, Pa*s (Liquid); method: Cone and plate viscometry
Temperature, K	Viscosity, Pa*s	uncertainty
278.15	3.56	
283.15	2.29	
288.15	1.5	
293.15	1.02	
298.15	.71	
303.15	.51	
308.15	.375	
313.15	.28	
318.15	.214	
323.15	.167	
328.15	.133	
333.15	.108	
338.15	.088	
343.15	.074	

System: trihexyl(tetradecyl)phosphonium 4-nitropyrazolide; phases: Liquid
Fixed: Pressure, kPa = 101.325
Property: Mass density, kg/m3 (Liquid); method: Vibrating tube method
Temperature, K	Mass density, kg/m3	uncertainty
283.15	948.8	
288.15	945.6	
293.15	942.3	
295.15	941.1	
298.15	939.3	
303.15	936.4	
308.15	933.4	
313.15	930.4	
318.15	927.4	
323.15	924.5	
328.15	921.6	
333.15	918.7	
338.15	915.8	
343.15	912.8	
348.15	909.9	
353.15	907	

System: trihexyl(tetradecyl)phosphonium 4-nitroimidazolide; phases: Glass, Liquid, Air at 1 atmosphere
Property: Triple point temperature, K (Glass); method: DSC
Triple point temperature, K	uncertainty
207	2

System: trihexyl(tetradecyl)phosphonium 4-nitroimidazolide; phases: Liquid
Fixed: Pressure, kPa = 101.325
Property: Viscosity, Pa*s (Liquid); method: Cone and plate viscometry
Temperature, K	Viscosity, Pa*s	uncertainty
278.15	3.38	
283.15	2.22	
288.15	1.5	
293.15	1.04	
298.15	.735	
303.15	.533	
308.15	.396	
313.15	.298	
318.15	.23	
323.15	.18	
328.15	.144	
333.15	.117	
338.15	.096	
343.15	.08	

System: trihexyl(tetradecyl)phosphonium 4-nitroimidazolide; phases: Liquid
Fixed: Pressure, kPa = 101.325
Property: Mass density, kg/m3 (Liquid); method: Vibrating tube method
Temperature, K	Mass density, kg/m3	uncertainty
283.15	949.4	
288.15	946.3	
293.15	943.1	
295.15	941.8	
298.15	940.1	
303.15	937.1	
308.15	934.2	
313.15	931.3	
318.15	928.4	
323.15	925.4	
328.15	922.6	
333.15	919.7	
338.15	916.9	
343.15	914	
348.15	911.2	
353.15	908.3	

System: trihexyl(tetradecyl)phosphonium 4,5-dichloroimidazolide; phases: Glass, Liquid, Air at 1 atmosphere
Property: Triple point temperature, K (Glass); method: DSC
Triple point temperature, K	uncertainty
209	2

System: trihexyl(tetradecyl)phosphonium 4,5-dichloroimidazolide; phases: Liquid
Fixed: Pressure, kPa = 101.325
Property: Viscosity, Pa*s (Liquid); method: Cone and plate viscometry
Temperature, K	Viscosity, Pa*s	uncertainty
278.15	4.04	
283.15	2.58	
288.15	1.68	
293.15	1.14	
298.15	.789	
303.15	.566	
308.15	.415	
313.15	.308	
318.15	.234	
323.15	.182	
328.15	.144	
333.15	.116	

System: trihexyl(tetradecyl)phosphonium 4,5-dichloroimidazolide; phases: Liquid
Fixed: Pressure, kPa = 101.325
Property: Mass density, kg/m3 (Liquid); method: Vibrating tube method
Temperature, K	Mass density, kg/m3	uncertainty
283.15	974.1	
288.15	970.8	
293.15	967.5	
295.15	966.2	
298.15	964.4	
303.15	961.3	
308.15	958.3	
313.15	955.2	
318.15	952.2	
323.15	949.1	
328.15	946.2	
333.15	943.2	
338.15	940.2	
343.15	937.2	
348.15	934.2	
353.15	931.3	

System: trihexyl(tetradecyl)phosphonium 4,5-dicyanoimidazolide; phases: Glass, Liquid, Air at 1 atmosphere
Property: Triple point temperature, K (Glass); method: DSC
Triple point temperature, K	uncertainty
195	2

System: trihexyl(tetradecyl)phosphonium 4,5-dicyanoimidazolide; phases: Liquid
Fixed: Pressure, kPa = 101.325
Property: Viscosity, Pa*s (Liquid); method: Cone and plate viscometry
Temperature, K	Viscosity, Pa*s	uncertainty
278.15	2.49	
283.15	1.63	
288.15	1.09	
293.15	.754	
298.15	.535	
303.15	.391	
308.15	.291	
313.15	.22	
318.15	.171	
323.15	.135	
328.15	.108	
333.15	.088	
338.15	.073	

System: trihexyl(tetradecyl)phosphonium 4,5-dicyanoimidazolide; phases: Liquid
Fixed: Pressure, kPa = 101.325
Property: Mass density, kg/m3 (Liquid); method: Vibrating tube method
Temperature, K	Mass density, kg/m3	uncertainty
283.15	928.9	
288.15	925.7	
293.15	922.6	
295.15	921.5	
298.15	919.7	
303.15	916.8	
308.15	913.9	
313.15	911	
318.15	908.1	
323.15	905.2	
328.15	902.4	
333.15	899.6	
338.15	896.7	
343.15	893.9	
348.15	891	
353.15	888.2	

System: trihexyl(tetradecyl)phosphonium 2-methyl-5-nitroimidazolide; phases: Glass, Liquid, Air at 1 atmosphere
Property: Triple point temperature, K (Glass); method: DSC
Triple point temperature, K	uncertainty
194	2

System: trihexyl(tetradecyl)phosphonium 2-methyl-5-nitroimidazolide; phases: Liquid
Fixed: Pressure, kPa = 101.325
Property: Viscosity, Pa*s (Liquid); method: Cone and plate viscometry
Temperature, K	Viscosity, Pa*s	uncertainty
278.15	5.89	
283.15	3.73	
288.15	2.42	
293.15	1.62	
298.15	1.11	
303.15	.786	
308.15	.569	
313.15	.42	
318.15	.317	
323.15	.244	
328.15	.192	
333.15	.153	
338.15	.125	

System: trihexyl(tetradecyl)phosphonium 2-methyl-5-nitroimidazolide; phases: Liquid
Fixed: Pressure, kPa = 101.325
Property: Mass density, kg/m3 (Liquid); method: Vibrating tube method
Temperature, K	Mass density, kg/m3	uncertainty
283.15	948.1	
288.15	945.1	
293.15	941.9	
295.15	940.6	
298.15	938.7	
303.15	935.7	
308.15	932.8	
313.15	929.8	
318.15	926.9	
323.15	924	
328.15	921.1	
333.15	918.2	
338.15	915.3	
343.15	912.5	
348.15	909.6	
353.15	906.8	

System: trihexyl(tetradecyl)phosphonium tetrazolide; phases: Glass, Liquid, Air at 1 atmosphere
Property: Triple point temperature, K (Glass); method: DSC
Triple point temperature, K	uncertainty
203	2

System: trihexyl(tetradecyl)phosphonium tetrazolide; phases: Liquid
Fixed: Pressure, kPa = 101.325
Property: Viscosity, Pa*s (Liquid); method: Cone and plate viscometry
Temperature, K	Viscosity, Pa*s	uncertainty
278.15	2.74	
283.15	1.81	
288.15	1.22	
293.15	.844	
298.15	.6	
303.15	.437	
308.15	.326	
313.15	.247	
318.15	.191	
323.15	.151	
328.15	.121	
333.15	.099	

System: trihexyl(tetradecyl)phosphonium tetrazolide; phases: Liquid
Fixed: Pressure, kPa = 101.325
Property: Mass density, kg/m3 (Liquid); method: Vibrating tube method
Temperature, K	Mass density, kg/m3	uncertainty
283.15	911.6	
288.15	908.5	
293.15	905.4	
295.15	904.2	
298.15	902.4	
303.15	899.4	
308.15	896.4	
313.15	893.5	
318.15	890.5	
323.15	887.6	
328.15	884.7	
333.15	881.8	
338.15	878.9	
343.15	876	
348.15	873.1	
353.15	870.2	

System: trihexyl(tetradecyl)phosphonium bis[(trifluoromethyl)sulfonyl]imide; phases: Glass, Liquid, Air at 1 atmosphere
Property: Triple point temperature, K (Glass); method: DSC
Triple point temperature, K	uncertainty
191	2

System: trihexyl(tetradecyl)phosphonium bis[(trifluoromethyl)sulfonyl]imide; phases: Liquid
Fixed: Pressure, kPa = 101.325
Property: Viscosity, Pa*s (Liquid); method: Cone and plate viscometry
Temperature, K	Viscosity, Pa*s	uncertainty
278.15	1.21	
283.15	.841	
288.15	.594	
293.15	.43	
298.15	.318	
303.15	.241	
308.15	.185	
313.15	.145	
318.15	.115	
323.15	.092	
328.15	.076	
333.15	.063	

System: trihexyl(tetradecyl)phosphonium bis[(trifluoromethyl)sulfonyl]imide; phases: Liquid
Fixed: Pressure, kPa = 101.325
Property: Mass density, kg/m3 (Liquid); method: Vibrating tube method
Temperature, K	Mass density, kg/m3	uncertainty
283.15	1076.1	
288.15	1072.4	
293.15	1068.8	
295.15	1067.3	
298.15	1065.1	
303.15	1061.5	
308.15	1057.9	
313.15	1054.4	
318.15	1050.8	
323.15	1047.3	
328.15	1043.7	
333.15	1040.1	
338.15	1036.6	
343.15	1033	
348.15	1029.5	
353.15	1026	

System: tributyl(dodecyl)phosphonium 1,2,3-triazolide; phases: Glass, Liquid, Air at 1 atmosphere
Property: Triple point temperature, K (Glass); method: DSC
Triple point temperature, K	uncertainty
206	2

System: tributyl(dodecyl)phosphonium 1,2,3-triazolide; phases: Liquid
Fixed: Pressure, kPa = 101.325
Property: Viscosity, Pa*s (Liquid); method: Cone and plate viscometry
Temperature, K	Viscosity, Pa*s	uncertainty
278.15	2.66	
283.15	1.66	
288.15	1.06	
293.15	.706	
298.15	.484	
303.15	.343	
308.15	.249	
313.15	.185	
318.15	.141	
323.15	.11	
328.15	.088	
333.15	.071	
338.15	.059	

System: tributyl(dodecyl)phosphonium 1,2,3-triazolide; phases: Liquid
Fixed: Pressure, kPa = 101.325
Property: Mass density, kg/m3 (Liquid); method: Vibrating tube method
Temperature, K	Mass density, kg/m3	uncertainty
283.15	921.1	
288.15	917.9	
293.15	914.9	
295.15	913.7	
298.15	911.9	
303.15	908.9	
308.15	905.9	
313.15	902.9	
318.15	900	
323.15	897.1	
328.15	894.2	
333.15	891.2	
338.15	888.3	
343.15	885.4	
348.15	882.5	
353.15	879.5	

System: tributyl(octadecyl)phosphonium 1,2,3-triazolide; phases: Crystal, Liquid, Air at 1 atmosphere
Property: Normal melting temperature, K (Crystal); method: DSC/DTA
Normal melting temperature, K	uncertainty
297	2

System: tributyl(octadecyl)phosphonium 1,2,3-triazolide; phases: Liquid
Fixed: Pressure, kPa = 101.325
Property: Viscosity, Pa*s (Liquid); method: Cone and plate viscometry
Temperature, K	Viscosity, Pa*s	uncertainty
323.15	.111	
328.15	.09	
333.15	.073	
338.15	.061	
343.15	.051	

System: tributyl((2-methoxyethoxy)methyl)phosphonium 1,2,3-triazolide; phases: Glass, Liquid, Air at 1 atmosphere
Property: Triple point temperature, K (Glass); method: DSC
Triple point temperature, K	uncertainty
198	2

System: tributyl(methoxymethyl)phosphonium 1,2,3-triazolide; phases: Crystal, Liquid, Air at 1 atmosphere
Property: Normal melting temperature, K (Crystal); method: DSC/DTA
Normal melting temperature, K	uncertainty
280	2

System: tributyl(methoxymethyl)phosphonium 1,2,3-triazolide; phases: Glass, Liquid, Air at 1 atmosphere
Property: Triple point temperature, K (Glass); method: DSC
Triple point temperature, K	uncertainty
205	2

System: tributyl(methoxymethyl)phosphonium 1,2,3-triazolide; phases: Liquid
Fixed: Pressure, kPa = 101.325
Property: Viscosity, Pa*s (Liquid); method: Cone and plate viscometry
Temperature, K	Viscosity, Pa*s	uncertainty
278.15	1.31	
283.15	.801	
288.15	.509	
293.15	.341	
298.15	.237	
303.15	.17	
313.15	.095	
323.15	.059	

System: butyltriethylphosphonium 2-methyl-5-nitroimidazolide; phases: Crystal, Liquid, Air at 1 atmosphere
Property: Normal melting temperature, K (Crystal); method: DSC/DTA
Normal melting temperature, K	uncertainty
290	2

System: butyltriethylphosphonium 2-methyl-5-nitroimidazolide; phases: Glass, Liquid, Air at 1 atmosphere
Property: Triple point temperature, K (Glass); method: DSC
Triple point temperature, K	uncertainty
202	2

System: butyltriethylphosphonium 2-methyl-5-nitroimidazolide; phases: Liquid
Fixed: Pressure, kPa = 101.325
Property: Viscosity, Pa*s (Liquid); method: Cone and plate viscometry
Temperature, K	Viscosity, Pa*s	uncertainty
278.15	2.18	
283.15	1.35	
288.15	.858	
293.15	.569	
298.15	.391	
303.15	.277	
308.15	.202	
313.15	.15	
318.15	.115	
323.15	.09	
328.15	.072	
333.15	.058	

System: butyltriethylphosphonium 2-methyl-5-nitroimidazolide; phases: Liquid
Fixed: Pressure, kPa = 101.325
Property: Mass density, kg/m3 (Liquid); method: Vibrating tube method
Temperature, K	Mass density, kg/m3	uncertainty
283.15	1074.4	
288.15	1071.3	
293.15	1068.3	
295.15	1067.1	
298.15	1065.3	
303.15	1062.3	
308.15	1059.3	
313.15	1056.5	
318.15	1053.6	
323.15	1050.7	
328.15	1047.8	
333.15	1044.9	
338.15	1042.1	
343.15	1039.2	
348.15	1036.4	
353.15	1033.5	

System: butyltriethylphosphonium 4-nitropyrazolide; phases: Crystal, Liquid, Air at 1 atmosphere
Property: Normal melting temperature, K (Crystal); method: DSC/DTA
Normal melting temperature, K	uncertainty
317	317

System: butyltriethylphosphonium 4-nitropyrazolide; phases: Liquid
Fixed: Pressure, kPa = 101.325
Property: Viscosity, Pa*s (Liquid); method: Cone and plate viscometry
Temperature, K	Viscosity, Pa*s	uncertainty
278.15	.84	
283.15	.551	
288.15	.372	
293.15	.261	
298.15	.189	
303.15	.141	
308.15	.108	
313.15	.085	
318.15	.067	
323.15	.055	

System: butyltriethylphosphonium 4-nitropyrazolide; phases: Liquid
Fixed: Pressure, kPa = 101.325
Property: Mass density, kg/m3 (Liquid); method: Vibrating tube method
Temperature, K	Mass density, kg/m3	uncertainty
283.15	1087.9	
288.15	1084.7	
293.15	1081.5	
295.15	1080.3	
298.15	1078.4	
303.15	1075.4	
308.15	1072.4	
313.15	1069.3	
318.15	1066.3	
323.15	1063.3	
328.15	1060.3	
333.15	1057.3	
338.15	1054.3	
343.15	1051.3	
348.15	1048.4	
353.15	1045.4	

System: triethylheptylphosphonium 4-nitropyrazolide; phases: Crystal, Liquid, Air at 1 atmosphere
Property: Normal melting temperature, K (Crystal); method: DSC/DTA
Normal melting temperature, K	uncertainty
289	2

System: triethylheptylphosphonium 4-nitropyrazolide; phases: Glass, Liquid, Air at 1 atmosphere
Property: Triple point temperature, K (Glass); method: DSC
Triple point temperature, K	uncertainty
201	2

System: triethylheptylphosphonium 4-nitropyrazolide; phases: Liquid
Fixed: Pressure, kPa = 101.325
Property: Viscosity, Pa*s (Liquid); method: Cone and plate viscometry
Temperature, K	Viscosity, Pa*s	uncertainty
278.15	1	
283.15	.657	
288.15	.443	
293.15	.309	
298.15	.223	
303.15	.165	
308.15	.126	
313.15	.097	
318.15	.077	
323.15	.062	

System: triethylheptylphosphonium 4-nitropyrazolide; phases: Liquid
Fixed: Pressure, kPa = 101.325
Property: Mass density, kg/m3 (Liquid); method: Vibrating tube method
Temperature, K	Mass density, kg/m3	uncertainty
283.15	1047.1	
288.15	1044	
293.15	1040.9	
295.15	1039.7	
298.15	1037.8	
303.15	1034.8	
308.15	1031.8	
313.15	1028.8	
318.15	1026	
323.15	1023.1	
328.15	1020.2	
333.15	1017.3	
338.15	1014.5	
343.15	1011.6	
348.15	1008.8	
353.15	1006	

System: triethyloctylphosphonium 4-nitropyrazolide; phases: Crystal, Liquid, Air at 1 atmosphere
Property: Normal melting temperature, K (Crystal); method: DSC/DTA
Normal melting temperature, K	uncertainty
278	2

System: triethyloctylphosphonium 4-nitropyrazolide; phases: Glass, Liquid, Air at 1 atmosphere
Property: Triple point temperature, K (Glass); method: DSC
Triple point temperature, K	uncertainty
201	2

System: triethyloctylphosphonium 4-nitropyrazolide; phases: Liquid
Fixed: Pressure, kPa = 101.325
Property: Viscosity, Pa*s (Liquid); method: Cone and plate viscometry
Temperature, K	Viscosity, Pa*s	uncertainty
278.15	1.1	
283.15	.716	
288.15	.48	
293.15	.333	
298.15	.238	
303.15	.175	
308.15	.133	
313.15	.103	
318.15	.081	
323.15	.065	
328.15	.053	

System: triethyloctylphosphonium 4-nitropyrazolide; phases: Liquid
Fixed: Pressure, kPa = 101.325
Property: Mass density, kg/m3 (Liquid); method: Vibrating tube method
Temperature, K	Mass density, kg/m3	uncertainty
283.15	1040.1	
288.15	1037	
293.15	1033.9	
295.15	1032.7	
298.15	1030.9	
303.15	1027.9	
308.15	1024.9	
313.15	1022	
318.15	1019	
323.15	1016.1	
328.15	1013.2	
333.15	1010.2	
338.15	1007.3	
343.15	1004.4	
348.15	1001.5	
353.15	998.6	

System: triethylnonylphosphonium 4-nitropyrazolide; phases: Crystal, Liquid, Air at 1 atmosphere
Property: Normal melting temperature, K (Crystal); method: DSC/DTA
Normal melting temperature, K	uncertainty
289	2

System: triethylnonylphosphonium 4-nitropyrazolide; phases: Glass, Liquid, Air at 1 atmosphere
Property: Triple point temperature, K (Glass); method: DSC
Triple point temperature, K	uncertainty
201	2

System: triethylnonylphosphonium 4-nitropyrazolide; phases: Liquid
Fixed: Pressure, kPa = 101.325
Property: Viscosity, Pa*s (Liquid); method: Cone and plate viscometry
Temperature, K	Viscosity, Pa*s	uncertainty
278.15	1.37	
283.15	.888	
288.15	.593	
293.15	.409	
298.15	.291	
303.15	.213	
308.15	.16	
313.15	.123	
318.15	.096	
323.15	.077	
328.15	.063	
333.15	.052	

System: triethylnonylphosphonium 4-nitropyrazolide; phases: Liquid
Fixed: Pressure, kPa = 101.325
Property: Mass density, kg/m3 (Liquid); method: Vibrating tube method
Temperature, K	Mass density, kg/m3	uncertainty
283.15	1031	
288.15	1027.9	
293.15	1024.9	
295.15	1023.6	
298.15	1021.8	
303.15	1018.8	
308.15	1015.8	
313.15	1012.9	
318.15	1009.9	
323.15	1007	
328.15	1004	
333.15	1001.1	
338.15	998.2	
343.15	995.3	
348.15	992.4	
353.15	989.5	

System: decyltriethylphosphonium 4-nitropyrazolide; phases: Crystal, Liquid, Air at 1 atmosphere
Property: Normal melting temperature, K (Crystal); method: DSC/DTA
Normal melting temperature, K	uncertainty
284	2

System: decyltriethylphosphonium 4-nitropyrazolide; phases: Glass, Liquid, Air at 1 atmosphere
Property: Triple point temperature, K (Glass); method: DSC
Triple point temperature, K	uncertainty
202	2

System: decyltriethylphosphonium 4-nitropyrazolide; phases: Liquid
Fixed: Pressure, kPa = 101.325
Property: Viscosity, Pa*s (Liquid); method: Cone and plate viscometry
Temperature, K	Viscosity, Pa*s	uncertainty
278.15	1.62	
283.15	1.03	
288.15	.678	
293.15	.461	
298.15	.325	
303.15	.236	
308.15	.175	
313.15	.133	
318.15	.104	
323.15	.082	
328.15	.066	
333.15	.054	

System: decyltriethylphosphonium 4-nitropyrazolide; phases: Liquid
Fixed: Pressure, kPa = 101.325
Property: Mass density, kg/m3 (Liquid); method: Vibrating tube method
Temperature, K	Mass density, kg/m3	uncertainty
283.15	1020	
288.15	1017	
293.15	1013.9	
295.15	1012.7	
298.15	1010.9	
303.15	1007.9	
308.15	1004.9	
313.15	1002	
318.15	999.1	
323.15	996.2	
328.15	993.3	
333.15	990.4	
338.15	987.5	
343.15	984.6	
348.15	981.7	
353.15	978.8	

System: triethyloctylphosphonium 4-nitroimidazolide; phases: Crystal, Liquid, Air at 1 atmosphere
Property: Normal melting temperature, K (Crystal); method: DSC/DTA
Normal melting temperature, K	uncertainty
245	2

System: triethyloctylphosphonium 4-nitroimidazolide; phases: Liquid
Fixed: Pressure, kPa = 101.325
Property: Viscosity, Pa*s (Liquid); method: Cone and plate viscometry
Temperature, K	Viscosity, Pa*s	uncertainty
278.15	1.22	
283.15	.804	
288.15	.547	
293.15	.382	
298.15	.276	
303.15	.204	
308.15	.155	
313.15	.12	
318.15	.095	
323.15	.076	
328.15	.062	
333.15	.052	

System: triethyloctylphosphonium 4-nitroimidazolide; phases: Liquid
Fixed: Pressure, kPa = 101.325
Property: Mass density, kg/m3 (Liquid); method: Vibrating tube method
Temperature, K	Mass density, kg/m3	uncertainty
283.15	1037.8	
288.15	1034.8	
293.15	1031.8	
295.15	1030.6	
298.15	1028.8	
303.15	1025.8	
308.15	1022.9	
313.15	1020.1	
318.15	1017.2	
323.15	1014.3	
328.15	1011.4	
333.15	1008.5	
338.15	1005.7	
343.15	1002.8	
348.15	1000	
353.15	997.1	

System: triethyloctylphosphonium 2-methyl-5-nitroimidazolide; phases: Glass, Liquid, Air at 1 atmosphere
Property: Triple point temperature, K (Glass); method: DSC
Triple point temperature, K	uncertainty
206	2

System: triethyloctylphosphonium 2-methyl-5-nitroimidazolide; phases: Liquid
Fixed: Pressure, kPa = 101.325
Property: Viscosity, Pa*s (Liquid); method: Cone and plate viscometry
Temperature, K	Viscosity, Pa*s	uncertainty
278.15	3.72	
283.15	2.28	
288.15	1.44	
293.15	.94	
298.15	.637	
303.15	.446	
308.15	.321	
313.15	.237	
318.15	.179	
323.15	.138	
328.15	.109	
333.15	.08	

System: triethyloctylphosphonium 2-methyl-5-nitroimidazolide; phases: Liquid
Fixed: Pressure, kPa = 101.325
Property: Mass density, kg/m3 (Liquid); method: Vibrating tube method
Temperature, K	Mass density, kg/m3	uncertainty
283.15	1037.8	
288.15	1034.6	
293.15	1031.5	
295.15	1030.3	
298.15	1028.6	
303.15	1025.6	
308.15	1022.7	
313.15	1019.8	
318.15	1016.9	
323.15	1014.1	
328.15	1011.2	
333.15	1008.4	
338.15	1005.6	
343.15	1002.7	
348.15	999.9	
353.15	997.1	

System: triethyloctylphosphonium 1,2,3-triazolide; phases: Crystal, Liquid, Air at 1 atmosphere
Property: Normal melting temperature, K (Crystal); method: DSC/DTA
Normal melting temperature, K	uncertainty
339	2

System: triethyloctylphosphonium bis(trifluoromethylsulfonyl)imide; phases: Liquid
Fixed: Pressure, kPa = 101.325
Property: Viscosity, Pa*s (Liquid); method: Cone and plate viscometry
Temperature, K	Viscosity, Pa*s	uncertainty
278.15	.379	
283.15	.268	
288.15	.194	
293.15	.145	
298.15	.111	
303.15	.087	
308.15	.073	
313.15	.057	

System: triethyloctylphosphonium bis(trifluoromethylsulfonyl)imide; phases: Liquid
Fixed: Pressure, kPa = 101.325
Property: Mass density, kg/m3 (Liquid); method: Vibrating tube method
Temperature, K	Mass density, kg/m3	uncertainty
283.15	1256.3	
288.15	1252.2	
293.15	1248.1	
295.15	1246.6	
298.15	1244.2	
303.15	1240.2	
308.15	1236.2	
313.15	1232.2	
318.15	1228.2	
323.15	1224.2	
328.15	1220.2	
333.15	1216.3	
338.15	1212.3	
343.15	1208.4	
348.15	1204.4	
353.15	1200.5	

System: triethylhexylammonium 1,2,3-triazolide; phases: Crystal, Liquid, Air at 1 atmosphere
Property: Normal melting temperature, K (Crystal); method: DSC/DTA
Normal melting temperature, K	uncertainty
333	2

System: triethylheptylammonium 1,2,3-triazolide; phases: Crystal, Liquid, Air at 1 atmosphere
Property: Normal melting temperature, K (Crystal); method: DSC/DTA
Normal melting temperature, K	uncertainty
356	2

System: triethyl((2-methoxyethoxy)methyl)phosphonium 1,2,3-triazolide; phases: Crystal, Liquid, Air at 1 atmosphere
Property: Normal melting temperature, K (Crystal); method: DSC/DTA
Normal melting temperature, K	uncertainty
302	2

System: triethyl((2-methoxyethoxy)methyl)phosphonium 1,2,3-triazolide; phases: Glass, Liquid, Air at 1 atmosphere
Property: Triple point temperature, K (Glass); method: DSC
Triple point temperature, K	uncertainty
190	2

System: triethyl((2-methoxyethoxy)methyl)phosphonium 1,2,3-triazolide; phases: Liquid
Fixed: Pressure, kPa = 101.325
Property: Viscosity, Pa*s (Liquid); method: Cone and plate viscometry
Temperature, K	Viscosity, Pa*s	uncertainty
278.15	.26	
283.15	.186	
288.15	.137	
293.15	.104	
298.15	.08	
303.15	.064	
308.15	.051	

System: triethyl(methoxymethyl)phosphonium 1,2,3-triazolide; phases: Crystal, Liquid, Air at 1 atmosphere
Property: Normal melting temperature, K (Crystal); method: DSC/DTA
Normal melting temperature, K	uncertainty
350	2

System: (ethoxymethyl)triethylphosphonium 1,2,3-triazolide; phases: Crystal, Liquid, Air at 1 atmosphere
Property: Normal melting temperature, K (Crystal); method: DSC/DTA
Normal melting temperature, K	uncertainty
306	2

System: (ethoxymethyl)triethylphosphonium 1,2,3-triazolide; phases: Glass, Liquid, Air at 1 atmosphere
Property: Triple point temperature, K (Glass); method: DSC
Triple point temperature, K	uncertainty
207	2

System: (ethoxymethyl)triethylphosphonium 1,2,3-triazolide; phases: Liquid
Fixed: Pressure, kPa = 101.325
Property: Viscosity, Pa*s (Liquid); method: Cone and plate viscometry
Temperature, K	Viscosity, Pa*s	uncertainty
303.15	.062	
308.15	.05	

System: triethyl((2-methoxyethoxy)methyl)phosphonium 4-nitropyrazolide; phases: Crystal, Liquid, Air at 1 atmosphere
Property: Normal melting temperature, K (Crystal); method: DSC/DTA
Normal melting temperature, K	uncertainty
258	2

System: triethyl((2-methoxyethoxy)methyl)phosphonium 4-nitropyrazolide; phases: Glass, Liquid, Air at 1 atmosphere
Property: Triple point temperature, K (Glass); method: DSC
Triple point temperature, K	uncertainty
197	2

System: triethyl((2-methoxyethoxy)methyl)phosphonium 4-nitropyrazolide; phases: Liquid
Fixed: Pressure, kPa = 101.325
Property: Viscosity, Pa*s (Liquid); method: Cone and plate viscometry
Temperature, K	Viscosity, Pa*s	uncertainty
278.15	.309	
283.15	.216	
288.15	.156	
293.15	.116	
298.15	.088	
303.15	.069	
308.15	.055	

System: triethyl((2-methoxyethoxy)methyl)phosphonium 4-nitropyrazolide; phases: Liquid
Fixed: Pressure, kPa = 101.325
Property: Mass density, kg/m3 (Liquid); method: Vibrating tube method
Temperature, K	Mass density, kg/m3	uncertainty
283.15	1149.2	
288.15	1145.8	
293.15	1142.4	
295.15	1141	
298.15	1139	
303.15	1135.6	
308.15	1132.2	
313.15	1128.9	
318.15	1125.5	
323.15	1122.2	
328.15	1118.9	
333.15	1115.6	
338.15	1112.3	
343.15	1109.1	
348.15	1105.8	
353.15	1102.6	

System: triethyl((2-methoxyethoxy)methyl)phosphonium 2-methyl-5-nitroimidazolide; phases: Glass, Liquid, Air at 1 atmosphere
Property: Triple point temperature, K (Glass); method: DSC
Triple point temperature, K	uncertainty
198	2

System: triethyl((2-methoxyethoxy)methyl)phosphonium 2-methyl-5-nitroimidazolide; phases: Liquid
Fixed: Pressure, kPa = 101.325
Property: Viscosity, Pa*s (Liquid); method: Cone and plate viscometry
Temperature, K	Viscosity, Pa*s	uncertainty
278.15	.567	
283.15	.381	
288.15	.264	
293.15	.189	
298.15	.14	
303.15	.106	
308.15	.083	
313.15	.065	
318.15	.053	

System: cyclopentyltriethylphosphonium 4-nitropyrazolide; phases: Crystal, Liquid, Air at 1 atmosphere
Property: Normal melting temperature, K (Crystal); method: DSC/DTA
Normal melting temperature, K	uncertainty
324	2

System: (buten-1-yl)triethylphosphonium 4-nitropyrazolide; phases: Crystal, Liquid, Air at 1 atmosphere
Property: Normal melting temperature, K (Crystal); method: DSC/DTA
Normal melting temperature, K	uncertainty
312	2

System: (buten-1-yl)triethylphosphonium 4-nitropyrazolide; phases: Liquid
Fixed: Pressure, kPa = 101.325
Property: Viscosity, Pa*s (Liquid); method: Cone and plate viscometry
Temperature, K	Viscosity, Pa*s	uncertainty
298.15	.134	
303.15	.102	
308.15	.079	
313.15	.063	
318.15	.052	

System: (buten-1-yl)triethylphosphonium bis(trifluoromethylsulfonyl)amide; phases: Crystal, Liquid, Air at 1 atmosphere
Property: Normal melting temperature, K (Crystal); method: DSC/DTA
Normal melting temperature, K	uncertainty
322	2

System: S-hexyl-1,1,3,3-tetramethylthiouronium bis(trifluoromethylsulfonyl)imide; phases: Glass, Liquid, Air at 1 atmosphere
Property: Triple point temperature, K (Glass); method: DSC
Triple point temperature, K	uncertainty
191	2

System: S-hexyl-1,1,3,3-tetramethylthiouronium bis(trifluoromethylsulfonyl)imide; phases: Liquid
Fixed: Pressure, kPa = 101.325
Property: Viscosity, Pa*s (Liquid); method: Cone and plate viscometry
Temperature, K	Viscosity, Pa*s	uncertainty
278.15	.268	
283.15	.193	
288.15	.143	
293.15	.109	
298.15	.085	
303.15	.068	
308.15	.055	

System: S-hexyl-1,1,3,3-tetramethylthiouronium bis(trifluoromethylsulfonyl)imide; phases: Liquid
Fixed: Pressure, kPa = 101.325
Property: Mass density, kg/m3 (Liquid); method: Vibrating tube method
Temperature, K	Mass density, kg/m3	uncertainty
283.15	1352.2	
288.15	1347.8	
293.15	1343.4	
295.15	1341.6	
298.15	1339	
303.15	1334.6	
308.15	1330.2	
313.15	1325.8	
318.15	1321.5	
323.15	1317.1	
328.15	1312.8	
333.15	1308.5	
338.15	1304.2	
343.15	1299.8	
348.15	1295.6	
353.15	1291.3	

System: S-octyl-1,1,3,3-tetramethylthiouronium bis(trifluoromethylsulfonyl)imide; phases: Glass, Liquid, Air at 1 atmosphere
Property: Triple point temperature, K (Glass); method: DSC
Triple point temperature, K	uncertainty
191	2

System: S-octyl-1,1,3,3-tetramethylthiouronium bis(trifluoromethylsulfonyl)imide; phases: Liquid
Fixed: Pressure, kPa = 101.325
Property: Viscosity, Pa*s (Liquid); method: Cone and plate viscometry
Temperature, K	Viscosity, Pa*s	uncertainty
278.15	.356	
283.15	.254	
288.15	.186	
293.15	.14	
298.15	.108	
303.15	.085	
308.15	.069	
313.15	.056	

System: S-octyl-1,1,3,3-tetramethylthiouronium bis(trifluoromethylsulfonyl)imide; phases: Liquid
Fixed: Pressure, kPa = 101.325
Property: Mass density, kg/m3 (Liquid); method: Vibrating tube method
Temperature, K	Mass density, kg/m3	uncertainty
283.15	1309.6	
288.15	1305.2	
293.15	1301	
295.15	1299.3	
298.15	1296.7	
303.15	1292.4	
308.15	1288.2	
313.15	1284	
318.15	1279.7	
323.15	1275.5	
328.15	1271.3	
333.15	1267.1	
338.15	1262.9	
343.15	1258.7	
348.15	1254.6	
353.15	1250.4	

System: 1-butylthianium bis(trifluoromethylsulfonyl)imide; phases: Crystal, Liquid, Air at 1 atmosphere
Property: Normal melting temperature, K (Crystal); method: DSC/DTA
Normal melting temperature, K	uncertainty
263	2

System: 1-butylthianium bis(trifluoromethylsulfonyl)imide; phases: Glass, Liquid, Air at 1 atmosphere
Property: Triple point temperature, K (Glass); method: DSC
Triple point temperature, K	uncertainty
191	2

System: 1-butylthianium bis(trifluoromethylsulfonyl)imide; phases: Liquid
Fixed: Pressure, kPa = 101.325
Property: Viscosity, Pa*s (Liquid); method: Cone and plate viscometry
Temperature, K	Viscosity, Pa*s	uncertainty
278.15	.398	
283.15	.279	
288.15	.2	
293.15	.148	
298.15	.112	
303.15	.088	
308.15	.07	
313.15	.057	

System: 1-butyl-2-methylpyrazolium bis(trifluoromethylsulfonyl)imide; phases: Glass, Liquid, Air at 1 atmosphere
Property: Triple point temperature, K (Glass); method: DSC
Triple point temperature, K	uncertainty
191	2

System: 1-butyl-2-methylpyrazolium bis(trifluoromethylsulfonyl)imide; phases: Liquid
Fixed: Pressure, kPa = 101.325
Property: Viscosity, Pa*s (Liquid); method: Cone and plate viscometry
Temperature, K	Viscosity, Pa*s	uncertainty
278.15	.214	
283.15	.155	
288.15	.116	
293.15	.088	
298.15	.07	
303.15	.055	

System: 1-butyl-2-methylpyrazolium bis(trifluoromethylsulfonyl)imide; phases: Liquid
Fixed: Pressure, kPa = 101.325
Property: Mass density, kg/m3 (Liquid); method: Vibrating tube method
Temperature, K	Mass density, kg/m3	uncertainty
283.15	1465.4	
288.15	1460.7	
293.15	1456	
295.15	1454.06	
298.15	1451.2	
303.15	1446.5	
308.15	1441.8	
313.15	1437.1	
318.15	1432.4	
323.15	1427.7	
328.15	1423	
333.15	1418.4	
338.15	1413.8	
343.15	1109.1	
348.15	1404.6	
353.15	1400	

System: butylthiolanium bis(trifluoromethylsulfonyl)imide; phases: Glass, Liquid, Air at 1 atmosphere
Property: Triple point temperature, K (Glass); method: DSC
Triple point temperature, K	uncertainty
190	2

System: butylthiolanium bis(trifluoromethylsulfonyl)imide; phases: Liquid
Fixed: Pressure, kPa = 101.325
Property: Viscosity, Pa*s (Liquid); method: Cone and plate viscometry
Temperature, K	Viscosity, Pa*s	uncertainty
278.15	.284	
283.15	.206	
288.15	.153	
293.15	.117	
298.15	.091	
303.15	.073	
308.15	.059	

System: butylthiolanium bis(trifluoromethylsulfonyl)imide; phases: Liquid
Fixed: Pressure, kPa = 101.325
Property: Mass density, kg/m3 (Liquid); method: Vibrating tube method
Temperature, K	Mass density, kg/m3	uncertainty
283.15	1469	
288.15	1464.3	
293.15	1459.7	
295.15	1457.8	
298.15	1455	
303.15	1450.4	
308.15	1445.7	
313.15	1441.1	
318.15	1436.5	
323.15	1431.9	
328.15	1427.3	
333.15	1422.7	
338.15	1418.2	
343.15	1413.6	
348.15	1409.1	
353.15	1404.6	

System: 1-hexyl-3-methylimidazolium bis[(trifluoromethyl)sulfonyl]imide; phases: Liquid
Fixed: Pressure, kPa = 101.325
Property: Viscosity, Pa*s (Liquid); method: Cone and plate viscometry
Temperature, K	Viscosity, Pa*s	uncertainty
278.15	.203	
283.15	.15	
288.15	.113	
293.15	.087	
298.15	.068	
303.15	.055	

System: 1-hexyl-3-methylimidazolium bis[(trifluoromethyl)sulfonyl]imide; phases: Liquid
Fixed: Pressure, kPa = 101.325
Property: Mass density, kg/m3 (Liquid); method: Vibrating tube method
Temperature, K	Mass density, kg/m3	uncertainty
283.15	1386.6	
288.15	1382.1	
293.15	1377.5	
295.15	1375.7	
298.15	1372.9	
303.15	1368.4	
308.15	1363.8	
313.15	1359.3	
318.15	1354.8	
323.15	1350.3	
328.15	1345.8	
333.15	1341.3	
338.15	1336.8	
343.15	1332.4	
348.15	1327.9	
353.15	1323.5	

System: 1-hexyl-3-methylimidazolium 4-nitropyrazolide; phases: Crystal, Liquid, Air at 1 atmosphere
Property: Normal melting temperature, K (Crystal); method: DSC/DTA
Normal melting temperature, K	uncertainty
306	2

System: 1-hexyl-3-methylimidazolium 4-nitropyrazolide; phases: Glass, Liquid, Air at 1 atmosphere
Property: Triple point temperature, K (Glass); method: DSC
Triple point temperature, K	uncertainty
217	2

System: 1-hexyl-3-methylimidazolium 4-nitropyrazolide; phases: Liquid
Fixed: Pressure, kPa = 101.325
Property: Viscosity, Pa*s (Liquid); method: Cone and plate viscometry
Temperature, K	Viscosity, Pa*s	uncertainty
278.15	3.31	
283.15	1.81	
288.15	1.04	
293.15	.633	
298.15	.407	
303.15	.275	
308.15	.192	
313.15	.139	
318.15	.102	
323.15	.079	
328.15	.063	
333.15	.051	

System: 1-hexyl-3-methylimidazolium 4-nitropyrazolide; phases: Liquid
Fixed: Pressure, kPa = 101.325
Property: Mass density, kg/m3 (Liquid); method: Vibrating tube method
Temperature, K	Mass density, kg/m3	uncertainty
283.15	1133.6	
288.15	1130	
293.15	1126.6	
295.15	1125.3	
298.15	1123.3	
303.15	1120	
308.15	1116.6	
313.15	1113.4	
318.15	1110.2	
323.15	1107	
328.15	1103.8	
333.15	1100.6	
338.15	1097.4	
343.15	1094.2	
348.15	1091.1	
353.15	1087.9	

System: 1-hexyl-2,3-dimethylimidazolium 4-nitropyrazolide; phases: Glass, Liquid, Air at 1 atmosphere
Property: Triple point temperature, K (Glass); method: DSC
Triple point temperature, K	uncertainty
226	2

System: 1-hexyl-2,3-dimethylimidazolium 4-nitropyrazolide; phases: Liquid
Fixed: Pressure, kPa = 101.325
Property: Viscosity, Pa*s (Liquid); method: Cone and plate viscometry
Temperature, K	Viscosity, Pa*s	uncertainty
278.15	14.6	
283.15	6.91	
288.15	3.49	
293.15	1.91	
298.15	1.11	
303.15	.691	
308.15	.45	
313.15	.303	
318.15	.213	
323.15	.147	
328.15	.112	
333.15	.087	
338.15	.069	
343.15	.056	

System: 1-hexyl-2,3-dimethylimidazolium 4-nitropyrazolide; phases: Liquid
Fixed: Pressure, kPa = 101.325
Property: Mass density, kg/m3 (Liquid); method: Vibrating tube method
Temperature, K	Mass density, kg/m3	uncertainty
283.15	1129.4	
288.15	1126	
293.15	1122.4	
295.15	1121	
298.15	1118.9	
303.15	1115.7	
308.15	1112.4	
313.15	1109.2	
318.15	1106	
323.15	1102.8	
328.15	1099.7	
333.15	1096.6	
338.15	1093.5	
343.15	1090.4	
348.15	1087.4	
353.15	1084.3	

System: 1-hexyl-3-methylimidazolium 1,2,3-triazolide; phases: Glass, Liquid, Air at 1 atmosphere
Property: Triple point temperature, K (Glass); method: DSC
Triple point temperature, K	uncertainty
210	2

System: 1-hexyl-3-methylimidazolium 1,2,3-triazolide; phases: Liquid
Fixed: Pressure, kPa = 101.325
Property: Viscosity, Pa*s (Liquid); method: Cone and plate viscometry
Temperature, K	Viscosity, Pa*s	uncertainty
278.15	2.61	
283.15	1.56	
288.15	.965	
293.15	.624	
298.15	.419	
303.15	.294	
308.15	.211	
313.15	.156	
318.15	.118	
323.15	.092	
328.15	.074	
333.15	.06	

System: 1-hexyl-3-methylimidazolium 1,2,3-triazolide; phases: Liquid
Fixed: Pressure, kPa = 101.325
Property: Mass density, kg/m3 (Liquid); method: Vibrating tube method
Temperature, K	Mass density, kg/m3	uncertainty
288.15	1041.3533	
293.15	1046.8	
295.15	1043.7	
298.15	1042.5	
303.15	1040.7	
308.15	1037.7	
313.15	1034.7	
318.15	1028.9	
323.15	1026	
328.15	1023.1	
333.15	1020.2	
338.15	1017.3	
343.15	1014.4	
348.15	1011.5	
353.15	1008.6	

System: 1-hexyl-3-methylimidazolium 1,2,4-triazolide; phases: Crystal, Liquid, Air at 1 atmosphere
Property: Normal melting temperature, K (Crystal); method: DSC/DTA
Normal melting temperature, K	uncertainty
307	2

System: 1-hexyl-3-methylimidazolium 1,2,4-triazolide; phases: Glass, Liquid, Air at 1 atmosphere
Property: Triple point temperature, K (Glass); method: DSC
Triple point temperature, K	uncertainty
217	2

System: 1-hexyl-3-methylimidazolium 1,2,4-triazolide; phases: Liquid
Fixed: Pressure, kPa = 101.325
Property: Viscosity, Pa*s (Liquid); method: Cone and plate viscometry
Temperature, K	Viscosity, Pa*s	uncertainty
278.15	3.04	
283.15	1.67	
288.15	.961	
293.15	.589	
298.15	.381	
303.15	.258	
308.15	.182	
313.15	.132	
318.15	.098	
323.15	.076	
328.15	.061	

System: 1-hexyl-3-methylimidazolium 1,2,4-triazolide; phases: Liquid
Fixed: Pressure, kPa = 101.325
Property: Mass density, kg/m3 (Liquid); method: Vibrating tube method
Temperature, K	Mass density, kg/m3	uncertainty
283.15	1132.7	
288.15	1129.2	
293.15	1125.8	
295.15	1124.5	
298.15	1122.5	
303.15	1119.2	
308.15	1115.8	
313.15	1112.7	
318.15	1109.5	
323.15	1106.2	
328.15	1103.1	
333.15	1099.9	
338.15	1096.7	
343.15	1093.5	
348.15	1090.3	
353.15	1087.2	

System: 1-hexyl-3-methylimidazolium tetrazolide; phases: Glass, Liquid, Air at 1 atmosphere
Property: Triple point temperature, K (Glass); method: DSC
Triple point temperature, K	uncertainty
193	2

System: 1-hexyl-3-methylimidazolium tetrazolide; phases: Liquid
Fixed: Pressure, kPa = 101.325
Property: Viscosity, Pa*s (Liquid); method: Cone and plate viscometry
Temperature, K	Viscosity, Pa*s	uncertainty
278.15	2.18	
283.15	1.34	
288.15	.848	
293.15	.561	
298.15	.384	
303.15	.273	
308.15	.2	
313.15	.15	
318.15	.115	
323.15	.091	
328.15	.074	
333.15	.061	
338.15	.051	

System: 1-hexyl-3-methylimidazolium tetrazolide; phases: Liquid
Fixed: Pressure, kPa = 101.325
Property: Mass density, kg/m3 (Liquid); method: Vibrating tube method
Temperature, K	Mass density, kg/m3	uncertainty
283.15	1077.5	
288.15	1074.3	
293.15	1071.2	
295.15	1069.9	
298.15	1068.1	
303.15	1065	
308.15	1061.9	
313.15	1058.8	
318.15	1055.8	
323.15	1052.8	
328.15	1049.8	
333.15	1046.8	
338.15	1043.8	
343.15	1040.8	
348.15	1037.8	
353.15	1034.8	

System: 1-hexyl-3-methylimidazolium 2-cyanopyrrolide; phases: Glass, Liquid, Air at 1 atmosphere
Property: Triple point temperature, K (Glass); method: DSC
Triple point temperature, K	uncertainty
208	2

System: 1-hexyl-3-methylimidazolium 2-cyanopyrrolide; phases: Liquid
Fixed: Pressure, kPa = 101.325
Property: Viscosity, Pa*s (Liquid); method: Cone and plate viscometry
Temperature, K	Viscosity, Pa*s	uncertainty
278.15	1.54	
283.15	.902	
288.15	.553	
293.15	.355	
298.15	.239	
303.15	.167	
308.15	.122	
313.15	.091	
318.15	.07	
323.15	.055	

System: 1-hexyl-3-methylimidazolium 2-cyanopyrrolide; phases: Liquid
Fixed: Pressure, kPa = 101.325
Property: Mass density, kg/m3 (Liquid); method: Vibrating tube method
Temperature, K	Mass density, kg/m3	uncertainty
283.15	1031	
288.15	1027.9	
293.15	1024.9	
295.15	1023.6	
298.15	1021.8	
303.15	1018.8	
308.15	1015.8	
313.15	1012.8	
318.15	1009.9	
323.15	1006.9	
328.15	1003.9	
333.15	1001	
338.15	998	
343.15	995.1	
348.15	992.1	
353.15	989.1	

System: 1,2-dimethyl-3-propylimidazolium 4-nitropyrazolide; phases: Glass, Liquid, Air at 1 atmosphere
Property: Triple point temperature, K (Glass); method: DSC
Triple point temperature, K	uncertainty
223	2

System: 1,2-dimethyl-3-propylimidazolium 4-nitropyrazolide; phases: Liquid
Fixed: Pressure, kPa = 101.325
Property: Viscosity, Pa*s (Liquid); method: Cone and plate viscometry
Temperature, K	Viscosity, Pa*s	uncertainty
278.15	9.61	
283.15	4.5	
288.15	2.27	
293.15	1.24	
298.15	.722	
303.15	.447	
308.15	.294	
313.15	.2	
318.15	.143	
323.15	.106	
328.15	.081	
333.15	.065	
338.15	.053	

System: 1,2-dimethyl-3-propylimidazolium 4-nitropyrazolide; phases: Liquid
Fixed: Pressure, kPa = 101.325
Property: Mass density, kg/m3 (Liquid); method: Vibrating tube method
Temperature, K	Mass density, kg/m3	uncertainty
283.15	1193	
288.15	1189.4	
293.15	1185.6	
295.15	1184.3	
298.15	1182.2	
303.15	1178.9	
308.15	1175.5	
313.15	1172.2	
318.15	1168.9	
323.15	1165.7	
328.15	1162.5	
333.15	1159.3	
338.15	1156.1	
343.15	1152.8	
348.15	1149.6	
353.15	1146.4	

System: 1-cyclopentyl-2,3-dimethylimidazolium 4-nitropyrazolide; phases: Crystal, Liquid, Air at 1 atmosphere
Property: Normal melting temperature, K (Crystal); method: DSC/DTA
Normal melting temperature, K	uncertainty
365	2

System: 1-but-1-enyl-2,3-dimethylimidazolium 4-nitropyrazolide; phases: Glass, Liquid, Air at 1 atmosphere
Property: Triple point temperature, K (Glass); method: DSC
Triple point temperature, K	uncertainty
220	2

System: 1-but-1-enyl-2,3-dimethylimidazolium 4-nitropyrazolide; phases: Liquid
Fixed: Pressure, kPa = 101.325
Property: Viscosity, Pa*s (Liquid); method: Cone and plate viscometry
Temperature, K	Viscosity, Pa*s	uncertainty
278.15	6.65	
283.15	3.26	
288.15	1.72	
293.15	.973	
298.15	.59	
303.15	.38	
308.15	.255	
313.15	.179	
318.15	.131	
323.15	.099	
328.15	.077	
333.15	.062	
338.15	.05	

System: 1-but-1-enyl-2,3-dimethylimidazolium 4-nitropyrazolide; phases: Liquid
Fixed: Pressure, kPa = 101.325
Property: Mass density, kg/m3 (Liquid); method: Vibrating tube method
Temperature, K	Mass density, kg/m3	uncertainty
283.15	1191.5	
288.15	1187.7	
293.15	1184.2	
295.15	1182.8	
298.15	1180.8	
303.15	1177.5	
308.15	1174.1	
313.15	1170.8	
318.15	1167.6	
323.15	1164.4	
328.15	1161.1	
333.15	1157.9	
338.15	1154.7	
343.15	1151.5	
348.15	1148.3	
353.15	1145.2	

System: 2-(ethoxymethyl)-1-ethyl-3-methylimidazolium bis(trifluoromethylsulfonyl)imide; phases: Glass, Liquid, Air at 1 atmosphere
Property: Triple point temperature, K (Glass); method: DSC
Triple point temperature, K	uncertainty
195	2

System: 2-(ethoxymethyl)-1-ethyl-3-methylimidazolium bis(trifluoromethylsulfonyl)imide; phases: Liquid
Fixed: Pressure, kPa = 101.325
Property: Viscosity, Pa*s (Liquid); method: Cone and plate viscometry
Temperature, K	Viscosity, Pa*s	uncertainty
278.15	.207	
283.15	.149	
288.15	.111	
293.15	.085	
298.15	.066	
303.15	.053	

System: 1-((2-methoxyethoxy)methyl)-2,3-dimethylimidazolium 1,2,3-triazolide; phases: Glass, Liquid, Air at 1 atmosphere
Property: Triple point temperature, K (Glass); method: DSC
Triple point temperature, K	uncertainty
221	2

System: 1-butyl-2-((methoxymethoxy)methyl)-3-methylimidazolium 1,2,3-triazolide; phases: Glass, Liquid, Air at 1 atmosphere
Property: Triple point temperature, K (Glass); method: DSC
Triple point temperature, K	uncertainty
236	2

System: 1-butyl-2-(((2-methoxyethoxy)methoxy)methyl)-3-methylimidazolium 1,2,3-triazolide; phases: Glass, Liquid, Air at 1 atmosphere
Property: Triple point temperature, K (Glass); method: DSC
Triple point temperature, K	uncertainty
238	2

System: trihexyl(tetradecyl)phosphonium acetate; phases: Liquid
Fixed: Pressure, kPa = 101.325
Property: Viscosity, Pa*s (Liquid); method: Cone and plate viscometry
Temperature, K	Viscosity, Pa*s	uncertainty
278.15	1.82	
283.15	1.2	
288.15	.814	
293.15	.566	
298.15	.406	
303.15	.298	
308.15	.224	
313.15	.172	
318.15	.135	
323.15	.107	

System: trihexyl(tetradecyl)phosphonium acetate; phases: Liquid
Fixed: Pressure, kPa = 101.325
Property: Mass density, kg/m3 (Liquid); method: Vibrating tube method
Temperature, K	Mass density, kg/m3	uncertainty
283.15	895	
288.15	891.9	
293.15	888.9	
295.15	887.6	
298.15	885.8	
303.15	882.8	
308.15	879.8	
313.15	876.8	
318.15	873.7	
323.15	870.7	
328.15	867.7	
333.15	864.7	
338.15	861.7	
343.15	858.7	
348.15	855.7	
353.15	852.7	

System: 3-hexyl-1-methylimidazolium acetate; phases: Liquid
Fixed: Pressure, kPa = 101.325
Property: Viscosity, Pa*s (Liquid); method: Cone and plate viscometry
Temperature, K	Viscosity, Pa*s	uncertainty
278.15	12.3	
283.15	6.46	
288.15	3.55	
293.15	2.06	
298.15	1.27	
303.15	.816	
308.15	.537	
313.15	.372	
318.15	.265	
323.15	.194	
328.15	.147	
333.15	.113	
338.15	.09	

System: 3-hexyl-1-methylimidazolium acetate; phases: Liquid
Fixed: Pressure, kPa = 101.325
Property: Mass density, kg/m3 (Liquid); method: Vibrating tube method
Temperature, K	Mass density, kg/m3	uncertainty
283.15	1025.7	
288.15	1022.7	
293.15	1019.6	
295.15	1018.4	
298.15	1016.6	
303.15	1013.5	
308.15	1010.4	
313.15	1007.4	
318.15	1004.5	
323.15	1001.5	
328.15	998.5	
333.15	995.5	
338.15	992.6	
343.15	989.6	
348.15	986.7	
353.15	983.7	

System: triethyl((2-methoxyethoxy)methyl)phosphonium bis(trifluoromethylsulfonyl)imide; phases: Liquid
Fixed: Pressure, kPa = 101.325
Property: Viscosity, Pa*s (Liquid); method: Cone and plate viscometry
Temperature, K	Viscosity, Pa*s	uncertainty
278.15	.084	
283.15	.065	
288.15	.051	

System: triethyl((2-methoxyethoxy)methyl)phosphonium bis(trifluoromethylsulfonyl)imide; phases: Liquid
Fixed: Pressure, kPa = 101.325
Property: Mass density, kg/m3 (Liquid); method: Vibrating tube method
Temperature, K	Mass density, kg/m3	uncertainty
283.15	1373.9	
288.15	1369.4	
293.15	1364.8	
295.15	1363	
298.15	1360.3	
303.15	1355.7	
308.15	1351.2	
313.15	1346.8	
318.15	1342.3	
323.15	1337.9	
328.15	1333.4	
333.15	1329	
338.15	1324.6	
343.15	1320.2	
348.15	1315.8	
353.15	1311.5	
