Measured thermophysical data. Density, Surface Tension, and Kinematic Viscosity of Hydrofluoroethers HFE-7000, HFE-7100, HFE-7200, HFE- 7300, and HFE-7500
Source: J. Chem. Eng. Data, 2015, 10.1021/acs.jced.5b00691
Compound 1: 1,1,1,2,2,3,3-heptafluoro-3-methoxypropane, C4H3F7O, purity 99.5%
Compound 2: methyl nonafluoroisobutyl ether, C5H3F9O, purity 99.5%
Compound 3: 1-methoxy-nonafluorobutane, C5H3F9O, purity 99.5%
Compound 4: nonafluoroisobutyl ethyl ether, C6H5F9O, purity 99%
Compound 5: 1-ethoxy-1,1,2,2,3,3,4,4,4-nonafluorobutane, C6H5F9O, purity 99%
Compound 6: 1,1,1,2,2,3,4,5,5,5-decafluoro-3-methosy-4-(trifluoromethyl)-pentane, C7H3F13O, purity 99%
Compound 7: 2-trifluoromethyl-3-ethoxydodecafluorohexane, C9H5F15O, purity 99%

System: 1,1,1,2,2,3,3-heptafluoro-3-methoxypropane; phases: Liquid, Gas
Property: Mass density, kg/m3 (Liquid); method: Vibrating tube method
Temperature, K	Mass density, kg/m3	uncertainty
273.15	1471.16	.294232
278.15	1458.15	.29163
283.15	1444.94	.288988
288.15	1431.58	.286316
293.15	1418.04	.283608
298.15	1404.3	.28086
303.15	1390.35	.27807
308.15	1376.15	.27523
313.15	1361.67	.272334
318.15	1346.91	.269382
323.15	1331.89	.266378
328.15	1316.54	.263308
333.15	1300.86	.260172
338.15	1284.82	.256964
343.15	1268.38	.253676
348.15	1251.45	.25029
353.15	1234.05	.24681
358.15	1216.87	.243374
363.15	1199.54	.239908

System: 1,1,1,2,2,3,3-heptafluoro-3-methoxypropane; phases: Liquid, Gas
Property: Kinematic viscosity, m2/s (Liquid); method: Surface laser light scattering (SLLS)
Temperature, K	Kinematic viscosity, m2/s	uncertainty
273.15	.0000004218	.000000008436
283.15	.0000003651	.000000007302
293.15	.0000003296	.000000006592
303.15	.0000002902	.000000005804
313.15	.0000002636	.000000005272
323.15	.0000002374	.000000004748
333.15	.0000002198	.000000004396
343.15	.0000002015	.00000000403
353.15	.0000001798	.000000003596
363.15	.0000001661	.000000003322
373.15	.0000001535	.00000000307

System: 1,1,1,2,2,3,3-heptafluoro-3-methoxypropane; phases: Liquid, Gas
Property: Surface tension liquid-gas, N/m (Liquid); method: surface light scattering
Temperature, K	Surface tension liquid-gas, N/m	uncertainty
273.15	.01449	.0002898
283.15	.01331	.0002662
293.15	.01233	.0002466
303.15	.01123	.0002246
313.15	.01027	.0002054
323.15	.00923	.0001846
333.15	.00828	.0001656
343.15	.00736	.0001472
353.15	.00638	.0001276
363.15	.00548	.0001096
373.15	.00462	.0000924

System: 1,1,1,2,2,3,4,5,5,5-decafluoro-3-methosy-4-(trifluoromethyl)-pentane; phases: Liquid, Gas
Property: Mass density, kg/m3 (Liquid); method: Vibrating tube method
Temperature, K	Mass density, kg/m3	uncertainty
273.15	1714.26	34.2852
278.15	1702.92	34.0584
283.15	1691.49	33.8298
288.15	1680.02	33.6004
293.15	1668.48	33.3696
298.15	1656.86	33.1372
303.15	1645.14	32.9028
308.15	1633.38	32.6676
313.15	1621.44	32.4288
318.15	1609.41	32.1882
323.15	1597.29	31.9458
328.15	1585.05	31.701
333.15	1572.65	31.453
338.15	1560.14	31.2028
343.15	1547.49	30.9498
348.15	1534.67	30.6934
353.15	1521.68	30.4336
358.15	1508.51	30.1702
363.15	1495.16	29.9032

System: 1,1,1,2,2,3,4,5,5,5-decafluoro-3-methosy-4-(trifluoromethyl)-pentane; phases: Liquid, Gas
Property: Kinematic viscosity, m2/s (Liquid); method: Surface laser light scattering (SLLS)
Temperature, K	Kinematic viscosity, m2/s	uncertainty
273.15	.0000010103	.000000020206
283.15	.0000008494	.000000016988
293.15	.000000737	.00000001474
303.15	.0000006312	.000000012624
313.15	.0000005562	.000000011124
323.15	.0000004916	.000000009832
333.15	.0000004355	.00000000871
343.15	.0000003947	.000000007894
353.15	.0000003518	.000000007036
363.15	.000000315	.0000000063
373.15	.0000002883	.000000005766

System: 1,1,1,2,2,3,4,5,5,5-decafluoro-3-methosy-4-(trifluoromethyl)-pentane; phases: Liquid, Gas
Property: Surface tension liquid-gas, N/m (Liquid); method: surface light scattering
Temperature, K	Surface tension liquid-gas, N/m	uncertainty
273.15	.01656	.0003312
283.15	.01581	.0003162
293.15	.01497	.0002994
303.15	.01415	.000283
313.15	.01343	.0002686
323.15	.01261	.0002522
333.15	.01179	.0002358
343.15	.01103	.0002206
353.15	.01016	.0002032
363.15	.00943	.0001886
373.15	.00864	.0001728

System: 2-trifluoromethyl-3-ethoxydodecafluorohexane; phases: Liquid, Gas
Property: Mass density, kg/m3 (Liquid); method: Vibrating tube method
Temperature, K	Mass density, kg/m3	uncertainty
273.15	1670.6	33.412
278.15	1660.59	33.2118
283.15	1650.49	33.0098
288.15	1640.35	32.807
293.15	1630.17	32.6034
298.15	1619.92	32.3984
303.15	1609.61	32.1922
308.15	1599.24	31.9848
313.15	1588.77	31.7754
318.15	1578.28	31.5656
323.15	1567.69	31.3538
328.15	1557	31.14
333.15	1546.2	30.924
338.15	1535.3	30.706
343.15	1524.31	30.4862
348.15	1513.21	30.2642
353.15	1501.99	30.0398
358.15	1490.64	29.8128
363.15	1479.16	29.5832

System: 2-trifluoromethyl-3-ethoxydodecafluorohexane; phases: Liquid, Gas
Property: Kinematic viscosity, m2/s (Liquid); method: Surface laser light scattering (SLLS)
Temperature, K	Kinematic viscosity, m2/s	uncertainty
273.15	.0000011383	.000000022766
283.15	.0000009376	.000000018752
293.15	.0000008044	.000000016088
303.15	.0000006913	.000000013826
313.15	.0000006109	.000000012218
323.15	.0000005378	.000000010756
333.15	.0000004709	.000000009418
343.15	.0000004277	.000000008554
353.15	.0000003884	.000000007768
363.15	.000000352	.00000000704
373.15	.000000317	.00000000634

System: 2-trifluoromethyl-3-ethoxydodecafluorohexane; phases: Liquid, Gas
Property: Surface tension liquid-gas, N/m (Liquid); method: surface light scattering
Temperature, K	Surface tension liquid-gas, N/m	uncertainty
273.15	.01692	.0003384
283.15	.01623	.0003246
293.15	.01552	.0003104
303.15	.01475	.000295
313.15	.01407	.0002814
323.15	.0133	.000266
333.15	.01265	.000253
343.15	.01189	.0002378
353.15	.01113	.0002226
363.15	.0104	.000208
373.15	.00966	.0001932

System: 1-methoxy-nonafluorobutane + methyl nonafluoroisobutyl ether; phases: Liquid, Gas
Fixed: Mole fraction of methyl nonafluoroisobutyl ether = .623
Property: Mass density, kg/m3 (Liquid); method: Vibrating tube method
Temperature, K	Mass density, kg/m3	uncertainty
273.15	1579.23	.315846
278.15	1566.86	.313372
283.15	1554.37	.310874
288.15	1541.76	.308352
293.15	1529.03	.305806
298.15	1516.15	.30323
303.15	1503.18	.300636
308.15	1490.04	.298008
313.15	1476.74	.295348
318.15	1463.23	.292646
323.15	1449.5	.2899
328.15	1435.61	.287122
333.15	1421.48	.284296
338.15	1407.13	.281426
343.15	1392.52	.278504
348.15	1377.65	.27553
353.15	1362.5	.2725
358.15	1347.04	.269408
363.15	1331.24	.266248

System: 1-methoxy-nonafluorobutane + methyl nonafluoroisobutyl ether; phases: Liquid, Gas
Fixed: Mole fraction of methyl nonafluoroisobutyl ether = .623
Property: Kinematic viscosity, m2/s (Liquid); method: Surface Light Scattering
Temperature, K	Kinematic viscosity, m2/s	uncertainty
273.15	.0000006638	.000000013276
283.15	.0000005702	.000000011404
293.15	.0000004841	.000000009682
303.15	.0000004284	.000000008568
313.15	.000000381	.00000000762
323.15	.0000003377	.000000006754
333.15	.0000003059	.000000006118
343.15	.0000002772	.000000005544
353.15	.0000002464	.000000004928
363.15	.0000002284	.000000004568
373.15	.0000002088	.000000004176

System: 1-methoxy-nonafluorobutane + methyl nonafluoroisobutyl ether; phases: Liquid, Gas
Fixed: Mole fraction of methyl nonafluoroisobutyl ether = .623
Property: Surface tension liquid-gas, N/m (Liquid); method: surface light scattering
Temperature, K	Surface tension liquid-gas, N/m	uncertainty
273.15	.01582	.0003164
283.15	.01482	.0002964
293.15	.0138	.000276
303.15	.01289	.0002578
313.15	.01192	.0002384
323.15	.011	.00022
333.15	.01006	.0002012
343.15	.00913	.0001826
353.15	.00816	.0001632
363.15	.00732	.0001464
373.15	.00646	.0001292

System: 1-ethoxy-1,1,2,2,3,3,4,4,4-nonafluorobutane + nonafluoroisobutyl ethyl ether; phases: Liquid, Gas
Fixed: Mole fraction of nonafluoroisobutyl ethyl ether = .613
Property: Mass density, kg/m3 (Liquid); method: Vibrating tube method
Temperature, K	Mass density, kg/m3	uncertainty
273.15	1478.05	.29561
278.15	1467.14	.293428
283.15	1456.15	.29123
288.15	1445.07	.289014
293.15	1433.94	.286788
298.15	1422.65	.28453
303.15	1411.31	.282262
308.15	1399.85	.27997
313.15	1388.27	.277654
318.15	1376.56	.275312
323.15	1364.66	.272932
328.15	1352.68	.270536
333.15	1340.45	.26809
338.15	1328.09	.265618
343.15	1315.57	.263114
348.15	1302.85	.26057
353.15	1289.93	.257986
358.15	1276.74	.255348
363.15	1263.25	.25265

System: 1-ethoxy-1,1,2,2,3,3,4,4,4-nonafluorobutane + nonafluoroisobutyl ethyl ether; phases: Liquid, Gas
Fixed: Mole fraction of nonafluoroisobutyl ethyl ether = .613
Property: Kinematic viscosity, m2/s (Liquid); method: Surface Light Scattering
Temperature, K	Kinematic viscosity, m2/s	uncertainty
273.15	.0000006631	.000000013262
283.15	.0000005563	.000000011126
293.15	.0000004824	.000000009648
303.15	.0000004292	.000000008584
313.15	.0000003822	.000000007644
323.15	.0000003429	.000000006858
333.15	.0000003125	.00000000625
343.15	.0000002826	.000000005652
353.15	.0000002564	.000000005128
363.15	.0000002382	.000000004764
373.15	.0000002225	.00000000445

System: 1-ethoxy-1,1,2,2,3,3,4,4,4-nonafluorobutane + nonafluoroisobutyl ethyl ether; phases: Liquid, Gas
Fixed: Mole fraction of nonafluoroisobutyl ethyl ether = .613
Property: Surface tension liquid-gas, N/m (Liquid); method: surface light scattering
Temperature, K	Surface tension liquid-gas, N/m	uncertainty
273.15	.01603	.0003206
283.15	.0149	.000298
293.15	.01401	.0002802
303.15	.01321	.0002642
313.15	.01233	.0002466
323.15	.01142	.0002284
333.15	.01056	.0002112
343.15	.00967	.0001934
353.15	.00884	.0001768
363.15	.00799	.0001598
373.15	.00719	.0001438
