Measured thermophysical data. Measurement and Correlation of the Solubility of e-CL-20 in 12 Organic Solvents at Temperatures Ranging from 278.15 to 318.15 K
Source: J. Chem. Eng. Data, 2017, 10.1021/acs.jced.6b00761
Compound 1: 2,4,6,8,10,12-hexanitro-2,4,6,8,10,12-hexaazaisowurtzitane, C6H6N12O12, purity 99.8%
Compound 2: methanol, CH4O, purity 99.5%
Compound 3: ethanol, C2H6O, purity 99.5%
Compound 4: 1-propanol, C3H8O, purity 99.5%
Compound 5: isopropanol, C3H8O, purity 99.5%
Compound 6: ethyl acetate, C4H8O2, purity 99.5%
Compound 7: toluene, C7H8, purity 99.5%
Compound 8: chloroform, CHCl3, purity 99.5%
Compound 9: triethyl orthoformate, C7H16O3, purity 99.5%
Compound 10: m-xylene, C8H10, purity 99.5%
Compound 11: 1-butanol, C4H10O, purity 99.5%
Compound 12: butyl acetate, C6H12O2, purity 99.5%
Compound 13: cyclohexane, C6H12, purity 99.5%

System: methanol + 2,4,6,8,10,12-hexanitro-2,4,6,8,10,12-hexaazaisowurtzitane; phases: Liquid, Crystal
Fixed: Pressure, kPa = 100
Property: Mole fraction of 2,4,6,8,10,12-hexanitro-2,4,6,8,10,12-hexaazaisowurtzitane (Liquid); method: gravimetric
Temperature, K	Mole fraction of 2,4,6,8,10,12-hexanitro-2,4,6,8,10,12-hexaazaisowurtzitane	uncertainty
278.15	.0015795	
283.15	.0016415	
288.15	.0017271	
293.15	.0018205	
298.15	.0019264	
303.15	.0020159	
308.15	.0021586	
313.15	.0022962	
318.15	.0024377	

System: ethanol + 2,4,6,8,10,12-hexanitro-2,4,6,8,10,12-hexaazaisowurtzitane; phases: Liquid, Crystal
Fixed: Pressure, kPa = 100
Property: Mole fraction of 2,4,6,8,10,12-hexanitro-2,4,6,8,10,12-hexaazaisowurtzitane (Liquid); method: gravimetric
Temperature, K	Mole fraction of 2,4,6,8,10,12-hexanitro-2,4,6,8,10,12-hexaazaisowurtzitane	uncertainty
278.15	.0005382	
283.15	.0005607	
288.15	.0005924	
293.15	.0006245	
298.15	.0006593	
303.15	.0007068	
308.15	.0007516	
313.15	.0008146	
318.15	.0008993	

System: 1-propanol + 2,4,6,8,10,12-hexanitro-2,4,6,8,10,12-hexaazaisowurtzitane; phases: Liquid, Crystal
Fixed: Pressure, kPa = 100
Property: Mole fraction of 2,4,6,8,10,12-hexanitro-2,4,6,8,10,12-hexaazaisowurtzitane (Liquid); method: gravimetric
Temperature, K	Mole fraction of 2,4,6,8,10,12-hexanitro-2,4,6,8,10,12-hexaazaisowurtzitane	uncertainty
278.15	.0001698	
283.15	.0001884	
288.15	.0002089	
293.15	.0002381	
298.15	.0002723	
303.15	.0003055	
308.15	.0003478	
313.15	.0003963	
318.15	.0004495	

System: isopropanol + 2,4,6,8,10,12-hexanitro-2,4,6,8,10,12-hexaazaisowurtzitane; phases: Liquid, Crystal
Fixed: Pressure, kPa = 100
Property: Mole fraction of 2,4,6,8,10,12-hexanitro-2,4,6,8,10,12-hexaazaisowurtzitane (Liquid); method: gravimetric
Temperature, K	Mole fraction of 2,4,6,8,10,12-hexanitro-2,4,6,8,10,12-hexaazaisowurtzitane	uncertainty
278.15	.0001137	
283.15	.0001285	
288.15	.0001532	
293.15	.0001807	
298.15	.0002083	
303.15	.0002529	
308.15	.0002946	
313.15	.0003486	
318.15	.000424	

System: 1-butanol + 2,4,6,8,10,12-hexanitro-2,4,6,8,10,12-hexaazaisowurtzitane; phases: Liquid, Crystal
Fixed: Pressure, kPa = 100
Property: Mole fraction of 2,4,6,8,10,12-hexanitro-2,4,6,8,10,12-hexaazaisowurtzitane (Liquid); method: gravimetric
Temperature, K	Mole fraction of 2,4,6,8,10,12-hexanitro-2,4,6,8,10,12-hexaazaisowurtzitane	uncertainty
278.15	.0001351	
283.15	.0001506	
288.15	.0001725	
293.15	.0002	
298.15	.0002353	
303.15	.0002711	
308.15	.0003127	
313.15	.0003624	
318.15	.0004314	

System: chloroform + 2,4,6,8,10,12-hexanitro-2,4,6,8,10,12-hexaazaisowurtzitane; phases: Liquid, Crystal
Fixed: Pressure, kPa = 100
Property: Mole fraction of 2,4,6,8,10,12-hexanitro-2,4,6,8,10,12-hexaazaisowurtzitane (Liquid); method: gravimetric
Temperature, K	Mole fraction of 2,4,6,8,10,12-hexanitro-2,4,6,8,10,12-hexaazaisowurtzitane	uncertainty
278.15	.0000435	
283.15	.000049	
288.15	.0000562	
293.15	.0000658	
298.15	.0000745	
303.15	.0000851	
308.15	.0000989	
313.15	.0001141	
318.15	.0001359	

System: m-xylene + 2,4,6,8,10,12-hexanitro-2,4,6,8,10,12-hexaazaisowurtzitane; phases: Liquid, Crystal
Fixed: Pressure, kPa = 100
Property: Mole fraction of 2,4,6,8,10,12-hexanitro-2,4,6,8,10,12-hexaazaisowurtzitane (Liquid); method: gravimetric
Temperature, K	Mole fraction of 2,4,6,8,10,12-hexanitro-2,4,6,8,10,12-hexaazaisowurtzitane	uncertainty
278.15	.0000516	
283.15	.0000645	
288.15	.0000812	
293.15	.0000957	
298.15	.0001201	
303.15	.0001472	
308.15	.0001707	
313.15	.0002057	
318.15	.0002477	

System: toluene + 2,4,6,8,10,12-hexanitro-2,4,6,8,10,12-hexaazaisowurtzitane; phases: Liquid, Crystal
Fixed: Pressure, kPa = 100
Property: Mole fraction of 2,4,6,8,10,12-hexanitro-2,4,6,8,10,12-hexaazaisowurtzitane (Liquid); method: gravimetric
Temperature, K	Mole fraction of 2,4,6,8,10,12-hexanitro-2,4,6,8,10,12-hexaazaisowurtzitane	uncertainty
278.15	.0000977	
283.15	.0001098	
288.15	.0001295	
293.15	.0001475	
298.15	.0001718	
303.15	.0001962	
308.15	.0002288	
313.15	.0002701	
318.15	.0003232	

System: butyl acetate + 2,4,6,8,10,12-hexanitro-2,4,6,8,10,12-hexaazaisowurtzitane; phases: Liquid, Crystal
Fixed: Pressure, kPa = 100
Property: Mole fraction of 2,4,6,8,10,12-hexanitro-2,4,6,8,10,12-hexaazaisowurtzitane (Liquid); method: gravimetric
Temperature, K	Mole fraction of 2,4,6,8,10,12-hexanitro-2,4,6,8,10,12-hexaazaisowurtzitane	uncertainty
278.15	.089404	
283.15	.087055	
288.15	.084838	
293.15	.082588	
298.15	.081104	
303.15	.080141	
308.15	.079224	
313.15	.07874	
318.15	.078332	

System: ethyl acetate + 2,4,6,8,10,12-hexanitro-2,4,6,8,10,12-hexaazaisowurtzitane; phases: Liquid, Crystal
Fixed: Pressure, kPa = 100
Property: Mole fraction of 2,4,6,8,10,12-hexanitro-2,4,6,8,10,12-hexaazaisowurtzitane (Liquid); method: gravimetric
Temperature, K	Mole fraction of 2,4,6,8,10,12-hexanitro-2,4,6,8,10,12-hexaazaisowurtzitane	uncertainty
278.15	.101135	
283.15	.099312	
288.15	.097277	
293.15	.095682	
298.15	.093985	
303.15	.092425	
308.15	.091024	
313.15	.089815	
318.15	.088885	

System: cyclohexane + 2,4,6,8,10,12-hexanitro-2,4,6,8,10,12-hexaazaisowurtzitane; phases: Liquid, Crystal
Fixed: Pressure, kPa = 100
Property: Mole fraction of 2,4,6,8,10,12-hexanitro-2,4,6,8,10,12-hexaazaisowurtzitane (Liquid); method: gravimetric
Temperature, K	Mole fraction of 2,4,6,8,10,12-hexanitro-2,4,6,8,10,12-hexaazaisowurtzitane	uncertainty
283.15	.0000483	
288.15	.000052	
293.15	.0000575	
298.15	.0000629	
303.15	.0000698	
308.15	.0000773	
313.15	.0000887	
318.15	.0001022	

System: triethyl orthoformate + 2,4,6,8,10,12-hexanitro-2,4,6,8,10,12-hexaazaisowurtzitane; phases: Liquid, Crystal
Fixed: Pressure, kPa = 100
Property: Mole fraction of 2,4,6,8,10,12-hexanitro-2,4,6,8,10,12-hexaazaisowurtzitane (Liquid); method: gravimetric
Temperature, K	Mole fraction of 2,4,6,8,10,12-hexanitro-2,4,6,8,10,12-hexaazaisowurtzitane	uncertainty
278.15	.062026	
283.15	.057545	
288.15	.053298	
293.15	.050147	
298.15	.047292	
303.15	.044295	
308.15	.042479	
313.15	.041041	
318.15	.039016	
