Measured thermophysical data. Vapor Liquid Equilibria of n-Heptane + Toluene +1-Ethyl-4-methylpyridinium Bis(trifluoromethylsulfonyl)imide Ionic Liquid
Source: J. Chem. Eng. Data, 2016, 10.1021/acs.jced.5b00650
Compound 1: 4-methyl-N-ethylpyridinium bis-(trifluoromethylsulfonyl)imide, C10H12F6N2O4S2, purity 99.0%
Compound 2: heptane, C7H16
Compound 3: toluene, C7H8

System: heptane + 4-methyl-N-ethylpyridinium bis-(trifluoromethylsulfonyl)imide; phases: Liquid, Gas
Property: Vapor or sublimation pressure, kPa (Liquid); method: chromatography
Mole fraction of heptane	Temperature, K	Vapor or sublimation pressure, kPa	uncertainty
.0047	323.2	2.4	.048
.0099	323.2	5.2	.104
.0169	323.2	10.3	.206
.0419	323.2	18.2	.364
.0794	323.2	18.7	.374
.1138	323.2	18.8	.376
.1339	323.2	18.8	.376
.2375	323.2	18.8	.376
.2735	323.2	18.8	.376
.4831	323.2	18.8	.376
.7952	323.2	18.8	.376
.0014	343.2	1	.02
.0089	343.2	6.4	.128
.0171	343.2	12.4	.248
.0333	343.2	25.4	.508
.0491	343.2	36.4	.728
.0837	343.2	39.1	.782
.1222	343.2	40.4	.808
.1859	343.2	40.4	.808
.249	343.2	40.3	.806
.43	343.2	40.4	.808
.7885	343.2	40.4	.808
.0002	363.2	1	.02
.0061	363.2	6.6	.132
.013	363.2	13.5	.27
.0298	363.2	25.8	.516
.0358	363.2	43.6	.872
.045	363.2	58.8	1.176
.0566	363.2	70.2	1.404
.1272	363.2	76.8	1.536
.2014	363.2	78.2	1.564
.4302	363.2	78.3	1.566
.7768	363.2	78.5	1.57

System: toluene + 4-methyl-N-ethylpyridinium bis-(trifluoromethylsulfonyl)imide; phases: Liquid, Gas
Property: Vapor or sublimation pressure, kPa (Liquid); method: chromatography
Mole fraction of toluene	Temperature, K	Vapor or sublimation pressure, kPa	uncertainty
.0101	323.2	1.2	.024
.0566	323.2	2.8	.056
.107	323.2	5	.1
.2279	323.2	6.8	.136
.3778	323.2	8.8	.176
.4997	323.2	10.5	.21
.6175	323.2	11.7	.234
.7382	323.2	12.2	.244
.8098	323.2	12.2	.244
.9077	323.2	12.2	.244
.9761	323.2	12.2	.244
.0113	343.2	2.4	.048
.0514	343.2	5.9	.118
.0984	343.2	10.5	.21
.2441	343.2	15.6	.312
.3764	343.2	19.3	.386
.4857	343.2	22.7	.454
.6328	343.2	25.2	.504
.735	343.2	26.9	.538
.8083	343.2	27	.54
.9043	343.2	27	.54
.9747	343.2	27.2	.544
.0109	363.2	5.8	.116
.0463	363.2	12	.24
.1009	363.2	18.9	.378
.2438	363.2	31.3	.626
.3753	363.2	38.5	.77
.4799	363.2	46.5	.93
.6459	363.2	52.1	1.042
.7325	363.2	53.2	1.064
.8047	363.2	53.6	1.072
.9089	363.2	54.1	1.082
.9745	363.2	54.3	1.086

System: toluene + 4-methyl-N-ethylpyridinium bis-(trifluoromethylsulfonyl)imide; phases: Gas, Liquid
Property: Vapor or sublimation pressure, kPa (Gas); method: chromatography
Temperature, K	Mole fraction of 4-methyl-N-ethylpyridinium bis-(trifluoromethylsulfonyl)imide	Vapor or sublimation pressure, kPa	uncertainty
323.2	.9547	.6	.012
343.2	.956	1.4	.028
363.2	.9581	2.7	.054

System: toluene + heptane + 4-methyl-N-ethylpyridinium bis-(trifluoromethylsulfonyl)imide; phases: Gas, Liquid
Property: Vapor or sublimation pressure, kPa (Gas); method: chromatography
Temperature, K	Mole fraction of 4-methyl-N-ethylpyridinium bis-(trifluoromethylsulfonyl)imide	Solvent: Mole fraction of heptane	Vapor or sublimation pressure, kPa	uncertainty
323.2	.9701	.2341	4.3	.086
323.2	.9688	.2083	3.9	.078
323.2	.9667	.1592	3.4	.068
323.2	.9664	.1339	2.8	.056
323.2	.9635	.1068	2.5	.05
323.2	.9608	.074	2.1	.042
323.2	.9622	.0476	1.5	.03
323.2	.9558	.0226	1.1	.022
323.2	.9551	.0111	.9	.018
323.2	.9576	.0047	.7	.014
323.2	.9557	.0023	.6	.012
323.2	.9547	0	.6	.012
323.2	.6867	.1471	13.9	.278
323.2	.6875	.0998	12.3	.246
323.2	.6895	.0638	10.2	.204
323.2	.6803	.0297	7.7	.154
323.2	.6747	.0148	6.1	.122
323.2	.682	.006	5	.1
323.2	.6775	.0028	4.7	.094
323.2	.6692	.0006	4.5	.09
323.2	.483	.0352	11.4	.228
323.2	.4832	.0174	9.6	.192
323.2	.4748	.0072	8.5	.17
323.2	.4795	.0035	7.9	.158
323.2	.4714	.0008	7.7	.154
323.2	.3468	.0197	11.4	.228
323.2	.3503	.008	10.4	.208
323.2	.3455	.0038	10.1	.202
323.2	.3428	.0008	9.8	.196
343.2	.9695	.1934	6.3	.126
343.2	.9698	.1788	5.5	.11
343.2	.9681	.1348	4.8	.096
343.2	.9665	.1104	4.2	.084
343.2	.9658	.0877	3.7	.074
343.2	.9636	.0604	3	.06
343.2	.9616	.0391	2.6	.052
343.2	.9573	.0187	2.1	.042
343.2	.9561	.0091	1.7	.034
343.2	.9558	.0045	1.5	.03
343.2	.9559	.0023	1.4	.028
343.2	.956	0	1.4	.028
343.2	.7025	.1146	27.5	.55
343.2	.6947	.078	24.1	.482
343.2	.6858	.0528	20.4	.408
343.2	.6869	.0252	15.2	.304
343.2	.6935	.0124	12.6	.252
343.2	.6629	.0053	12	.24
343.2	.6721	.0021	11.4	.228
343.2	.6753	.0003	11	.22
343.2	.6935	.0124	12.6	.252
343.2	.6629	.0053	12	.24
343.2	.6721	.0021	11.4	.228
343.2	.6753	.0003	11	.22
343.2	.4901	.0308	23.6	.472
343.2	.4962	.0153	21.2	.424
343.2	.4787	.0063	20.2	.404
343.2	.4765	.0031	19.3	.386
343.2	.4775	.0006	18.9	.378
343.2	.3536	.0179	25.8	.516
343.2	.3335	.0077	24.7	.494
343.2	.3518	.0035	24.2	.484
343.2	.3476	.0008	23.8	.476
363.2	.9723	.1986	7.3	.146
363.2	.9703	.1785	6.8	.136
363.2	.9678	.1398	6.2	.124
363.2	.9689	.1093	5.3	.106
363.2	.9674	.089	4.7	.094
363.2	.9655	.0609	4.2	.084
363.2	.9625	.04	3.8	.076
363.2	.9607	.0178	3.3	.066
363.2	.9588	.0097	3	.06
363.2	.9597	.005	2.7	.054
363.2	.9581	.0024	2.7	.054
363.2	.9581	0	2.7	.054
363.2	.7087	.0949	49.7	.994
363.2	.6673	.0703	44.5	.89
363.2	.6896	.047	34.2	.684
363.2	.6857	.0232	27.6	.552
363.2	.6846	.0117	24.5	.49
363.2	.6835	.0047	23.1	.462
363.2	.685	.0022	22	.44
363.2	.6849	.0003	21.9	.438
363.2	.4937	.0277	45.6	.912
363.2	.4884	.0141	42.5	.85
363.2	.4961	.0058	39.2	.784
363.2	.4879	.0027	38.8	.776
363.2	.4877	.0006	38.5	.77
363.2	.3684	.0163	50.2	1.004
363.2	.3621	.0069	47.6	.952
363.2	.3552	.0033	46.6	.932
363.2	.355	.0006	46.3	.926

System: toluene + heptane + 4-methyl-N-ethylpyridinium bis-(trifluoromethylsulfonyl)imide; phases: Gas, Liquid
Property: Mole fraction of heptane (Gas); method: Chromatography
Temperature, K	Mole fraction of 4-methyl-N-ethylpyridinium bis-(trifluoromethylsulfonyl)imide	Solvent: Mole fraction of heptane	Mole fraction of heptane	uncertainty
323.2	.9701	.2341	.9184	.001
323.2	.9688	.2083	.9032	.001
323.2	.9667	.1592	.8741	.001
323.2	.9664	.1339	.8463	.001
323.2	.9635	.1068	.8103	.001
323.2	.9608	.074	.7433	.001
323.2	.9622	.0476	.6489	.001
323.2	.9558	.0226	.4704	.001
323.2	.9551	.0111	.3035	.001
323.2	.9576	.0047	.1546	.001
323.2	.9557	.0023	.0842	.001
323.2	.9547	0	.018	.001
323.2	.6867	.1471	.7672	.001
323.2	.6875	.0998	.7179	.001
323.2	.6895	.0638	.6227	.001
323.2	.6803	.0297	.4268	.001
323.2	.6747	.0148	.2703	.001
323.2	.682	.006	.1348	.001
323.2	.6775	.0028	.068	.001
323.2	.6692	.0006	.0149	.001
323.2	.483	.0352	.3524	.001
323.2	.4832	.0174	.2227	.001
323.2	.4748	.0072	.1058	.001
323.2	.4795	.0035	.0536	.001
323.2	.4714	.0008	.0115	.001
323.2	.3468	.0197	.1592	.001
323.2	.3503	.008	.0794	.001
323.2	.3455	.0038	.0389	.001
323.2	.3428	.0008	.0083	.001
343.2	.9695	.1934	.8718	.001
343.2	.9698	.1788	.8529	.001
343.2	.9681	.1348	.8124	.001
343.2	.9665	.1104	.7723	.001
343.2	.9658	.0877	.724	.001
343.2	.9636	.0604	.6427	.001
343.2	.9616	.0391	.5403	.001
343.2	.9573	.0187	.3482	.001
343.2	.9561	.0091	.2126	.001
343.2	.9558	.0045	.0994	.001
343.2	.9559	.0023	.0496	.001
343.2	.956	0	.0102	.001
343.2	.7025	.1146	.7271	.001
343.2	.6947	.078	.6463	.001
343.2	.6858	.0528	.5136	.001
343.2	.6869	.0252	.3281	.001
343.2	.6935	.0124	.1981	.001
343.2	.6629	.0053	.0904	.001
343.2	.6721	.0021	.0515	.001
343.2	.6753	.0003	.0109	.001
343.2	.6935	.0124	.1981	.001
343.2	.6629	.0053	.0904	.001
343.2	.6721	.0021	.0515	.001
343.2	.6753	.0003	.0109	.001
343.2	.4901	.0308	.2914	.001
343.2	.4962	.0153	.168	.001
343.2	.4787	.0063	.0753	.001
343.2	.4765	.0031	.0376	.001
343.2	.4775	.0006	.008	.001
343.2	.3536	.0179	.1351	.001
343.2	.3335	.0077	.0586	.001
343.2	.3518	.0035	.0294	.001
343.2	.3476	.0008	.0063	.001
363.2	.9723	.1986	.8096	.001
363.2	.9703	.1785	.7823	.001
363.2	.9678	.1398	.7182	.001
363.2	.9689	.1093	.6711	.001
363.2	.9674	.089	.6151	.001
363.2	.9655	.0609	.5208	.001
363.2	.9625	.04	.4141	.001
363.2	.9607	.0178	.2453	.001
363.2	.9588	.0097	.1401	.001
363.2	.9597	.005	.0636	.001
363.2	.9581	.0024	.0305	.001
363.2	.9581	0	.0062	.001
363.2	.7087	.0949	.6071	.001
363.2	.6673	.0703	.5197	.001
363.2	.6896	.047	.4058	.001
363.2	.6857	.0232	.2355	.001
363.2	.6846	.0117	.1335	.001
363.2	.6835	.0047	.0586	.001
363.2	.685	.0022	.0294	.001
363.2	.6849	.0003	.0063	.001
363.2	.4937	.0277	.2192	.001
363.2	.4884	.0141	.1192	.001
363.2	.4961	.0058	.0532	.001
363.2	.4879	.0027	.0261	.001
363.2	.4877	.0006	.0054	.001
363.2	.3684	.0163	.107	.001
363.2	.3621	.0069	.0465	.001
363.2	.3552	.0033	.0225	.001
363.2	.355	.0006	.0047	.001
