Measured thermophysical data. Liquid Liquid Equilibria in Aqueous 1-Alkyl-3-methylimidazolium- and 1-Butyl-3-ethylimidazolium-Based Ionic Liquids
Source: J. Chem. Eng. Data, 2016, 10.1021/acs.jced.5b00697
Compound 1: dipotassium phosphate (K2HPO4), HK2O4P, purity 99%
Compound 2: tripotassium phosphate, K3O4P, purity 99%
Compound 3: 1-butyl-3-methylimidazolium dicyanamide, C10H15N5, purity 98%
Compound 4: 1-butyl-3-methylimidazolium trifluoromethanesulfonate, C9H15F3N2O3S, purity 99%
Compound 5: 1-butyl-3-methylimidazolium chloride, C8H15ClN2, purity 99%
Compound 6: 1-butyl-3-methylimidazolium salicylate, C15H20N2O3, purity 96%
Compound 7: 1-butyl-3-ethylimidazolium bromide, C9H17BrN2, purity 96%
Compound 8: 1-hexyl-3-methylimidazolium chloride, C10H19ClN2, purity 98%
Compound 9: water, H2O, purity 99.9%

System: water + tripotassium phosphate + 1-butyl-3-methylimidazolium salicylate; phases: Liquid mixture 1, Liquid mixture 2
Fixed: Pressure, kPa = 100
Fixed: Temperature, K = 296
Property: Mass fraction of tripotassium phosphate (Liquid mixture 1); method: Titration method
Mass fraction of 1-butyl-3-methylimidazolium salicylate	Mass fraction of tripotassium phosphate	uncertainty
.5679	.0171	.01
.4316	.0405	.01
.3897	.0488	.01
.3112	.0693	.01
.2647	.0797	.01
.2241	.0931	.01
.2052	.0979	.01
.1841	.1059	.01
.171	.1079	.01
.1582	.1126	.01
.1445	.1214	.01
.1405	.1221	.01
.137	.1235	.01
.1267	.1273	.01
.1179	.1295	.01
.1085	.1333	.01
.1042	.1346	.01
.0997	.1365	.01
.0945	.1382	.01
.0903	.1408	.01
.086	.1424	.01
.0813	.1449	.01
.079	.146	.01
.0759	.147	.01
.073	.1486	.01
.069	.1511	.01
.0647	.1532	.01
.0598	.1559	.01
.0537	.1608	.01

System: water + tripotassium phosphate + 1-butyl-3-methylimidazolium salicylate; phases: Liquid mixture 1, Liquid mixture 2
Fixed: Temperature, K = 296
Fixed: Pressure, kPa = 100
Property: Mass fraction of tripotassium phosphate (Liquid mixture 1); method: Other
Property: Mass fraction of 1-butyl-3-methylimidazolium salicylate (Liquid mixture 2); method: Other
Property: Mass fraction of tripotassium phosphate (Liquid mixture 2); method: Other
Mass fraction of 1-butyl-3-methylimidazolium salicylate	Mass fraction of tripotassium phosphate	uncertainty	Mass fraction of 1-butyl-3-methylimidazolium salicylate	uncertainty	Mass fraction of tripotassium phosphate	uncertainty
.5673	.0175	.01	.0111	.01	.2055	.01
.4981	.0273	.01	.0212	.01	.1891	.01
.4307	.0408	.01	.0332	.01	.1748	.01

System: water + dipotassium phosphate (K2HPO4) + 1-butyl-3-methylimidazolium salicylate; phases: Liquid mixture 1, Liquid mixture 2
Fixed: Pressure, kPa = 100
Fixed: Temperature, K = 296
Property: Mass fraction of dipotassium phosphate (K2HPO4) (Liquid mixture 1); method: Titration method
Mass fraction of 1-butyl-3-methylimidazolium salicylate	Mass fraction of dipotassium phosphate (K2HPO4)	uncertainty
.5926	.0056	.01
.4656	.0224	.01
.4489	.0264	.01
.432	.0283	.01
.4142	.034	.01
.3964	.0377	.01
.3728	.0448	.01
.3539	.05	.01
.3398	.0553	.01
.3171	.0615	.01
.305	.0654	.01
.2937	.0692	.01
.2669	.0795	.01
.2585	.0821	.01
.247	.0861	.01
.2331	.0949	.01
.2236	.0955	.01
.2158	.0982	.01
.208	.1013	.01
.1954	.1065	.01
.1863	.1101	.01
.1716	.116	.01
.1569	.1221	.01
.1386	.1297	.01
.1285	.1344	.01
.1197	.1384	.01
.109	.1436	.01
.0985	.1494	.01
.0897	.1538	.01
.0794	.1615	.01
.0676	.1692	.01

System: water + dipotassium phosphate (K2HPO4) + 1-butyl-3-methylimidazolium salicylate; phases: Liquid mixture 2, Liquid mixture 1
Fixed: Temperature, K = 296
Fixed: Pressure, kPa = 100
Property: Mass fraction of dipotassium phosphate (K2HPO4) (Liquid mixture 2); method: Other
Property: Mass fraction of 1-butyl-3-methylimidazolium salicylate (Liquid mixture 1); method: Other
Property: Mass fraction of dipotassium phosphate (K2HPO4) (Liquid mixture 1); method: Other
Mass fraction of 1-butyl-3-methylimidazolium salicylate	Mass fraction of dipotassium phosphate (K2HPO4)	uncertainty	Mass fraction of 1-butyl-3-methylimidazolium salicylate	uncertainty	Mass fraction of dipotassium phosphate (K2HPO4)	uncertainty
.0111	.2253	.01	.4981	.01	.0171	.01
.0269	.2011	.01	.4452	.01	.0261	.01
.0639	.1695	.01	.3288	.01	.0584	.01

System: water + tripotassium phosphate + 1-butyl-3-ethylimidazolium bromide; phases: Liquid mixture 1, Liquid mixture 2
Fixed: Pressure, kPa = 100
Fixed: Temperature, K = 296
Property: Mass fraction of tripotassium phosphate (Liquid mixture 1); method: Titration method
Mass fraction of 1-butyl-3-ethylimidazolium bromide	Mass fraction of tripotassium phosphate	uncertainty
.5202	.0205	.01
.4706	.0374	.01
.4028	.0478	.01
.3715	.0594	.01
.3377	.0683	.01
.3096	.0757	.01
.2829	.0934	.01
.2577	.1068	.01
.2365	.1175	.01
.2209	.1228	.01
.2054	.1314	.01
.1899	.1429	.01
.1803	.1485	.01
.1707	.1548	.01
.1621	.1604	.01
.1534	.1649	.01
.1465	.17	.01
.1407	.1736	.01
.1296	.1821	.01
.1231	.187	.01
.117	.1921	.01
.1128	.1944	.01
.1078	.1981	.01
.103	.2024	.01
.0988	.2058	.01

System: water + tripotassium phosphate + 1-butyl-3-ethylimidazolium bromide; phases: Liquid mixture 2, Liquid mixture 1
Fixed: Temperature, K = 296
Fixed: Pressure, kPa = 100
Property: Mass fraction of tripotassium phosphate (Liquid mixture 2); method: Other
Property: Mass fraction of 1-butyl-3-ethylimidazolium bromide (Liquid mixture 1); method: Other
Property: Mass fraction of tripotassium phosphate (Liquid mixture 1); method: Other
Mass fraction of 1-butyl-3-ethylimidazolium bromide	Mass fraction of tripotassium phosphate	uncertainty	Mass fraction of 1-butyl-3-ethylimidazolium bromide	uncertainty	Mass fraction of tripotassium phosphate	uncertainty
.1276	.1831	.01	.3381	.01	.0697	.01
.0743	.2318	.01	.4305	.01	.0408	.01

System: water + dipotassium phosphate (K2HPO4) + 1-butyl-3-ethylimidazolium bromide; phases: Liquid mixture 1, Liquid mixture 2
Fixed: Pressure, kPa = 100
Fixed: Temperature, K = 296
Property: Mass fraction of dipotassium phosphate (K2HPO4) (Liquid mixture 1); method: Titration method
Mass fraction of 1-butyl-3-ethylimidazolium bromide	Mass fraction of dipotassium phosphate (K2HPO4)	uncertainty
.5174	.0245	.01
.4787	.0385	.01
.4307	.0392	.01
.3677	.0655	.01
.3291	.0738	.01
.2889	.0954	.01
.2564	.1142	.01
.2429	.126	.01
.2203	.1376	.01
.2135	.1433	.01
.1933	.1579	.01
.1775	.1681	.01
.1607	.1827	.01
.1491	.1904	.01
.1373	.201	.01
.1286	.2065	.01
.1174	.2169	.01
.1135	.2206	.01
.1065	.2272	.01
.1017	.2315	.01
.096	.2367	.01
.0907	.242	.01

System: water + dipotassium phosphate (K2HPO4) + 1-butyl-3-ethylimidazolium bromide; phases: Liquid mixture 2, Liquid mixture 1
Fixed: Temperature, K = 296
Fixed: Pressure, kPa = 100
Property: Mass fraction of dipotassium phosphate (K2HPO4) (Liquid mixture 2); method: Other
Property: Mass fraction of 1-butyl-3-ethylimidazolium bromide (Liquid mixture 1); method: Other
Property: Mass fraction of dipotassium phosphate (K2HPO4) (Liquid mixture 1); method: Other
Mass fraction of 1-butyl-3-ethylimidazolium bromide	Mass fraction of dipotassium phosphate (K2HPO4)	uncertainty	Mass fraction of 1-butyl-3-ethylimidazolium bromide	uncertainty	Mass fraction of dipotassium phosphate (K2HPO4)	uncertainty
.1051	.2289	.01	.3643	.01	.0646	.01
.0757	.2644	.01	.4226	.01	.0449	.01

System: water + dipotassium phosphate (K2HPO4) + 1-butyl-3-methylimidazolium trifluoromethanesulfonate; phases: Liquid mixture 1, Liquid mixture 2
Fixed: Pressure, kPa = 100
Fixed: Temperature, K = 296
Property: Mass fraction of dipotassium phosphate (K2HPO4) (Liquid mixture 1); method: Titration method
Mass fraction of 1-butyl-3-methylimidazolium trifluoromethanesulfonate	Mass fraction of dipotassium phosphate (K2HPO4)	uncertainty
.5546	.0211	.01
.4903	.0249	.01
.4401	.0279	.01
.3881	.0344	.01
.3357	.0423	.01
.2885	.0474	.01
.2321	.0591	.01
.2237	.0626	.01
.2162	.0633	.01
.2108	.0643	.01
.2073	.0659	.01
.1928	.0772	.01
.1984	.0818	.01
.1931	.0821	.01
.1879	.0844	.01
.1823	.0853	.01
.1795	.0864	.01
.1421	.1007	.01
.139	.1022	.01
.1343	.1048	.01
.1301	.1064	.01
.1514	.1171	.01
.1142	.1687	.01
.0823	.1977	.01
.0692	.2308	.01

System: water + dipotassium phosphate (K2HPO4) + 1-butyl-3-methylimidazolium trifluoromethanesulfonate; phases: Liquid mixture 1, Liquid mixture 2
Fixed: Temperature, K = 296
Fixed: Pressure, kPa = 100
Property: Mass fraction of dipotassium phosphate (K2HPO4) (Liquid mixture 1); method: Other
Property: Mass fraction of 1-butyl-3-methylimidazolium trifluoromethanesulfonate (Liquid mixture 2); method: Other
Property: Mass fraction of dipotassium phosphate (K2HPO4) (Liquid mixture 2); method: Other
Mass fraction of 1-butyl-3-methylimidazolium trifluoromethanesulfonate	Mass fraction of dipotassium phosphate (K2HPO4)	uncertainty	Mass fraction of 1-butyl-3-methylimidazolium trifluoromethanesulfonate	uncertainty	Mass fraction of dipotassium phosphate (K2HPO4)	uncertainty
.4996	.0238	.01	.0842	.01	.1856	.01

System: water + dipotassium phosphate (K2HPO4) + 1-butyl-3-methylimidazolium dicyanamide; phases: Liquid mixture 2, Liquid mixture 1
Fixed: Temperature, K = 296
Fixed: Pressure, kPa = 100
Property: Mass fraction of dipotassium phosphate (K2HPO4) (Liquid mixture 2); method: Other
Property: Mass fraction of 1-butyl-3-methylimidazolium dicyanamide (Liquid mixture 1); method: Other
Property: Mass fraction of dipotassium phosphate (K2HPO4) (Liquid mixture 1); method: Other
Mass fraction of 1-butyl-3-methylimidazolium dicyanamide	Mass fraction of dipotassium phosphate (K2HPO4)	uncertainty	Mass fraction of 1-butyl-3-methylimidazolium dicyanamide	uncertainty	Mass fraction of dipotassium phosphate (K2HPO4)	uncertainty
.0772	.166	.01	.4394	.01	.0241	.01

System: water + dipotassium phosphate (K2HPO4) + 1-butyl-3-methylimidazolium dicyanamide; phases: Liquid mixture 1, Liquid mixture 2
Fixed: Pressure, kPa = 100
Fixed: Temperature, K = 296
Property: Mass fraction of dipotassium phosphate (K2HPO4) (Liquid mixture 1); method: Titration method
Mass fraction of 1-butyl-3-methylimidazolium dicyanamide	Mass fraction of dipotassium phosphate (K2HPO4)	uncertainty
.5879	.0066	.01
.5226	.0118	.01
.4828	.0164	.01
.407	.0325	.01
.3408	.0507	.01
.291	.0685	.01
.2405	.0775	.01
.2201	.0873	.01
.1987	.0976	.01
.1802	.1068	.01
.1598	.1168	.01
.1503	.122	.01
.142	.1263	.01
.1319	.1326	.01
.1231	.1377	.01
.1125	.1443	.01
.106	.1492	.01
.1006	.1527	.01
.0948	.1571	.01
.0898	.1615	.01
.0718	.1701	.01

System: water + tripotassium phosphate + 1-butyl-3-methylimidazolium dicyanamide; phases: Liquid mixture 2, Liquid mixture 1
Fixed: Temperature, K = 296
Fixed: Pressure, kPa = 100
Property: Mass fraction of tripotassium phosphate (Liquid mixture 2); method: Other
Property: Mass fraction of 1-butyl-3-methylimidazolium dicyanamide (Liquid mixture 1); method: Other
Property: Mass fraction of tripotassium phosphate (Liquid mixture 1); method: Other
Mass fraction of 1-butyl-3-methylimidazolium dicyanamide	Mass fraction of tripotassium phosphate	uncertainty	Mass fraction of 1-butyl-3-methylimidazolium dicyanamide	uncertainty	Mass fraction of tripotassium phosphate	uncertainty
.039	.1938	.01	.5684	.01	.0097	.01

System: water + tripotassium phosphate + 1-butyl-3-methylimidazolium dicyanamide; phases: Liquid mixture 1, Liquid mixture 2
Fixed: Pressure, kPa = 100
Fixed: Temperature, K = 296
Property: Mass fraction of tripotassium phosphate (Liquid mixture 1); method: Titration method
Mass fraction of 1-butyl-3-methylimidazolium dicyanamide	Mass fraction of tripotassium phosphate	uncertainty
.2848	.068	.01
.2624	.0764	.01
.2434	.0813	.01
.2233	.0917	.01
.2095	.0942	.01
.1935	.1007	.01
.183	.1051	.01
.1742	.1083	.01
.1656	.1123	.01
.1545	.1178	.01
.15	.1196	.01
.1426	.1239	.01
.1347	.1279	.01
.1262	.1327	.01
.12	.1363	.01
.1152	.1391	.01
.1115	.1412	.01
.1061	.1451	.01
.0993	.1498	.01
.0954	.1527	.01
.0921	.1551	.01
.0843	.1615	.01
.0805	.1649	.01
.0409	.1926	.01

System: water + dipotassium phosphate (K2HPO4) + 1-butyl-3-methylimidazolium chloride; phases: Liquid mixture 1, Liquid mixture 2
Fixed: Pressure, kPa = 100
Fixed: Temperature, K = 296
Property: Mass fraction of dipotassium phosphate (K2HPO4) (Liquid mixture 1); method: Titration method
Mass fraction of 1-butyl-3-methylimidazolium chloride	Mass fraction of dipotassium phosphate (K2HPO4)	uncertainty
.4192	.0408	.01
.3938	.0464	.01
.3837	.0563	.01
.372	.0623	.01
.3037	.097	.01
.2895	.1067	.01
.2743	.1187	.01
.2617	.1291	.01
.2418	.1375	.01
.2243	.1535	.01
.2182	.169	.01
.197	.1857	.01
.1776	.2008	.01
.1657	.2137	.01
.1497	.2316	.01
.143	.2393	.01
.1382	.2419	.01
.1332	.2447	.01
.1298	.2501	.01
.127	.2549	.01

System: water + dipotassium phosphate (K2HPO4) + 1-hexyl-3-methylimidazolium chloride; phases: Liquid mixture 1, Liquid mixture 2
Fixed: Pressure, kPa = 100
Fixed: Temperature, K = 296
Property: Mass fraction of dipotassium phosphate (K2HPO4) (Liquid mixture 1); method: Titration method
Mass fraction of 1-hexyl-3-methylimidazolium chloride	Mass fraction of dipotassium phosphate (K2HPO4)	uncertainty
.6903	.0055	.01
.5333	.0191	.01
.4736	.0315	.01
.4334	.04	.01
.4085	.0484	.01
.3836	.0565	.01
.3593	.0664	.01
.3324	.079	.01
.3138	.0876	.01
.2872	.103	.01
.271	.1124	.01
.2535	.1232	.01
.2351	.1355	.01
.2157	.1495	.01
.1987	.1613	.01
.1859	.172	.01
.175	.1808	.01
.1653	.189	.01
.1553	.1979	.01
