Measured thermophysical data. Measurement and Correlation of Saturated Vapor Pressure of Ethylphenyldimethoxysilane and Ethylphenyldiethoxysilane
Source: J. Chem. Eng. Data, 2015, 10.1021/acs.jced.5b00255
Compound 1: ethyl-dimethoxy-phenylsilane, C10H16O2Si
Compound 2: diethoxy-ethyl-phenylsilane, C12H20O2Si

System: ethyl-dimethoxy-phenylsilane; phases: Liquid, Gas
Property: Boiling temperature at pressure P, K (Liquid); method: Distillation
Pressure, kPa	Boiling temperature at pressure P, K	uncertainty
.23	332.25	.199999999999989

System: ethyl-dimethoxy-phenylsilane; phases: Liquid, Gas
Property: Vapor or sublimation pressure, kPa (Liquid); method: Ebulliometric method (Recirculating still)
Temperature, K	Vapor or sublimation pressure, kPa	uncertainty
373.53	2.035	.0407
382.1	3.035	.0607
388.41	4.035	.0807
393.45	5.035	.1007
397.78	6.035	.1207
401.6	7.035	.1407
407.85	9.035	.1807
413.14	11.035	.2207
417.63	13.035	.2607
423.35	16.035	.3207
428.51	19.035	.3807
432.86	22.035	.4407
436.68	25.035	.5007
439.99	28.035	.5607
442.88	31.035	.6207
449.11	37.035	.7407
451.67	40.035	.8007
454.2	43.035	.8607
456.35	46.035	.9207
458.8	49.035	.9807
460.83	52.035	1.0407
462.89	55.035	1.1007
465	58.035	1.1607
466.79	61.035	1.2207

System: diethoxy-ethyl-phenylsilane; phases: Liquid, Gas
Property: Boiling temperature at pressure P, K (Liquid); method: Distillation
Pressure, kPa	Boiling temperature at pressure P, K	uncertainty
.23	357.15	.199999999999989

System: diethoxy-ethyl-phenylsilane; phases: Liquid, Gas
Property: Vapor or sublimation pressure, kPa (Liquid); method: Ebulliometric method (Recirculating still)
Temperature, K	Vapor or sublimation pressure, kPa	uncertainty
400.94	3	.06
408.11	4	.08
413.43	5	.1
444.87	16	.32
450.61	19	.38
455.77	22	.44
459.73	25	.5
463.28	28	.56
466.73	31	.62
479.98	46	.92
482.71	49	.98
485.65	52	1.04
487.6	55	1.1
489.67	58	1.16
491.55	61	1.22
493.36	64	1.28
