Measured thermophysical data. Effect of Temperature and Water Concentration on CO2 Absorption by Tetrabutylphosphonium Formate Ionic Liquid
Source: J. Chem. Eng. Data, 2016, 10.1021/acs.jced.5b00694
Compound 1: tetrabutylphosphonium formate, C17H37O2P
Compound 2: water, H2O, purity 99.8%
Compound 3: carbon dioxide, CO2, purity 99%

System: water; phases: Liquid
Property: Mass density, kg/m3 (Liquid); method: Vibrating tube method
Pressure, kPa	Temperature, K	Mass density, kg/m3	uncertainty
100	298.15	996.8	.1

System: water; phases: Liquid
Property: Viscosity, Pa*s (Liquid); method: Cone and plate viscometry
Pressure, kPa	Temperature, K	Viscosity, Pa*s	uncertainty
101	297.85	.0009	.000009

System: water + tetrabutylphosphonium formate; phases: Liquid
Fixed: Pressure, kPa = 101
Fixed: Temperature, K = 298.15
Property: Mass density, kg/m3 (Liquid); method: Vibrating tube method
Mole fraction of water	Mass density, kg/m3	uncertainty
.25	944	.3
.32	945.2	.3
.5	948	.3
.6	950.4	.3
.74	955.5	.3
.8	959.2	.3
.91	974.1	.3
1	996.8	.3

System: water + tetrabutylphosphonium formate; phases: Liquid
Fixed: Pressure, kPa = 101
Fixed: Temperature, K = 297.85
Property: Viscosity, Pa*s (Liquid); method: Cone and plate viscometry
Mole fraction of water	Viscosity, Pa*s	uncertainty
.25	.356	.0178
.5	.146	.0073
.6	.097	.00485
.74	.048	.0024
.8	.0353	.001765
.91	.0144	.00072
1	.0009	.000045

System: carbon dioxide + water + tetrabutylphosphonium formate; phases: Liquid, Gas
Fixed: Partial pressure, kPa of carbon dioxide = 100
Property: Mass ratio of solute to solvent of carbon dioxide (Liquid); method: volumetric
Temperature, K	Amount ratio of solute to solvent of water	Mass ratio of solute to solvent of carbon dioxide	uncertainty
248.75	1.9	1	.04
255.65	1.9	.86	.04
259.25	1.9	.83	.04
262.95	1.9	.79	.04
264.25	1.9	.76	.04
267.05	1.9	.75	.04
270.55	1.9	.7	.04
274.65	6	.17	.006
278.15	.4	.43	.02
278.65	.6	.6	.02
278.65	1.01	.68	.02
278.65	2.77	.4	.02
278.65	3.77	.27	.006
278.65	9.8	.07	.006
279.65	.48	.53	.02
279.65	1.9	.58	.02
279.65	6	.14	.006
283.15	.4	.42	.02
283.65	.6	.57	.02
283.65	1.01	.64	.02
283.65	2.28	.44	.02
283.65	2.77	.36	.02
283.65	3.77	.23	.006
283.65	9.8	.06	.006
284.65	1.9	.53	.02
284.65	.48	.51	.02
284.65	6	.12	.006
288.15	.4	.4	.02
288.65	1.01	.59	.02
288.65	2.28	.39	.02
288.65	2.77	.31	.02
288.65	3.77	.2	.006
288.65	.6	.53	.02
288.65	9.8	.05	.006
289.65	1.9	.48	.02
289.65	.48	.48	.02
289.65	6	.1	.006
293.65	2.28	.35	.02
293.65	2.77	.27	.02
293.65	3.77	.17	.006
293.65	1.01	.54	.02
293.65	.6	.5	.02
293.65	9.8	.04	.006
294.65	.48	.45	.02
294.65	1.9	.41	.02
294.65	6	.08	.006
298.15	.4	.38	.02
298.65	2.28	.3	.02
298.65	2.77	.23	.02
298.65	3.77	.14	.006
298.65	1.01	.49	.02
298.65	9.8	.04	.006
298.65	.6	.45	.02
299.65	1.9	.36	.02
299.65	.48	.42	.02
299.65	6	.07	.006
303.65	2.77	.2	.02
303.65	3.77	.11	.006
303.65	2.28	.26	.02
303.65	1.01	.44	.02
303.65	9.8	.03	.006
303.65	.6	.41	.02
304.65	6	.06	.006
304.65	.48	.4	.02
308.15	.4	.31	.02
308.65	3.77	.09	.006
308.65	.6	.36	.02
308.65	2.77	.17	.02
308.65	1.01	.38	.02
308.65	9.8	.02	.006
308.65	2.28	.22	.02
309.65	.48	.35	.02
309.65	6	.05	.006
313.15	.4	.28	.02
313.65	.6	.32	.02
313.65	3.77	.07	.006
313.65	2.28	.19	.02
313.65	1.01	.33	.02
313.65	2.77	.14	.02
313.65	9.8	.02	.006
314.65	6	.05	.006
314.65	.48	.31	.02
318.15	.4	.27	.02
318.65	2.28	.16	.04
318.65	3.77	.06	.012
318.65	2.77	.11	.04
318.65	9.8	.01	.012
318.65	.6	.27	.04
318.65	1.01	.29	.04
319.65	6	.04	.012
319.65	.48	.28	.04
323.15	.4	.24	.04
323.65	1.01	.24	.04
323.65	.6	.22	.04
324.65	.48	.25	.04
324.65	6	.04	.012
333.15	.4	.18	.04
