Measured thermophysical data. Determination of Vapor Liquid Equilibrium of Methyl Acetate + Methanol + 1-Alkyl-3-methylimidazolium Dialkylphosphates at 101.3 kPa
Source: J. Chem. Eng. Data, 2017, 10.1021/acs.jced.6b00852
Compound 1: methyl acetate, C3H6O2, purity 98%
Compound 2: methanol, CH4O, purity 99.9%
Compound 3: 1,3-dimethylimidazolium dimethylphosphate, C7H15N2O4P, purity 97%
Compound 4: 1-ethyl-3-methylimidazolium diethylphosphate, C10H21N2O4P, purity 96%
Compound 5: 1-butyl-3-methylimidazolium dibutyl phosphate, C16H33N2O4P, purity 93%

System: methanol + methyl acetate; phases: Liquid, Gas
Fixed: Pressure, kPa = 101.3
Property: Boiling temperature at pressure P, K (Liquid); method: Ebulliometric method (Recirculating still)
Mole fraction of methyl acetate	Boiling temperature at pressure P, K	uncertainty
.06	334.65	
.106	333.2	
.152	331.85	
.192	330.8	
.231	330.1	
.273	329.3	
.306	328.89	
.347	328.44	
.375	328.08	
.417	327.83	
.455	327.48	
.491	327.13	
.529	326.98	
.563	326.94	
.602	326.78	
.643	326.69	
.676	326.64	
.716	326.68	
.755	326.84	
.794	327.08	
.838	327.39	
.881	327.88	
.924	328.38	

System: methanol + methyl acetate; phases: Gas, Liquid
Property: Mole fraction of methyl acetate (Gas); method: Chromatography
Temperature, K	Mole fraction of methyl acetate	Mole fraction of methyl acetate	uncertainty
334.65	.06	.157	
333.2	.106	.237	
331.85	.152	.308	
330.8	.192	.361	
330.1	.231	.398	
329.3	.273	.438	
328.89	.306	.457	
328.44	.347	.485	
328.08	.375	.512	
327.83	.417	.532	
327.48	.455	.554	
327.13	.491	.573	
326.98	.529	.592	
326.94	.563	.612	
326.78	.602	.631	
326.69	.643	.653	
326.64	.676	.673	
326.68	.716	.692	
326.84	.755	.717	
327.08	.794	.746	
327.39	.838	.778	
327.88	.881	.821	
328.38	.924	.868	

System: methyl acetate + 1,3-dimethylimidazolium dimethylphosphate; phases: Liquid, Gas
Fixed: Pressure, kPa = 101.3
Property: Boiling temperature at pressure P, K (Liquid); method: Ebulliometric method (Recirculating still)
Mole fraction of 1,3-dimethylimidazolium dimethylphosphate	Boiling temperature at pressure P, K	uncertainty
.021	329.95	
.048	330.05	
.062	330.05	
.076	330.1	
.09	330.1	
.104	330.15	
.118	330.15	
.132	330.15	
.146	330.15	
.16	330.2	
.174	330.2	
.188	330.25	
.202	330.3	
.216	330.35	
.23	330.45	
.251	330.6	

System: methanol + 1,3-dimethylimidazolium dimethylphosphate; phases: Liquid, Gas
Fixed: Pressure, kPa = 101.3
Property: Boiling temperature at pressure P, K (Liquid); method: Ebulliometric method (Recirculating still)
Mole fraction of 1,3-dimethylimidazolium dimethylphosphate	Boiling temperature at pressure P, K	uncertainty
.254	370.21	
.228	365.29	
.22	363.82	
.213	362.51	
.207	361.51	
.195	359.5	
.186	358.05	
.175	356.19	
.171	355.49	
.158	353.65	
.135	350.39	
.13	349.66	
.127	349.37	
.121	348.6	
.11	347.12	
.103	346.26	
.095	345.36	
.086	344.37	
.082	343.97	
.077	343.41	
.071	342.63	
.064	341.98	
.06	341.61	
.056	341.16	

System: methyl acetate + 1-ethyl-3-methylimidazolium diethylphosphate; phases: Liquid, Gas
Fixed: Pressure, kPa = 101.3
Property: Boiling temperature at pressure P, K (Liquid); method: Ebulliometric method (Recirculating still)
Mole fraction of 1-ethyl-3-methylimidazolium diethylphosphate	Boiling temperature at pressure P, K	uncertainty
.313	329.97	
.308	330.03	
.266	330.18	
.235	330.24	
.229	330.34	
.207	330.39	
.202	330.31	
.175	330.39	
.155	330.52	
.133	330.57	
.126	330.79	
.124	330.79	
.114	330.88	
.106	331.05	
.103	331.24	
.089	331.41	
.077	331.66	

System: methanol + 1-ethyl-3-methylimidazolium diethylphosphate; phases: Liquid, Gas
Fixed: Pressure, kPa = 101.3
Property: Boiling temperature at pressure P, K (Liquid); method: Ebulliometric method (Recirculating still)
Mole fraction of 1-ethyl-3-methylimidazolium diethylphosphate	Boiling temperature at pressure P, K	uncertainty
.256	372.49	
.247	370.58	
.239	369.01	
.231	367.53	
.209	363.34	
.189	359.85	
.181	358.59	
.174	357.36	
.162	355.5	
.15	353.65	
.143	352.46	
.142	352.27	
.131	350.79	
.124	349.66	
.116	348.6	
.113	348.25	
.112	348.13	
.105	347.2	
.103	346.85	
.083	344.34	
.073	343.06	
.073	343.03	
.064	342.13	
.061	341.71	
.056	341.17	
.055	341.1	
.053	340.83	
.045	340.13	
.038	339.28	
.029	338.42	

System: methyl acetate + 1-butyl-3-methylimidazolium dibutyl phosphate; phases: Liquid, Gas
Fixed: Pressure, kPa = 101.3
Property: Boiling temperature at pressure P, K (Liquid); method: Ebulliometric method (Recirculating still)
Mole fraction of 1-butyl-3-methylimidazolium dibutyl phosphate	Boiling temperature at pressure P, K	uncertainty
.305	333.55	
.291	333.15	
.267	332.55	
.257	332.3	
.241	332	
.238	331.9	
.208	331.45	
.205	331.35	
.192	331.15	
.173	330.9	
.164	330.8	
.152	330.7	
.138	330.55	
.129	330.5	
.114	330.35	
.101	330.25	
.093	330.2	
.074	330.15	
.063	330.1	
.055	330.05	

System: methanol + 1-butyl-3-methylimidazolium dibutyl phosphate; phases: Liquid, Gas
Fixed: Pressure, kPa = 101.3
Property: Boiling temperature at pressure P, K (Liquid); method: Ebulliometric method (Recirculating still)
Mole fraction of 1-butyl-3-methylimidazolium dibutyl phosphate	Boiling temperature at pressure P, K	uncertainty
.262	374.33	
.235	368.56	
.213	364.43	
.209	363.51	
.189	359.88	
.174	357.26	
.165	355.99	
.161	355.38	
.156	354.45	
.142	352.47	
.132	350.98	
.129	350.5	
.122	349.44	
.12	349.3	
.101	346.8	
.096	346.04	
.083	344.52	
.081	344.36	
.067	342.87	
.066	342.75	
.061	342.05	
.051	341.02	
.034	339.52	
.028	339.07	
.025	338.66	
.021	338.5	

System: methanol + methyl acetate + 1,3-dimethylimidazolium dimethylphosphate; phases: Liquid, Gas
Fixed: Pressure, kPa = 101.3
Property: Boiling temperature at pressure P, K (Liquid); method: Ebulliometric method (Recirculating still)
Mole fraction of 1,3-dimethylimidazolium dimethylphosphate	Solvent: Mole fraction of methyl acetate	Boiling temperature at pressure P, K	uncertainty
.05	.08	337	
.049	.138	334.7	
.049	.201	332.7	
.049	.313	330.05	
.05	.403	328.95	
.049	.497	328.45	
.049	.597	328.3	
.05	.7	328.45	
.05	.792	328.95	
.049	.849	329.4	
.1	.841	329.35	
.1	.734	329.1	
.1	.65	329	
.1	.54	329.3	
.099	.417	330.15	
.099	.319	331.75	
.099	.261	333.05	
.099	.204	335	
.099	.141	337.35	
.099	.081	340.7	
.15	.83	328.7	
.15	.753	329.1	
.15	.697	329.65	
.15	.633	329.8	
.15	.57	330.1	
.15	.51	330.6	
.15	.449	331.45	
.15	.364	333.05	
.148	.312	334.4	
.148	.26	336.1	
.149	.203	337.85	
.149	.139	341.05	
.15	.075	345.45	

System: methanol + methyl acetate + 1,3-dimethylimidazolium dimethylphosphate; phases: Gas, Liquid
Property: Mole fraction of methyl acetate (Gas); method: Chromatography
Mole fraction of 1,3-dimethylimidazolium dimethylphosphate	Solvent: Mole fraction of methyl acetate	Temperature, K	Mole fraction of methyl acetate	uncertainty
.05	.08	337	.229	
.049	.138	334.7	.336	
.049	.201	332.7	.428	
.049	.313	330.05	.539	
.05	.403	328.95	.608	
.049	.497	328.45	.669	
.049	.597	328.3	.731	
.05	.7	328.45	.799	
.05	.792	328.95	.857	
.049	.849	329.4	.895	
.1	.841	329.35	.945	
.1	.734	329.1	.894	
.1	.65	329	.847	
.1	.54	329.3	.781	
.099	.417	330.15	.698	
.099	.319	331.75	.615	
.099	.261	333.05	.553	
.099	.204	335	.489	
.099	.141	337.35	.391	
.099	.081	340.7	.265	
.15	.83	328.7	.966	
.15	.753	329.1	.94	
.15	.697	329.65	.918	
.15	.633	329.8	.889	
.15	.57	330.1	.856	
.15	.51	330.6	.822	
.15	.449	331.45	.783	
.15	.364	333.05	.718	
.148	.312	334.4	.67	
.148	.26	336.1	.619	
.149	.203	337.85	.548	
.149	.139	341.05	.44	
.15	.075	345.45	.281	

System: methanol + methyl acetate + 1,3-dimethylimidazolium dimethylphosphate; phases: Gas, Liquid
Property: Mole fraction of 1,3-dimethylimidazolium dimethylphosphate (Gas); method: Chromatography
Mole fraction of 1,3-dimethylimidazolium dimethylphosphate	Solvent: Mole fraction of methyl acetate	Temperature, K	Mole fraction of 1,3-dimethylimidazolium dimethylphosphate	uncertainty
.05	.08	337	0	
.049	.138	334.7	0	
.049	.201	332.7	0	
.049	.313	330.05	0	
.05	.403	328.95	0	
.049	.497	328.45	0	
.049	.597	328.3	0	
.05	.7	328.45	0	
.05	.792	328.95	0	
.049	.849	329.4	0	
.1	.841	329.35	0	
.1	.734	329.1	0	
.1	.65	329	0	
.1	.54	329.3	0	
.099	.417	330.15	0	
.099	.319	331.75	0	
.099	.261	333.05	0	
.099	.204	335	0	
.099	.141	337.35	0	
.099	.081	340.7	0	
.15	.83	328.7	0	
.15	.753	329.1	0	
.15	.697	329.65	0	
.15	.633	329.8	0	
.15	.57	330.1	0	
.15	.51	330.6	0	
.15	.449	331.45	0	
.15	.364	333.05	0	
.148	.312	334.4	0	
.148	.26	336.1	0	
.149	.203	337.85	0	
.149	.139	341.05	0	
.15	.075	345.45	0	

System: methanol + methyl acetate + 1-ethyl-3-methylimidazolium diethylphosphate; phases: Liquid, Gas
Fixed: Pressure, kPa = 101.3
Property: Boiling temperature at pressure P, K (Liquid); method: Ebulliometric method (Recirculating still)
Mole fraction of 1-ethyl-3-methylimidazolium diethylphosphate	Solvent: Mole fraction of methyl acetate	Boiling temperature at pressure P, K	uncertainty
.051	.078	337.9	
.051	.135	335.65	
.05	.194	333.7	
.05	.303	330.85	
.05	.396	329.6	
.05	.501	328.7	
.05	.596	328.4	
.05	.686	328.5	
.05	.741	328.75	
.05	.794	329	
.05	.845	329.25	
.1	.072	342.5	
.1	.143	338.7	
.102	.222	336.2	
.099	.297	333.9	
.098	.369	332.45	
.099	.435	331.4	
.099	.503	330.4	
.1	.58	329.95	
.1	.654	329.85	
.1	.734	329.8	
.1	.806	329.8	
.1	.843	329.95	
.152	.071	347.65	
.151	.129	344.05	
.15	.189	341.15	
.15	.242	339.15	
.15	.298	337.2	
.15	.361	335.05	
.15	.416	333.85	
.15	.47	333.05	
.15	.525	332.15	
.15	.575	331.55	
.15	.626	331.15	
.15	.698	330.85	
.15	.76	330.65	
.15	.821	330.5	

System: methanol + methyl acetate + 1-ethyl-3-methylimidazolium diethylphosphate; phases: Gas, Liquid
Property: Mole fraction of methyl acetate (Gas); method: Chromatography
Mole fraction of 1-ethyl-3-methylimidazolium diethylphosphate	Solvent: Mole fraction of methyl acetate	Temperature, K	Mole fraction of methyl acetate	uncertainty
.051	.078	337.9	.23	
.051	.135	335.65	.341	
.05	.194	333.7	.428	
.05	.303	330.85	.53	
.05	.396	329.6	.602	
.05	.501	328.7	.666	
.05	.596	328.4	.726	
.05	.686	328.5	.784	
.05	.741	328.75	.82	
.05	.794	329	.853	
.05	.845	329.25	.889	
.1	.072	342.5	.237	
.1	.143	338.7	.385	
.102	.222	336.2	.499	
.099	.297	333.9	.578	
.098	.369	332.45	.639	
.099	.435	331.4	.692	
.099	.503	330.4	.739	
.1	.58	329.95	.789	
.1	.654	329.85	.833	
.1	.734	329.8	.876	
.1	.806	329.8	.918	
.1	.843	329.95	.938	
.152	.071	347.65	.257	
.151	.129	344.05	.4	
.15	.189	341.15	.509	
.15	.242	339.15	.584	
.15	.298	337.2	.645	
.15	.361	335.05	.698	
.15	.416	333.85	.743	
.15	.47	333.05	.78	
.15	.525	332.15	.815	
.15	.575	331.55	.844	
.15	.626	331.15	.873	
.15	.698	330.85	.908	
.15	.76	330.65	.934	
.15	.821	330.5	.956	

System: methanol + methyl acetate + 1-ethyl-3-methylimidazolium diethylphosphate; phases: Gas, Liquid
Property: Mole fraction of 1-ethyl-3-methylimidazolium diethylphosphate (Gas); method: Chromatography
Mole fraction of 1-ethyl-3-methylimidazolium diethylphosphate	Solvent: Mole fraction of methyl acetate	Temperature, K	Mole fraction of 1-ethyl-3-methylimidazolium diethylphosphate	uncertainty
.051	.078	337.9	0	
.051	.135	335.65	0	
.05	.194	333.7	0	
.05	.303	330.85	0	
.05	.396	329.6	0	
.05	.501	328.7	0	
.05	.596	328.4	0	
.05	.686	328.5	0	
.05	.741	328.75	0	
.05	.794	329	0	
.05	.845	329.25	0	
.1	.072	342.5	0	
.1	.143	338.7	0	
.102	.222	336.2	0	
.099	.297	333.9	0	
.098	.369	332.45	0	
.099	.435	331.4	0	
.099	.503	330.4	0	
.1	.58	329.95	0	
.1	.654	329.85	0	
.1	.734	329.8	0	
.1	.806	329.8	0	
.1	.843	329.95	0	
.152	.071	347.65	0	
.151	.129	344.05	0	
.15	.189	341.15	0	
.15	.242	339.15	0	
.15	.298	337.2	0	
.15	.361	335.05	0	
.15	.416	333.85	0	
.15	.47	333.05	0	
.15	.525	332.15	0	
.15	.575	331.55	0	
.15	.626	331.15	0	
.15	.698	330.85	0	
.15	.76	330.65	0	
.15	.821	330.5	0	

System: methanol + methyl acetate + 1-butyl-3-methylimidazolium dibutyl phosphate; phases: Liquid, Gas
Fixed: Pressure, kPa = 101.3
Property: Boiling temperature at pressure P, K (Liquid); method: Ebulliometric method (Recirculating still)
Mole fraction of 1-butyl-3-methylimidazolium dibutyl phosphate	Solvent: Mole fraction of methyl acetate	Boiling temperature at pressure P, K	uncertainty
.051	.078	337.9	
.051	.135	335.65	
.05	.194	333.7	
.05	.303	330.85	
.05	.396	329.6	
.05	.501	328.7	
.05	.596	328.4	
.05	.686	328.5	
.05	.741	328.75	
.05	.794	329	
.05	.845	329.25	
.1	.072	342.5	
.1	.143	338.7	
.102	.222	336.2	
.099	.297	333.9	
.098	.369	332.45	
.099	.435	331.4	
.099	.503	330.4	
.1	.58	329.95	
.1	.654	329.85	
.1	.734	329.8	
.1	.806	329.8	
.1	.843	329.95	
.152	.071	347.65	
.151	.129	344.05	
.15	.189	341.15	
.15	.242	339.15	
.15	.298	337.2	
.15	.361	335.05	
.15	.416	333.85	
.15	.47	333.05	
.15	.525	332.15	
.15	.575	331.55	
.15	.626	331.15	
.15	.698	330.85	
.15	.76	330.65	
.15	.821	330.5	

System: methanol + methyl acetate + 1-butyl-3-methylimidazolium dibutyl phosphate; phases: Gas, Liquid
Property: Mole fraction of methyl acetate (Gas); method: Chromatography
Mole fraction of 1-butyl-3-methylimidazolium dibutyl phosphate	Solvent: Mole fraction of methyl acetate	Temperature, K	Mole fraction of methyl acetate	uncertainty
.051	.078	337.9	.23	
.051	.135	335.65	.341	
.05	.194	333.7	.428	
.05	.303	330.85	.53	
.05	.396	329.6	.602	
.05	.501	328.7	.666	
.05	.596	328.4	.726	
.05	.686	328.5	.784	
.05	.741	328.75	.82	
.05	.794	329	.853	
.05	.845	329.25	.889	
.1	.072	342.5	.237	
.1	.143	338.7	.385	
.102	.222	336.2	.499	
.099	.297	333.9	.578	
.098	.369	332.45	.639	
.099	.435	331.4	.692	
.099	.503	330.4	.739	
.1	.58	329.95	.789	
.1	.654	329.85	.833	
.1	.734	329.8	.876	
.1	.806	329.8	.918	
.1	.843	329.95	.938	
.152	.071	347.65	.257	
.151	.129	344.05	.4	
.15	.189	341.15	.509	
.15	.242	339.15	.584	
.15	.298	337.2	.645	
.15	.361	335.05	.698	
.15	.416	333.85	.743	
.15	.47	333.05	.78	
.15	.525	332.15	.815	
.15	.575	331.55	.844	
.15	.626	331.15	.873	
.15	.698	330.85	.908	
.15	.76	330.65	.934	
.15	.821	330.5	.956	

System: methanol + methyl acetate + 1-butyl-3-methylimidazolium dibutyl phosphate; phases: Gas, Liquid
Property: Mole fraction of 1-butyl-3-methylimidazolium dibutyl phosphate (Gas); method: Chromatography
Mole fraction of 1-butyl-3-methylimidazolium dibutyl phosphate	Solvent: Mole fraction of methyl acetate	Temperature, K	Mole fraction of 1-butyl-3-methylimidazolium dibutyl phosphate	uncertainty
.051	.078	337.9	0	
.051	.135	335.65	0	
.05	.194	333.7	0	
.05	.303	330.85	0	
.05	.396	329.6	0	
.05	.501	328.7	0	
.05	.596	328.4	0	
.05	.686	328.5	0	
.05	.741	328.75	0	
.05	.794	329	0	
.05	.845	329.25	0	
.1	.072	342.5	0	
.1	.143	338.7	0	
.102	.222	336.2	0	
.099	.297	333.9	0	
.098	.369	332.45	0	
.099	.435	331.4	0	
.099	.503	330.4	0	
.1	.58	329.95	0	
.1	.654	329.85	0	
.1	.734	329.8	0	
.1	.806	329.8	0	
.1	.843	329.95	0	
.152	.071	347.65	0	
.151	.129	344.05	0	
.15	.189	341.15	0	
.15	.242	339.15	0	
.15	.298	337.2	0	
.15	.361	335.05	0	
.15	.416	333.85	0	
.15	.47	333.05	0	
.15	.525	332.15	0	
.15	.575	331.55	0	
.15	.626	331.15	0	
.15	.698	330.85	0	
.15	.76	330.65	0	
.15	.821	330.5	0	
