Measured thermophysical data. Compressed Liquid Viscosity Measurements of HFE-7000, HFE-7100, HFE-7200, and HFE-7500 at Temperatures from (253 to 373) K and Pressures up to 30 MPa
Source: J. Chem. Eng. Data, 2015, 10.1021/acs.jced.5b00499
Compound 1: heptafluoropropyl methyl ether, C4H3F7O, purity 99.5%
Compound 2: Methoxyperfluoro-iso-butane, C5H3F9O, purity 99.5%
Compound 3: 1-methoxy-nonafluorobutane, C5H3F9O, purity 99.5%
Compound 4: nonafluoroisobutyl ethyl ether, C6H5F9O, purity 99.5%
Compound 5: nonafluorobutyl ethyl ether, C6H5F9O, purity 99.5%
Compound 6: 4-ethoxy-1,1,1,2,2,3,3,4,5,6,6,6-dodecafluoro-5-(trifluoromethyl)hexane, C9H5F15O, purity 99.5%

System: heptafluoropropyl methyl ether; phases: Liquid
Property: Viscosity, Pa*s (Liquid); method: Vibrating wire viscometry
Temperature, K	Pressure, kPa	Viscosity, Pa*s	uncertainty
253.16	1000	.0008457	.000016914
253.16	5010	.0008894	.000017788
253.16	10000	.0009548	.000019096
253.16	15010	.0010126	.000020252
253.16	19990	.0010774	.000021548
253.16	25000	.0011438	.000022876
253.16	29990	.0012196	.000024392
263.16	1000	.0007157	.000014314
263.16	5000	.0007588	.000015176
263.16	10000	.0008121	.000016242
263.16	15000	.0008626	.000017252
263.16	20000	.0009205	.00001841
263.16	24980	.0009822	.000019644
263.16	30000	.0010345	.00002069
273.15	1000	.0006197	.000012394
273.15	5000	.0006565	.00001313
273.15	10000	.0007036	.000014072
273.15	15000	.0007523	.000015046
273.15	20000	.0007972	.000015944
273.15	25000	.0008468	.000016936
273.15	30010	.0008987	.000017974
283.145	1010	.000533	.00001066
283.145	5010	.0005656	.000011312
283.145	10000	.0006121	.000012242
283.145	15010	.0006499	.000012998
283.145	20000	.0006926	.000013852
283.145	25000	.000735	.0000147
283.145	30000	.0007802	.000015604
293.153	1000	.0004642	.000009284
293.153	5000	.0004955	.00000991
293.153	10000	.0005372	.000010744
293.153	15000	.0005703	.000011406
293.153	20010	.0006063	.000012126
293.153	25000	.0006491	.000012982
293.153	30000	.0006902	.000013804
303.153	1000	.0004084	.000008168
303.153	5010	.0004366	.000008732
303.153	10000	.0004751	.000009502
303.153	14990	.0005072	.000010144
303.153	20000	.0005416	.000010832
303.153	25000	.0005751	.000011502
303.153	29990	.0006115	.00001223
313.143	990	.0003594	.000007188
313.143	5000	.0003827	.000007654
313.143	10010	.0004163	.000008326
313.143	15000	.0004503	.000009006
313.143	19990	.0004835	.00000967
313.143	25000	.0005154	.000010308
313.143	30000	.000548	.00001096
323.156	1010	.0003163	.000006326
323.156	5010	.0003424	.000006848
323.156	10000	.0003725	.00000745
323.156	15000	.0004042	.000008084
323.156	20000	.0004343	.000008686
323.156	25000	.0004659	.000009318
323.156	29990	.0004955	.00000991
333.15	1000	.000282	.00000564
333.15	4980	.0003076	.000006152
333.15	10000	.0003356	.000006712
333.15	15000	.0003613	.000007226
333.15	20000	.0003946	.000007892
333.15	25010	.0004217	.000008434
333.15	30000	.0004478	.000008956
343.152	1000	.0002509	.000005018
343.152	5000	.0002717	.000005434
343.152	10010	.0003008	.000006016
343.152	14990	.0003292	.000006584
343.152	20000	.0003574	.000007148
343.152	25000	.0003824	.000007648
343.152	29990	.0004089	.000008178
353.148	1000	.0002226	.000004452
353.148	5000	.000245	.0000049
353.148	10000	.0002718	.000005436
353.148	15000	.0002993	.000005986
353.148	20000	.0003252	.000006504
353.148	25000	.0003517	.000007034
353.148	30000	.0003769	.000007538
363.16	1010	.0001969	.000003938
363.16	5000	.0002204	.000004408
363.16	10010	.0002485	.00000497
363.16	15000	.0002724	.000005448
363.16	19990	.0002975	.00000595
363.16	25000	.000322	.00000644
363.16	30000	.0003468	.000006936

System: 4-ethoxy-1,1,1,2,2,3,3,4,5,6,6,6-dodecafluoro-5-(trifluoromethyl)hexane; phases: Liquid
Property: Viscosity, Pa*s (Liquid); method: Vibrating wire viscometry
Temperature, K	Pressure, kPa	Viscosity, Pa*s	uncertainty
253.133	100	.0033345	.00006669
253.124	1070	.0034065	.00006813
253.101	4990	.0037217	.000074434
253.086	9950	.0041678	.000083356
253.082	19900	.0051349	.000102698
253.097	29900	.0062779	.000125558
263.196	100	.0025624	.000051248
263.182	1010	.002612	.00005224
263.187	5020	.0028393	.000056786
263.191	10030	.0031538	.000063076
263.194	20020	.0038467	.000076934
263.197	30030	.0046655	.00009331
273.163	100	.0020427	.000040854
273.156	1010	.002088	.00004176
273.164	5080	.0022531	.000045062
273.156	10060	.0024898	.000049796
273.156	20020	.0030011	.000060022
273.155	30020	.0036206	.000072412
283.151	100	.0016442	.000032884
283.154	1020	.0016764	.000033528
283.169	5010	.0018166	.000036332
283.167	10020	.0019993	.000039986
283.17	20050	.0024096	.000048192
283.184	30060	.0028908	.000057816
293.19	100	.0013696	.000027392
293.195	1050	.0013948	.000027896
293.196	5050	.0015075	.00003015
293.198	10040	.0016566	.000033132
293.201	20070	.0019842	.000039684
293.195	30030	.0023517	.000047034
298.159	100	.0012545	.00002509
298.161	980	.0012809	.000025618
298.163	5040	.0013843	.000027686
298.162	10030	.0015168	.000030336
298.158	20020	.0018113	.000036226
298.161	30000	.0021379	.000042758
303.135	100	.0011522	.000023044
303.137	960	.0011786	.000023572
303.14	5020	.0012664	.000025328
303.148	10050	.001391	.00002782
303.156	20050	.0016588	.000033176
303.166	30080	.0019582	.000039164
313.163	100	.0009835	.00001967
313.164	1070	.0010016	.000020032
313.168	5040	.0010834	.000021668
313.167	10020	.0011882	.000023764
313.167	20020	.0014102	.000028204
313.167	29970	.0016537	.000033074
323.169	100	.0008476	.000016952
323.169	1010	.0008674	.000017348
323.167	5010	.0009339	.000018678
323.168	10010	.0010249	.000020498
323.167	20010	.0012179	.000024358
323.167	30000	.0014247	.000028494
333.139	110	.0007382	.000014764
333.142	1020	.0007534	.000015068
333.148	5010	.0008153	.000016306
333.148	10000	.0008973	.000017946
333.152	20000	.0010639	.000021278
333.158	30000	.0012437	.000024874
343.172	100	.0006476	.000012952
343.178	1000	.0006636	.000013272
343.18	5010	.0007162	.000014324
343.18	10010	.0007902	.000015804
343.185	20000	.0009367	.000018734
343.182	30000	.0010955	.00002191
353.191	100	.0005732	.000011464
353.199	990	.0005848	.000011696
353.206	5010	.0006367	.000012734
353.208	10000	.0007012	.000014024
353.217	19990	.0008348	.000016696
353.221	29990	.0009738	.000019476
363.217	100	.0005094	.000010188
363.223	1010	.0005206	.000010412
363.226	5010	.0005675	.00001135
363.228	10010	.0006273	.000012546
363.224	19990	.0007463	.000014926
363.225	30020	.0008702	.000017404
373.164	120	.0004554	.000009108
373.165	1020	.0004659	.000009318
373.167	5010	.0005077	.000010154
373.169	10000	.0005627	.000011254
373.167	20010	.0006719	.000013438
373.167	30020	.0007862	.000015724

System: 1-methoxy-nonafluorobutane + Methoxyperfluoro-iso-butane; phases: Liquid
Fixed: Mole fraction of 1-methoxy-nonafluorobutane = .452
Property: Viscosity, Pa*s (Liquid); method: Vibrating wire viscometry
Temperature, K	Pressure, kPa	Viscosity, Pa*s	uncertainty
263.165	1010	.0012571	.000025142
263.165	4990	.0013401	.000026802
263.165	9990	.0014472	.000028944
263.165	15000	.0015712	.000031424
263.165	20010	.0016888	.000033776
263.165	24990	.0018111	.000036222
263.165	30000	.001943	.00003886
273.151	1000	.001045	.0000209
273.151	5010	.001114	.00002228
273.151	10000	.001204	.00002408
273.151	15000	.0013014	.000026028
273.151	20000	.0014009	.000028018
273.151	24990	.0015077	.000030154
273.151	30000	.0016132	.000032264
283.145	1000	.0008758	.000017516
283.145	5000	.0009349	.000018698
283.145	10000	.0010147	.000020294
283.145	15000	.0010955	.00002191
283.145	19990	.0011803	.000023606
283.145	25010	.0012647	.000025294
283.145	30000	.0013529	.000027058
293.153	990	.0007437	.000014874
293.153	5000	.0007963	.000015926
293.153	10010	.0008659	.000017318
293.153	15000	.0009364	.000018728
293.153	20000	.0010077	.000020154
293.153	25000	.0010806	.000021612
293.153	30000	.0011543	.000023086
303.157	990	.0006412	.000012824
303.157	5000	.0006892	.000013784
303.157	10010	.0007466	.000014932
303.157	15010	.0008119	.000016238
303.157	19990	.0008722	.000017444
303.157	25000	.0009328	.000018656
303.157	30000	.0009987	.000019974
313.145	1000	.0005566	.000011132
313.145	5010	.0005979	.000011958
313.145	10010	.000652	.00001304
313.145	15000	.0007067	.000014134
313.145	20000	.0007626	.000015252
313.145	25010	.0008155	.00001631
313.145	30000	.0008762	.000017524
323.162	1000	.0004863	.000009726
323.162	5000	.0005226	.000010452
323.162	10000	.0005709	.000011418
323.162	15000	.0006189	.000012378
323.162	20010	.00067	.0000134
323.162	25000	.0007193	.000014386
323.162	30000	.00077	.0000154
333.157	1000	.0004273	.000008546
333.157	5010	.000462	.00000924
333.157	10000	.0005048	.000010096
333.157	15000	.0005483	.000010966
333.157	20010	.0005964	.000011928
333.157	25000	.0006404	.000012808
333.157	30000	.0006877	.000013754
343.157	1000	.000378	.00000756
343.157	5000	.0004084	.000008168
343.157	10010	.0004489	.000008978
343.157	15010	.0004942	.000009884
343.157	20000	.000536	.00001072
343.157	25000	.0005738	.000011476
343.157	30000	.0006162	.000012324
353.156	1000	.0003373	.000006746
353.156	5010	.0003638	.000007276
353.156	10000	.0003998	.000007996
353.156	15000	.0004375	.00000875
353.156	20010	.0004821	.000009642
353.156	25010	.0005204	.000010408
353.156	30000	.000555	.0000111
363.161	990	.0002964	.000005928
363.161	5000	.0003247	.000006494
363.161	10000	.0003637	.000007274
363.161	15000	.0004004	.000008008
363.161	20010	.0004354	.000008708
363.161	25000	.0004706	.000009412
363.161	29990	.0005044	.000010088

System: nonafluorobutyl ethyl ether + nonafluoroisobutyl ethyl ether; phases: Liquid
Fixed: Mole fraction of nonafluorobutyl ethyl ether = .422
Property: Viscosity, Pa*s (Liquid); method: Vibrating wire viscometry
Temperature, K	Pressure, kPa	Viscosity, Pa*s	uncertainty
253.19	100	.0013429	.000026858
253.197	1020	.0013697	.000027394
253.229	4990	.0014575	.00002915
253.235	10000	.0015708	.000031416
253.228	20000	.0018163	.000036326
253.236	29970	.0021122	.000042244
263.369	110	.0011093	.000022186
263.367	1020	.0011218	.000022436
263.32	5030	.0011933	.000023866
263.356	9980	.0012994	.000025988
263.305	19920	.0015182	.000030364
263.321	29980	.0017533	.000035066
273.172	100	.0009458	.000018916
273.163	1000	.0009566	.000019132
273.16	5000	.0010178	.000020356
273.132	9990	.001114	.00002228
273.148	20020	.0013009	.000026018
273.144	30020	.0014865	.00002973
283.276	110	.0008005	.00001601
283.285	1100	.0008157	.000016314
283.296	5010	.0008655	.00001731
283.294	10080	.0009409	.000018818
283.298	20050	.0010892	.000021784
283.297	30010	.0012495	.00002499
293.245	110	.0006885	.00001377
293.222	1070	.0007004	.000014008
293.203	5020	.000751	.00001502
293.222	10030	.0008125	.00001625
293.217	20040	.0009427	.000018854
293.216	30000	.0010875	.00002175
298.158	100	.0006423	.000012846
298.159	1000	.0006527	.000013054
298.157	5000	.0006986	.000013972
298.16	10020	.0007598	.000015196
298.165	20030	.0008836	.000017672
298.168	30010	.001015	.0000203
303.176	100	.0005987	.000011974
303.178	1050	.0006091	.000012182
303.176	5030	.0006539	.000013078
303.18	10010	.000711	.00001422
303.182	20120	.0008285	.00001657
303.183	30000	.0009512	.000019024
313.136	110	.0005241	.000010482
313.138	1020	.0005339	.000010678
313.138	5140	.0005732	.000011464
313.139	10030	.0006242	.000012484
313.142	19990	.0007277	.000014554
313.14	29850	.0008423	.000016846
322.973	150	.0004649	.000009298
322.99	1000	.0004744	.000009488
323.166	5010	.0005089	.000010178
323.188	10000	.0005555	.00001111
323.195	20000	.0006495	.00001299
323.2	30000	.0007461	.000014922
333.262	130	.0004103	.000008206
333.269	1040	.0004181	.000008362
333.287	5000	.0004512	.000009024
333.305	10090	.0004956	.000009912
333.197	20060	.0005779	.000011558
333.199	30030	.0006638	.000013276
343.247	140	.000363	.00000726
343.238	1000	.000371	.00000742
343.242	5010	.0004029	.000008058
343.26	10000	.0004432	.000008864
343.316	20000	.0005226	.000010452
343.333	29880	.000602	.00001204
354.042	150	.0003214	.000006428
354.063	1010	.0003278	.000006556
354.083	4990	.0003577	.000007154
354.063	9960	.0003963	.000007926
354.08	19970	.0004687	.000009374
354.142	30020	.0005423	.000010846
363.168	180	.0002903	.000005806
363.165	1010	.0002954	.000005908
363.155	5010	.0003257	.000006514
363.17	10000	.0003604	.000007208
363.183	19980	.0004285	.00000857
363.177	30050	.0004974	.000009948
373.262	230	.00026	.0000052
373.231	1000	.000265	.0000053
373.265	5010	.0002943	.000005886
373.265	10010	.0003273	.000006546
373.258	19990	.0003919	.000007838
373.255	30020	.0004554	.000009108
