Measured thermophysical data. Measurement and Correlation of Solubility on Reactive Crystallization of Methyl D-(-)-4-Hydroxy-phenylglycinate
Source: J. Chem. Eng. Data, 2017, 10.1021/acs.jced.6b00415
Compound 1: methyl (R)-2-amino-2-(4-hydroxyphenyl)acetate, C9H11NO3, purity 98.0%
Compound 2: methanol, CH4O
Compound 3: ethanol, C2H6O
Compound 4: n-propanol, C3H8O
Compound 5: isopropanol, C3H8O
Compound 6: n-butanol, C4H10O
Compound 7: 1-pentanol, C5H12O
Compound 8: methyl acetate, C3H6O2
Compound 9: ethyl acetate, C4H8O2
Compound 10: n-propyl acetate, C5H10O2
Compound 11: isopropyl acetate, C5H10O2
Compound 12: n-butyl acetate, C6H12O2
Compound 13: water, H2O, purity 99.9%
Compound 14: methyl D-(-)-2-(4-hydroxyphenyl)glycinate hydrochloride, C9H12ClNO3, purity 98.0%
Compound 15: ammonium chloride, ClH4N, purity 99%

System: methanol + methyl (R)-2-amino-2-(4-hydroxyphenyl)acetate; phases: Liquid, Crystal
Fixed: Pressure, kPa = 101
Property: Mole fraction of methyl (R)-2-amino-2-(4-hydroxyphenyl)acetate (Liquid); method: Titration method
Temperature, K	Mole fraction of methyl (R)-2-amino-2-(4-hydroxyphenyl)acetate	uncertainty
283.1	.0022074	
288.15	.0027288	
293.24	.0033846	
298.1	.0041543	
303.15	.0050488	
308.2	.0061075	
313.2	.0073235	
318.15	.0087225	
323.2	.0103294	

System: ethanol + methyl (R)-2-amino-2-(4-hydroxyphenyl)acetate; phases: Liquid, Crystal
Fixed: Pressure, kPa = 101
Property: Mole fraction of methyl (R)-2-amino-2-(4-hydroxyphenyl)acetate (Liquid); method: Titration method
Temperature, K	Mole fraction of methyl (R)-2-amino-2-(4-hydroxyphenyl)acetate	uncertainty
283.15	.0012928	
288.13	.0017875	
293.15	.0023967	
298.17	.0031793	
303.15	.0041138	
308.2	.005223	
313.15	.0065186	
318.1	.0080043	
323.15	.0096808	

System: n-propanol + methyl (R)-2-amino-2-(4-hydroxyphenyl)acetate; phases: Liquid, Crystal
Fixed: Pressure, kPa = 101
Property: Mole fraction of methyl (R)-2-amino-2-(4-hydroxyphenyl)acetate (Liquid); method: Titration method
Temperature, K	Mole fraction of methyl (R)-2-amino-2-(4-hydroxyphenyl)acetate	uncertainty
283.13	.0009386	
288.2	.0012682	
293.15	.0017265	
298.13	.0022585	
303.15	.0029507	
308.15	.0038182	
313.15	.0049001	
318.2	.0062355	
323.15	.0078733	

System: isopropanol + methyl (R)-2-amino-2-(4-hydroxyphenyl)acetate; phases: Liquid, Crystal
Fixed: Pressure, kPa = 101
Property: Mole fraction of methyl (R)-2-amino-2-(4-hydroxyphenyl)acetate (Liquid); method: Titration method
Temperature, K	Mole fraction of methyl (R)-2-amino-2-(4-hydroxyphenyl)acetate	uncertainty
283.15	.0001671	
288.2	.0003267	
293.14	.000576	
298.15	.0009756	
303.15	.0016273	
308.2	.0025782	
313.2	.0036753	
318.15	.0051689	
323.15	.0067715	

System: n-butanol + methyl (R)-2-amino-2-(4-hydroxyphenyl)acetate; phases: Liquid, Crystal
Fixed: Pressure, kPa = 101
Property: Mole fraction of methyl (R)-2-amino-2-(4-hydroxyphenyl)acetate (Liquid); method: Titration method
Temperature, K	Mole fraction of methyl (R)-2-amino-2-(4-hydroxyphenyl)acetate	uncertainty
283.15	.0004889	
288.2	.0007372	
293.17	.0011431	
298.18	.0016429	
303.15	.0022441	
308.2	.0030759	
313.15	.0041834	
318.15	.0056068	
323.15	.0073319	

System: 1-pentanol + methyl (R)-2-amino-2-(4-hydroxyphenyl)acetate; phases: Liquid, Crystal
Fixed: Pressure, kPa = 101
Property: Mole fraction of methyl (R)-2-amino-2-(4-hydroxyphenyl)acetate (Liquid); method: Titration method
Temperature, K	Mole fraction of methyl (R)-2-amino-2-(4-hydroxyphenyl)acetate	uncertainty
283.14	.0000694	
288.2	.0001558	
293.15	.0003215	
298.15	.0006063	
303.15	.0010711	
308.14	.0017665	
313.15	.0027339	
318.15	.0039859	
323.15	.005486	

System: methyl acetate + methyl (R)-2-amino-2-(4-hydroxyphenyl)acetate; phases: Liquid, Crystal
Fixed: Pressure, kPa = 101
Property: Mole fraction of methyl (R)-2-amino-2-(4-hydroxyphenyl)acetate (Liquid); method: Titration method
Temperature, K	Mole fraction of methyl (R)-2-amino-2-(4-hydroxyphenyl)acetate	uncertainty
283.12	.0004167	
288.2	.000578	
293.17	.0009139	
298.14	.0013582	
303.15	.0019048	
308.15	.0025319	
313.15	.0031981	
318.15	.0038514	
323.15	.0044351	

System: ethyl acetate + methyl (R)-2-amino-2-(4-hydroxyphenyl)acetate; phases: Liquid, Crystal
Fixed: Pressure, kPa = 101
Property: Mole fraction of methyl (R)-2-amino-2-(4-hydroxyphenyl)acetate (Liquid); method: Titration method
Temperature, K	Mole fraction of methyl (R)-2-amino-2-(4-hydroxyphenyl)acetate	uncertainty
283.15	.0001536	
288.17	.0002896	
293.15	.0004791	
298.15	.0007608	
303.16	.0011315	
308.15	.0015812	
313.15	.0020889	
318.18	.0026147	
323.15	.0031086	

System: n-propyl acetate + methyl (R)-2-amino-2-(4-hydroxyphenyl)acetate; phases: Liquid, Crystal
Fixed: Pressure, kPa = 101
Property: Mole fraction of methyl (R)-2-amino-2-(4-hydroxyphenyl)acetate (Liquid); method: Titration method
Temperature, K	Mole fraction of methyl (R)-2-amino-2-(4-hydroxyphenyl)acetate	uncertainty
283.15	.0000695	
288.14	.0001346	
293.17	.0002421	
298.2	.0004148	
303.15	.0006631	
308.15	.0010165	
313.15	.0015036	
318.15	.0020263	
323.15	.0027492	

System: isopropyl acetate + methyl (R)-2-amino-2-(4-hydroxyphenyl)acetate; phases: Liquid, Crystal
Fixed: Pressure, kPa = 101
Property: Mole fraction of methyl (R)-2-amino-2-(4-hydroxyphenyl)acetate (Liquid); method: Titration method
Temperature, K	Mole fraction of methyl (R)-2-amino-2-(4-hydroxyphenyl)acetate	uncertainty
283.17	.0000468	
288.15	.0000853	
293.14	.0001457	
298.15	.0002375	
303.13	.00037	
308.15	.0005554	
313.15	.0008004	
318.15	.0011124	
323.15	.001488	

System: n-butyl acetate + methyl (R)-2-amino-2-(4-hydroxyphenyl)acetate; phases: Liquid, Crystal
Fixed: Pressure, kPa = 101
Property: Mole fraction of methyl (R)-2-amino-2-(4-hydroxyphenyl)acetate (Liquid); method: Titration method
Temperature, K	Mole fraction of methyl (R)-2-amino-2-(4-hydroxyphenyl)acetate	uncertainty
283.1	.0000567	
288.15	.0000811	
293.15	.0001164	
298.17	.0001651	
303.15	.0002329	
308.15	.0003263	
313.14	.0004557	
318.15	.0006262	
323.12	.0008733	

System: water + methyl (R)-2-amino-2-(4-hydroxyphenyl)acetate; phases: Liquid, Crystal
Fixed: Pressure, kPa = 101
Property: Mole fraction of methyl (R)-2-amino-2-(4-hydroxyphenyl)acetate (Liquid); method: Titration method
Temperature, K	Mole fraction of methyl (R)-2-amino-2-(4-hydroxyphenyl)acetate	uncertainty
283.13	.000019	
288.16	.000028	
293.15	.0000481	
298.15	.0000786	
303.18	.0001227	
308.15	.0001773	
313.2	.0002322	
318.15	.0002998	
323.15	.0003703	

System: methanol + water + methyl (R)-2-amino-2-(4-hydroxyphenyl)acetate; phases: Liquid, Crystal
Fixed: Pressure, kPa = 101
Property: Mole fraction of methyl (R)-2-amino-2-(4-hydroxyphenyl)acetate (Liquid); method: Titration method
Temperature, K	Solvent: Mole fraction of water	Mole fraction of methyl (R)-2-amino-2-(4-hydroxyphenyl)acetate	uncertainty
283.1	0	.0022074	
288.15	0	.0027288	
293.24	0	.0033846	
298.1	0	.0041543	
303.15	0	.0050488	
308.2	0	.0061075	
313.2	0	.0073235	
318.15	0	.0087225	
323.2	0	.0103294	
283.13	.0986	.0021009	
288.17	.0986	.0025008	
293.17	.0986	.0031111	
298.17	.0986	.0036639	
303.17	.0986	.0044648	
308.14	.0986	.0055198	
313.15	.0986	.0067015	
318.14	.0986	.0080035	
323.15	.0986	.0092761	
283.14	.2007	.0018639	
288.16	.2007	.0022134	
293.16	.2007	.0027775	
298.18	.2007	.0032582	
303.16	.2007	.0039771	
308.16	.2007	.0049279	
313.16	.2007	.0059858	
318.11	.2007	.0071454	
323.16	.2007	.0082809	
283.14	.3072	.0016066	
288.14	.3072	.0019244	
293.11	.3072	.0023892	
298.17	.3072	.0028053	
303.16	.3072	.0034142	
308.16	.3072	.0042564	
313.15	.3072	.0051977	
318.21	.3072	.0061841	
323.16	.3072	.007202	
283.14	.4089	.0013621	
288.14	.4089	.001635	
293.11	.4089	.0020558	
298.16	.4089	.0024309	
303.16	.4089	.0029655	
308.16	.4089	.0036825	
313.17	.4089	.0044775	
318.22	.4089	.0053536	
323.16	.4089	.0062278	
283.14	.4965	.0011694	
288.18	.4965	.0014067	
293.18	.4965	.0017516	
298.16	.4965	.0020705	
303.17	.4965	.0025395	
308.15	.4965	.0031561	
313.17	.4965	.003841	
318.15	.4965	.0046597	
323.15	.4965	.0054801	
283.16	.6296	.0008612	
288.15	.6296	.0010334	
293.15	.6296	.0013068	
298.16	.6296	.0015503	
303.18	.6296	.0018976	
308.16	.6296	.0023722	
313.14	.6296	.00289	
318.13	.6296	.0034719	
283.15	.7018	.0007251	
288.13	.7018	.000868	
293.12	.7018	.0011014	
298.22	.7018	.001307	
303.15	.7018	.0016174	
308.15	.7018	.0020198	
313.16	.7018	.0024637	
318.2	.7018	.0029587	
323.17	.6296	.0040377	
323.16	.7018	.0034513	
283.13	.7895	.0004906	
288.17	.7895	.0005934	
293.16	.7895	.0007599	
298.18	.7895	.0009139	
303.15	.7895	.0011347	
308.14	.7895	.001425	
313.16	.7895	.0017391	
318.15	.7895	.0021026	
323.15	.7895	.0024555	
283.14	.8902	.0002589	
288.17	.8902	.0003213	
293.16	.8902	.0004145	
298.15	.8902	.0005094	
303.16	.8902	.0006456	
308.14	.8902	.0008175	
313.15	.8902	.0010148	
318.17	.8902	.0012361	
323.15	.8902	.0014452	
283.13	1	.000019	
288.16	1	.000028	
293.15	1	.0000481	
298.15	1	.0000786	
303.18	1	.0001227	
308.15	1	.0001773	
313.2	1	.0002322	
318.15	1	.0002998	
323.15	1	.0003703	

System: ethanol + water + methyl (R)-2-amino-2-(4-hydroxyphenyl)acetate; phases: Liquid, Crystal
Fixed: Pressure, kPa = 101
Property: Mole fraction of methyl (R)-2-amino-2-(4-hydroxyphenyl)acetate (Liquid); method: Titration method
Temperature, K	Solvent: Mole fraction of water	Mole fraction of methyl (R)-2-amino-2-(4-hydroxyphenyl)acetate	uncertainty
283.15	0	.0012928	
288.13	0	.0017875	
293.15	0	.0023967	
298.17	0	.0031793	
303.15	0	.0041138	
308.2	0	.005223	
313.15	0	.0065186	
318.1	0	.0080043	
323.15	0	.0096808	
283.14	.0974	.001114	
288.16	.0974	.0015707	
293.15	.0974	.0021678	
298.17	.0974	.0029224	
303.16	.0974	.0037982	
308.14	.0974	.0047767	
313.16	.0974	.0058296	
318.16	.0974	.0071889	
323.15	.0974	.0088262	
283.14	.2076	.0009795	
288.16	.2076	.001382	
293.15	.2076	.0019089	
298.17	.2076	.0025752	
303.16	.2076	.0033494	
308.17	.2076	.0042151	
313.15	.2076	.0051462	
318.12	.2076	.0063478	
323.15	.2076	.0077938	
283.14	.3042	.0008616	
288.16	.3042	.0012165	
293.17	.3042	.001682	
298.16	.3042	.0022709	
303.15	.3042	.0029561	
308.14	.3042	.0037229	
313.17	.3042	.0045471	
318.13	.3042	.0056105	
323.15	.3042	.0068888	
283.13	.4065	.0007368	
288.15	.4065	.0010413	
293.12	.4065	.0014416	
298.2	.4065	.0019485	
303.17	.4065	.0025395	
308.14	.4065	.0032016	
313.15	.4065	.0039127	
318.22	.4065	.0048296	
323.16	.4065	.0059304	
283.13	.5043	.0006175	
288.15	.5043	.0008738	
293.14	.5043	.0012118	
298.23	.5043	.0016404	
303.16	.5043	.0021412	
308.15	.5043	.0027032	
313.14	.5043	.0033062	
318.13	.5043	.0040832	
323.17	.5043	.0050142	
283.14	.6124	.0004855	
288.17	.6124	.0006887	
293.16	.6124	.0009578	
298.17	.6124	.0012998	
303.15	.6124	.001701	
308.18	.6124	.0021524	
313.15	.6124	.0026359	
318.19	.6124	.0032581	
323.15	.6124	.0040015	
283.13	.7088	.0003679	
288.13	.7088	.0005236	
293.11	.7088	.0007313	
298.18	.7088	.0009961	
303.15	.7088	.0013085	
308.16	.7088	.0016612	
313.15	.7088	.002038	
318.21	.7088	.0025223	
323.15	.7088	.0030984	
283.15	.8049	.0002507	
288.16	.8049	.000359	
293.12	.8049	.0005055	
298.15	.8049	.0006933	
303.17	.8049	.0009172	
308.16	.8049	.0011715	
313.15	.8049	.0014421	
318.22	.8049	.0017888	
323.17	.8049	.0021981	
283.16	.9062	.0001271	
288.22	.9062	.0001855	
293.18	.9062	.0002675	
298.15	.9062	.0003741	
303.15	.9062	.0005047	
308.18	.9062	.0006553	
313.2	.9062	.0008139	
318.18	.9062	.0010156	
323.15	.9062	.0012491	
283.13	1	.000019	
288.16	1	.000028	
293.15	1	.0000481	
298.15	1	.0000786	
303.18	1	.0001227	
308.15	1	.0001773	
313.2	1	.0002322	
318.15	1	.0002998	
323.15	1	.0003703	

System: water + ammonium chloride + methyl (R)-2-amino-2-(4-hydroxyphenyl)acetate; phases: Liquid, Crystal
Fixed: Pressure, kPa = 101
Property: Mole fraction of methyl (R)-2-amino-2-(4-hydroxyphenyl)acetate (Liquid); method: Titration method
Temperature, K	Molality, mol/kg of ammonium chloride	Mole fraction of methyl (R)-2-amino-2-(4-hydroxyphenyl)acetate	uncertainty
298.15	0	.0000471	
298.15	.25	.00008107	
298.15	.5	.00011359	
298.15	.75	.00014544	
298.15	1	.000168	
298.15	1.25	.00018269	
298.15	1.5	.00019187	
298.15	1.75	.00019514	
298.15	2	.00019529	

System: water + methyl (R)-2-amino-2-(4-hydroxyphenyl)acetate + methyl D-(-)-2-(4-hydroxyphenyl)glycinate hydrochloride; phases: Liquid, Crystal
Fixed: Pressure, kPa = 101
Property: Mole fraction of methyl (R)-2-amino-2-(4-hydroxyphenyl)acetate (Liquid); method: Titration method
Temperature, K	Molality, mol/kg of methyl D-(-)-2-(4-hydroxyphenyl)glycinate hydrochloride	Mole fraction of methyl (R)-2-amino-2-(4-hydroxyphenyl)acetate	uncertainty
298.15	0	.0000471	
298.15	.02	.00007668	
298.15	.04	.00010686	
298.15	.06	.00013547	
298.15	.08	.00016119	
298.15	.1	.00018608	
298.15	.12	.00021067	
298.15	.14	.00023394	
298.15	.16	.00025349	
