Measured thermophysical data. Aqueous Binary Lanthanide(III) Nitrate Ln(NO3)3 Electrolytes Revisited: Extended Pitzer and Bromley Treatments
Source: J. Chem. Eng. Data, 2015, 10.1021/acs.jced.5b00392
Compound 1: lanthanum trinitrate, LaN3O9, purity 99.999%
Compound 2: cerium nitrate, CeN3O9, purity 99.999%
Compound 3: neodymium(III) nitrate, N3NdO9, purity 99.9%
Compound 4: samarium(III) nitrate, N3O9Sm, purity 99.9%
Compound 5: europium trinitrate, EuN3O9, purity 99.9%
Compound 6: gadolinium nitrate, GdN3O9, purity 99.9%
Compound 7: terbium nitrate, N3O9Tb, purity 99.9%
Compound 8: dysprosium nitrate, DyN3O9, purity 99.9%
Compound 9: holmium nitrate, HoN3O9, purity 99.9%
Compound 10: erbium nitrate, ErN3O9, purity 99.9%
Compound 11: thulium nitrate, N3O9Tm, purity 99.9%
Compound 12: ytterbium nitrate, N3O9Yb, purity 99.9%
Compound 13: lutetium nitrate, LuN3O9, purity 99.9%
Compound 14: praseodymium nitrate, N3O9Pr, purity 99.99%
Compound 15: water, H2O, purity 99.9%

System: water + lanthanum trinitrate; phases: Liquid
Fixed: Temperature, K = 298.15
Fixed: Pressure, kPa = 101
Property: (Relative) activity of water (Liquid); method: hygrometer and osmometer
Molality, mol/kg of lanthanum trinitrate	(Relative) activity of water	uncertainty
.117	.994	.3
.143	.992	.3
.166	.991	.3
.191	.99	.3
.217	.988	.3
.242	.987	.3
.266	.986	.3
.315	.983	.3
.371	.98	.3
.423	.977	.3
.78	.954	.02862
.914	.946	.02838
1.059	.937	.02811
1.189	.927	.02781
1.404	.909	.02727
1.654	.888	.02664
1.937	.866	.02598
2.271	.839	.02517
2.633	.806	.02418
2.956	.775	.02325
3.247	.747	.02241

System: water + cerium nitrate; phases: Liquid
Fixed: Temperature, K = 298.15
Fixed: Pressure, kPa = 101
Property: (Relative) activity of water (Liquid); method: hygrometer and osmometer
Molality, mol/kg of cerium nitrate	(Relative) activity of water	uncertainty
.141	.992	.3
.177	.99	.3
.214	.988	.3
.254	.986	.3
.298	.984	.3
.345	.981	.3
.399	.978	.3
.455	.975	.3
.52	.971	.3
.591	.967	.02901
.674	.963	.02889
.769	.958	.02874
.873	.948	.02844
.988	.941	.02823
1.032	.937	.02811
1.159	.928	.02784
1.34	.915	.02745
1.464	.902	.02706
1.625	.888	.02664
1.795	.875	.02625
1.967	.86	.0258
2.146	.845	.02535
2.334	.828	.02484
2.526	.809	.02427
2.716	.79	.0237
2.873	.775	.02325

System: water + neodymium(III) nitrate; phases: Liquid
Fixed: Temperature, K = 298.15
Fixed: Pressure, kPa = 101
Property: (Relative) activity of water (Liquid); method: hygrometer and osmometer
Molality, mol/kg of neodymium(III) nitrate	(Relative) activity of water	uncertainty
.099	.995	.3
.477	.974	.3
.653	.961	.02883
.991	.94	.0282
1.151	.928	.02784
1.29	.917	.02751
1.434	.906	.02718
1.483	.899	.02697
1.641	.886	.02658
1.784	.873	.02619
1.958	.858	.02574
2.144	.84	.0252
2.354	.819	.02457
2.563	.798	.02394
2.872	.767	.02301

System: water + samarium(III) nitrate; phases: Liquid
Fixed: Temperature, K = 298.15
Fixed: Pressure, kPa = 101
Property: (Relative) activity of water (Liquid); method: hygrometer and osmometer
Molality, mol/kg of samarium(III) nitrate	(Relative) activity of water	uncertainty
.118	.994	.3
.159	.991	.3
.208	.989	.3
.265	.986	.3
.334	.982	.3
.409	.978	.3
.492	.973	.3
.592	.967	.02901
.701	.961	.02883
1.026	.935	.02805
1.146	.926	.02778
1.298	.913	.02739
1.441	.899	.02697
1.598	.885	.02655
1.761	.87	.0261
1.934	.854	.02562
2.103	.837	.02511
2.28	.819	.02457
2.463	.799	.02397
2.642	.78	.0234
2.792	.764	.02292

System: water + europium trinitrate; phases: Liquid
Fixed: Temperature, K = 298.15
Fixed: Pressure, kPa = 101
Property: (Relative) activity of water (Liquid); method: hygrometer and osmometer
Molality, mol/kg of europium trinitrate	(Relative) activity of water	uncertainty
.131	.993	.3
.175	.99	.3
.233	.987	.3
.302	.984	.3
.383	.979	.3
.483	.973	.3
.588	.967	.02901
.69	.962	.02886
.854	.947	.02841
1	.937	.02811
1.153	.924	.02772
1.312	.909	.02727
1.463	.894	.02682
1.618	.88	.0264
1.786	.864	.02592
1.954	.848	.02544
2.129	.829	.02487
2.305	.81	.0243
2.495	.789	.02367
2.678	.768	.02304
2.83	.752	.02256

System: water + gadolinium nitrate; phases: Liquid
Fixed: Temperature, K = 298.15
Fixed: Pressure, kPa = 101
Property: (Relative) activity of water (Liquid); method: hygrometer and osmometer
Molality, mol/kg of gadolinium nitrate	(Relative) activity of water	uncertainty
.104	.994	.3
.128	.993	.3
.148	.992	.3
.172	.991	.3
.193	.989	.3
.218	.988	.3
.254	.986	.3
.29	.984	.3
.335	.981	.3
.39	.978	.3
.445	.975	.3
.497	.972	.3
.734	.955	.02865
.868	.945	.02835
1.004	.935	.02805
1.157	.922	.02766
1.394	.899	.02697
1.623	.878	.02634
1.965	.845	.02535
2.295	.809	.02427
2.705	.763	.02289
3.174	.709	.02127
3.446	.68	.0204

System: water + terbium nitrate; phases: Liquid
Fixed: Temperature, K = 298.15
Fixed: Pressure, kPa = 101
Property: (Relative) activity of water (Liquid); method: hygrometer and osmometer
Molality, mol/kg of terbium nitrate	(Relative) activity of water	uncertainty
.088	.995	.3
.119	.993	.3
.158	.991	.3
.207	.988	.3
.26	.985	.3
.317	.982	.3
.38	.978	.3
.445	.974	.3
.511	.97	.3
.6	.965	.02895
.692	.956	.02868
.786	.95	.0285
.888	.943	.02829
1	.934	.02802
1.069	.928	.02784
1.224	.912	.02736
1.35	.9	.027
1.514	.886	.02658
1.653	.872	.02616
1.811	.856	.02568
1.975	.839	.02517
2.146	.821	.02463
2.317	.801	.02403
2.492	.782	.02346
2.631	.765	.02295

System: water + dysprosium nitrate; phases: Liquid
Fixed: Temperature, K = 298.15
Fixed: Pressure, kPa = 101
Property: (Relative) activity of water (Liquid); method: hygrometer and osmometer
Molality, mol/kg of dysprosium nitrate	(Relative) activity of water	uncertainty
.121	.993	.3
.162	.991	.3
.211	.988	.3
.269	.985	.3
.338	.981	.3
.415	.976	.3
.498	.971	.3
.589	.965	.02895
.685	.956	.02868
.841	.945	.02835
.991	.933	.02799
1.11	.923	.02769
1.259	.908	.02724
1.404	.893	.02679
1.556	.879	.02637
1.716	.863	.02589
1.887	.846	.02538
2.054	.828	.02484
2.231	.808	.02424
2.407	.788	.02364
2.582	.768	.02304
2.726	.75	.0225

System: water + holmium nitrate; phases: Liquid
Fixed: Temperature, K = 298.15
Fixed: Pressure, kPa = 101
Property: (Relative) activity of water (Liquid); method: hygrometer and osmometer
Molality, mol/kg of holmium nitrate	(Relative) activity of water	uncertainty
.219	.987	.3
.283	.984	.3
.357	.979	.3
.448	.974	.3
.549	.967	.02901
.641	.961	.02883
.785	.952	.02856
.923	.938	.02814
1.063	.925	.02775
1.208	.91	.0273
1.341	.896	.02688
1.479	.883	.02649
1.631	.868	.02604
1.784	.853	.02559
1.944	.836	.02508
2.108	.818	.02454
2.274	.799	.02397

System: water + erbium nitrate; phases: Liquid
Fixed: Temperature, K = 298.15
Fixed: Pressure, kPa = 101
Property: (Relative) activity of water (Liquid); method: hygrometer and osmometer
Molality, mol/kg of erbium nitrate	(Relative) activity of water	uncertainty
.122	.993	.3
.163	.991	.3
.212	.988	.3
.271	.984	.3
.338	.98	.3
.416	.975	.3
.5	.97	.3
.588	.964	.02892
.675	.955	.02865
.83	.944	.02832
.98	.931	.02793
1.135	.916	.02748
1.291	.899	.02697
1.439	.884	.02652
1.601	.868	.02604
1.768	.851	.02553
1.942	.832	.02496
2.122	.811	.02433
2.304	.79	.0237
2.489	.768	.02304
2.674	.747	.02241
2.928	.717	.02151

System: water + thulium nitrate; phases: Liquid
Fixed: Temperature, K = 298.15
Fixed: Pressure, kPa = 101
Property: (Relative) activity of water (Liquid); method: hygrometer and osmometer
Molality, mol/kg of thulium nitrate	(Relative) activity of water	uncertainty
.097	.994	.3
.134	.992	.3
.181	.989	.3
.238	.986	.3
.304	.982	.3
.388	.977	.3
.457	.972	.3
.543	.966	.02898
.636	.958	.02874
.762	.948	.02844
.885	.938	.02814
.991	.928	.02784
1.114	.916	.02748
1.258	.902	.02706
1.361	.891	.02673
1.506	.876	.02628
1.632	.863	.02589
1.76	.848	.02544
2.034	.816	.02448
2.121	.806	.02418
2.148	.802	.02406
2.176	.799	.02397
2.27	.786	.02358

System: water + ytterbium nitrate; phases: Liquid
Fixed: Temperature, K = 298.15
Fixed: Pressure, kPa = 101
Property: (Relative) activity of water (Liquid); method: hygrometer and osmometer
Molality, mol/kg of ytterbium nitrate	(Relative) activity of water	uncertainty
.028	.998	.3
.057	.997	.3
.087	.995	.3
.118	.993	.3
.148	.992	.3
.18	.99	.3
.211	.988	.3
.245	.986	.3
.349	.978	.3
.459	.971	.3
.58	.963	.02889
.846	.94	.0282
.992	.928	.02784
1.147	.911	.02733
1.3	.895	.02685
1.491	.875	.02625
1.703	.853	.02559
1.939	.824	.02472
2.198	.793	.02379
2.486	.758	.02274
2.807	.719	.02157

System: water + lutetium nitrate; phases: Liquid
Fixed: Temperature, K = 298.15
Fixed: Pressure, kPa = 101
Property: (Relative) activity of water (Liquid); method: hygrometer and osmometer
Molality, mol/kg of lutetium nitrate	(Relative) activity of water	uncertainty
.103	.994	.3
.139	.992	.3
.181	.989	.3
.23	.986	.3
.291	.982	.3
.356	.978	.3
.429	.974	.3
.513	.968	.02904
.606	.962	.02886
.882	.937	.02811
.996	.927	.02781
1.087	.918	.02754
1.205	.904	.02712
1.329	.89	.0267
1.454	.876	.02628
1.589	.862	.02586
1.719	.848	.02544
1.856	.831	.02493
1.991	.814	.02442
2.327	.772	.02316
2.451	.757	.02271

System: water + praseodymium nitrate; phases: Liquid
Fixed: Temperature, K = 298.15
Fixed: Pressure, kPa = 101
Property: (Relative) activity of water (Liquid); method: hygrometer and osmometer
Molality, mol/kg of praseodymium nitrate	(Relative) activity of water	uncertainty
.062	.997	.3
.164	.991	.3
.199	.989	.3
.235	.987	.3
.272	.985	.3
.385	.979	.3
.508	.971	.3
.641	.963	.02889
.924	.943	.02829
1.092	.932	.02796
1.261	.919	.02757
1.405	.905	.02715
1.615	.888	.02664
1.837	.869	.02607
2.09	.848	.02544
2.36	.823	.02469
2.666	.793	.02379
3	.759	.02277
