Measured thermophysical data. The Solubilities and Physicochemical Properties of NaH2PO2 NaCl H2O, NaH2PO2 Zn(H2PO2)2 H2O, and NaCl Zn(H2PO2)2 H2O Ternary Systems and in NaH2PO2 NaCl Zn(H2PO2)2 H2O Quaternary System at 298.15 K
Source: J. Chem. Eng. Data, 2016, 10.1021/acs.jced.5b00988
Compound 1: sodium chloride, ClNa, purity 99%
Compound 2: sodium hypophosphite (NaH2PO2), H2NaO2P, purity 99%
Compound 3: water, H2O, purity 99.8%
Compound 4: zinc(II) hypophosphite (Zn(H2PO2)2), H4O4P2Zn, purity 98%

System: zinc(II) hypophosphite (Zn(H2PO2)2); phases: Crystal, Liquid, Air at 1 atmosphere
Property: Triple point temperature, K (Crystal); method: Visual observation
Triple point temperature, K	uncertainty
446.15	2.5

System: sodium chloride + sodium hypophosphite (NaH2PO2) + water; phases: Liquid, Crystal
Fixed: Pressure, kPa = 102.5
Fixed: Temperature, K = 298.15
Property: Mass fraction of sodium hypophosphite (NaH2PO2) (Liquid); method: Titration method
Mass fraction of sodium chloride	Mass fraction of sodium hypophosphite (NaH2PO2)	uncertainty
.2642	0	
.2438	.036	
.2218	.0758	
.1943	.1279	
.1596	.1876	
.1425	.2265	
.136	.228	
.0855	.3392	
.0558	.396	
.032	.4438	
.0183	.4643	

System: sodium chloride + sodium hypophosphite (NaH2PO2) + water; phases: Liquid, Crystal of intercomponent compound 1
Fixed: Pressure, kPa = 102.5
Fixed: Temperature, K = 298.15
Property: Mass fraction of sodium hypophosphite (NaH2PO2) (Liquid); method: Titration method
Mass fraction of sodium chloride	Mass fraction of sodium hypophosphite (NaH2PO2)	uncertainty
.0183	.4643	
.0122	.4798	
.008	.4981	
0	.5196	

System: sodium chloride + sodium hypophosphite (NaH2PO2) + water; phases: Liquid
Fixed: Pressure, kPa = 102.5
Fixed: Temperature, K = 298.15
Property: Mass density, kg/m3 (Liquid); method: Vibrating tube method
Mass fraction of sodium chloride	Mass fraction of sodium hypophosphite (NaH2PO2)	Mass density, kg/m3	uncertainty
.2642	0	1194	
.2438	.036	1204	
.2218	.0758	1209	
.1943	.1279	1216	
.1596	.1876	1226	
.1425	.2265	1238	
.136	.228	1239	
.0855	.3392	1276	
.0558	.396	1308	
.032	.4438	1350	
.0183	.4643	1373	
.0122	.4798	1378	
.008	.4981	1386	
0	.5196	1394	

System: sodium chloride + sodium hypophosphite (NaH2PO2) + water; phases: Liquid
Fixed: Pressure, kPa = 102.5
Fixed: Temperature, K = 298.15
Property: Viscosity, Pa*s (Liquid); method: Concentric cylinders viscometry
Mass fraction of sodium chloride	Mass fraction of sodium hypophosphite (NaH2PO2)	Viscosity, Pa*s	uncertainty
.2642	0	.0015	
.2438	.036	.0016	
.2218	.0758	.0017	
.1943	.1279	.00225	
.1596	.1876	.0028	
.1425	.2265	.0035	
.136	.228	.00367	
.0855	.3392	.00596	
.0558	.396	.00776	
.032	.4438	.0106	
.0183	.4643	.01412	
.0183	.4643	.01412	
.0122	.4798	.01475	
.008	.4981	.01586	
0	.5196	.0176	

System: sodium chloride + water + zinc(II) hypophosphite (Zn(H2PO2)2); phases: Liquid, Crystal
Fixed: Pressure, kPa = 102.5
Fixed: Temperature, K = 298.15
Property: Mass fraction of zinc(II) hypophosphite (Zn(H2PO2)2) (Liquid); method: Titration method
Mass fraction of sodium chloride	Mass fraction of zinc(II) hypophosphite (Zn(H2PO2)2)	uncertainty
0	.1861	
.0611	.1912	
.0984	.1953	
.1314	.2067	
.1624	.2187	
.1914	.2255	
.2279	.198	

System: sodium chloride + water + zinc(II) hypophosphite (Zn(H2PO2)2); phases: Liquid, Crystal of intercomponent compound 1
Fixed: Pressure, kPa = 102.5
Fixed: Temperature, K = 298.15
Property: Mass fraction of zinc(II) hypophosphite (Zn(H2PO2)2) (Liquid); method: Titration method
Mass fraction of sodium chloride	Mass fraction of zinc(II) hypophosphite (Zn(H2PO2)2)	uncertainty
.2279	.198	
.2305	.1891	
.2317	.1841	
.2461	.1062	
.2525	.074	
.2567	.0431	
.2602	.0219	
.2642	0	

System: sodium chloride + water + zinc(II) hypophosphite (Zn(H2PO2)2); phases: Liquid
Fixed: Pressure, kPa = 102.5
Fixed: Temperature, K = 298.15
Property: Mass density, kg/m3 (Liquid); method: Vibrating tube method
Mass fraction of sodium chloride	Mass fraction of zinc(II) hypophosphite (Zn(H2PO2)2)	Mass density, kg/m3	uncertainty
0	.1861	1157	
.0611	.1912	1193	
.0984	.1953	1226	
.1314	.2067	1265	
.1624	.2187	1309	
.1914	.2255	1338	
.2279	.198	1369	
.2305	.1891	1367	
.2317	.1841	1360	
.2461	.1062	1324	
.2525	.074	1279	
.2567	.0431	1246	
.2602	.0219	1229	
.2642	0	1214	

System: sodium chloride + water + zinc(II) hypophosphite (Zn(H2PO2)2); phases: Liquid
Fixed: Pressure, kPa = 102.5
Fixed: Temperature, K = 298.15
Property: Viscosity, Pa*s (Liquid); method: Concentric cylinders viscometry
Mass fraction of sodium chloride	Mass fraction of zinc(II) hypophosphite (Zn(H2PO2)2)	Viscosity, Pa*s	uncertainty
0	.1861	.00204	
.0611	.1912	.00292	
.0984	.1953	.00321	
.1314	.2067	.0034	
.1624	.2187	.00356	
.1914	.2255	.00365	
.2279	.198	.0037	
.2305	.1891	.00357	
.2317	.1841	.00333	
.2461	.1062	.00279	
.2525	.074	.00234	
.2567	.0431	.00205	
.2602	.0219	.00185	
.2642	0	.0017	

System: sodium hypophosphite (NaH2PO2) + water + zinc(II) hypophosphite (Zn(H2PO2)2); phases: Liquid, Crystal of intercomponent compound 1
Fixed: Pressure, kPa = 102.5
Fixed: Temperature, K = 298.15
Property: Mass fraction of zinc(II) hypophosphite (Zn(H2PO2)2) (Liquid); method: Titration method
Mass fraction of sodium hypophosphite (NaH2PO2)	Mass fraction of zinc(II) hypophosphite (Zn(H2PO2)2)	uncertainty
0	.1861	
.1065	.1085	
.1852	.0728	
.2473	.0548	
.3021	.04	
.3081	.0383	
.3698	.0217	
.4034	.0186	
.439	.0185	
.4414	.0189	

System: sodium hypophosphite (NaH2PO2) + water + zinc(II) hypophosphite (Zn(H2PO2)2); phases: Liquid, Crystal of intercomponent compound 2
Fixed: Pressure, kPa = 102.5
Fixed: Temperature, K = 298.15
Property: Mass fraction of zinc(II) hypophosphite (Zn(H2PO2)2) (Liquid); method: Titration method
Mass fraction of sodium hypophosphite (NaH2PO2)	Mass fraction of zinc(II) hypophosphite (Zn(H2PO2)2)	uncertainty
.4414	.0189	
.456	.0119	
.474	.0064	
.5196	0	

System: sodium hypophosphite (NaH2PO2) + water + zinc(II) hypophosphite (Zn(H2PO2)2); phases: Liquid
Fixed: Pressure, kPa = 102.5
Fixed: Temperature, K = 298.15
Property: Mass density, kg/m3 (Liquid); method: Vibrating tube method
Mass fraction of sodium hypophosphite (NaH2PO2)	Mass fraction of zinc(II) hypophosphite (Zn(H2PO2)2)	Mass density, kg/m3	uncertainty
0	.1861	1157	
.1065	.1085	1165	
.1852	.0728	1195	
.2473	.0548	1223	
.3021	.04	1259	
.3081	.0383	1262	
.3698	.0217	1300	
.4034	.0186	1320	
.439	.0185	1337	
.4414	.0189	1343	
.456	.0119	1353	
.474	.0064	1370	
.5196	0	1394	

System: sodium hypophosphite (NaH2PO2) + water + zinc(II) hypophosphite (Zn(H2PO2)2); phases: Liquid
Fixed: Pressure, kPa = 102.5
Fixed: Temperature, K = 298.15
Property: Viscosity, Pa*s (Liquid); method: Concentric cylinders viscometry
Mass fraction of sodium hypophosphite (NaH2PO2)	Mass fraction of zinc(II) hypophosphite (Zn(H2PO2)2)	Viscosity, Pa*s	uncertainty
0	.1861	.00204	
.1065	.1085	.0024	
.1852	.0728	.00265	
.2473	.0548	.00311	
.3021	.04	.0039	
.3081	.0383	.00396	
.3698	.0217	.00569	
.4034	.0186	.00836	
.439	.0185	.01328	
.4414	.0189	.01518	
.456	.0119	.01457	
.474	.0064	.01445	
.5196	0	.0176	

System: sodium chloride + water; phases: Liquid
Property: Mass density, kg/m3 (Liquid); method: Vibrating tube method
Mass fraction of sodium chloride	Pressure, kPa	Temperature, K	Mass density, kg/m3	uncertainty
.2642	102.5	298.15	1194	
.2642	102.5	298.15	1214	

System: sodium chloride + water; phases: Liquid
Property: Viscosity, Pa*s (Liquid); method: Concentric cylinders viscometry
Mass fraction of sodium chloride	Pressure, kPa	Temperature, K	Viscosity, Pa*s	uncertainty
.2642	102.5	298.15	.0015	
.2642	102.5	298.15	.0017	

System: sodium chloride + water; phases: Liquid, Crystal of intercomponent compound 1
Property: Mass fraction of sodium chloride (Liquid); method: Titration method
Pressure, kPa	Temperature, K	Mass fraction of sodium chloride	uncertainty
102.5	298.15	.2642	

System: sodium hypophosphite (NaH2PO2) + water; phases: Liquid
Property: Mass density, kg/m3 (Liquid); method: Vibrating tube method
Mass fraction of sodium hypophosphite (NaH2PO2)	Pressure, kPa	Temperature, K	Mass density, kg/m3	uncertainty
.5196	102.5	298.15	1394	

System: sodium hypophosphite (NaH2PO2) + water; phases: Liquid
Property: Viscosity, Pa*s (Liquid); method: Concentric cylinders viscometry
Mass fraction of sodium hypophosphite (NaH2PO2)	Pressure, kPa	Temperature, K	Viscosity, Pa*s	uncertainty
.5196	102.5	298.15	.0176	

System: sodium hypophosphite (NaH2PO2) + water; phases: Liquid, Crystal of intercomponent compound 2
Property: Mass fraction of sodium hypophosphite (NaH2PO2) (Liquid); method: Titration method
Pressure, kPa	Temperature, K	Mass fraction of sodium hypophosphite (NaH2PO2)	uncertainty
102.5	298.15	.5196	

System: water + zinc(II) hypophosphite (Zn(H2PO2)2); phases: Liquid, Crystal of intercomponent compound 1
Property: Mass fraction of zinc(II) hypophosphite (Zn(H2PO2)2) (Liquid); method: Titration method
Temperature, K	Pressure, kPa	Mass fraction of zinc(II) hypophosphite (Zn(H2PO2)2)	uncertainty
298.15	102.5	.1861	

System: water + zinc(II) hypophosphite (Zn(H2PO2)2); phases: Liquid
Property: Mass density, kg/m3 (Liquid); method: Vibrating tube method
Mass fraction of zinc(II) hypophosphite (Zn(H2PO2)2)	Pressure, kPa	Temperature, K	Mass density, kg/m3	uncertainty
.1861	102.5	298.15	1157	

System: water + zinc(II) hypophosphite (Zn(H2PO2)2); phases: Liquid
Property: Viscosity, Pa*s (Liquid); method: Concentric cylinders viscometry
Mass fraction of water	Pressure, kPa	Temperature, K	Viscosity, Pa*s	uncertainty
.5196	102.5	298.15	.00204	
