Measured thermophysical data. Thermodynamic Equilibrium of Aqueous Two-Phase Systems Composed of [C4mim]BF4 + MgCl2/Na2WO4 + H2O at Different Temperatures
Source: J. Chem. Eng. Data, 2016, 10.1021/acs.jced.5b01010
Compound 1: 1-butyl-3-methylimidazolium tetrafluoroborate, C8H15BF4N2, purity 99%
Compound 2: magnesium chloride, Cl2Mg, purity 99%
Compound 3: sodium tungsten oxide, Na2O4W, purity 99%
Compound 4: water, H2O, purity 99.9%

System: water + magnesium chloride + 1-butyl-3-methylimidazolium tetrafluoroborate; phases: Liquid mixture 1, Liquid mixture 2
Fixed: Pressure, kPa = 100
Property: Mass fraction of magnesium chloride (Liquid mixture 1); method: Titration method
Temperature, K	Mass fraction of 1-butyl-3-methylimidazolium tetrafluoroborate	Mass fraction of magnesium chloride	uncertainty
288.15	.931	.0021	
288.15	.9157	.0026	
288.15	.7804	.0065	
288.15	.7704	.0069	
288.15	.6803	.0094	
288.15	.6284	.0107	
288.15	.5941	.0117	
288.15	.5635	.0128	
288.15	.5352	.0136	
288.15	.497	.0155	
288.15	.4752	.0162	
288.15	.4439	.0177	
288.15	.3952	.0201	
288.15	.3652	.0221	
288.15	.3426	.0242	
288.15	.3265	.0263	
288.15	.2983	.03	
288.15	.2777	.0336	
288.15	.263	.0371	
288.15	.2495	.0402	
288.15	.2337	.0447	
288.15	.2214	.049	
288.15	.21	.0552	
288.15	.1979	.0614	
288.15	.1902	.0662	
288.15	.1776	.0718	
288.15	.1697	.078	
288.15	.1571	.0856	
288.15	.1513	.0918	
288.15	.1435	.0977	
288.15	.1348	.1062	
288.15	.1269	.114	
288.15	.1181	.1239	
288.15	.1105	.1327	
288.15	.0995	.1492	
288.15	.0869	.17	
288.15	.0655	.195	
288.15	.0513	.211	
288.15	.0451	.225	
298.15	.935	.002	
298.15	.9103	.0029	
298.15	.7776	.0083	
298.15	.7085	.0124	
298.15	.631	.017	
298.15	.6036	.0192	
298.15	.5753	.021	
298.15	.5364	.0238	
298.15	.5	.0268	
298.15	.4656	.0304	
298.15	.4384	.0328	
298.15	.4154	.0351	
298.15	.3891	.0382	
298.15	.3609	.0422	
298.15	.3346	.0444	
298.15	.3115	.049	
298.15	.2842	.0516	
298.15	.2708	.0544	
298.15	.2552	.0605	
298.15	.2453	.0632	
298.15	.2254	.0678	
298.15	.2144	.0715	
298.15	.2042	.0772	
298.15	.1909	.0817	
298.15	.1834	.0841	
298.15	.1745	.0919	
298.15	.1615	.0994	
298.15	.1544	.1047	
298.15	.1455	.1124	
298.15	.1393	.1165	
298.15	.1307	.1254	
298.15	.1241	.1311	
298.15	.1159	.141	
298.15	.1085	.15	
298.15	.1	.1614	
298.15	.0867	.1832	
298.15	.079	.217	
298.15	.074	.228	
298.15	.068	.2375	
308.15	.8964	.0052	
308.15	.8471	.0077	
308.15	.786	.0123	
308.15	.6488	.0235	
308.15	.5947	.0269	
308.15	.5614	.0308	
308.15	.5324	.0342	
308.15	.5053	.0373	
308.15	.4808	.0401	
308.15	.4628	.0417	
308.15	.4279	.046	
308.15	.4069	.0497	
308.15	.3915	.0517	
308.15	.3735	.0534	
308.15	.3513	.0565	
308.15	.3333	.0599	
308.15	.3152	.0622	
308.15	.3012	.0654	
308.15	.282	.0694	
308.15	.2706	.0729	
308.15	.2619	.0758	
308.15	.2449	.0796	
308.15	.2324	.0843	
308.15	.2206	.0883	
308.15	.2105	.092	
308.15	.2057	.0938	
308.15	.1919	.099	
308.15	.1806	.1062	
308.15	.17	.1127	
308.15	.1625	.1171	
308.15	.1505	.1244	
308.15	.1411	.1313	
308.15	.1309	.141	
308.15	.1191	.1544	
308.15	.0997	.1811	
308.15	.078	.2085	
308.15	.0693	.229	
308.15	.0521	.252	
308.15	.0455	.2678	

System: water + magnesium chloride + 1-butyl-3-methylimidazolium tetrafluoroborate; phases: Liquid mixture 2, Liquid mixture 1
Fixed: Pressure, kPa = 100
Property: Mass fraction of magnesium chloride (Liquid mixture 2); method: Phase equilibration
Property: Mass fraction of magnesium chloride (Liquid mixture 1); method: Phase equilibration
Property: Mass fraction of 1-butyl-3-methylimidazolium tetrafluoroborate (Liquid mixture 1); method: Phase equilibration
Temperature, K	Mass fraction of 1-butyl-3-methylimidazolium tetrafluoroborate	Mass fraction of magnesium chloride	uncertainty	Mass fraction of magnesium chloride	uncertainty	Mass fraction of 1-butyl-3-methylimidazolium tetrafluoroborate	uncertainty
288.15	.8894	.0037	.000037	.2118	.002118	.0495	.000495
308.15	.7769	.0133	.000133	.225	.00225	.0701	.000701
288.15	.8635	.0041	.000041	.2075	.002075	.0535	.000535
288.15	.8227	.0048	.000048	.1967	.001967	.0634	.000634
288.15	.925	.0032	.000032	.2221	.002221	.0467	.000467
298.15	.8633	.0048	.000048	.215	.00215	.08	.0008
298.15	.9014	.0031	.000031	.225	.00225	.075	.00075
298.15	.8391	.0058	.000058	.209	.00209	.0845	.000845
298.15	.9307	.0023	.000023	.2353	.002353	.0691	.000691
308.15	.8804	.0058	.000058	.2601	.002601	.0477	.000477
308.15	.8093	.011	.00011	.236	.00236	.06	.0006
308.15	.8416	.0087	.000087	.248	.00248	.054	.00054

System: water + sodium tungsten oxide + 1-butyl-3-methylimidazolium tetrafluoroborate; phases: Liquid mixture 1, Liquid mixture 2
Fixed: Pressure, kPa = 100
Property: Mass fraction of sodium tungsten oxide (Liquid mixture 1); method: Titration method
Temperature, K	Mass fraction of 1-butyl-3-methylimidazolium tetrafluoroborate	Mass fraction of sodium tungsten oxide	uncertainty
288.15	.8421	.0045	
288.15	.7279	.0069	
288.15	.6956	.0078	
288.15	.6343	.0086	
288.15	.5902	.0108	
288.15	.5479	.012	
288.15	.5121	.0145	
288.15	.4945	.0152	
288.15	.4617	.0169	
288.15	.4473	.0171	
288.15	.4088	.0201	
288.15	.3774	.0231	
288.15	.3593	.0243	
288.15	.3339	.0267	
288.15	.3003	.0314	
288.15	.2642	.0376	
288.15	.2544	.0405	
288.15	.2361	.046	
288.15	.2132	.0569	
288.15	.2034	.0649	
288.15	.1927	.0688	
288.15	.1861	.0731	
288.15	.1805	.083	
288.15	.1774	.0793	
288.15	.1701	.0872	
288.15	.1619	.0946	
288.15	.1579	.1015	
288.15	.1544	.1049	
288.15	.1433	.1138	
288.15	.1476	.1112	
288.15	.1378	.1237	
288.15	.1289	.1349	
288.15	.125	.1398	
288.15	.1216	.1447	
288.15	.1168	.1518	
288.15	.1088	.165	
288.15	.1052	.1831	
288.15	.102	.1942	
298.15	.9502	.0025	
298.15	.8174	.0063	
298.15	.7883	.0074	
298.15	.6912	.0126	
298.15	.6208	.017	
298.15	.5815	.0185	
298.15	.5595	.0204	
298.15	.5314	.024	
298.15	.4957	.027	
298.15	.4725	.0297	
298.15	.4506	.0325	
298.15	.4108	.0372	
298.15	.394	.0395	
298.15	.3788	.0415	
298.15	.3519	.0449	
298.15	.321	.05	
298.15	.3053	.0531	
298.15	.2926	.0548	
298.15	.2704	.0612	
298.15	.2566	.0634	
298.15	.2454	.0685	
298.15	.2286	.0755	
298.15	.2141	.0819	
298.15	.1963	.0918	
298.15	.1839	.0973	
298.15	.1776	.1041	
298.15	.1663	.1132	
298.15	.1596	.1195	
298.15	.145	.1335	
298.15	.1416	.137	
298.15	.1341	.1457	
298.15	.1285	.153	
298.15	.1197	.1644	
298.15	.1113	.1776	
298.15	.1029	.191	
298.15	.1027	.201	
298.15	.1022	.2085	
298.15	.1017	.2201	
298.15	.1013	.235	
308.15	.8635	.0066	
308.15	.8214	.0077	
308.15	.7005	.0148	
308.15	.6384	.0208	
308.15	.6232	.0223	
308.15	.5909	.0254	
308.15	.5632	.0296	
308.15	.5201	.0353	
308.15	.5078	.0362	
308.15	.4646	.0426	
308.15	.4462	.0456	
308.15	.4201	.049	
308.15	.4096	.052	
308.15	.3909	.0547	
308.15	.3641	.0605	
308.15	.3422	.0643	
308.15	.321	.0691	
308.15	.2979	.0748	
308.15	.2888	.0791	
308.15	.2708	.0837	
308.15	.2499	.0887	
308.15	.2344	.0946	
308.15	.2265	.0983	
308.15	.217	.1035	
308.15	.2058	.1082	
308.15	.1955	.1138	
308.15	.1851	.1197	
308.15	.1734	.129	
308.15	.1669	.1346	
308.15	.1592	.1402	
308.15	.1531	.146	
308.15	.1472	.1517	
308.15	.14	.1595	
308.15	.1335	.1668	
308.15	.1275	.1737	
308.15	.122	.18	
308.15	.1105	.195	
308.15	.1041	.2062	
308.15	.0987	.219	

System: water + sodium tungsten oxide + 1-butyl-3-methylimidazolium tetrafluoroborate; phases: Liquid mixture 2, Liquid mixture 1
Fixed: Pressure, kPa = 100
Property: Mass fraction of 1-butyl-3-methylimidazolium tetrafluoroborate (Liquid mixture 2); method: Phase equilibration
Property: Mass fraction of 1-butyl-3-methylimidazolium tetrafluoroborate (Liquid mixture 1); method: Phase equilibration
Property: Mass fraction of sodium tungsten oxide (Liquid mixture 1); method: Phase equilibration
Temperature, K	Mass fraction of sodium tungsten oxide	Mass fraction of 1-butyl-3-methylimidazolium tetrafluoroborate	uncertainty	Mass fraction of 1-butyl-3-methylimidazolium tetrafluoroborate	uncertainty	Mass fraction of sodium tungsten oxide	uncertainty
288.15	.1808	.1078	.001078	.7144	.007144	.007	.00007
298.15	.2078	.1025	.001025	.7573	.007573	.0089	.000089
298.15	.2006	.1023	.001023	.7295	.007295	.0102	.000102
308.15	.2107	.1029	.001029	.7112	.007112	.0153	.000153
308.15	.2039	.106	.00106	.6832	.006832	.0175	.000175
308.15	.1946	.111	.00111	.6525	.006525	.0201	.000201
308.15	.2185	.0996	.000996	.7328	.007328	.0137	.000137
288.15	.1935	.1026	.001026	.7588	.007588	.0061	.000061
288.15	.1705	.1122	.001122	.6841	.006841	.0077	.000077
288.15	.188	.1048	.001048	.7383	.007383	.0065	.000065
298.15	.234	.1014	.001014	.8333	.008333	.0057	.000057
298.15	.2195	.1018	.001018	.7818	.007818	.0078	.000078
