Measured thermophysical data. Solubilities of Dihydroxylammonium 5,5'-Bistetrazole-1,1'-diolate in Various Pure Solvents at Temperatures Between 293.15 and 323.15 K
Source: J. Chem. Eng. Data, 2016, 10.1021/acs.jced.6b00009
Compound 1: toluene, C7H8, purity 99%
Compound 2: dimethylformamide, C3H7NO, purity 99%
Compound 3: methanoic acid, CH2O2, purity 98%
Compound 4: dimethyl sulfoxide, C2H6OS, purity 99%
Compound 5: ethanol, C2H6O, purity 99%
Compound 6: ethyl acetate, C4H8O2, purity 99%
Compound 7: water, H2O, purity 99.9%
Compound 8: TKX-50, C2H8N10O4

System: water + TKX-50; phases: Liquid, Crystal
Fixed: Pressure, kPa = 100
Property: Mole fraction of TKX-50 (Liquid); method: gravimetric
Temperature, K	Mole fraction of TKX-50	uncertainty
293.15	.00002416	
298.15	.00002828	
303.15	.00003289	
308.15	.00003592	
313.15	.00004174	
318.15	.00004835	
323.15	.00005501	

System: dimethylformamide + TKX-50; phases: Liquid, Crystal
Fixed: Pressure, kPa = 100
Property: Mole fraction of TKX-50 (Liquid); method: gravimetric
Temperature, K	Mole fraction of TKX-50	uncertainty
293.15	.00006376	
298.15	.00007178	
303.15	.00009564	
308.15	.0001423	
313.15	.000183	
318.15	.000225	
323.15	.0002692	

System: methanoic acid + TKX-50; phases: Liquid, Crystal
Fixed: Pressure, kPa = 100
Property: Mole fraction of TKX-50 (Liquid); method: gravimetric
Temperature, K	Mole fraction of TKX-50	uncertainty
293.15	.0002131	
298.15	.0002309	
303.15	.0002503	
308.15	.0002796	
313.15	.0003023	
318.15	.0003465	
323.15	.0003924	

System: toluene + TKX-50; phases: Liquid, Crystal
Fixed: Pressure, kPa = 100
Property: Mole fraction of TKX-50 (Liquid); method: gravimetric
Temperature, K	Mole fraction of TKX-50	uncertainty
293.15	.00001847	
298.15	.000022	
303.15	.00002443	
308.15	.00002597	
313.15	.00002895	
318.15	.00003236	
323.15	.00003686	

System: dimethyl sulfoxide + TKX-50; phases: Liquid, Crystal
Fixed: Pressure, kPa = 100
Property: Mole fraction of TKX-50 (Liquid); method: gravimetric
Temperature, K	Mole fraction of TKX-50	uncertainty
293.15	.001221	
298.15	.001306	
303.15	.001491	
308.15	.001591	
313.15	.00179	
318.15	.001912	
323.15	.002111	

System: ethanol + TKX-50; phases: Liquid, Crystal
Fixed: Pressure, kPa = 100
Property: Mole fraction of TKX-50 (Liquid); method: gravimetric
Temperature, K	Mole fraction of TKX-50	uncertainty
293.15	.000003873	
298.15	.000004823	
303.15	.000005918	
308.15	.000007187	
313.15	.000008156	
318.15	.000009643	
323.15	.00001213	

System: ethyl acetate + TKX-50; phases: Liquid, Crystal
Fixed: Pressure, kPa = 100
Property: Mole fraction of TKX-50 (Liquid); method: gravimetric
Temperature, K	Mole fraction of TKX-50	uncertainty
293.15	.000001933	
298.15	.000002159	
303.15	.000002374	
308.15	.000002718	
313.15	.00000316	
318.15	.000003564	
323.15	.000003919	
