Measured thermophysical data. Surface Tension of Tricyanomethanide- and Tetracyanoborate-Based Imidazolium Ionic Liquids by Using the Pendant Drop Method
Source: J. Chem. Eng. Data, 2015, 10.1021/acs.jced.5b00303
Compound 1: 1-ethyl-3-methyl-1H-imidazolium tricyanomethanide, C10H11N5
Compound 2: 1-butyl-3-methylimidazolium tricyanomethane, C12H15N5
Compound 3: 3-hexyl-1-methylimidazolium tricyanomethanide, C14H19N5
Compound 4: 1-octyl-3-methylimidazolium tricyanomethanide, C16H23N5
Compound 5: 1-octyl-3-methylimidazolium tetracyanoborate, C16H23BN6
Compound 6: 1-hexyl-3-methylimidazolium tetracyanoborate, C14H19BN6
Compound 7: 1-butyl-3-methyl-1H-imidazolium tetracyanoborate, C12H15BN6
Compound 8: 1-ethyl-3-methylimidazolium tetracyanoborate, C10H11BN6
Compound 9: 1,3-dimethylimidazolium tetracyanoborate, C9H9BN6

System: 1-ethyl-3-methyl-1H-imidazolium tricyanomethanide; phases: Liquid, Air at 1 atmosphere
Property: Surface tension liquid-gas, N/m (Liquid); method: Pendant drop shape
Temperature, K	Surface tension liquid-gas, N/m	uncertainty
283.18	.0511	.001022
293.25	.0504	.001008
303.24	.04939	.0009878
313.1	.04862	.0009724
323.08	.04783	.0009566
333.17	.04719	.0009438
343.09	.04655	.000931
353.36	.04468	.0008936

System: 1-butyl-3-methylimidazolium tricyanomethane; phases: Liquid, Air at 1 atmosphere
Property: Surface tension liquid-gas, N/m (Liquid); method: Pendant drop shape
Temperature, K	Surface tension liquid-gas, N/m	uncertainty
283.39	.051	.00102
293.33	.04923	.0009846
303.19	.04844	.0009688
313.08	.04734	.0009468
323.07	.0464	.000928
333.02	.04555	.000911
343.42	.04487	.0008974
353.37	.04403	.0008806

System: 3-hexyl-1-methylimidazolium tricyanomethanide; phases: Liquid, Air at 1 atmosphere
Property: Surface tension liquid-gas, N/m (Liquid); method: Pendant drop shape
Temperature, K	Surface tension liquid-gas, N/m	uncertainty
283.23	.04444	.0008888
293.35	.04355	.000871
303.33	.04288	.0008576
313.26	.04209	.0008418
323.25	.04149	.0008298
333.18	.0408	.000816
343.11	.03991	.0007982
353.53	.03907	.0007814

System: 1-octyl-3-methylimidazolium tricyanomethanide; phases: Liquid, Air at 1 atmosphere
Property: Surface tension liquid-gas, N/m (Liquid); method: Pendant drop shape
Temperature, K	Surface tension liquid-gas, N/m	uncertainty
283.28	.04007	.0008014
293.21	.03903	.0007806
303.32	.03838	.0007676
313.21	.03765	.000753
323.12	.03689	.0007378
333.1	.03609	.0007218
343.16	.03531	.0007062
353.03	.03489	.0006978

System: 1-octyl-3-methylimidazolium tetracyanoborate; phases: Liquid, Air at 1 atmosphere
Property: Surface tension liquid-gas, N/m (Liquid); method: Pendant drop shape
Temperature, K	Surface tension liquid-gas, N/m	uncertainty
283.23	.03864	.0007728
293.32	.03801	.0007602
303.3	.03681	.0007362
313.27	.03618	.0007236
323.23	.03519	.0007038
333.18	.03415	.000683
343.21	.03344	.0006688
353.28	.03241	.0006482

System: 1-hexyl-3-methylimidazolium tetracyanoborate; phases: Liquid, Air at 1 atmosphere
Property: Surface tension liquid-gas, N/m (Liquid); method: Pendant drop shape
Temperature, K	Surface tension liquid-gas, N/m	uncertainty
283.27	.04199	.0008398
293.29	.04132	.0008264
303.27	.0404	.000808
313.29	.03939	.0007878
323.26	.0386	.000772
333.2	.03761	.0007522
343.18	.037	.00074
353.25	.03586	.0007172

System: 1-butyl-3-methyl-1H-imidazolium tetracyanoborate; phases: Liquid, Air at 1 atmosphere
Property: Surface tension liquid-gas, N/m (Liquid); method: Pendant drop shape
Temperature, K	Surface tension liquid-gas, N/m	uncertainty
283.23	.04523	.0009046
293.23	.04464	.0008928
303.3	.04365	.000873
313.24	.04262	.0008524
323.24	.04171	.0008342
333.2	.04081	.0008162
343.22	.03987	.0007974
353.3	.03908	.0007816

System: 1-ethyl-3-methylimidazolium tetracyanoborate; phases: Liquid, Air at 1 atmosphere
Property: Surface tension liquid-gas, N/m (Liquid); method: Pendant drop shape
Temperature, K	Surface tension liquid-gas, N/m	uncertainty
283.1	.04966	.0009932
293.26	.04872	.0009744
303.35	.04757	.0009514
313.29	.04645	.000929
323.2	.04567	.0009134
333.09	.04487	.0008974
343.12	.04404	.0008808
353.45	.0434	.000868

System: 1,3-dimethylimidazolium tetracyanoborate; phases: Liquid, Air at 1 atmosphere
Property: Surface tension liquid-gas, N/m (Liquid); method: Pendant drop shape
Temperature, K	Surface tension liquid-gas, N/m	uncertainty
283.19	.03544	.0007088
293.24	.03474	.0006948
303.28	.03367	.0006734
313.26	.03307	.0006614
323.17	.03205	.000641
333.17	.03137	.0006274
343.13	.0306	.000612
353.24	.02998	.0005996
