Measured thermophysical data. Activity Coefficients at Infinite Dilution of Organic Solutes and Water in Tributylethylphosphonium Diethylphosphate Using Gas Liquid Chromatography: Thermodynamic Properties of Mixtures Containing Ionic Liquids
Source: J. Chem. Eng. Data, 2016, 10.1021/acs.jced.5b00980
Compound 1: tributylethylphosphonium diethylphosphate, C18H42O4P2, purity 99%
Compound 2: hexane, C6H14, purity 99%
Compound 3: 3-methylpentane, C6H14, purity 99%
Compound 4: 2,2-dimethylbutane, C6H14, purity 99%
Compound 5: heptane, C7H16, purity 99.5%
Compound 6: octane, C8H18, purity 99%
Compound 7: 2,2,4-trimethylpentane, C8H18, purity 99%
Compound 8: nonane, C9H20, purity 99%
Compound 9: decane, C10H22, purity 99%
Compound 10: cyclopentane, C5H10, purity 99%
Compound 11: cyclohexane, C6H12, purity 99%
Compound 12: methylcyclohexane, C7H14, purity 99%
Compound 13: cycloheptane, C7H14, purity 98%
Compound 14: cyclooctane, C8H16, purity 99%
Compound 15: hex-1-ene, C6H12, purity 99%
Compound 16: cyclohexene, C6H10, purity 99%
Compound 17: 1-heptene, C7H14, purity 99%
Compound 18: oct-1-ene, C8H16, purity 98%
Compound 19: 1-decene, C10H20, purity 97%
Compound 20: 1-pentyne, C5H8, purity 97%
Compound 21: 1-hexyne, C6H10, purity 97%
Compound 22: 1-heptyne, C7H12, purity 98%
Compound 23: 1-octyne, C8H14, purity 97%
Compound 24: benzene, C6H6, purity 99.8%
Compound 25: toluene, C7H8, purity 99.8%
Compound 26: ethylbenzene, C8H10, purity 99.8%
Compound 27: o-xylene, C8H10, purity 99%
Compound 28: m-xylene, C8H10, purity 99%
Compound 29: p-xylene, C8H10, purity 99%
Compound 30: styrene, C8H8, purity 99.9%
Compound 31: methanol, CH4O, purity 99.9%
Compound 32: ethanol, C2H6O, purity 99.8%
Compound 33: water, H2O, purity 99.8%
Compound 34: thiophene, C4H4S, purity 99%
Compound 35: oxolane, C4H8O, purity 99.9%
Compound 36: 1,4-dioxane, C4H8O2, purity 99.8%
Compound 37: tert-butyl methyl ether, C5H12O, purity 99.8%
Compound 38: methyl tert-pentyl ether, C6H14O, purity 99%
Compound 39: ethyl tert-butyl ether, C6H14O, purity 99%
Compound 40: diethyl ether, C4H10O, purity 99.9%
Compound 41: 1-propoxypropane, C6H14O, purity 99%
Compound 42: diisopropyl ether, C6H14O, purity 99%
Compound 43: 1-butoxybutane, C8H18O, purity 99.3%
Compound 44: propan-2-one, C3H6O, purity 99.9%
Compound 45: pentan-2-one, C5H10O, purity 99%
Compound 46: pentan-3-one, C5H10O, purity 99%
Compound 47: 2-hexanone, C6H12O, purity 99%
Compound 48: 3-hexanone, C6H12O, purity 99%
Compound 49: acetonitrile, C2H3N, purity 99.9%
Compound 50: pyridine, C5H5N, purity 99.8%
Compound 51: 1-nitropropane, C3H7NO2, purity 98.5%
Compound 52: pentane, C5H12, purity 99%
Compound 53: 1-pentene, C5H10, purity 98.5%

System: tributylethylphosphonium diethylphosphate; phases: Glass, Liquid, Air at 1 atmosphere
Property: Triple point temperature, K (Glass); method: DSC
Triple point temperature, K	uncertainty
201.81	

System: tributylethylphosphonium diethylphosphate; phases: Liquid
Fixed: Pressure, kPa = 101.325
Property: Mass density, kg/m3 (Liquid); method: Vibrating tube method
Temperature, K	Mass density, kg/m3	uncertainty
298.15	996.1	
303.15	992.58	
308.15	989.06	
313.15	985.55	
318.15	982.04	
323.15	978.53	
328.15	975.03	
333.15	971.53	
338.15	968.03	
343.15	964.53	
348.15	961.01	
353.15	957.5	
358.15	954	
363.15	950.49	
368.15	946.98	

System: hexane + tributylethylphosphonium diethylphosphate; phases: Liquid
Fixed: Pressure, kPa = 100
Fixed: Mole fraction of hexane = 0
Property: Activity coefficient of hexane (Liquid); method: Other
Temperature, K	Activity coefficient of hexane	uncertainty
328.15	3.4	
338.15	3.33	
348.15	3.26	
358.15	3.21	
368.15	3.15	

System: 3-methylpentane + tributylethylphosphonium diethylphosphate; phases: Liquid
Fixed: Pressure, kPa = 100
Fixed: Mole fraction of 3-methylpentane = 0
Property: Activity coefficient of 3-methylpentane (Liquid); method: Other
Temperature, K	Activity coefficient of 3-methylpentane	uncertainty
328.15	3.17	
338.15	3.12	
348.15	3.07	
358.15	3.02	
368.15	2.98	

System: 2,2-dimethylbutane + tributylethylphosphonium diethylphosphate; phases: Liquid
Fixed: Pressure, kPa = 100
Fixed: Mole fraction of 2,2-dimethylbutane = 0
Property: Activity coefficient of 2,2-dimethylbutane (Liquid); method: Other
Temperature, K	Activity coefficient of 2,2-dimethylbutane	uncertainty
328.15	3.34	
338.15	3.27	
348.15	3.2	
358.15	3.14	
368.15	3.08	

System: heptane + tributylethylphosphonium diethylphosphate; phases: Liquid
Fixed: Pressure, kPa = 100
Fixed: Mole fraction of heptane = 0
Property: Activity coefficient of heptane (Liquid); method: Other
Temperature, K	Activity coefficient of heptane	uncertainty
328.15	4.08	
338.15	3.97	
348.15	3.87	
358.15	3.78	
368.15	3.7	

System: octane + tributylethylphosphonium diethylphosphate; phases: Liquid
Fixed: Pressure, kPa = 100
Fixed: Mole fraction of octane = 0
Property: Activity coefficient of octane (Liquid); method: Other
Temperature, K	Activity coefficient of octane	uncertainty
328.15	4.87	
338.15	4.74	
348.15	4.6	
358.15	4.47	
368.15	4.37	

System: 2,2,4-trimethylpentane + tributylethylphosphonium diethylphosphate; phases: Liquid
Fixed: Pressure, kPa = 100
Fixed: Mole fraction of 2,2,4-trimethylpentane = 0
Property: Activity coefficient of 2,2,4-trimethylpentane (Liquid); method: Other
Temperature, K	Activity coefficient of 2,2,4-trimethylpentane	uncertainty
328.15	4.38	
338.15	4.25	
348.15	4.15	
358.15	4.05	
368.15	3.97	

System: nonane + tributylethylphosphonium diethylphosphate; phases: Liquid
Fixed: Pressure, kPa = 100
Fixed: Mole fraction of nonane = 0
Property: Activity coefficient of nonane (Liquid); method: Other
Temperature, K	Activity coefficient of nonane	uncertainty
328.15	5.79	
338.15	5.6	
348.15	5.43	
358.15	5.27	
368.15	5.13	

System: decane + tributylethylphosphonium diethylphosphate; phases: Liquid
Fixed: Pressure, kPa = 100
Fixed: Mole fraction of decane = 0
Property: Activity coefficient of decane (Liquid); method: Other
Temperature, K	Activity coefficient of decane	uncertainty
328.15	7.01	
338.15	6.74	
348.15	6.49	
358.15	6.26	
368.15	6.05	

System: cyclopentane + tributylethylphosphonium diethylphosphate; phases: Liquid
Fixed: Pressure, kPa = 100
Fixed: Mole fraction of cyclopentane = 0
Property: Activity coefficient of cyclopentane (Liquid); method: Other
Temperature, K	Activity coefficient of cyclopentane	uncertainty
328.15	1.83	
338.15	1.8	
348.15	1.77	
358.15	1.74	
368.15	1.71	

System: cyclohexane + tributylethylphosphonium diethylphosphate; phases: Liquid
Fixed: Pressure, kPa = 100
Fixed: Mole fraction of cyclohexane = 0
Property: Activity coefficient of cyclohexane (Liquid); method: Other
Temperature, K	Activity coefficient of cyclohexane	uncertainty
328.15	2.17	
338.15	2.13	
348.15	2.09	
358.15	2.05	
368.15	2.01	

System: methylcyclohexane + tributylethylphosphonium diethylphosphate; phases: Liquid
Fixed: Pressure, kPa = 100
Fixed: Mole fraction of methylcyclohexane = 0
Property: Activity coefficient of methylcyclohexane (Liquid); method: Other
Temperature, K	Activity coefficient of methylcyclohexane	uncertainty
328.15	2.62	
338.15	2.57	
348.15	2.52	
358.15	2.48	
368.15	2.44	

System: cycloheptane + tributylethylphosphonium diethylphosphate; phases: Liquid
Fixed: Pressure, kPa = 100
Fixed: Mole fraction of cycloheptane = 0
Property: Activity coefficient of cycloheptane (Liquid); method: Other
Temperature, K	Activity coefficient of cycloheptane	uncertainty
328.15	2.48	
338.15	2.42	
348.15	2.37	
358.15	2.32	
368.15	2.27	

System: cyclooctane + tributylethylphosphonium diethylphosphate; phases: Liquid
Fixed: Pressure, kPa = 100
Fixed: Mole fraction of cyclooctane = 0
Property: Activity coefficient of cyclooctane (Liquid); method: Other
Temperature, K	Activity coefficient of cyclooctane	uncertainty
328.15	2.82	
338.15	2.74	
348.15	2.69	
358.15	2.63	
368.15	2.57	

System: hex-1-ene + tributylethylphosphonium diethylphosphate; phases: Liquid
Fixed: Pressure, kPa = 100
Fixed: Mole fraction of hex-1-ene = 0
Property: Activity coefficient of hex-1-ene (Liquid); method: Other
Temperature, K	Activity coefficient of hex-1-ene	uncertainty
328.15	2.59	
338.15	2.54	
348.15	2.49	
358.15	2.44	
368.15	2.4	

System: cyclohexene + tributylethylphosphonium diethylphosphate; phases: Liquid
Fixed: Pressure, kPa = 100
Fixed: Mole fraction of cyclohexene = 0
Property: Activity coefficient of cyclohexene (Liquid); method: Other
Temperature, K	Activity coefficient of cyclohexene	uncertainty
328.15	1.72	
338.15	1.69	
348.15	1.67	
358.15	1.65	
368.15	1.63	

System: 1-heptene + tributylethylphosphonium diethylphosphate; phases: Liquid
Fixed: Pressure, kPa = 100
Fixed: Mole fraction of 1-heptene = 0
Property: Activity coefficient of 1-heptene (Liquid); method: Other
Temperature, K	Activity coefficient of 1-heptene	uncertainty
328.15	3.06	
338.15	3.01	
348.15	2.97	
358.15	2.93	
368.15	2.89	

System: oct-1-ene + tributylethylphosphonium diethylphosphate; phases: Liquid
Fixed: Pressure, kPa = 100
Fixed: Mole fraction of oct-1-ene = 0
Property: Activity coefficient of oct-1-ene (Liquid); method: Other
Temperature, K	Activity coefficient of oct-1-ene	uncertainty
328.15	3.68	
338.15	3.6	
348.15	3.52	
358.15	3.45	
368.15	3.39	

System: 1-decene + tributylethylphosphonium diethylphosphate; phases: Liquid
Fixed: Pressure, kPa = 100
Fixed: Mole fraction of 1-decene = 0
Property: Activity coefficient of 1-decene (Liquid); method: Other
Temperature, K	Activity coefficient of 1-decene	uncertainty
328.15	5.2	
338.15	5.06	
348.15	4.93	
358.15	4.81	
368.15	4.69	

System: 1-pentyne + tributylethylphosphonium diethylphosphate; phases: Liquid
Fixed: Pressure, kPa = 100
Fixed: Mole fraction of 1-pentyne = 0
Property: Activity coefficient of 1-pentyne (Liquid); method: Other
Temperature, K	Activity coefficient of 1-pentyne	uncertainty
328.15	.725	
338.15	.762	
348.15	.797	
358.15	.833	
368.15	.866	

System: 1-hexyne + tributylethylphosphonium diethylphosphate; phases: Liquid
Fixed: Pressure, kPa = 100
Fixed: Mole fraction of 1-hexyne = 0
Property: Activity coefficient of 1-hexyne (Liquid); method: Other
Temperature, K	Activity coefficient of 1-hexyne	uncertainty
328.15	.849	
338.15	.893	
348.15	.936	
358.15	.979	
368.15	1.02	

System: 1-heptyne + tributylethylphosphonium diethylphosphate; phases: Liquid
Fixed: Pressure, kPa = 100
Fixed: Mole fraction of 1-heptyne = 0
Property: Activity coefficient of 1-heptyne (Liquid); method: Other
Temperature, K	Activity coefficient of 1-heptyne	uncertainty
328.15	1.01	
338.15	1.05	
348.15	1.09	
358.15	1.13	
368.15	1.17	

System: 1-octyne + tributylethylphosphonium diethylphosphate; phases: Liquid
Fixed: Pressure, kPa = 100
Fixed: Mole fraction of 1-octyne = 0
Property: Activity coefficient of 1-octyne (Liquid); method: Other
Temperature, K	Activity coefficient of 1-octyne	uncertainty
328.15	1.17	
338.15	1.22	
348.15	1.28	
358.15	1.33	
368.15	1.38	

System: benzene + tributylethylphosphonium diethylphosphate; phases: Liquid
Fixed: Pressure, kPa = 100
Fixed: Mole fraction of benzene = 0
Property: Activity coefficient of benzene (Liquid); method: Other
Temperature, K	Activity coefficient of benzene	uncertainty
328.15	.871	
338.15	.863	
348.15	.855	
358.15	.847	
368.15	.84	

System: toluene + tributylethylphosphonium diethylphosphate; phases: Liquid
Fixed: Pressure, kPa = 100
Fixed: Mole fraction of toluene = 0
Property: Activity coefficient of toluene (Liquid); method: Other
Temperature, K	Activity coefficient of toluene	uncertainty
328.15	1.2	
338.15	1.19	
348.15	1.18	
358.15	1.16	
368.15	1.15	

System: ethylbenzene + tributylethylphosphonium diethylphosphate; phases: Liquid
Fixed: Pressure, kPa = 100
Fixed: Mole fraction of ethylbenzene = 0
Property: Activity coefficient of ethylbenzene (Liquid); method: Other
Temperature, K	Activity coefficient of ethylbenzene	uncertainty
328.15	1.55	
338.15	1.52	
348.15	1.49	
358.15	1.46	
368.15	1.44	

System: o-xylene + tributylethylphosphonium diethylphosphate; phases: Liquid
Fixed: Pressure, kPa = 100
Fixed: Mole fraction of o-xylene = 0
Property: Activity coefficient of o-xylene (Liquid); method: Other
Temperature, K	Activity coefficient of o-xylene	uncertainty
328.15	1.55	
338.15	1.52	
348.15	1.5	
358.15	1.47	
368.15	1.45	

System: m-xylene + tributylethylphosphonium diethylphosphate; phases: Liquid
Fixed: Pressure, kPa = 100
Fixed: Mole fraction of m-xylene = 0
Property: Activity coefficient of m-xylene (Liquid); method: Other
Temperature, K	Activity coefficient of m-xylene	uncertainty
328.15	1.7	
338.15	1.67	
348.15	1.64	
358.15	1.61	
368.15	1.59	

System: p-xylene + tributylethylphosphonium diethylphosphate; phases: Liquid
Fixed: Pressure, kPa = 100
Fixed: Mole fraction of p-xylene = 0
Property: Activity coefficient of p-xylene (Liquid); method: Other
Temperature, K	Activity coefficient of p-xylene	uncertainty
328.15	1.64	
338.15	1.61	
348.15	1.59	
358.15	1.57	
368.15	1.55	

System: styrene + tributylethylphosphonium diethylphosphate; phases: Liquid
Fixed: Pressure, kPa = 100
Fixed: Mole fraction of styrene = 0
Property: Activity coefficient of styrene (Liquid); method: Other
Temperature, K	Activity coefficient of styrene	uncertainty
328.15	.971	
338.15	.975	
348.15	.98	
358.15	.983	
368.15	.987	

System: methanol + tributylethylphosphonium diethylphosphate; phases: Liquid
Fixed: Pressure, kPa = 100
Fixed: Mole fraction of methanol = 0
Property: Activity coefficient of methanol (Liquid); method: Other
Temperature, K	Activity coefficient of methanol	uncertainty
338.15	.022	
348.15	.025	
358.15	.028	
368.15	.03	

System: ethanol + tributylethylphosphonium diethylphosphate; phases: Liquid
Fixed: Pressure, kPa = 100
Fixed: Mole fraction of ethanol = 0
Property: Activity coefficient of ethanol (Liquid); method: Other
Temperature, K	Activity coefficient of ethanol	uncertainty
338.15	.035	
348.15	.038	
358.15	.042	
368.15	.045	

System: water + tributylethylphosphonium diethylphosphate; phases: Liquid
Fixed: Pressure, kPa = 100
Fixed: Mole fraction of water = 0
Property: Activity coefficient of water (Liquid); method: Other
Temperature, K	Activity coefficient of water	uncertainty
328.15	.101	
338.15	.105	
348.15	.109	
358.15	.112	
368.15	.116	

System: thiophene + tributylethylphosphonium diethylphosphate; phases: Liquid
Fixed: Pressure, kPa = 100
Fixed: Mole fraction of thiophene = 0
Property: Activity coefficient of thiophene (Liquid); method: Other
Temperature, K	Activity coefficient of thiophene	uncertainty
328.15	.58	
338.15	.587	
348.15	.595	
358.15	.601	
368.15	.607	

System: oxolane + tributylethylphosphonium diethylphosphate; phases: Liquid
Fixed: Pressure, kPa = 100
Fixed: Mole fraction of oxolane = 0
Property: Activity coefficient of oxolane (Liquid); method: Other
Temperature, K	Activity coefficient of oxolane	uncertainty
328.15	.938	
338.15	.926	
348.15	.919	
358.15	.907	
368.15	.899	

System: 1,4-dioxane + tributylethylphosphonium diethylphosphate; phases: Liquid
Fixed: Pressure, kPa = 100
Fixed: Mole fraction of 1,4-dioxane = 0
Property: Activity coefficient of 1,4-dioxane (Liquid); method: Other
Temperature, K	Activity coefficient of 1,4-dioxane	uncertainty
328.15	1.08	
338.15	1.06	
348.15	1.05	
358.15	1.03	
368.15	1.02	

System: tert-butyl methyl ether + tributylethylphosphonium diethylphosphate; phases: Liquid
Fixed: Pressure, kPa = 100
Fixed: Mole fraction of tert-butyl methyl ether = 0
Property: Activity coefficient of tert-butyl methyl ether (Liquid); method: Other
Temperature, K	Activity coefficient of tert-butyl methyl ether	uncertainty
328.15	1.89	
338.15	1.86	
348.15	1.84	
358.15	1.82	
368.15	1.8	

System: methyl tert-pentyl ether + tributylethylphosphonium diethylphosphate; phases: Liquid
Fixed: Pressure, kPa = 100
Fixed: Mole fraction of methyl tert-pentyl ether = 0
Property: Activity coefficient of methyl tert-pentyl ether (Liquid); method: Other
Temperature, K	Activity coefficient of methyl tert-pentyl ether	uncertainty
328.15	2.09	
338.15	2.07	
348.15	2.05	
358.15	2.02	
368.15	2.01	

System: ethyl tert-butyl ether + tributylethylphosphonium diethylphosphate; phases: Liquid
Fixed: Pressure, kPa = 100
Fixed: Mole fraction of ethyl tert-butyl ether = 0
Property: Activity coefficient of ethyl tert-butyl ether (Liquid); method: Other
Temperature, K	Activity coefficient of ethyl tert-butyl ether	uncertainty
328.15	2.66	
338.15	2.6	
348.15	2.56	
358.15	2.51	
368.15	2.47	

System: diethyl ether + tributylethylphosphonium diethylphosphate; phases: Liquid
Fixed: Pressure, kPa = 100
Fixed: Mole fraction of diethyl ether = 0
Property: Activity coefficient of diethyl ether (Liquid); method: Other
Temperature, K	Activity coefficient of diethyl ether	uncertainty
328.15	1.79	
338.15	1.77	
348.15	1.75	
358.15	1.73	
368.15	1.71	

System: 1-propoxypropane + tributylethylphosphonium diethylphosphate; phases: Liquid
Fixed: Pressure, kPa = 100
Fixed: Mole fraction of 1-propoxypropane = 0
Property: Activity coefficient of 1-propoxypropane (Liquid); method: Other
Temperature, K	Activity coefficient of 1-propoxypropane	uncertainty
328.15	2.59	
338.15	2.55	
348.15	2.51	
358.15	2.47	
368.15	2.43	

System: diisopropyl ether + tributylethylphosphonium diethylphosphate; phases: Liquid
Fixed: Pressure, kPa = 100
Fixed: Mole fraction of diisopropyl ether = 0
Property: Activity coefficient of diisopropyl ether (Liquid); method: Other
Temperature, K	Activity coefficient of diisopropyl ether	uncertainty
328.15	2.82	
338.15	2.75	
348.15	2.69	
358.15	2.65	
368.15	2.59	

System: 1-butoxybutane + tributylethylphosphonium diethylphosphate; phases: Liquid
Fixed: Pressure, kPa = 100
Fixed: Mole fraction of 1-butoxybutane = 0
Property: Activity coefficient of 1-butoxybutane (Liquid); method: Other
Temperature, K	Activity coefficient of 1-butoxybutane	uncertainty
328.15	3.79	
338.15	3.68	
348.15	3.54	
358.15	3.42	
368.15	3.31	

System: propan-2-one + tributylethylphosphonium diethylphosphate; phases: Liquid
Fixed: Pressure, kPa = 100
Fixed: Mole fraction of propan-2-one = 0
Property: Activity coefficient of propan-2-one (Liquid); method: Other
Temperature, K	Activity coefficient of propan-2-one	uncertainty
328.15	.835	
338.15	.827	
348.15	.822	
358.15	.814	
368.15	.809	

System: pentan-2-one + tributylethylphosphonium diethylphosphate; phases: Liquid
Fixed: Pressure, kPa = 100
Fixed: Mole fraction of pentan-2-one = 0
Property: Activity coefficient of pentan-2-one (Liquid); method: Other
Temperature, K	Activity coefficient of pentan-2-one	uncertainty
328.15	1.03	
338.15	1.03	
348.15	1.02	
358.15	1.02	
368.15	1.01	

System: pentan-3-one + tributylethylphosphonium diethylphosphate; phases: Liquid
Fixed: Pressure, kPa = 100
Fixed: Mole fraction of pentan-3-one = 0
Property: Activity coefficient of pentan-3-one (Liquid); method: Other
Temperature, K	Activity coefficient of pentan-3-one	uncertainty
328.15	1.02	
338.15	1.02	
348.15	1.02	
358.15	1.02	
368.15	1.02	

System: 2-hexanone + tributylethylphosphonium diethylphosphate; phases: Liquid
Fixed: Pressure, kPa = 100
Fixed: Mole fraction of 2-hexanone = 0
Property: Activity coefficient of 2-hexanone (Liquid); method: Other
Temperature, K	Activity coefficient of 2-hexanone	uncertainty
328.15	1.15	
338.15	1.15	
348.15	1.15	
358.15	1.15	
368.15	1.14	

System: 3-hexanone + tributylethylphosphonium diethylphosphate; phases: Liquid
Fixed: Pressure, kPa = 100
Fixed: Mole fraction of 3-hexanone = 0
Property: Activity coefficient of 3-hexanone (Liquid); method: Other
Temperature, K	Activity coefficient of 3-hexanone	uncertainty
328.15	1.23	
338.15	1.21	
348.15	1.21	
358.15	1.2	
368.15	1.2	

System: acetonitrile + tributylethylphosphonium diethylphosphate; phases: Liquid
Fixed: Pressure, kPa = 100
Fixed: Mole fraction of acetonitrile = 0
Property: Activity coefficient of acetonitrile (Liquid); method: Other
Temperature, K	Activity coefficient of acetonitrile	uncertainty
328.15	.464	
338.15	.465	
348.15	.467	
358.15	.468	
368.15	.469	

System: pyridine + tributylethylphosphonium diethylphosphate; phases: Liquid
Fixed: Pressure, kPa = 100
Fixed: Mole fraction of pyridine = 0
Property: Activity coefficient of pyridine (Liquid); method: Other
Temperature, K	Activity coefficient of pyridine	uncertainty
328.15	.544	
338.15	.545	
348.15	.548	
358.15	.549	
368.15	.55	

System: 1-nitropropane + tributylethylphosphonium diethylphosphate; phases: Liquid
Fixed: Pressure, kPa = 100
Fixed: Mole fraction of 1-nitropropane = 0
Property: Activity coefficient of 1-nitropropane (Liquid); method: Other
Temperature, K	Activity coefficient of 1-nitropropane	uncertainty
328.15	.499	
338.15	.507	
348.15	.515	
358.15	.523	
368.15	.53	

System: pentane + tributylethylphosphonium diethylphosphate; phases: Liquid
Fixed: Pressure, kPa = 100
Fixed: Mole fraction of pentane = 0
Property: Activity coefficient of pentane (Liquid); method: Other
Temperature, K	Activity coefficient of pentane	uncertainty
328.15	2.91	
338.15	2.85	
348.15	2.8	
358.15	2.75	
368.15	2.7	

System: 1-pentene + tributylethylphosphonium diethylphosphate; phases: Liquid
Fixed: Pressure, kPa = 100
Fixed: Mole fraction of 1-pentene = 0
Property: Activity coefficient of 1-pentene (Liquid); method: Other
Temperature, K	Activity coefficient of 1-pentene	uncertainty
328.15	2.18	
338.15	2.15	
348.15	2.13	
358.15	2.11	
368.15	2.09	
