Measured thermophysical data. Phase solubility studies of poorly soluble drug molecules by  using O-phosphorylated calixarenes as drug solubilizing  agents
Source: J. Chem. Eng. Data, 2012, 10.1021/je00992c
Compound 1: niclosamide, C13H8Cl2N2O4, purity 98%
Compound 2: dimethyl 4-(2-nitrophenyl)-2,6-dimethyl-1,4-dihydropyridine-3,5-dicarboxylate, C17H18N2O6, purity 98%
Compound 3: furosemide, C12H11ClN2O5S, purity 98%
Compound 4: Tetrakis-O-(diethoxyphosphoryl)-p-tert-butylcalix[4]arene (1), C44H60O16P4Na4, purity 98%
Compound 5: Tetrakis-O-(diethoxyphosphoryl)-calix[4]arene (2), C28H28O16P4Na4, purity 98%
Compound 6: Octakis-O-(diethoxyphosphoryl)-p-tertbutylcalix[8]arene (5), C88H120O32P8Na8, purity 98%
Compound 7: Bis-O-(diethoxyphosphoryl)-calix[4]arene (4), C28H26O10P2Na2, purity 98%
Compound 8: Bis-O-(diethoxyphosphoryl)-p-tert-butylcalix[4]arene (3), C44H58O10P2Na2, purity 98%
Compound 9: water, H2O, purity 98%

System: furosemide + water + Tetrakis-O-(diethoxyphosphoryl)-p-tert-butylcalix[4]arene (1); phases: Liquid, Crystal
Fixed: Pressure, kPa = 101
Fixed: Temperature, K = 298.15
Property: Molality, mol/kg of furosemide (Liquid); method: HPLC
Molality, mol/kg of Tetrakis-O-(diethoxyphosphoryl)-p-tert-butylcalix[4]arene (1)	Molality, mol/kg of furosemide	uncertainty
.001	2.44	.03
.003	4.66	.04
.005	7.04	.04
.007	9.11	.04

System: furosemide + water + Tetrakis-O-(diethoxyphosphoryl)-calix[4]arene (2); phases: Liquid, Crystal
Fixed: Pressure, kPa = 101
Fixed: Temperature, K = 298.15
Property: Molality, mol/kg of furosemide (Liquid); method: HPLC
Molality, mol/kg of Tetrakis-O-(diethoxyphosphoryl)-calix[4]arene (2)	Molality, mol/kg of furosemide	uncertainty
.001	1.34	.03
.003	3.21	.04
.005	5.22	.04
.007	7.32	.03

System: furosemide + water + Bis-O-(diethoxyphosphoryl)-p-tert-butylcalix[4]arene (3); phases: Liquid, Crystal
Fixed: Pressure, kPa = 101
Fixed: Temperature, K = 298.15
Property: Molality, mol/kg of furosemide (Liquid); method: HPLC
Molality, mol/kg of Bis-O-(diethoxyphosphoryl)-p-tert-butylcalix[4]arene (3)	Molality, mol/kg of furosemide	uncertainty
.001	1.52	.03
.003	3.74	.04
.005	5.93	.04
.007	7.91	.03

System: furosemide + water + Bis-O-(diethoxyphosphoryl)-calix[4]arene (4); phases: Liquid, Crystal
Fixed: Pressure, kPa = 101
Fixed: Temperature, K = 298.15
Property: Molality, mol/kg of furosemide (Liquid); method: HPLC
Molality, mol/kg of Bis-O-(diethoxyphosphoryl)-calix[4]arene (4)	Molality, mol/kg of furosemide	uncertainty
.001	.92	.03
.003	2.89	.04
.005	4.64	.04
.007	6.22	.04

System: furosemide + water + Octakis-O-(diethoxyphosphoryl)-p-tertbutylcalix[8]arene (5); phases: Liquid, Crystal
Fixed: Pressure, kPa = 101
Fixed: Temperature, K = 298.15
Property: Molality, mol/kg of furosemide (Liquid); method: HPLC
Molality, mol/kg of Octakis-O-(diethoxyphosphoryl)-p-tertbutylcalix[8]arene (5)	Molality, mol/kg of furosemide	uncertainty
.001	2.78	.04
.003	5.38	.04
.005	7.81	.04
.007	10.11	.03

System: water + dimethyl 4-(2-nitrophenyl)-2,6-dimethyl-1,4-dihydropyridine-3,5-dicarboxylate + Tetrakis-O-(diethoxyphosphoryl)-p-tert-butylcalix[4]arene (1); phases: Liquid, Crystal
Fixed: Pressure, kPa = 101
Fixed: Temperature, K = 298.15
Property: Molality, mol/kg of dimethyl 4-(2-nitrophenyl)-2,6-dimethyl-1,4-dihydropyridine-3,5-dicarboxylate (Liquid); method: HPLC
Molality, mol/kg of Tetrakis-O-(diethoxyphosphoryl)-p-tert-butylcalix[4]arene (1)	Molality, mol/kg of dimethyl 4-(2-nitrophenyl)-2,6-dimethyl-1,4-dihydropyridine-3,5-dicarboxylate	uncertainty
.001	5.92	.03
.003	7.87	.04
.005	9.52	.04
.007	11.2	.04

System: water + dimethyl 4-(2-nitrophenyl)-2,6-dimethyl-1,4-dihydropyridine-3,5-dicarboxylate + Tetrakis-O-(diethoxyphosphoryl)-calix[4]arene (2); phases: Liquid, Crystal
Fixed: Pressure, kPa = 101
Fixed: Temperature, K = 298.15
Property: Molality, mol/kg of dimethyl 4-(2-nitrophenyl)-2,6-dimethyl-1,4-dihydropyridine-3,5-dicarboxylate (Liquid); method: HPLC
Molality, mol/kg of Tetrakis-O-(diethoxyphosphoryl)-calix[4]arene (2)	Molality, mol/kg of dimethyl 4-(2-nitrophenyl)-2,6-dimethyl-1,4-dihydropyridine-3,5-dicarboxylate	uncertainty
.001	3.84	.04
.003	4.51	.03
.005	5.22	.04
.007	6.32	.04

System: water + dimethyl 4-(2-nitrophenyl)-2,6-dimethyl-1,4-dihydropyridine-3,5-dicarboxylate + Bis-O-(diethoxyphosphoryl)-p-tert-butylcalix[4]arene (3); phases: Liquid, Crystal
Fixed: Pressure, kPa = 101
Fixed: Temperature, K = 298.15
Property: Molality, mol/kg of dimethyl 4-(2-nitrophenyl)-2,6-dimethyl-1,4-dihydropyridine-3,5-dicarboxylate (Liquid); method: HPLC
Molality, mol/kg of Bis-O-(diethoxyphosphoryl)-p-tert-butylcalix[4]arene (3)	Molality, mol/kg of dimethyl 4-(2-nitrophenyl)-2,6-dimethyl-1,4-dihydropyridine-3,5-dicarboxylate	uncertainty
.001	3.52	.03
.003	4.34	.03
.005	4.93	.04
.007	5.11	.04

System: water + dimethyl 4-(2-nitrophenyl)-2,6-dimethyl-1,4-dihydropyridine-3,5-dicarboxylate + Bis-O-(diethoxyphosphoryl)-calix[4]arene (4); phases: Liquid, Crystal
Fixed: Pressure, kPa = 101
Fixed: Temperature, K = 298.15
Property: Molality, mol/kg of dimethyl 4-(2-nitrophenyl)-2,6-dimethyl-1,4-dihydropyridine-3,5-dicarboxylate (Liquid); method: HPLC
Molality, mol/kg of Bis-O-(diethoxyphosphoryl)-calix[4]arene (4)	Molality, mol/kg of dimethyl 4-(2-nitrophenyl)-2,6-dimethyl-1,4-dihydropyridine-3,5-dicarboxylate	uncertainty
.001	3.79	.03
.003	4.11	.03
.005	4.34	.04
.007	4.72	.04

System: water + dimethyl 4-(2-nitrophenyl)-2,6-dimethyl-1,4-dihydropyridine-3,5-dicarboxylate + Octakis-O-(diethoxyphosphoryl)-p-tertbutylcalix[8]arene (5); phases: Liquid, Crystal
Fixed: Pressure, kPa = 101
Fixed: Temperature, K = 298.15
Property: Molality, mol/kg of dimethyl 4-(2-nitrophenyl)-2,6-dimethyl-1,4-dihydropyridine-3,5-dicarboxylate (Liquid); method: HPLC
Molality, mol/kg of Octakis-O-(diethoxyphosphoryl)-p-tertbutylcalix[8]arene (5)	Molality, mol/kg of dimethyl 4-(2-nitrophenyl)-2,6-dimethyl-1,4-dihydropyridine-3,5-dicarboxylate	uncertainty
.001	4.64	.04
.003	5.94	.04
.005	6.98	.04
.007	8.11	.04

System: niclosamide + water + Tetrakis-O-(diethoxyphosphoryl)-p-tert-butylcalix[4]arene (1); phases: Liquid, Crystal
Fixed: Pressure, kPa = 101
Fixed: Temperature, K = 298.15
Property: Molality, mol/kg of niclosamide (Liquid); method: HPLC
Molality, mol/kg of Tetrakis-O-(diethoxyphosphoryl)-p-tert-butylcalix[4]arene (1)	Molality, mol/kg of niclosamide	uncertainty
.001	2.21	.04
.003	3.44	.04
.005	4.64	.04
.007	4.37	.04

System: niclosamide + water + Tetrakis-O-(diethoxyphosphoryl)-calix[4]arene (2); phases: Liquid, Crystal
Fixed: Pressure, kPa = 101
Fixed: Temperature, K = 298.15
Property: Molality, mol/kg of niclosamide (Liquid); method: HPLC
Molality, mol/kg of Tetrakis-O-(diethoxyphosphoryl)-calix[4]arene (2)	Molality, mol/kg of niclosamide	uncertainty
.001	1.84	.04
.003	2.51	.04
.005	3.22	.04
.007	3.32	.04

System: niclosamide + water + Bis-O-(diethoxyphosphoryl)-p-tert-butylcalix[4]arene (3); phases: Liquid, Crystal
Fixed: Pressure, kPa = 101
Fixed: Temperature, K = 298.15
Property: Molality, mol/kg of niclosamide (Liquid); method: HPLC
Molality, mol/kg of Bis-O-(diethoxyphosphoryl)-p-tert-butylcalix[4]arene (3)	Molality, mol/kg of niclosamide	uncertainty
.001	1.52	.04
.003	2.34	.04
.005	2.93	.04
.007	3.11	.04

System: niclosamide + water + Bis-O-(diethoxyphosphoryl)-calix[4]arene (4); phases: Liquid, Crystal
Fixed: Pressure, kPa = 101
Fixed: Temperature, K = 298.15
Property: Molality, mol/kg of niclosamide (Liquid); method: HPLC
Molality, mol/kg of Bis-O-(diethoxyphosphoryl)-calix[4]arene (4)	Molality, mol/kg of niclosamide	uncertainty
.001	1.79	.04
.003	2.31	.04
.005	3.04	.04
.007	2.72	.04

System: niclosamide + water + Octakis-O-(diethoxyphosphoryl)-p-tertbutylcalix[8]arene (5); phases: Liquid, Crystal
Fixed: Pressure, kPa = 101
Fixed: Temperature, K = 298.15
Property: Molality, mol/kg of niclosamide (Liquid); method: HPLC
Molality, mol/kg of Octakis-O-(diethoxyphosphoryl)-p-tertbutylcalix[8]arene (5)	Molality, mol/kg of niclosamide	uncertainty
.001	1.78	.04
.003	3.18	.04
.005	4.41	.04
.007	4.11	.04
