Measured thermophysical data. Solubility and Density of the Disodium Salt Hemiheptahydrate of Ceftriaxone in Water + Methanol Mixtures
Source: J. Chem. Eng. Data, 2004
Compound 1: disodium salt hemiheptahydrate of ceftriaxone, C18H25N8Na2O10.5S3, purity 99.0%
Compound 2: methanol, CH4O
Compound 3: water, H2O, purity 99.9%

System: methanol + water + disodium salt hemiheptahydrate of ceftriaxone; phases: Liquid, Crystal
Fixed: Pressure, kPa = 101.3
Property: Molality, mol/kg of disodium salt hemiheptahydrate of ceftriaxone (Liquid); method: Other
Temperature, K	Solvent: Mass fraction of methanol	Molality, mol/kg of disodium salt hemiheptahydrate of ceftriaxone	uncertainty
298.15	.9	.0589	
298.15	.8	.0757	
298.15	.7	.122	
298.15	.6	.1937	
298.15	.5	.2543	
298.15	.4	.3274	
298.15	.3	.4322	
298.15	.2	.5223	
308.15	.9	.0626	
308.15	.8	.0828	
308.15	.7	.1295	
308.15	.6	.2167	
308.15	.5	.3139	
308.15	.4	.3963	
308.15	.3	.4807	
308.15	.2	.5695	
318.15	.9	.0714	
318.15	.8	.0991	
318.15	.7	.1691	
318.15	.6	.2819	
318.15	.5	.396	
318.15	.4	.4924	
318.15	.3	.5642	
318.15	.2	.6278	

System: methanol + water + disodium salt hemiheptahydrate of ceftriaxone; phases: Liquid, Crystal
Fixed: Pressure, kPa = 101.325
Property: Mass density, kg/m3 (Liquid); method: Vibrating tube method
Temperature, K	Solvent: Mass fraction of methanol	Mass density, kg/m3	uncertainty
298.15	.9	837	
298.15	.8	869	
298.15	.7	908.7	
298.15	.6	954.5	
298.15	.5	995.7	
298.15	.4	1042.4	
298.15	.3	1092.8	
298.15	.2	1141.7	
308.15	.9	839	
308.15	.8	869.9	
308.15	.7	911.3	
308.15	.6	960.4	
308.15	.5	1008.7	
308.15	.4	1051.8	
308.15	.3	1106.6	
308.15	.2	1144.7	
318.15	.9	843.6	
318.15	.8	881.3	
318.15	.7	926.7	
318.15	.6	984.5	
318.15	.5	1028.6	
318.15	.4	1079.3	
318.15	.3	1121	
318.15	.2	1151.8	
