Measured thermophysical data. Thermodynamic Properties of Mixtures Containing Ionic Liquids.4.LLE of Binary Mixtures of [C2MIM][NTf2]
			with Propan-1-ol, Butan-1-ol, and Pentan-1-ol and [C4MIM][NTf2] with Cyclohexanol and 1,2-Hexanediol
			Including Studies of the Influence of Small Amounts of Water
Source: J. Chem. Eng. Data, 2005, 10.1021/je049564z
Compound 1: 1-ethyl-3-methylimidazolium bis(trifluorosulfonyl)imide, C8H11F6N3O4S2
Compound 2: 1-propanol, C3H8O, purity 99.8%
Compound 3: 1-butanol, C4H10O, purity 99.8%
Compound 4: 1-pentanol, C5H12O, purity 99%
Compound 5: 1-n-butyl-3-methylimidazolium bis(trifluoromethylsulfonyl)imide, C10H15F6N3O4S2
Compound 6: cyclohexanol, C6H12O, purity 99%
Compound 7: 1,2-hexanediol, C6H14O2, purity 97%
Compound 8: water, H2O

System: 1-propanol + 1-ethyl-3-methylimidazolium bis(trifluorosulfonyl)imide; phases: Liquid mixture 1, Liquid mixture 2
Fixed: Pressure, kPa = 101.3
Property: Liquid-liquid equilibrium temperature, K (Liquid mixture 1); method: Visual observation
Mass fraction of 1-ethyl-3-methylimidazolium bis(trifluorosulfonyl)imide	Liquid-liquid equilibrium temperature, K	uncertainty
.107	279.3	.5
.1622	286.5	.5
.1983	289.4	.5
.3157	294	.5
.4319	295.2	.5
.4963	295.3	.5
.5724	295.1	.5
.6446	294.2	.5
.721	291.4	.5
.7686	287.8	.5

System: 1-butanol + 1-ethyl-3-methylimidazolium bis(trifluorosulfonyl)imide; phases: Liquid mixture 1, Liquid mixture 2
Fixed: Pressure, kPa = 101.3
Property: Liquid-liquid equilibrium temperature, K (Liquid mixture 1); method: Visual observation
Mass fraction of 1-ethyl-3-methylimidazolium bis(trifluorosulfonyl)imide	Liquid-liquid equilibrium temperature, K	uncertainty
.4247	320.9	.5
.3608	320.5	.5

System: 1-pentanol + 1-ethyl-3-methylimidazolium bis(trifluorosulfonyl)imide; phases: Liquid mixture 1, Liquid mixture 2
Fixed: Pressure, kPa = 101.3
Property: Liquid-liquid equilibrium temperature, K (Liquid mixture 1); method: Visual observation
Mass fraction of 1-ethyl-3-methylimidazolium bis(trifluorosulfonyl)imide	Liquid-liquid equilibrium temperature, K	uncertainty
.1054	327.9	.5
.1738	334.8	.5
.2385	337.9	.5
.2639	338.7	.5
.3159	339.7	.5
.339	340	.5
.3848	340.2	.5
.4354	340.4	.5
.4499	340.4	.5
.5087	340.1	.5
.5405	340.2	.5
.6295	338.9	.5
.7222	334.9	.5
.738	333.9	.5
.8462	318.9	.5

System: cyclohexanol + 1-n-butyl-3-methylimidazolium bis(trifluoromethylsulfonyl)imide; phases: Liquid mixture 1, Liquid mixture 2
Fixed: Pressure, kPa = 101.3
Property: Liquid-liquid equilibrium temperature, K (Liquid mixture 1); method: Visual observation
Mass fraction of 1-n-butyl-3-methylimidazolium bis(trifluoromethylsulfonyl)imide	Liquid-liquid equilibrium temperature, K	uncertainty
.1274	313.5	1
.1796	316.4	1
.2352	318	1
.3395	319.2	1
.4201	319.2	1
.5324	318.4	1
.6428	315.2	1
.7048	311.5	1
.7499	307.5	1

System: cyclohexanol + 1-n-butyl-3-methylimidazolium bis(trifluoromethylsulfonyl)imide; phases: Liquid mixture 1, Liquid mixture 2
Fixed: Pressure, kPa = 101.3
Property: Liquid-liquid equilibrium temperature, K (Liquid mixture 1); method: Visual observation
Mass fraction of 1-n-butyl-3-methylimidazolium bis(trifluoromethylsulfonyl)imide	Liquid-liquid equilibrium temperature, K	uncertainty
.0711	306.1	1
.0877	308.9	1
.2654	318.4	1
.4727	318.9	1
.5718	317.6	1
.8033	300.6	1

System: 1,2-hexanediol + 1-n-butyl-3-methylimidazolium bis(trifluoromethylsulfonyl)imide; phases: Liquid mixture 1, Liquid mixture 2
Fixed: Pressure, kPa = 101.3
Property: Liquid-liquid equilibrium temperature, K (Liquid mixture 1); method: Visual observation
Mass fraction of 1-n-butyl-3-methylimidazolium bis(trifluoromethylsulfonyl)imide	Liquid-liquid equilibrium temperature, K	uncertainty
.1131	312.4	1
.1726	320.3	1
.2376	324.6	1
.3584	327.9	1
.45	328.2	1
.5916	327.9	1
.683	325.9	1
.7221	324.1	1
.7781	320	1
.838	312.7	1

System: 1,2-hexanediol + 1-n-butyl-3-methylimidazolium bis(trifluoromethylsulfonyl)imide; phases: Liquid mixture 1, Liquid mixture 2
Fixed: Pressure, kPa = 101.3
Property: Liquid-liquid equilibrium temperature, K (Liquid mixture 1); method: Visual observation
Mass fraction of 1-n-butyl-3-methylimidazolium bis(trifluoromethylsulfonyl)imide	Liquid-liquid equilibrium temperature, K	uncertainty
.0802	304.5	1
.2845	326.5	1
.5157	328.2	1
.5675	328	1
.6606	326.5	1
.8688	307.1	1

System: 1-propanol + water + 1-ethyl-3-methylimidazolium bis(trifluorosulfonyl)imide; phases: Liquid mixture 1, Liquid mixture 2
Fixed: Pressure, kPa = 101.325
Fixed: Mass fraction of 1-ethyl-3-methylimidazolium bis(trifluorosulfonyl)imide = .721
Property: Liquid-liquid equilibrium temperature, K (Liquid mixture 1); method: Visual observation
Mass fraction of water	Liquid-liquid equilibrium temperature, K	uncertainty
.00018	291.4	.5
.00106	290.3	.5
.00197	289.3	.5
.00292	288.3	.5
.00627	284.6	.5
.00794	282.8	.5

System: 1-butanol + water + 1-ethyl-3-methylimidazolium bis(trifluorosulfonyl)imide; phases: Liquid mixture 1, Liquid mixture 2
Fixed: Pressure, kPa = 101.325
Fixed: Mass fraction of 1-ethyl-3-methylimidazolium bis(trifluorosulfonyl)imide = .3608
Property: Liquid-liquid equilibrium temperature, K (Liquid mixture 1); method: Visual observation
Mass fraction of water	Liquid-liquid equilibrium temperature, K	uncertainty
.00032	320.5	.5
.00244	318.8	.5
.00356	317.8	.5
.00458	316.9	.5
.00646	315.4	.5

System: 1-pentanol + water + 1-ethyl-3-methylimidazolium bis(trifluorosulfonyl)imide; phases: Liquid mixture 1, Liquid mixture 2
Fixed: Pressure, kPa = 101.325
Property: Liquid-liquid equilibrium temperature, K (Liquid mixture 1); method: Visual observation
Mass fraction of 1-ethyl-3-methylimidazolium bis(trifluorosulfonyl)imide	Mass fraction of water	Liquid-liquid equilibrium temperature, K	uncertainty
.7222	.00016	334.9	.5
.7222	.00106	334	.5
.7222	.00204	333.1	.5
.7222	.003	332.2	.5
.7222	.00505	330.2	.5
.7222	.00706	328.2	.5
.3159	.00009	339.7	.5
.3159	.00153	338.6	.5
.3159	.00406	336.5	.5
.3159	.00564	335.2	.5
