Measured thermophysical data. Densities and Viscosities of Binary Mixtures of 1-Butanol with Methacrylic Acid, Benzyl Methacrylate, and 2-Hydroxyethyl Methacrylate between 288.15 K and 318.15
			K
Source: J.Chem.Eng.Data, 2006, 10.1021/je0601255
Compound 1: 1-butanol, C4H10O, purity 99%
Compound 2: methacrylic acid, C4H6O2, purity 99%
Compound 3: benzyl methacryalate, C11H12O2, purity 98%
Compound 4: 2-hydroxyethyl methacrylate, C6H10O3, purity 98%

System: 1-butanol; phases: Liquid
Property: Mass density, kg/m3 (Liquid); method: Pycnometric method
Temperature, K	Pressure, kPa	Mass density, kg/m3	uncertainty
288.15	101	812.3	.8123
298.15	101	805.6	.8056
308.15	101	798	.798
318.15	101	790.5	.7905

System: 1-butanol; phases: Liquid
Property: Viscosity, Pa*s (Liquid); method: Capillary tube (Ostwald; Ubbelohde) method
Temperature, K	Pressure, kPa	Viscosity, Pa*s	uncertainty
288.15	101	.003286	.00003286
298.15	101	.002566	.00002566
308.15	101	.001998	.00001998
318.15	101	.00155	.0000155

System: methacrylic acid; phases: Liquid
Property: Mass density, kg/m3 (Liquid); method: Pycnometric method
Temperature, K	Pressure, kPa	Mass density, kg/m3	uncertainty
288.15	101	1018.3	1.0183
298.15	101	1009.5	1.0095
308.15	101	999.4	.9994
318.15	101	989.2	.9892

System: methacrylic acid; phases: Liquid
Property: Viscosity, Pa*s (Liquid); method: Capillary tube (Ostwald; Ubbelohde) method
Temperature, K	Pressure, kPa	Viscosity, Pa*s	uncertainty
288.15	101	.001447	.00001447
298.15	101	.001267	.00001267
308.15	101	.001078	.00001078
318.15	101	.000945	.00000945

System: benzyl methacryalate; phases: Liquid
Property: Mass density, kg/m3 (Liquid); method: Pycnometric method
Temperature, K	Pressure, kPa	Mass density, kg/m3	uncertainty
288.15	101	1041.2	1.0412
298.15	101	1034.7	1.0347
308.15	101	1025.8	1.0258
318.15	101	1017	1.017

System: benzyl methacryalate; phases: Liquid
Property: Viscosity, Pa*s (Liquid); method: Capillary tube (Ostwald; Ubbelohde) method
Temperature, K	Pressure, kPa	Viscosity, Pa*s	uncertainty
288.15	101	.002871	.00002871
298.15	101	.002302	.00002302
308.15	101	.001885	.00001885
318.15	101	.00158	.0000158

System: 2-hydroxyethyl methacrylate; phases: Liquid
Property: Mass density, kg/m3 (Liquid); method: Pycnometric method
Temperature, K	Pressure, kPa	Mass density, kg/m3	uncertainty
288.15	101	1074.7	1.0747
298.15	101	1067.1	1.0671
308.15	101	1057.7	1.0577
318.15	101	1048.6	1.0486

System: 2-hydroxyethyl methacrylate; phases: Liquid
Property: Viscosity, Pa*s (Liquid); method: Capillary tube (Ostwald; Ubbelohde) method
Temperature, K	Pressure, kPa	Viscosity, Pa*s	uncertainty
288.15	101	.008234	.00008234
298.15	101	.005784	.00005784
308.15	101	.004194	.00004194
318.15	101	.003181	.00003181

System: 1-butanol + methacrylic acid; phases: Liquid
Fixed: Pressure, kPa = 101
Property: Mass density, kg/m3 (Liquid); method: Pycnometric method
Temperature, K	Mole fraction of 1-butanol	Mass density, kg/m3	uncertainty
288.15	0	1018.3	1.0183
288.15	.1	996.3	.9963
288.15	.2	974.7	.9747
288.15	.3	954.3	.9543
288.15	.4	934.2	.9342
288.15	.5	914.2	.9142
288.15	.6	894.2	.8942
288.15	.7	874.1	.8741
288.15	.8	853.7	.8537
288.15	.9	832.9	.8329
288.15	1	812.3	.8123
298.15	0	1009.5	1.0095
298.15	.1	987.7	.9877
298.15	.2	966.5	.9665
298.15	.3	946.3	.9463
298.15	.4	926.6	.9266
298.15	.5	907	.907
298.15	.6	887.4	.8874
298.15	.7	867.3	.8673
298.15	.8	847	.847
298.15	.9	826.7	.8267
298.15	1	805.6	.8056
308.15	0	999.4	.9994
308.15	.1	978	.978
308.15	.2	957.4	.9574
308.15	.3	937.7	.9377
308.15	.4	918.1	.9181
308.15	.5	898.6	.8986
308.15	.6	879	.879
308.15	.7	859.1	.8591
308.15	.8	839.2	.8392
308.15	.9	819.1	.8191
308.15	1	798	.798
318.15	0	989.2	.9892
318.15	.1	968.1	.9681
318.15	.2	948.1	.9481
318.15	.3	928.7	.9287
318.15	.4	909.3	.9093
318.15	.5	890.1	.8901
318.15	.6	870.6	.8706
318.15	.7	851	.851
318.15	.8	831.4	.8314
318.15	.9	811.5	.8115
318.15	1	790.5	.7905

System: 1-butanol + methacrylic acid; phases: Liquid
Fixed: Pressure, kPa = 101
Property: Viscosity, Pa*s (Liquid); method: Capillary tube (Ostwald; Ubbelohde) method
Temperature, K	Mole fraction of 1-butanol	Viscosity, Pa*s	uncertainty
288.15	0	.001447	.00001447
288.15	.1	.001632	.00001632
288.15	.2	.001818	.00001818
288.15	.3	.002009	.00002009
288.15	.4	.0022	.000022
288.15	.5	.002392	.00002392
288.15	.6	.002576	.00002576
288.15	.7	.002756	.00002756
288.15	.8	.002935	.00002935
288.15	.9	.003111	.00003111
288.15	1	.003286	.00003286
298.15	0	.001267	.00001267
298.15	.1	.0014	.000014
298.15	.2	.001534	.00001534
298.15	.3	.001672	.00001672
298.15	.4	.00181	.0000181
298.15	.5	.001947	.00001947
298.15	.6	.002079	.00002079
298.15	.7	.002204	.00002204
298.15	.8	.002329	.00002329
298.15	.9	.002453	.00002453
298.15	1	.002566	.00002566
308.15	0	.001078	.00001078
308.15	.1	.001174	.00001174
308.15	.2	.001275	.00001275
308.15	.3	.001377	.00001377
308.15	.4	.001476	.00001476
308.15	.5	.001574	.00001574
308.15	.6	.001667	.00001667
308.15	.7	.001756	.00001756
308.15	.8	.001842	.00001842
308.15	.9	.001925	.00001925
308.15	1	.001998	.00001998
318.15	0	.000945	.00000945
318.15	.1	.001015	.00001015
318.15	.2	.00109	.0000109
318.15	.3	.00116	.0000116
318.15	.4	.001227	.00001227
318.15	.5	.001294	.00001294
318.15	.6	.001355	.00001355
318.15	.7	.001413	.00001413
318.15	.8	.001466	.00001466
318.15	.9	.001515	.00001515
318.15	1	.00155	.0000155

System: 1-butanol + benzyl methacryalate; phases: Liquid
Fixed: Pressure, kPa = 101
Property: Mass density, kg/m3 (Liquid); method: Pycnometric method
Temperature, K	Mole fraction of 1-butanol	Mass density, kg/m3	uncertainty
288.15	0	1041.2	1.0412
288.15	.1	1027.8	1.0278
288.15	.2	1013.3	1.0133
288.15	.3	997.5	.9975
288.15	.4	979.9	.9799
288.15	.5	960.3	.9603
288.15	.6	938.3	.9383
288.15	.7	913.2	.9132
288.15	.8	884.5	.8845
288.15	.9	851.3	.8513
288.15	1	812.3	.8123
298.15	0	1034.7	1.0347
298.15	.1	1021.3	1.0213
298.15	.2	1006.8	1.0068
298.15	.3	990.9	.9909
298.15	.4	973.3	.9733
298.15	.5	953.7	.9537
298.15	.6	931.6	.9316
298.15	.7	906.6	.9066
298.15	.8	877.9	.8779
298.15	.9	844.6	.8446
298.15	1	805.6	.8056
308.15	0	1025.8	1.0258
308.15	.1	1012.5	1.0125
308.15	.2	998.1	.9981
308.15	.3	982.3	.9823
308.15	.4	964.8	.9648
308.15	.5	945.3	.9453
308.15	.6	923.4	.9234
308.15	.7	898.5	.8985
308.15	.8	869.9	.8699
308.15	.9	836.8	.8368
308.15	1	798	.798
318.15	0	1017	1.017
318.15	.1	1003.9	1.0039
318.15	.2	989.5	.9895
318.15	.3	973.8	.9738
318.15	.4	956.4	.9564
318.15	.5	937	.937
318.15	.6	915.2	.9152
318.15	.7	890.4	.8904
318.15	.8	862	.862
318.15	.9	829.1	.8291
318.15	1	790.5	.7905

System: 1-butanol + benzyl methacryalate; phases: Liquid
Fixed: Pressure, kPa = 101
Property: Viscosity, Pa*s (Liquid); method: Capillary tube (Ostwald; Ubbelohde) method
Temperature, K	Mole fraction of 1-butanol	Viscosity, Pa*s	uncertainty
288.15	0	.002871	.00002871
288.15	.1	.002655	.00002655
288.15	.2	.002519	.00002519
288.15	.3	.002462	.00002462
288.15	.4	.00241	.0000241
288.15	.5	.002384	.00002384
288.15	.6	.002375	.00002375
288.15	.7	.002427	.00002427
288.15	.8	.00251	.0000251
288.15	.9	.002704	.00002704
288.15	1	.003286	.00003286
298.15	0	.002302	.00002302
298.15	.1	.002123	.00002123
298.15	.2	.002021	.00002021
298.15	.3	.001958	.00001958
298.15	.4	.001919	.00001919
298.15	.5	.001868	.00001868
298.15	.6	.001834	.00001834
298.15	.7	.001863	.00001863
298.15	.8	.001982	.00001982
298.15	.9	.002168	.00002168
298.15	1	.002566	.00002566
308.15	0	.001885	.00001885
308.15	.1	.001746	.00001746
308.15	.2	.001656	.00001656
308.15	.3	.001605	.00001605
308.15	.4	.001568	.00001568
308.15	.5	.001525	.00001525
308.15	.6	.001505	.00001505
308.15	.7	.001508	.00001508
308.15	.8	.00159	.0000159
308.15	.9	.001727	.00001727
308.15	1	.001998	.00001998
318.15	0	.00158	.0000158
318.15	.1	.001455	.00001455
318.15	.2	.001388	.00001388
318.15	.3	.001342	.00001342
318.15	.4	.001308	.00001308
318.15	.5	.001272	.00001272
318.15	.6	.001247	.00001247
318.15	.7	.001244	.00001244
318.15	.8	.001302	.00001302
318.15	.9	.001394	.00001394
318.15	1	.00155	.0000155

System: 1-butanol + 2-hydroxyethyl methacrylate; phases: Liquid
Fixed: Pressure, kPa = 101
Property: Mass density, kg/m3 (Liquid); method: Pycnometric method
Temperature, K	Mole fraction of 1-butanol	Mass density, kg/m3	uncertainty
288.15	0	1074.7	1.0747
288.15	.1	1054.5	1.0545
288.15	.2	1033.3	1.0333
288.15	.3	1010.9	1.0109
288.15	.4	987.3	.9873
288.15	.5	962.2	.9622
288.15	.6	935.7	.9357
288.15	.7	907.6	.9076
288.15	.8	877.7	.8777
288.15	.9	846	.846
288.15	1	812.3	.8123
298.15	0	1067.1	1.0671
298.15	.1	1047.1	1.0471
298.15	.2	1025.9	1.0259
298.15	.3	1003.6	1.0036
298.15	.4	980	.98
298.15	.5	955.1	.9551
298.15	.6	928.6	.9286
298.15	.7	900.6	.9006
298.15	.8	870.8	.8708
298.15	.9	839.2	.8392
298.15	1	805.6	.8056
308.15	0	1057.7	1.0577
308.15	.1	1037.9	1.0379
308.15	.2	1016.9	1.0169
308.15	.3	994.8	.9948
308.15	.4	971.3	.9713
308.15	.5	946.6	.9466
308.15	.6	920.3	.9203
308.15	.7	892.4	.8924
308.15	.8	862.9	.8629
308.15	.9	831.5	.8315
308.15	1	798	.798
318.15	0	1048.6	1.0486
318.15	.1	1029.1	1.0291
318.15	.2	1008.3	1.0083
318.15	.3	986.3	.9863
318.15	.4	963	.963
318.15	.5	938.3	.9383
318.15	.6	912.1	.9121
318.15	.7	884.4	.8844
318.15	.8	855	.855
318.15	.9	823.8	.8238
318.15	1	790.5	.7905

System: 1-butanol + 2-hydroxyethyl methacrylate; phases: Liquid
Fixed: Pressure, kPa = 101
Property: Viscosity, Pa*s (Liquid); method: Capillary tube (Ostwald; Ubbelohde) method
Temperature, K	Mole fraction of 1-butanol	Viscosity, Pa*s	uncertainty
288.15	0	.008234	.00008234
288.15	.1	.007303	.00007303
288.15	.2	.006437	.00006437
288.15	.3	.005681	.00005681
288.15	.4	.005118	.00005118
288.15	.5	.004633	.00004633
288.15	.6	.004195	.00004195
288.15	.7	.003833	.00003833
288.15	.8	.003534	.00003534
288.15	.9	.003321	.00003321
288.15	1	.003286	.00003286
298.15	0	.005784	.00005784
298.15	.1	.005188	.00005188
298.15	.2	.004643	.00004643
298.15	.3	.004154	.00004154
298.15	.4	.003738	.00003738
298.15	.5	.003398	.00003398
298.15	.6	.003092	.00003092
298.15	.7	.002834	.00002834
298.15	.8	.002666	.00002666
298.15	.9	.002583	.00002583
298.15	1	.002566	.00002566
308.15	0	.004194	.00004194
308.15	.1	.003822	.00003822
308.15	.2	.003432	.00003432
308.15	.3	.003109	.00003109
308.15	.4	.002829	.00002829
308.15	.5	.002598	.00002598
308.15	.6	.002399	.00002399
308.15	.7	.002212	.00002212
308.15	.8	.002089	.00002089
308.15	.9	.002018	.00002018
308.15	1	.001998	.00001998
318.15	0	.003181	.00003181
318.15	.1	.002963	.00002963
318.15	.2	.002692	.00002692
318.15	.3	.00243	.0000243
318.15	.4	.002222	.00002222
318.15	.5	.002051	.00002051
318.15	.6	.0019	.000019
318.15	.7	.001759	.00001759
318.15	.8	.001657	.00001657
318.15	.9	.001609	.00001609
318.15	1	.00155	.0000155
