Measured thermophysical data. Solubility of beta-Diketonate Complexes of Copper(II) and Cobalt(II) in Supercritical Carbon Dioxide
Source: J. Chem. Eng. Data, 2011, 10.1021/je101255v
Compound 1: copper, bis(2,4-pentanedionato-O,O')-, (sp-4-1)-, C10H14CuO4, purity 99%
Compound 2: cobalt, bis(2,4-pentanedionato-O,O')-, (t-4)-, C10H14CoO4, purity 99%
Compound 3: copper, bis(2,2,6,6-tetramethyl-3,5-heptanedionato-O3,O5)-, C22H38CuO4, purity 99.9%
Compound 4: bis(2,2,6,6-tetramethyl-3,5-heptanedionato)-cobalt, C22H38CoO4, purity 99.9%
Compound 5: carbon dioxide, CO2

System: carbon dioxide + copper, bis(2,4-pentanedionato-O,O')-, (sp-4-1)-; phases: Fluid (supercritical or subcritical phases), Crystal
Property: Mole fraction of copper, bis(2,4-pentanedionato-O,O')-, (sp-4-1)- (Fluid (supercritical or subcritical phases)); method: Lambert Beers Law
Temperature, K	Pressure, kPa	Mole fraction of copper, bis(2,4-pentanedionato-O,O')-, (sp-4-1)-	uncertainty
313	14300	.00000997	
313	16100	.0000122	
313	18200	.0000137	
313	20000	.000015	
313	22100	.0000163	
313	24000	.0000176	
313	26000	.0000181	
313	28100	.0000186	
313	30000	.0000199	
333	16000	.0000129	
333	18000	.0000182	
333	19900	.0000222	
333	22000	.0000274	
333	24000	.0000305	
333	26000	.0000325	
333	27900	.0000351	
333	30000	.0000387	
323	15900	.0000138	
323	18000	.0000151	
323	20100	.0000187	
323	22200	.0000203	
323	24100	.0000225	
323	26000	.0000237	
323	27900	.0000253	
323	29900	.0000269	
343	16100	.0000137	
343	18000	.0000202	
343	20000	.0000272	
343	22100	.0000349	
343	24000	.0000388	
343	26000	.0000448	
343	28000	.0000474	

System: carbon dioxide + cobalt, bis(2,4-pentanedionato-O,O')-, (t-4)-; phases: Fluid (supercritical or subcritical phases), Crystal
Property: Mole fraction of cobalt, bis(2,4-pentanedionato-O,O')-, (t-4)- (Fluid (supercritical or subcritical phases)); method: Lambert Beers Law
Temperature, K	Pressure, kPa	Mole fraction of cobalt, bis(2,4-pentanedionato-O,O')-, (t-4)-	uncertainty
313	16100	.0000391	
313	18000	.0000482	
313	20100	.0000594	
313	21900	.000065	
313	24000	.0000699	
313	25900	.0000738	
313	28100	.0000824	
313	30000	.0000859	

System: carbon dioxide + copper, bis(2,2,6,6-tetramethyl-3,5-heptanedionato-O3,O5)-; phases: Fluid (supercritical or subcritical phases), Crystal
Property: Mole fraction of copper, bis(2,2,6,6-tetramethyl-3,5-heptanedionato-O3,O5)- (Fluid (supercritical or subcritical phases)); method: Lambert Beers Law
Temperature, K	Pressure, kPa	Mole fraction of copper, bis(2,2,6,6-tetramethyl-3,5-heptanedionato-O3,O5)-	uncertainty
313	11900	.000385	
313	14100	.000565	
313	15900	.000597	
313	18000	.000707	
313	20000	.000755	
313	22000	.000813	
313	24100	.00084	
313	26000	.000857	
333	14000	.0004	
333	16000	.000731	
333	18000	.00112	
333	20200	.00134	
333	22000	.00154	
333	24000	.00173	
333	26000	.00189	
333	28100	.00203	
333	30000	.00211	
323	12200	.000271	
323	14100	.000547	
323	15900	.00065	
323	18000	.00089	
323	20200	.00103	
323	22000	.00117	
323	23900	.00125	
323	26100	.00135	
323	28000	.00138	
343	14100	.00028	
343	16000	.000705	
343	18000	.00118	
343	20000	.00174	
343	22000	.00223	
343	24100	.00268	
343	26100	.00294	
343	28000	.0032	
343	30200	.00339	

System: carbon dioxide + bis(2,2,6,6-tetramethyl-3,5-heptanedionato)-cobalt; phases: Fluid (supercritical or subcritical phases), Crystal
Property: Mole fraction of bis(2,2,6,6-tetramethyl-3,5-heptanedionato)-cobalt (Fluid (supercritical or subcritical phases)); method: Lambert Beers Law
Temperature, K	Pressure, kPa	Mole fraction of bis(2,2,6,6-tetramethyl-3,5-heptanedionato)-cobalt	uncertainty
313	10000	.00046	
313	10900	.00062	
313	11900	.000729	
313	13000	.000774	
313	14000	.000854	
313	15000	.000885	
313	16000	.000906	
313	17000	.000972	
323	10400	.00021	
323	11100	.000365	
323	12000	.000577	
323	13000	.000743	
323	14000	.000839	
323	15000	.000963	
323	16000	.00105	
323	17000	.00112	
333	10000	.0000795	
333	11100	.000178	
333	12000	.000342	
333	13000	.000587	
333	13900	.00081	
333	14900	.00113	
333	15900	.00128	
343	10900	.00012	
343	12000	.000231	
343	13000	.000398	
343	14000	.000633	
343	15000	.000951	
343	15900	.00123	
