Measured thermophysical data. Phase Equilibria of the System Drug + Water
Source: J. Chem. Eng. Data, 2011, 10.1021/je101163y
Compound 1: ibuprofen, C13H18O2, purity 99%
Compound 2: quinine, C20H24N2O2, purity 98%
Compound 3: 3,7,11-trimethyl-2,6,1-dodecatrien-1-ol, C15H26O, purity 95%
Compound 4: water, H2O

System: 3,7,11-trimethyl-2,6,1-dodecatrien-1-ol + water; phases: Liquid mixture 1, Liquid mixture 2
Fixed: Pressure, kPa = 101.325
Property: Mass fraction of water (Liquid mixture 1); method: Titration method
Temperature, K	Mass fraction of water	uncertainty
288.15	.01841	.0005
293.15	.01876	.0005
298.15	.01888	.0005
303.15	.01939	.0005
308.15	.01926	.0005
313.15	.02024	.0005
318.15	.01732	.0005
323.15	.02148	.0005

System: 3,7,11-trimethyl-2,6,1-dodecatrien-1-ol + water; phases: Liquid mixture 2, Liquid mixture 1
Fixed: Pressure, kPa = 101.325
Property: Mass fraction of 3,7,11-trimethyl-2,6,1-dodecatrien-1-ol (Liquid mixture 2); method: Titration method
Temperature, K	Mass fraction of 3,7,11-trimethyl-2,6,1-dodecatrien-1-ol	uncertainty
288.15	.0000419	.0000025
293.15	.0000213	.0000013
298.15	.0000129	.000001
303.15	.0000357	.000002
308.15	.0000286	.000002
318.15	.0000244	.0000014
323.15	.0000199	.0000012

System: water + ibuprofen; phases: Liquid, Crystal
Fixed: Pressure, kPa = 101.325
Property: Mass fraction of ibuprofen (Liquid); method: Titration method
Temperature, K	Mass fraction of ibuprofen	uncertainty
288.15	.000095	.000003
293.15	.000107	.000003
298.15	.00012	.000003
303.15	.000134	.000004
308.15	.00015	.000004
313.15	.000166	.000005
318.15	.000207	.000005

System: water + ibuprofen; phases: Liquid mixture 1, Liquid mixture 2
Fixed: Pressure, kPa = 101.325
Property: Mass fraction of ibuprofen (Liquid mixture 1); method: Titration method
Temperature, K	Mass fraction of ibuprofen	uncertainty
321.85	.0002522	.000007
328.15	.0002742	.000008
332.25	.0002979	.000009
337.95	.0003433	.000007
345.05	.0004006	.000008
349.95	.0004578	.000007
354.45	.0005149	.000008
358.95	.0005721	.000007
363.25	.0006289	.000009
366.95	.0006863	.000008
370.65	.0007435	.000009

System: water + ibuprofen; phases: Liquid mixture 1, Liquid mixture 2
Fixed: Pressure, kPa = 101.325
Property: Mass fraction of water (Liquid mixture 1); method: Titration method
Temperature, K	Mass fraction of water	uncertainty
323.15	.0343	.0004
333.25	.0444	.0003
343.15	.0572	.0003
353.15	.0691	.0006
363.35	.0857	.0005

System: quinine + water; phases: Liquid, Crystal
Fixed: Pressure, kPa = 101.325
Property: Mass fraction of quinine (Liquid); method: UV-VIS-spectroscopy
Temperature, K	Mass fraction of quinine	uncertainty
288.15	.00019	.000002
293.15	.000202	.000001
298.15	.000213	.000002
303.15	.000227	.000002
308.15	.000242	.0000015
313.15	.000254	.0000015
