Measured thermophysical data. Conductometric and Fluorimetric Investigations on the Properties of Mixed Micelles of Two Cationic Gemini Surfactants
Source: J. Chem. Eng. Data, 2010, 10.1021/je100347r
Compound 1: water, H2O
Compound 2: 1,4-butanediaminium, N1,N1,N4,N4-tetramethyl-N1,N4-ditetradecyl-, bromide (1:2), C36H78Br2N2
Compound 3: 1,4-butanediaminium, N1,N4-dihexadecyl-N1,N1,N4,N4-tetramethyl-, bromide (1:2), C40H86Br2N2
Compound 4: 1,5-pentanediaminium, N1,N1,N5,N5-tetramethyl-N1,N5-ditetradecyl-, bromide (1:2), C37H80Br2N2
Compound 5: pentanediyl-1,5-bis(dimethylcetylammonium bromide), C41H88Br2N2
Compound 6: N,N,N',N'-tetramethyl-N,N'-ditetradecylhexane-1,6-diaminium bromide, C38H82Br2N2
Compound 7: hexanediyl-1,6-bis(dimethylcetylammonium bromide), C42H90Br2N2

System: water + 1,4-butanediaminium, N1,N4-dihexadecyl-N1,N1,N4,N4-tetramethyl-, bromide (1:2) + 1,4-butanediaminium, N1,N1,N4,N4-tetramethyl-N1,N4-ditetradecyl-, bromide (1:2); phases: Liquid
Fixed: Pressure, kPa = 101
Fixed: Temperature, K = 303
Property: Electrical conductivity, S/m (Liquid); method: ELICO conductivity bridge, model CM82T
Amount concentration (molarity), mol/dm3 of 1,4-butanediaminium, N1,N1,N4,N4-tetramethyl-N1,N4-ditetradecyl-, bromide (1:2)	Amount concentration (molarity), mol/dm3 of 1,4-butanediaminium, N1,N4-dihexadecyl-N1,N1,N4,N4-tetramethyl-, bromide (1:2)	Electrical conductivity, S/m	uncertainty
.01	.04	18.3	
.02	.079	34.6	
.03	.118	51	
.039	.157	68.3	
.049	.195	81.6	
.058	.233	93.8	
.068	.27	106	
.077	.308	116.2	
.086	.345	126.4	
.095	.381	133.6	
.113	.453	149.9	
.131	.523	169.3	
.148	.593	186.6	
.165	.661	202.9	
.182	.727	219.3	
.198	.793	234.6	
.214	.856	250.9	
.23	.92	264.1	
.246	.984	280.5	
.26	1.04	292.7	
.02	.03	16.3	
.04	.059	29.5	
.059	.089	43.8	
.078	.118	57.1	
.098	.146	70.3	
.116	.175	82.6	
.135	.203	94.8	
.154	.231	108.1	
.172	.259	118.3	
.19	.286	128.5	
.226	.34	149.9	
.262	.392	171.3	
.296	.445	191.7	
.33	.496	210.1	
.364	.545	228.4	
.396	.595	246.8	
.428	.642	265.2	
.46	.69	284.5	
.492	.738	302.9	
.52	.78	319.2	
.03	.02	23.4	
.059	.04	45.9	
.089	.059	68.3	
.118	.078	89.7	
.146	.098	112.2	
.175	.116	134.6	
.203	.135	157	
.231	.154	179.5	
.259	.172	196.8	
.286	.19	212.1	
.34	.226	239.7	
.392	.262	263.1	
.445	.296	291.7	
.496	.33	316.2	
.545	.364	339.6	
.595	.396	361	
.642	.428	384.5	
.69	.46	408	
.738	.492	432.4	
.78	.52	449.8	
.04	.01	37.7	
.079	.02	85.6	
.118	.03	123.4	
.157	.039	160.1	
.195	.049	197.8	
.233	.058	236.6	
.27	.068	277.4	
.308	.077	314.1	
.345	.086	344.7	
.381	.095	388.6	
.453	.113	448.8	
.523	.131	479.4	
.593	.148	519.1	
.661	.165	549.7	
.727	.182	585.4	
.793	.198	616	
.856	.214	646.6	
.92	.23	671.1	
.984	.246	706.8	
1.04	.26	732.3	

System: water + pentanediyl-1,5-bis(dimethylcetylammonium bromide) + 1,5-pentanediaminium, N1,N1,N5,N5-tetramethyl-N1,N5-ditetradecyl-, bromide (1:2); phases: Liquid
Fixed: Pressure, kPa = 101
Fixed: Temperature, K = 303
Property: Electrical conductivity, S/m (Liquid); method: ELICO conductivity bridge, model CM82T
Amount concentration (molarity), mol/dm3 of 1,5-pentanediaminium, N1,N1,N5,N5-tetramethyl-N1,N5-ditetradecyl-, bromide (1:2)	Amount concentration (molarity), mol/dm3 of pentanediyl-1,5-bis(dimethylcetylammonium bromide)	Electrical conductivity, S/m	uncertainty
.01	.04	14.2	
.02	.079	27.5	
.03	.118	38.7	
.039	.157	53	
.049	.195	67.3	
.058	.233	77.5	
.068	.27	90.7	
.077	.308	99.9	
.086	.345	108.1	
.095	.381	119.3	
.113	.453	136.6	
.131	.523	159.1	
.148	.593	175.4	
.165	.661	188.7	
.182	.727	211.1	
.198	.793	222.3	
.214	.856	243.7	
.23	.92	260.1	
.246	.984	276.4	
.26	1.04	290.7	
.02	.03	23.4	
.04	.059	38.7	
.059	.089	52	
.078	.118	77.5	
.098	.146	81.6	
.116	.175	103	
.135	.203	112.2	
.154	.231	128.5	
.172	.259	142.8	
.19	.286	157	
.226	.34	175.4	
.262	.392	195.8	
.296	.445	213.1	
.33	.496	231.5	
.364	.545	246.8	
.396	.595	261.1	
.428	.642	278.4	
.46	.69	298.8	
.492	.738	309	
.52	.78	326.4	
.03	.02	16.3	
.059	.04	30.6	
.089	.059	47.9	
.118	.078	61.2	
.146	.098	78.5	
.175	.116	92.8	
.203	.135	105	
.231	.154	123.4	
.259	.172	138.7	
.286	.19	153	
.34	.226	179.5	
.392	.262	197.8	
.445	.296	217.2	
.496	.33	235.6	
.545	.364	251.9	
.595	.396	270.3	
.642	.428	286.6	
.69	.46	306	
.738	.492	322.3	
.78	.52	337.6	
.04	.01	21.4	
.079	.02	40.8	
.118	.03	57.1	
.157	.039	75.4	
.195	.049	91.8	
.233	.058	111.1	
.27	.068	122.4	
.308	.077	142.8	
.345	.086	160.1	
.381	.095	183.6	
.453	.113	210.1	
.523	.131	234.6	
.593	.148	251.9	
.661	.165	271.3	
.727	.182	289.6	
.793	.198	306	
.856	.214	324.3	
.92	.23	343.7	
.984	.246	362.1	
1.04	.26	381.4	

System: water + hexanediyl-1,6-bis(dimethylcetylammonium bromide) + N,N,N',N'-tetramethyl-N,N'-ditetradecylhexane-1,6-diaminium bromide; phases: Liquid
Fixed: Pressure, kPa = 101
Fixed: Temperature, K = 303
Property: Electrical conductivity, S/m (Liquid); method: ELICO conductivity bridge, model CM82T
Amount concentration (molarity), mol/dm3 of N,N,N',N'-tetramethyl-N,N'-ditetradecylhexane-1,6-diaminium bromide	Amount concentration (molarity), mol/dm3 of hexanediyl-1,6-bis(dimethylcetylammonium bromide)	Electrical conductivity, S/m	uncertainty
.01	.04	17.3	
.02	.079	34.6	
.03	.118	49.9	
.039	.157	68.3	
.049	.195	85.6	
.058	.233	103	
.068	.27	119.3	
.077	.308	135.6	
.086	.345	149.9	
.095	.381	160.1	
.113	.453	178.5	
.131	.523	196.8	
.148	.593	214.2	
.165	.661	230.5	
.182	.727	247.8	
.198	.793	262.1	
.214	.856	278.4	
.23	.92	295.8	
.246	.984	312.1	
.26	1.04	326.4	
.02	.03	15.3	
.04	.059	32.6	
.059	.089	45.9	
.078	.118	62.2	
.098	.146	78.5	
.116	.175	95.8	
.135	.203	112.2	
.154	.231	127.5	
.172	.259	141.7	
.19	.286	154	
.226	.34	176.4	
.262	.392	195.8	
.296	.445	215.2	
.33	.496	233.5	
.364	.545	251.9	
.396	.595	270.3	
.428	.642	289.6	
.46	.69	307	
.492	.738	323.3	
.52	.78	338.6	
.03	.02	18.3	
.059	.04	35.7	
.089	.059	52	
.118	.078	72.4	
.146	.098	86.7	
.175	.116	106	
.203	.135	122.4	
.231	.154	140.7	
.259	.172	159.1	
.286	.19	174.4	
.34	.226	201.9	
.392	.262	225.4	
.445	.296	245.8	
.496	.33	265.2	
.545	.364	284.5	
.595	.396	306	
.642	.428	322.3	
.69	.46	343.7	
.738	.492	359	
.78	.52	376.3	
.04	.01	21.4	
.079	.02	40.8	
.118	.03	62.2	
.157	.039	84.6	
.195	.049	103	
.233	.058	125.4	
.27	.068	146.8	
.308	.077	168.3	
.345	.086	189.7	
.381	.095	208	
.453	.113	246.8	
.523	.131	276.4	
.593	.148	291.7	
.661	.165	308	
.727	.182	324.3	
.793	.198	340.6	
.856	.214	357	
.92	.23	371.2	
.984	.246	386.5	
1.04	.26	398.8	
