Measured thermophysical data. Density, Viscosity, and Performances of Carbon Dioxide Capture in 16 Absorbents of Amine + Ionic Liquid + H2O, Ionic Liquid + H2O, and Amine + H2O Systems
Source: J. Chem. Eng. Data, 2010, 10.1021/je100078w
Compound 1: 2-aminoethanol tetrafluoroborate, C2H7BF4NO
Compound 2: 2-[2-hydroxyethyl (methyl) amino] ethanol, C5H13NO2
Compound 3: 2-(2-hydroxyethylamino) ethanol, C4H11NO2
Compound 4: 2,2',2''-nitrilotrisethanol, C6H15NO3
Compound 5: 1-butyl-3-methylimidazolium tetrafluoroborate, C8H15BF4N2
Compound 6: 2-aminoethanol, C2H7NO
Compound 7: 2-[2-hydroxyethyl(methyl)amino]ethanol tetrafluoroborate, C5H14BF4NO2
Compound 8: 2-(2-hydroxyethyl(methyl)amino)ethanol chloride, C5H14ClNO2
Compound 9: 2,2'-(methylimino)bis-ethanol sulfate, C10H28N2O8S
Compound 10: 2-[2-hydroxyethyl(methyl)amino]tris-ethanol phosphate, C15H40N3O10P
Compound 11: water, H2O, purity 98%
Compound 12: carbon dioxide, CO2

System: 2-aminoethanol tetrafluoroborate; phases: Liquid
Fixed: Pressure, kPa = 101.325
Property: Mass density, kg/m3 (Liquid); method: Vibrating tube method
Temperature, K	Mass density, kg/m3	uncertainty
303.15	1490.568	.05
313.15	1482.624	.05
323.15	1474.942	.05
333.15	1467.845	.05
343.15	1464.59	.05

System: 2-aminoethanol tetrafluoroborate; phases: Liquid
Fixed: Pressure, kPa = 101.325
Property: Viscosity, Pa*s (Liquid); method: Concentric cylinders viscometry
Temperature, K	Viscosity, Pa*s	uncertainty
303.15	.05939	.0026945243
313.15	.04868	.0022086116
323.15	.03396	.0015407652
333.15	.03285	.0014904045
343.15	.02784	.0012631008

System: 2-[2-hydroxyethyl (methyl) amino] ethanol; phases: Liquid
Fixed: Pressure, kPa = 101.325
Property: Mass density, kg/m3 (Liquid); method: Vibrating tube method
Temperature, K	Mass density, kg/m3	uncertainty
303.15	1033.738	
313.15	1026.719	
323.15	1019.481	
333.15	1012.322	
343.15	1002.249	

System: 2-[2-hydroxyethyl (methyl) amino] ethanol; phases: Liquid
Fixed: Pressure, kPa = 101.325
Property: Viscosity, Pa*s (Liquid); method: Concentric cylinders viscometry
Temperature, K	Viscosity, Pa*s	uncertainty
303.15	.05769	.00016528185
313.15	.03479	.00009967335
323.15	.02188	.0000626862
333.15	.0146	.000041829
343.15	.009855	.000028234575

System: 1-butyl-3-methylimidazolium tetrafluoroborate; phases: Liquid
Fixed: Pressure, kPa = 101.325
Property: Mass density, kg/m3 (Liquid); method: Vibrating tube method
Temperature, K	Mass density, kg/m3	uncertainty
303.15	1195.698	
313.15	1188.618	
323.15	1181.591	
333.15	1174.603	
343.15	1167.672	

System: 1-butyl-3-methylimidazolium tetrafluoroborate; phases: Liquid
Fixed: Pressure, kPa = 101.325
Property: Viscosity, Pa*s (Liquid); method: Concentric cylinders viscometry
Temperature, K	Viscosity, Pa*s	uncertainty
303.15	.0689	
313.15	.04473	
323.15	.03081	
333.15	.02228	
343.15	.01675	

System: 2-[2-hydroxyethyl(methyl)amino]ethanol tetrafluoroborate; phases: Liquid
Fixed: Pressure, kPa = 101.325
Property: Mass density, kg/m3 (Liquid); method: Vibrating tube method
Temperature, K	Mass density, kg/m3	uncertainty
303.15	1425.56	
313.15	1418.1	
323.15	1410.628	
333.15	1403.199	
343.15	1395.851	

System: 2-[2-hydroxyethyl(methyl)amino]ethanol tetrafluoroborate; phases: Liquid
Fixed: Pressure, kPa = 101.325
Property: Viscosity, Pa*s (Liquid); method: Concentric cylinders viscometry
Temperature, K	Viscosity, Pa*s	uncertainty
303.15	.2088	
313.15	.1177	
323.15	.07179	
333.15	.04685	
343.15	.03235	

System: 2-(2-hydroxyethyl(methyl)amino)ethanol chloride; phases: Liquid
Fixed: Pressure, kPa = 101.325
Property: Mass density, kg/m3 (Liquid); method: Vibrating tube method
Temperature, K	Mass density, kg/m3	uncertainty
303.15	1180.417	
313.15	1174.706	
323.15	1169.237	
333.15	1163.747	
343.15	1158.285	

System: 2-(2-hydroxyethyl(methyl)amino)ethanol chloride; phases: Liquid
Fixed: Pressure, kPa = 101.325
Property: Viscosity, Pa*s (Liquid); method: Concentric cylinders viscometry
Temperature, K	Viscosity, Pa*s	uncertainty
303.15	.5121	
313.15	.2782	
323.15	.1642	
333.15	.1041	
343.15	.07045	

System: 2,2'-(methylimino)bis-ethanol sulfate; phases: Liquid
Fixed: Pressure, kPa = 101.325
Property: Mass density, kg/m3 (Liquid); method: Vibrating tube method
Temperature, K	Mass density, kg/m3	uncertainty
303.15	1282.487	
313.15	1276.834	
323.15	1271.249	
333.15	1265.719	
343.15	1260.243	

System: 2,2'-(methylimino)bis-ethanol sulfate; phases: Liquid
Fixed: Pressure, kPa = 101.325
Property: Viscosity, Pa*s (Liquid); method: Concentric cylinders viscometry
Temperature, K	Viscosity, Pa*s	uncertainty
313.15	1.858	
323.15	.9908	
333.15	.5712	
343.15	.3504	

System: 2-[2-hydroxyethyl(methyl)amino]tris-ethanol phosphate; phases: Liquid
Fixed: Pressure, kPa = 101.325
Property: Mass density, kg/m3 (Liquid); method: Vibrating tube method
Temperature, K	Mass density, kg/m3	uncertainty
303.15	1215.952	
313.15	1208.495	
323.15	1200.877	
333.15	1193.226	
343.15	1185.523	

System: 2-[2-hydroxyethyl(methyl)amino]tris-ethanol phosphate; phases: Liquid
Fixed: Pressure, kPa = 101.325
Property: Viscosity, Pa*s (Liquid); method: Concentric cylinders viscometry
Temperature, K	Viscosity, Pa*s	uncertainty
313.15	2.483	
323.15	1.426	
333.15	.8225	
343.15	.3854	

System: 2,2',2''-nitrilotrisethanol + 1-butyl-3-methylimidazolium tetrafluoroborate; phases: Liquid
Fixed: Pressure, kPa = 101
Property: Mass density, kg/m3 (Liquid); method: Vibrating tube method
Temperature, K	Mass fraction of 2,2',2''-nitrilotrisethanol	Mass density, kg/m3	uncertainty
303.15	0	1195.698	
313.15	0	1188.618	
323.15	0	1181.591	
333.15	0	1174.603	
343.15	0	1167.672	
303.15	.1998	1175.802	
313.15	.1998	1168.629	
323.15	.1998	1161.503	
333.15	.1998	1154.441	
343.15	.1998	1147.422	
303.15	.3987	1161.098	
313.15	.3987	1154.409	
323.15	.3987	1146.935	
333.15	.3987	1139.884	
343.15	.3987	1132.867	
303.15	.5005	1150.075	
313.15	.5005	1142.895	
323.15	.5005	1135.481	
333.15	.5005	1128.119	
343.15	.5005	1120.99	
303.15	.6	1146.422	
313.15	.6	1139.614	
323.15	.6	1132.761	
333.15	.6	1125.887	
343.15	.6	1119	
303.15	.7999	1129.558	
313.15	.7999	1123.215	
323.15	.7999	1116.727	
333.15	.7999	1110.165	
343.15	.7999	1103.538	
303.15	1	1114.431	
313.15	1	1108.343	
323.15	1	1102.23	
333.15	1	1095.962	
343.15	1	1089.599	

System: 2,2',2''-nitrilotrisethanol + 1-butyl-3-methylimidazolium tetrafluoroborate; phases: Liquid
Fixed: Pressure, kPa = 101
Property: Viscosity, Pa*s (Liquid); method: Concentric cylinders viscometry
Temperature, K	Mass fraction of 2,2',2''-nitrilotrisethanol	Viscosity, Pa*s	uncertainty
303.15	0	.0689	
313.15	0	.04473	
323.15	0	.03081	
333.15	0	.02228	
343.15	0	.01675	
303.15	.1998	.05794	
313.15	.1998	.03589	
323.15	.1998	.02402	
333.15	.1998	.01713	
343.15	.1998	.01282	
303.15	.3987	.06954	
313.15	.3987	.03971	
323.15	.3987	.02508	
333.15	.3987	.01708	
343.15	.3987	.01232	
303.15	.5005	.08662	
313.15	.5005	.04722	
323.15	.5005	.02882	
333.15	.5005	.01911	
343.15	.5005	.01348	
303.15	.6	.1165	
313.15	.6	.06067	
323.15	.6	.0361	
333.15	.6	.02335	
343.15	.6	.01614	
303.15	.7999	.1863	
313.15	.7999	.09943	
323.15	.7999	.05402	
333.15	.7999	.03363	
343.15	.7999	.02233	
303.15	1	.3982	
313.15	1	.1959	
323.15	1	.1036	
333.15	1	.06081	
343.15	1	.03794	

System: 2,2',2''-nitrilotrisethanol + water; phases: Liquid
Fixed: Pressure, kPa = 101
Property: Mass density, kg/m3 (Liquid); method: Vibrating tube method
Temperature, K	Mass fraction of 2,2',2''-nitrilotrisethanol	Mass density, kg/m3	uncertainty
303.15	.3	1042.753	
313.15	.3	1037.935	
323.15	.3	1032.207	
333.15	.3	1023.739	
343.15	.3	1011.676	

System: 2,2',2''-nitrilotrisethanol + water; phases: Liquid
Fixed: Pressure, kPa = 101
Property: Viscosity, Pa*s (Liquid); method: Concentric cylinders viscometry
Temperature, K	Mass fraction of 2,2',2''-nitrilotrisethanol	Viscosity, Pa*s	uncertainty
303.15	.3	.002354	
313.15	.3	.001799	
323.15	.3	.001425	
333.15	.3	.001172	
343.15	.3	.0009591	

System: 2-aminoethanol + water; phases: Liquid
Fixed: Pressure, kPa = 101
Property: Mass density, kg/m3 (Liquid); method: Vibrating tube method
Temperature, K	Mass fraction of 2-aminoethanol	Mass density, kg/m3	uncertainty
303.15	.3002	1013.021	.005
313.15	.3002	1007.984	.005
323.15	.3002	1003.422	.005
333.15	.3002	997.157	.005
343.15	.3002	989.924	.005

System: 2-aminoethanol + water; phases: Liquid
Fixed: Pressure, kPa = 101
Property: Viscosity, Pa*s (Liquid); method: Concentric cylinders viscometry
Temperature, K	Mass fraction of 2-aminoethanol	Viscosity, Pa*s	uncertainty
303.15	.3002	.002093	
313.15	.3002	.001603	
323.15	.3002	.001271	
333.15	.3002	.001037	
343.15	.3002	.0008681	

System: water + 2-[2-hydroxyethyl (methyl) amino] ethanol; phases: Liquid
Fixed: Pressure, kPa = 101
Property: Mass density, kg/m3 (Liquid); method: Vibrating tube method
Temperature, K	Mass fraction of 2-[2-hydroxyethyl (methyl) amino] ethanol	Mass density, kg/m3	uncertainty
303.15	.3002	1022.898	
313.15	.3002	1018.001	
323.15	.3002	1012.963	
333.15	.3002	1006.922	
343.15	.3002	992.641	

System: water + 2-[2-hydroxyethyl (methyl) amino] ethanol; phases: Liquid
Fixed: Pressure, kPa = 101
Property: Viscosity, Pa*s (Liquid); method: Concentric cylinders viscometry
Temperature, K	Mass fraction of 2-[2-hydroxyethyl (methyl) amino] ethanol	Viscosity, Pa*s	uncertainty
303.15	.3002	.002612	
313.15	.3002	.001937	
323.15	.3002	.001505	
333.15	.3002	.001207	
343.15	.3002	.0008944	

System: 2,2',2''-nitrilotrisethanol + water + 1-butyl-3-methylimidazolium tetrafluoroborate; phases: Liquid
Fixed: Pressure, kPa = 101
Property: Mass density, kg/m3 (Liquid); method: Vibrating tube method
Temperature, K	Mass fraction of 2,2',2''-nitrilotrisethanol	Mass fraction of 1-butyl-3-methylimidazolium tetrafluoroborate	Mass density, kg/m3	uncertainty
303.15	.3	.3001	1096.023	
313.15	.3	.3001	1089.288	
323.15	.3	.3001	1082.119	
333.15	.3	.3001	1074.877	
343.15	.3	.3001	1065.953	

System: 2,2',2''-nitrilotrisethanol + water + 1-butyl-3-methylimidazolium tetrafluoroborate; phases: Liquid
Fixed: Pressure, kPa = 101
Property: Viscosity, Pa*s (Liquid); method: Concentric cylinders viscometry
Temperature, K	Mole fraction of 2,2',2''-nitrilotrisethanol	Mole fraction of 1-butyl-3-methylimidazolium tetrafluoroborate	Viscosity, Pa*s	uncertainty
303.15	.3	.3001	.001245	
313.15	.3	.3001	.001041	
323.15	.3	.3001	.0008831	
333.15	.3	.3001	.0007874	
343.15	.3	.3001	.0007196	

System: 2-aminoethanol + water + 2-aminoethanol tetrafluoroborate; phases: Liquid
Fixed: Pressure, kPa = 101
Property: Mass density, kg/m3 (Liquid); method: Vibrating tube method
Temperature, K	Mass fraction of 2-aminoethanol	Mass fraction of 2-aminoethanol tetrafluoroborate	Mass density, kg/m3	uncertainty
303.15	.3006	.2996	1180.501	
313.15	.3006	.2996	1173.199	
323.15	.3006	.2996	1165.895	
333.15	.3006	.2996	1158.851	
343.15	.3006	.2996	1151.905	

System: 2-aminoethanol + water + 2-aminoethanol tetrafluoroborate; phases: Liquid
Fixed: Pressure, kPa = 101
Property: Viscosity, Pa*s (Liquid); method: Concentric cylinders viscometry
Temperature, K	Mass fraction of 2-aminoethanol	Mass fraction of 2-aminoethanol tetrafluoroborate	Viscosity, Pa*s	uncertainty
303.15	.3006	.2996	.0064417	
313.15	.3006	.2996	.0047846	
323.15	.3006	.2996	.0037179	
333.15	.3006	.2996	.0029977	
343.15	.3006	.2996	.0024686	

System: water + 2-[2-hydroxyethyl (methyl) amino] ethanol + 2-[2-hydroxyethyl(methyl)amino]tris-ethanol phosphate; phases: Liquid
Fixed: Pressure, kPa = 101
Property: Mass density, kg/m3 (Liquid); method: Vibrating tube method
Temperature, K	Mass fraction of 2-[2-hydroxyethyl (methyl) amino] ethanol	Mass fraction of 2-[2-hydroxyethyl(methyl)amino]tris-ethanol phosphate	Mass density, kg/m3	uncertainty
303.15	.3	.3001	1098.871	
313.15	.3	.3001	1092.118	
323.15	.3	.3001	1085.15	
333.15	.3	.3001	1077.926	
343.15	.3	.3001	1070.424	

System: water + 2-[2-hydroxyethyl (methyl) amino] ethanol + 2-[2-hydroxyethyl(methyl)amino]tris-ethanol phosphate; phases: Liquid
Fixed: Pressure, kPa = 101
Property: Viscosity, Pa*s (Liquid); method: Concentric cylinders viscometry
Temperature, K	Mass fraction of 2-[2-hydroxyethyl (methyl) amino] ethanol	Mass fraction of 2-[2-hydroxyethyl(methyl)amino]tris-ethanol phosphate	Viscosity, Pa*s	uncertainty
303.15	.3	.3001	.01699	
313.15	.3	.3001	.01008	
323.15	.3	.3001	.006957	
333.15	.3	.3001	.005021	
343.15	.3	.3001	.003762	

System: water + 2,2'-(methylimino)bis-ethanol sulfate + 2-[2-hydroxyethyl (methyl) amino] ethanol; phases: Liquid
Fixed: Pressure, kPa = 101
Property: Mass density, kg/m3 (Liquid); method: Vibrating tube method
Temperature, K	Mass fraction of 2-[2-hydroxyethyl (methyl) amino] ethanol	Mass fraction of 2,2'-(methylimino)bis-ethanol sulfate	Mass density, kg/m3	uncertainty
303.15	.3	.3001	1116.498	
313.15	.3	.3001	1110.182	
323.15	.3	.3001	1103.66	
333.15	.3	.3001	1097.05	
343.15	.3	.3001	1090.266	

System: water + 2,2'-(methylimino)bis-ethanol sulfate + 2-[2-hydroxyethyl (methyl) amino] ethanol; phases: Liquid
Fixed: Pressure, kPa = 101
Property: Viscosity, Pa*s (Liquid); method: Concentric cylinders viscometry
Temperature, K	Mass fraction of 2-[2-hydroxyethyl (methyl) amino] ethanol	Mass fraction of 2,2'-(methylimino)bis-ethanol sulfate	Viscosity, Pa*s	uncertainty
303.15	.3	.3001	.01167	
313.15	.3	.3001	.008039	
323.15	.3	.3001	.005831	
333.15	.3	.3001	.004387	
343.15	.3	.3001	.003404	

System: water + 2-(2-hydroxyethyl(methyl)amino)ethanol chloride + 2-[2-hydroxyethyl (methyl) amino] ethanol; phases: Liquid
Fixed: Pressure, kPa = 101
Property: Mass density, kg/m3 (Liquid); method: Vibrating tube method
Temperature, K	Mass fraction of 2-[2-hydroxyethyl (methyl) amino] ethanol	Mass fraction of 2-(2-hydroxyethyl(methyl)amino)ethanol chloride	Mass density, kg/m3	uncertainty
303.15	.3001	.3002	1081.634	
313.15	.3001	.3002	1075.645	
323.15	.3001	.3002	1069.476	
333.15	.3001	.3002	1063.089	
343.15	.3001	.3002	1056.515	

System: water + 2-(2-hydroxyethyl(methyl)amino)ethanol chloride + 2-[2-hydroxyethyl (methyl) amino] ethanol; phases: Liquid
Fixed: Pressure, kPa = 101
Property: Viscosity, Pa*s (Liquid); method: Concentric cylinders viscometry
Temperature, K	Mass fraction of 2-[2-hydroxyethyl (methyl) amino] ethanol	Mass fraction of 2-(2-hydroxyethyl(methyl)amino)ethanol chloride	Viscosity, Pa*s	uncertainty
303.15	.3001	.3002	.007601	
313.15	.3001	.3002	.005424	
323.15	.3001	.3002	.003997	
333.15	.3001	.3002	.003061	
343.15	.3001	.3002	.00241	

System: water + 1-butyl-3-methylimidazolium tetrafluoroborate; phases: Liquid
Fixed: Pressure, kPa = 101
Property: Mass density, kg/m3 (Liquid); method: Vibrating tube method
Temperature, K	Mass fraction of 1-butyl-3-methylimidazolium tetrafluoroborate	Mass density, kg/m3	uncertainty
303.15	.2998	1045.351	
313.15	.2998	1039.844	
323.15	.2998	1033.761	
333.15	.2998	1027.742	
343.15	.2998	1021.176	

System: water + 1-butyl-3-methylimidazolium tetrafluoroborate; phases: Liquid
Fixed: Pressure, kPa = 101
Fixed: Mass fraction of 1-butyl-3-methylimidazolium tetrafluoroborate = .2998
Property: Viscosity, Pa*s (Liquid); method: Concentric cylinders viscometry
Temperature, K	Viscosity, Pa*s	uncertainty
303.15	.001292	
313.15	.001046	
323.15	.0008731	
333.15	.0007473	
343.15	.0006549	

System: water + 2-aminoethanol tetrafluoroborate; phases: Liquid
Fixed: Pressure, kPa = 101
Fixed: Mass fraction of 2-aminoethanol tetrafluoroborate = .3004
Property: Mass density, kg/m3 (Liquid); method: Vibrating tube method
Temperature, K	Mass density, kg/m3	uncertainty
303.15	1116.484	
313.15	1110.851	
323.15	1104.951	
333.15	1098.991	
343.15	1093.412	

System: water + 2-aminoethanol tetrafluoroborate; phases: Liquid
Fixed: Pressure, kPa = 101
Fixed: Mass fraction of 2-aminoethanol tetrafluoroborate = .3004
Property: Viscosity, Pa*s (Liquid); method: Concentric cylinders viscometry
Temperature, K	Viscosity, Pa*s	uncertainty
303.15	.001007	
313.15	.0008573	
323.15	.0007412	
333.15	.0006743	
343.15	.0005896	

System: water + 2-[2-hydroxyethyl(methyl)amino]ethanol tetrafluoroborate; phases: Liquid
Fixed: Pressure, kPa = 101
Fixed: Mass fraction of 2-[2-hydroxyethyl(methyl)amino]ethanol tetrafluoroborate = .3001
Property: Mass density, kg/m3 (Liquid); method: Vibrating tube method
Temperature, K	Mass density, kg/m3	uncertainty
303.15	1084.708	
313.15	1075.109	
323.15	1067.019	
333.15	1058.01	
343.15	1047.871	

System: water + 2-[2-hydroxyethyl(methyl)amino]ethanol tetrafluoroborate; phases: Liquid
Fixed: Pressure, kPa = 101
Fixed: Mass fraction of water = .3001
Property: Viscosity, Pa*s (Liquid); method: Concentric cylinders viscometry
Temperature, K	Viscosity, Pa*s	uncertainty
303.15	.001245	
313.15	.001041	
323.15	.0008831	
333.15	.0007874	
343.15	.0007196	

System: water + 2-(2-hydroxyethyl(methyl)amino)ethanol chloride; phases: Liquid
Fixed: Pressure, kPa = 101
Fixed: Mass fraction of 2-(2-hydroxyethyl(methyl)amino)ethanol chloride = .3006
Property: Mass density, kg/m3 (Liquid); method: Vibrating tube method
Temperature, K	Mass density, kg/m3	uncertainty
303.15	1058.437	
313.15	1053.895	
323.15	1049.23	
333.15	1043.307	
343.15	1037.052	

System: water + 2-(2-hydroxyethyl(methyl)amino)ethanol chloride; phases: Liquid
Fixed: Pressure, kPa = 101
Fixed: Mass fraction of 2-(2-hydroxyethyl(methyl)amino)ethanol chloride = .3001
Property: Viscosity, Pa*s (Liquid); method: Concentric cylinders viscometry
Temperature, K	Viscosity, Pa*s	uncertainty
303.15	.001539	
313.15	.001265	
323.15	.001067	
333.15	.0008862	
343.15	.0007911	

System: water + 2-[2-hydroxyethyl(methyl)amino]tris-ethanol phosphate; phases: Liquid
Fixed: Pressure, kPa = 101
Fixed: Mass fraction of 2-[2-hydroxyethyl(methyl)amino]tris-ethanol phosphate = .3007
Property: Mass density, kg/m3 (Liquid); method: Vibrating tube method
Temperature, K	Mass density, kg/m3	uncertainty
303.15	1075.319	
313.15	1070.311	
323.15	1063.44	
333.15	1055.386	
343.15	1045.379	

System: water + 2-[2-hydroxyethyl(methyl)amino]tris-ethanol phosphate; phases: Liquid
Fixed: Pressure, kPa = 101
Fixed: Mass fraction of 2-[2-hydroxyethyl(methyl)amino]tris-ethanol phosphate = .3001
Property: Viscosity, Pa*s (Liquid); method: Concentric cylinders viscometry
Temperature, K	Viscosity, Pa*s	uncertainty
303.15	.00263	
313.15	.002125	
323.15	.001805	
333.15	.001594	
343.15	.001455	

System: water + 2,2'-(methylimino)bis-ethanol sulfate; phases: Liquid
Fixed: Pressure, kPa = 101
Fixed: Mass fraction of 2,2'-(methylimino)bis-ethanol sulfate = .2999
Property: Mass density, kg/m3 (Liquid); method: Vibrating tube method
Temperature, K	Mass density, kg/m3	uncertainty
303.15	1091.95	
313.15	1087.46	
323.15	1082.24	
333.15	1075.886	
343.15	1068.318	

System: water + 2,2'-(methylimino)bis-ethanol sulfate; phases: Liquid
Fixed: Pressure, kPa = 101
Fixed: Mass fraction of 2,2'-(methylimino)bis-ethanol sulfate = .3001
Property: Viscosity, Pa*s (Liquid); method: Concentric cylinders viscometry
Temperature, K	Viscosity, Pa*s	uncertainty
303.15	.001795	
313.15	.001446	
323.15	.001196	
333.15	.001012	
343.15	.000872	

System: carbon dioxide + 2,2',2''-nitrilotrisethanol + 1-butyl-3-methylimidazolium tetrafluoroborate; phases: Liquid, Gas
Fixed: Temperature, K = 303.15
Fixed: Pressure, kPa = 1500
Property: Mass ratio of solute to solvent of carbon dioxide (Liquid); method: GC
Solvent: Mass fraction of 2,2',2''-nitrilotrisethanol	Mass ratio of solute to solvent of carbon dioxide	uncertainty
.3001	.121	.000605

System: carbon dioxide + 2,2',2''-nitrilotrisethanol + water; phases: Liquid, Gas
Fixed: Pressure, kPa = 1500
Fixed: Temperature, K = 303.15
Property: Mass ratio of solute to solvent of carbon dioxide (Liquid); method: GC
Solvent: Mass fraction of 2,2',2''-nitrilotrisethanol	Mass ratio of solute to solvent of carbon dioxide	uncertainty
.3	.129	.000645

System: carbon dioxide + 2-aminoethanol + water; phases: Liquid, Gas
Fixed: Pressure, kPa = 1500
Fixed: Temperature, K = 303.15
Property: Mass ratio of solute to solvent of carbon dioxide (Liquid); method: GC
Solvent: Mass fraction of 2-aminoethanol	Mass ratio of solute to solvent of carbon dioxide	uncertainty
.3002	.159	.000795

System: carbon dioxide + water + 2-[2-hydroxyethyl (methyl) amino] ethanol; phases: Liquid, Gas
Fixed: Pressure, kPa = 1500
Fixed: Temperature, K = 303.15
Property: Mass ratio of solute to solvent of carbon dioxide (Liquid); method: GC
Solvent: Mass fraction of water	Mass ratio of solute to solvent of carbon dioxide	uncertainty
.6998	.13	.00065

System: carbon dioxide + water + 1-butyl-3-methylimidazolium tetrafluoroborate; phases: Liquid, Gas
Fixed: Pressure, kPa = 1500
Fixed: Temperature, K = 303.15
Property: Mass ratio of solute to solvent of carbon dioxide (Liquid); method: GC
Solvent: Mass fraction of water	Mass ratio of solute to solvent of carbon dioxide	uncertainty
.7002	.021	.000105

System: carbon dioxide + water + 2-aminoethanol tetrafluoroborate; phases: Liquid, Gas
Fixed: Pressure, kPa = 1500
Fixed: Temperature, K = 303.15
Property: Mass ratio of solute to solvent of carbon dioxide (Liquid); method: GC
Solvent: Mass fraction of water	Mass ratio of solute to solvent of carbon dioxide	uncertainty
.6996	.028	.00014

System: carbon dioxide + water + 2-[2-hydroxyethyl(methyl)amino]ethanol tetrafluoroborate; phases: Liquid, Gas
Fixed: Pressure, kPa = 1500
Fixed: Temperature, K = 303.15
Property: Mass ratio of solute to solvent of carbon dioxide (Liquid); method: GC
Solvent: Mass fraction of water	Mass ratio of solute to solvent of carbon dioxide	uncertainty
.6999	.085	.000425

System: carbon dioxide + water + 2-(2-hydroxyethyl(methyl)amino)ethanol chloride; phases: Liquid, Gas
Fixed: Pressure, kPa = 1500
Fixed: Temperature, K = 303.15
Property: Mass ratio of solute to solvent of carbon dioxide (Liquid); method: GC
Solvent: Mass fraction of water	Mass ratio of solute to solvent of carbon dioxide	uncertainty
.6994	.028	.00014

System: carbon dioxide + water + 2-[2-hydroxyethyl(methyl)amino]tris-ethanol phosphate; phases: Liquid, Gas
Fixed: Pressure, kPa = 1500
Fixed: Temperature, K = 303.15
Property: Mass ratio of solute to solvent of carbon dioxide (Liquid); method: GC
Solvent: Mass fraction of water	Mass ratio of solute to solvent of carbon dioxide	uncertainty
.6993	.067	.000335

System: carbon dioxide + water + 2,2'-(methylimino)bis-ethanol sulfate; phases: Liquid, Gas
Fixed: Pressure, kPa = 1500
Fixed: Temperature, K = 303.15
Property: Mass ratio of solute to solvent of carbon dioxide (Liquid); method: GC
Solvent: Mass fraction of water	Mass ratio of solute to solvent of carbon dioxide	uncertainty
.7001	.054	.00027
