Measured thermophysical data. Solubilities of N-[(4-Bromo-3,5-difluorine)-phenyl]maleimide in Different Organic Solvents
Source: J. Chem. Eng. Data, 2011, 10.1021/je1010054
Compound 1: 1-(4-bromo-3,5-difluorophenyl)-1H-pyrrole-2,5-dione, C10H4BrF2NO2, purity 99.3%
Compound 2: N,N-dimethylformamide, C3H7NO, purity 99.8%
Compound 3: methyl sulfoxide, C2H6OS, purity 99.8%
Compound 4: dioxane, C4H8O2, purity 99.8%
Compound 5: ethyl methyl ketone, C4H8O, purity 99.8%
Compound 6: cyclohexanone, C6H10O, purity 99.8%
Compound 7: toluene, C7H8, purity 99.8%

System: 1-(4-bromo-3,5-difluorophenyl)-1H-pyrrole-2,5-dione; phases: Crystal, Liquid, Air at 1 atmosphere
Property: Normal melting temperature, K (Crystal); method: Visual observation
Normal melting temperature, K	uncertainty
470.65	

System: N,N-dimethylformamide + 1-(4-bromo-3,5-difluorophenyl)-1H-pyrrole-2,5-dione; phases: Liquid, Crystal
Fixed: Pressure, kPa = 101
Property: Mole fraction of 1-(4-bromo-3,5-difluorophenyl)-1H-pyrrole-2,5-dione (Liquid); method: Laser Monitoring Observation
Temperature, K	Mole fraction of 1-(4-bromo-3,5-difluorophenyl)-1H-pyrrole-2,5-dione	uncertainty
289.45	.0208	.000104
293.65	.0228	.000114
300.83	.0269	.0001345
305.65	.0301	.0001505
308.85	.0324	.000162
317.55	.0398	.000199
320.45	.0426	.000213
322.95	.0452	.000226
325.25	.0477	.0002385
333.55	.0582	.000291
337.65	.0643	.0003215
342.65	.0722	.000361
346.65	.0794	.000397
350.75	.0876	.000438
353.35	.0932	.000466
356.25	.1	.0005

System: methyl sulfoxide + 1-(4-bromo-3,5-difluorophenyl)-1H-pyrrole-2,5-dione; phases: Liquid, Crystal
Fixed: Pressure, kPa = 101
Property: Mole fraction of 1-(4-bromo-3,5-difluorophenyl)-1H-pyrrole-2,5-dione (Liquid); method: Laser Monitoring Observation
Temperature, K	Mole fraction of 1-(4-bromo-3,5-difluorophenyl)-1H-pyrrole-2,5-dione	uncertainty
289.35	.0116	.000058
293.65	.0131	.0000655
297.05	.0143	.0000715
301.45	.0161	.0000805
305.95	.0184	.000092
309.45	.0202	.000101
314.05	.0231	.0001155
318.15	.026	.00013
324.55	.0314	.000157
328.05	.0348	.000174
333.65	.0406	.000203
338.85	.0473	.0002365
342.55	.0527	.0002635
346.05	.058	.00029
349.35	.0637	.0003185
355.95	.0768	.000384

System: dioxane + 1-(4-bromo-3,5-difluorophenyl)-1H-pyrrole-2,5-dione; phases: Liquid, Crystal
Fixed: Pressure, kPa = 101
Property: Mole fraction of 1-(4-bromo-3,5-difluorophenyl)-1H-pyrrole-2,5-dione (Liquid); method: Laser Monitoring Observation
Temperature, K	Mole fraction of 1-(4-bromo-3,5-difluorophenyl)-1H-pyrrole-2,5-dione	uncertainty
287.65	.0122	.000061
290.65	.0133	.0000665
293.85	.0146	.000073
297.15	.016	.00008
302.05	.0183	.0000915
306.25	.0206	.000103
310.05	.023	.000115
317.15	.0281	.0001405
321.65	.0318	.000159
324.45	.0342	.000171
330.85	.0408	.000204
335.35	.0464	.000232
339.15	.0513	.0002565
342.25	.0558	.000279
347.25	.0639	.0003195
353.65	.0759	.0003795

System: ethyl methyl ketone + 1-(4-bromo-3,5-difluorophenyl)-1H-pyrrole-2,5-dione; phases: Liquid, Crystal
Fixed: Pressure, kPa = 101
Property: Mole fraction of 1-(4-bromo-3,5-difluorophenyl)-1H-pyrrole-2,5-dione (Liquid); method: Laser Monitoring Observation
Temperature, K	Mole fraction of 1-(4-bromo-3,5-difluorophenyl)-1H-pyrrole-2,5-dione	uncertainty
289.75	.0086	.000043
299.25	.0112	.000056
303.5	.0128	.000064
308.75	.0149	.0000745
313	.017	.000085
316.25	.0187	.0000935
318.6	.0202	.000101
321.75	.022	.00011
324.25	.0237	.0001185
327.05	.0257	.0001285
331.95	.0296	.000148
335.25	.0326	.000163
338.85	.036	.00018
341.55	.039	.000195
343.5	.0411	.0002055
345.25	.0432	.000216

System: cyclohexanone + 1-(4-bromo-3,5-difluorophenyl)-1H-pyrrole-2,5-dione; phases: Liquid, Crystal
Fixed: Pressure, kPa = 101
Property: Mole fraction of 1-(4-bromo-3,5-difluorophenyl)-1H-pyrrole-2,5-dione (Liquid); method: Laser Monitoring Observation
Temperature, K	Mole fraction of 1-(4-bromo-3,5-difluorophenyl)-1H-pyrrole-2,5-dione	uncertainty
285.15	.0129	.0000645
291.25	.0151	.0000755
295.15	.0167	.0000835
300.15	.0191	.0000955
305.65	.0221	.0001105
311.65	.0259	.0001295
316.55	.0295	.0001475
321.85	.0342	.000171
324.95	.037	.000185
328.75	.0411	.0002055
333.25	.0462	.000231
337.35	.0515	.0002575
341.35	.0572	.000286
348.35	.069	.000345
351.65	.0751	.0003755
355.05	.0823	.0004115

System: toluene + 1-(4-bromo-3,5-difluorophenyl)-1H-pyrrole-2,5-dione; phases: Liquid, Crystal
Fixed: Pressure, kPa = 101
Property: Mole fraction of 1-(4-bromo-3,5-difluorophenyl)-1H-pyrrole-2,5-dione (Liquid); method: Laser Monitoring Observation
Temperature, K	Mole fraction of 1-(4-bromo-3,5-difluorophenyl)-1H-pyrrole-2,5-dione	uncertainty
291.05	.0031	.0000155
296.35	.0037	.0000185
299.15	.0041	.0000205
302.95	.0047	.0000235
306.05	.0053	.0000265
310.15	.0061	.0000305
315.95	.0075	.0000375
321.05	.0089	.0000445
325.15	.0103	.0000515
330.65	.0124	.000062
334.45	.014	.00007
340.75	.0175	.0000875
343.55	.0192	.000096
348.45	.0226	.000113
350.65	.0244	.000122
354.45	.0276	.000138
