Measured thermophysical data. Osmotic and Activity Coefficient of 1-Ethyl-3-methylimidazolium Bromide in Aqueous Solutions of Potassium Dihydrogen Phosphate, Dipotassium Hydrogen Phosphate, and Tripotassium Phosphate at T = 298.15 K
Source: J. Chem. Eng. Data, 2010, 10.1021/je100720x
Compound 1: sodium chloride, ClNa, purity 99.5%
Compound 2: potassium tribasic phosphate, H3K3O4P, purity 98%
Compound 3: 1-ethyl-3-methylimidazolium bromide, C6H11BrN2, purity 98%
Compound 4: potassium monohydrogen phosphate, HK2O4P, purity 99%
Compound 5: phosphoric acid, monopotassium salt, H2KO4P, purity 99%
Compound 6: water, H2O, purity 99.9%

System: water + 1-ethyl-3-methylimidazolium bromide; phases: Liquid, Gas
Fixed: Temperature, K = 298.15
Property: Osmotic coefficient (Liquid); method: Isopiestic method
Molality, mol/kg of 1-ethyl-3-methylimidazolium bromide	Osmotic coefficient	uncertainty
.5514	.811	.00811
.6588	.801	.00801
.6883	.799	.00799
.7764	.795	.00795
.9367	.787	.00787
1.0405	.786	.00786
1.9432	.763	.00763
2.3076	.757	.00757
2.5419	.759	.00759
3.1886	.763	.00763
4.3588	.786	.00786
5.4096	.821	.00821
7.1696	.883	.00883

System: water + 1-ethyl-3-methylimidazolium bromide; phases: Liquid, Gas
Property: (Relative) activity of water (Liquid); method: Isopiestic method
Mass fraction of 1-ethyl-3-methylimidazolium bromide	Temperature, K	(Relative) activity of water	uncertainty
.1264	298.15	.9787	.0002
.1471	298.15	.9745	.0002
.1809	298.15	.9683	.0002
.2136	298.15	.9621	.0002
.2281	298.15	.9589	.0002
.2736	298.15	.9477	.0002
.2752	298.15	.9471	.0002
.3268	298.15	.9328	.0002
.3939	298.15	.9098	.0002
.4176	298.15	.8996	.0002
.4427	298.15	.8889	.0002
.1449	298.15	.9753	.0002
.1658	298.15	.9715	.0002
.2245	298.15	.9594	.0002
.2471	298.15	.9544	.0002
.2778	298.15	.948	.0002
.2956	298.15	.942	.0002
.3106	298.15	.9379	.0002
.3417	298.15	.9287	.0002
.3655	298.15	.9204	.0002
.1058	298.15	.9821	.0002
.1523	298.15	.974	.0002
.1671	298.15	.9711	.0002
.1788	298.15	.9688	.0002
.1888	298.15	.9678	.0002
.1992	298.15	.9645	.0002
.2073	298.15	.9629	.0002
.2258	298.15	.959	.0002

System: water + 1-ethyl-3-methylimidazolium bromide; phases: Liquid, Gas
Property: Vapor or sublimation pressure, kPa (Liquid); method: Isopiestic method
Mass fraction of 1-ethyl-3-methylimidazolium bromide	Temperature, K	Vapor or sublimation pressure, kPa	uncertainty
.1264	298.15	3.107	
.1471	298.15	3.094	
.1809	298.15	3.074	
.2136	298.15	3.054	
.2281	298.15	3.044	
.2736	298.15	3.009	
.2752	298.15	3.007	
.3268	298.15	2.961	
.3939	298.15	2.888	
.4176	298.15	2.856	
.4427	298.15	2.822	
.1449	298.15	3.097	
.1658	298.15	3.084	
.2245	298.15	3.046	
.2471	298.15	3.03	
.2778	298.15	3.01	
.2956	298.15	2.991	
.3106	298.15	2.978	
.3417	298.15	2.948	
.3655	298.15	2.922	
.1058	298.15	3.118	
.1523	298.15	3.092	
.1671	298.15	3.083	
.1788	298.15	3.076	
.1888	298.15	3.073	
.1992	298.15	3.062	
.2073	298.15	3.057	
.2258	298.15	3.045	

System: water + potassium tribasic phosphate; phases: Liquid, Gas
Fixed: Temperature, K = 298.15
Property: Osmotic coefficient (Liquid); method: Isopiestic method
Molality, mol/kg of potassium tribasic phosphate	Osmotic coefficient	uncertainty
.4308	.694	.00694
.5142	.698	.00698
.6347	.705	.00705
.7575	.708	.00708
.8132	.716	.00716
1.0023	.744	.00744
1.0119	.745	.00745
1.2412	.778	.00778
1.6947	.866	.00866
1.8303	.893	.00893

System: water + potassium tribasic phosphate; phases: Liquid, Gas
Property: (Relative) activity of water (Liquid); method: Isopiestic method
Mass fraction of potassium tribasic phosphate	Temperature, K	(Relative) activity of water	uncertainty
.0838	298.15	.9787	.0002
.0984	298.15	.9745	.0002
.1187	298.15	.9683	.0002
.1385	298.15	.9621	.0002
.1472	298.15	.9589	.0002
.1754	298.15	.9477	.0002
.1768	298.15	.9471	.0002
.2085	298.15	.9328	.0002
.2469	298.15	.9098	.0002
.2646	298.15	.8996	.0002
.2798	298.15	.8889	.0002

System: water + potassium tribasic phosphate; phases: Liquid, Gas
Property: Vapor or sublimation pressure, kPa (Liquid); method: Isopiestic method
Mass fraction of potassium tribasic phosphate	Temperature, K	Vapor or sublimation pressure, kPa	uncertainty
.0838	298.15	3.107	
.0984	298.15	3.094	
.1187	298.15	3.074	
.1385	298.15	3.054	
.1472	298.15	3.044	
.1754	298.15	3.009	
.1768	298.15	3.007	
.2085	298.15	2.961	
.2469	298.15	2.888	
.2646	298.15	2.856	
.2798	298.15	2.822	

System: water + potassium monohydrogen phosphate; phases: Liquid, Gas
Fixed: Temperature, K = 298.15
Property: Osmotic coefficient (Liquid); method: Isopiestic method
Molality, mol/kg of potassium monohydrogen phosphate	Osmotic coefficient	uncertainty
.6496	.711	.00711
.7592	.704	.00704
1.1118	.69	.0069
1.2506	.69	.0069
1.6042	.689	.00689
1.7119	.694	.00694
1.9646	.696	.00696
2.1627	.709	.00709

System: water + potassium monohydrogen phosphate; phases: Liquid, Gas
Property: (Relative) activity of water (Liquid); method: Isopiestic method
Mass fraction of potassium monohydrogen phosphate	Temperature, K	(Relative) activity of water	uncertainty
.1017	298.15	.9753	.0002
.1168	298.15	.9715	.0002
.1622	298.15	.9594	.0002
.1789	298.15	.9544	.0002
.2032	298.15	.948	.0002
.2184	298.15	.942	.0002
.2297	298.15	.9379	.0002
.255	298.15	.9287	.0002
.2736	298.15	.9204	.0002

System: water + potassium monohydrogen phosphate; phases: Liquid, Gas
Property: Vapor or sublimation pressure, kPa (Liquid); method: Isopiestic method
Mass fraction of potassium monohydrogen phosphate	Temperature, K	Vapor or sublimation pressure, kPa	uncertainty
.1017	298.15	3.097	
.1168	298.15	3.084	
.1622	298.15	3.046	
.1789	298.15	3.03	
.2032	298.15	3.01	
.2184	298.15	2.991	
.2297	298.15	2.978	
.255	298.15	2.948	
.2736	298.15	2.922	

System: water + phosphoric acid, monopotassium salt; phases: Liquid, Gas
Fixed: Temperature, K = 298.15
Property: Osmotic coefficient (Liquid); method: Isopiestic method
Molality, mol/kg of phosphoric acid, monopotassium salt	Osmotic coefficient	uncertainty
.6269	.8	.008
.9843	.744	.00744
1.1131	.731	.00731
1.2275	.717	.00717
1.2705	.715	.00715
1.5077	.696	.00696
1.7071	.68	.0068

System: water + phosphoric acid, monopotassium salt; phases: Liquid, Gas
Property: (Relative) activity of water (Liquid); method: Isopiestic method
Mass fraction of phosphoric acid, monopotassium salt	Temperature, K	(Relative) activity of water	uncertainty
.0786	298.15	.9821	.0002
.1181	298.15	.974	.0002
.1316	298.15	.9711	.0002
.1431	298.15	.9688	.0002
.1484	298.15	.9678	.0002
.1603	298.15	.9645	.0002
.1702	298.15	.9629	.0002
.1885	298.15	.959	.0002

System: water + phosphoric acid, monopotassium salt; phases: Liquid, Gas
Property: Vapor or sublimation pressure, kPa (Liquid); method: Isopiestic method
Mass fraction of phosphoric acid, monopotassium salt	Temperature, K	Vapor or sublimation pressure, kPa	uncertainty
.0786	298.15	3.118	
.1181	298.15	3.092	
.1316	298.15	3.083	
.1431	298.15	3.076	
.1484	298.15	3.073	
.1603	298.15	3.062	
.1702	298.15	3.057	
.1885	298.15	3.045	

System: water + potassium tribasic phosphate + 1-ethyl-3-methylimidazolium bromide; phases: Liquid, Gas
Fixed: Temperature, K = 298.15
Property: (Relative) activity of water (Liquid); method: Isopiestic method
Mass fraction of 1-ethyl-3-methylimidazolium bromide	Mass fraction of potassium tribasic phosphate	(Relative) activity of water	uncertainty
.1264	0	.9787	.0002
.0832	.0187	.9787	.0002
.0704	.0261	.9787	.0002
0	.0838	.9787	.0002
.1471	0	.9745	.0002
.0925	.0245	.9745	.0002
.0614	.0434	.9745	.0002
0	.0984	.9745	.0002
.1809	0	.9683	.0002
.1134	.0277	.9683	.0002
.0508	.0678	.9683	.0002
0	.1187	.9683	.0002
.2136	0	.9621	.0002
.1184	.0393	.9621	.0002
.0657	.0744	.9621	.0002
0	.1385	.9621	.0002
.2281	0	.9589	.0002
.1277	.0411	.9589	.0002
.0664	.0807	.9589	.0002
0	.1472	.9589	.0002
.2736	0	.9477	.0002
.1557	.047	.9477	.0002
.094	.085	.9477	.0002
0	.1754	.9477	.0002
.2752	0	.9471	.0002
.1446	.0538	.9471	.0002
.0788	.0984	.9471	.0002
0	.1768	.9471	.0002
.3268	0	.9328	.0002
.1957	.0512	.9328	.0002
.0988	.111	.9328	.0002
0	.2085	.9328	.0002
.3939	0	.9098	.0002
.2464	.0574	.9098	.0002
.1187	.1349	.9098	.0002
0	.2469	.9098	.0002
.4176	0	.8996	.0002
.2564	.0642	.8996	.0002
.1173	.1508	.8996	.0002
0	.2646	.8996	.0002
.4427	0	.8889	.0002
.2654	.0726	.8889	.0002
.1546	.1392	.8889	.0002
0	.2798	.8889	.0002

System: water + potassium tribasic phosphate + 1-ethyl-3-methylimidazolium bromide; phases: Liquid, Gas
Fixed: Temperature, K = 298.15
Property: Vapor or sublimation pressure, kPa (Liquid); method: Isopiestic method
Mass fraction of 1-ethyl-3-methylimidazolium bromide	Mass fraction of potassium tribasic phosphate	Vapor or sublimation pressure, kPa	uncertainty
.1264	0	3.107	
.0832	.0187	3.107	
.0704	.0261	3.107	
0	.0838	3.107	
.1471	0	3.094	
.0925	.0245	3.094	
.0614	.0434	3.094	
0	.0984	3.094	
.1809	0	3.074	
.1134	.0277	3.074	
.0508	.0678	3.074	
0	.1187	3.074	
.2136	0	3.054	
.1184	.0393	3.054	
.0657	.0744	3.054	
0	.1385	3.054	
.2281	0	3.044	
.1277	.0411	3.044	
.0664	.0807	3.044	
0	.1472	3.044	
.2736	0	3.009	
.1557	.047	3.009	
.094	.085	3.009	
0	.1754	3.009	
.2752	0	3.007	
.1446	.0538	3.007	
.0788	.0984	3.007	
0	.1768	3.007	
.3268	0	2.961	
.1957	.0512	2.961	
.0988	.111	2.961	
0	.2085	2.961	
.3939	0	2.888	
.2464	.0574	2.888	
.1187	.1349	2.888	
0	.2469	2.888	
.4176	0	2.856	
.2564	.0642	2.856	
.1173	.1508	2.856	
0	.2646	2.856	
.4427	0	2.822	
.2654	.0726	2.822	
.1546	.1392	2.822	
0	.2798	2.822	

System: water + potassium monohydrogen phosphate + 1-ethyl-3-methylimidazolium bromide; phases: Liquid, Gas
Fixed: Temperature, K = 298.15
Property: (Relative) activity of water (Liquid); method: Isopiestic method
Mass fraction of 1-ethyl-3-methylimidazolium bromide	Mass fraction of potassium monohydrogen phosphate	(Relative) activity of water	uncertainty
.1449	0	.9753	.0002
.0955	.0223	.9753	.0002
.042	.0583	.9753	.0002
0	.1017	.9753	.0002
.1658	0	.9715	.0002
.0919	.0344	.9715	.0002
.0569	.0581	.9715	.0002
0	.1168	.9715	.0002
.2245	0	.9594	.0002
.1302	.0411	.9594	.0002
.0608	.0913	.9594	.0002
0	.1622	.9594	.0002
.2471	0	.9544	.0002
.1357	.0496	.9544	.0002
.0699	.0972	.9544	.0002
0	.1789	.9544	.0002
.2778	0	.948	.0002
.1457	.0599	.948	.0002
.0882	.1013	.948	.0002
0	.2032	.948	.0002
.2956	0	.942	.0002
.1714	.0535	.942	.0002
.0824	.119	.942	.0002
0	.2184	.942	.0002
.3106	0	.9379	.0002
.1798	.0583	.9379	.0002
.0921	.1193	.9379	.0002
0	.2297	.9379	.0002
.3417	0	.9287	.0002
.1967	.0633	.9287	.0002
.0898	.1423	.9287	.0002
0	.255	.9287	.0002
.3655	0	.9204	.0002
.204	.0723	.9204	.0002
.11	.1409	.9204	.0002
0	.2736	.9204	.0002

System: water + potassium monohydrogen phosphate + 1-ethyl-3-methylimidazolium bromide; phases: Liquid, Gas
Fixed: Temperature, K = 298.15
Property: Vapor or sublimation pressure, kPa (Liquid); method: Isopiestic method
Mass fraction of 1-ethyl-3-methylimidazolium bromide	Mass fraction of potassium monohydrogen phosphate	Vapor or sublimation pressure, kPa	uncertainty
.1449	0	3.097	
.0955	.0223	3.097	
.042	.0583	3.097	
0	.1017	3.097	
.1658	0	3.084	
.0919	.0344	3.084	
.0569	.0581	3.084	
0	.1168	3.084	
.2245	0	3.046	
.1302	.0411	3.046	
.0608	.0913	3.046	
0	.1622	3.046	
.2471	0	3.03	
.1357	.0496	3.03	
.0699	.0972	3.03	
0	.1789	3.03	
.2778	0	3.01	
.1457	.0599	3.01	
.0882	.1013	3.01	
0	.2032	3.01	
.2956	0	2.991	
.1714	.0535	2.991	
.0824	.119	2.991	
0	.2184	2.991	
.3106	0	2.978	
.1798	.0583	2.978	
.0921	.1193	2.978	
0	.2297	2.978	
.3417	0	2.948	
.1967	.0633	2.948	
.0898	.1423	2.948	
0	.255	2.948	
.3655	0	2.922	
.204	.0723	2.922	
.11	.1409	2.922	
0	.2736	2.922	

System: water + phosphoric acid, monopotassium salt + 1-ethyl-3-methylimidazolium bromide; phases: Liquid, Gas
Fixed: Temperature, K = 298.15
Property: (Relative) activity of water (Liquid); method: Isopiestic method
Mass fraction of 1-ethyl-3-methylimidazolium bromide	Mass fraction of phosphoric acid, monopotassium salt	(Relative) activity of water	uncertainty
.1058	0	.9821	.0002
.0722	.019	.9821	.0002
.0388	.0424	.9821	.0002
0	.0786	.9821	.0002
.1523	0	.974	.0002
.0922	.0332	.974	.0002
.0517	.0639	.974	.0002
0	.1181	.974	.0002
.1671	0	.9711	.0002
.101	.0362	.9711	.0002
.0464	.0788	.9711	.0002
0	.1316	.9711	.0002
.1788	0	.9688	.0002
.1032	.0407	.9688	.0002
.0558	.0792	.9688	.0002
0	.1431	.9688	.0002
.1888	0	.9678	.0002
.1171	.0387	.9678	.0002
.0501	.0812	.9678	.0002
0	.1484	.9678	.0002
.1992	0	.9645	.0002
.1217	.0419	.9645	.0002
.0705	.0802	.9645	.0002
0	.1603	.9645	.0002
.2073	0	.9629	.0002
.1329	.0392	.9629	.0002
.0648	.0919	.9629	.0002
0	.1702	.9629	.0002
.2258	0	.959	.0002
.1374	.0473	.959	.0002
.078	.0932	.959	.0002
0	.1885	.959	.0002

System: water + phosphoric acid, monopotassium salt + 1-ethyl-3-methylimidazolium bromide; phases: Liquid, Gas
Fixed: Temperature, K = 298.15
Property: Vapor or sublimation pressure, kPa (Liquid); method: Isopiestic method
Mass fraction of 1-ethyl-3-methylimidazolium bromide	Mass fraction of phosphoric acid, monopotassium salt	Vapor or sublimation pressure, kPa	uncertainty
.1058	0	3.118	
.0722	.019	3.118	
.0388	.0424	3.118	
0	.0786	3.118	
.1523	0	3.092	
.0922	.0332	3.092	
.0517	.0639	3.092	
0	.1181	3.092	
.1671	0	3.083	
.101	.0362	3.083	
.0464	.0788	3.083	
0	.1316	3.083	
.1788	0	3.076	
.1032	.0407	3.076	
.0558	.0792	3.076	
0	.1431	3.076	
.1888	0	3.073	
.1171	.0387	3.073	
.0501	.0812	3.073	
0	.1484	3.073	
.1992	0	3.062	
.1217	.0419	3.062	
.0705	.0802	3.062	
0	.1603	3.062	
.2073	0	3.057	
.1329	.0392	3.057	
.0648	.0919	3.057	
0	.1702	3.057	
.2258	0	3.045	
.1374	.0473	3.045	
.078	.0932	3.045	
0	.1885	3.045	
