Measured thermophysical data. Viscosity and Diffusivity for the Ionic Liquid 1-Hexyl-3-methyl-imidazolium Bis(trifluoromethylsulfonyl)amide with 1-Octene
Source: J. Chem. Eng. Data, 2011, 10.1021/je1009224
Compound 1: 1-hexyl-3-methylimidazolium bis[(trifluoromethyl)sulfonyl]imide, C12H19F6N3O4S2
Compound 2: 1-octene, C8H16

System: 1-hexyl-3-methylimidazolium bis[(trifluoromethyl)sulfonyl]imide; phases: Liquid
Property: Viscosity, Pa*s (Liquid); method: Cone and plate viscometry
Temperature, K	Pressure, kPa	Viscosity, Pa*s	uncertainty
283.15	101.325	.136	.002
298.15	101.325	.0701	.0008
323.15	101.325	.0258	.0003
348.15	101.325	.0135	.0002

System: 1-octene; phases: Liquid
Fixed: Pressure, kPa = 101.325
Property: Self diffusion coefficient, m2/s (Liquid); method: NMR spin-echo technique
Temperature, K	Self diffusion coefficient, m2/s	uncertainty
298.15	0.000000228	.000000016
323.15	0.000000344	.000000024

System: 1-octene; phases: Liquid
Property: Viscosity, Pa*s (Liquid); method: Cone and plate viscometry
Temperature, K	Pressure, kPa	Viscosity, Pa*s	uncertainty
283.15	101.325	.00056	.00001
298.15	101.325	.00047	.00001
323.15	101.325	.00037	.00001
348.15	101.325	.0003	.00001

System: 1-octene + 1-hexyl-3-methylimidazolium bis[(trifluoromethyl)sulfonyl]imide; phases: Liquid
Fixed: Pressure, kPa = 101
Property: Viscosity, Pa*s (Liquid); method: Cone and plate viscometry
Mole fraction of 1-octene	Temperature, K	Viscosity, Pa*s	uncertainty
0	283.15	.136	.002
.05	283.15	.127	.001
.1	283.15	.106	.001
.15	283.15	.093	.001
0	298.15	.0701	.0008
.05	298.15	.0666	.0007
.1	298.15	.0562	.0008
.15	298.15	.0512	.0006
0	323.15	.0258	.0003
.05	323.15	.0244	.0003
.1	323.15	.0216	.0003
.15	323.15	.0205	.0003
0	348.15	.0135	.0002
.05	348.15	.013	.0002
.1	348.15	.0116	.0002
.15	348.15	.0114	.0002
1	283.15	.00056	.00001
1	298.15	.00047	.00001
1	323.15	.00037	.00001
1	348.15	.0003	.00001

System: 1-octene + 1-hexyl-3-methylimidazolium bis[(trifluoromethyl)sulfonyl]imide; phases: Liquid, Liquid
Property: Tracer diffusion coefficient, m2/s of 1-octene (Liquid); method: NMR
Mole fraction of 1-octene	Temperature, K	Tracer diffusion coefficient, m2/s of 1-octene	uncertainty
0	298.15	0.000000000054	
.01	298.15	0.000000000055	.000000000006
.05	298.15	0.000000000065	.000000000005
.1	298.15	0.000000000074	.000000000005
.15	298.15	0.00000000009	.000000000006
0	323.15	0.000000000243	
.01	323.15	0.000000000249	.00000000002
.05	323.15	0.000000000263	.000000000018
.1	323.15	0.000000000293	.000000000021
.15	323.15	0.000000000313	.000000000022
