Measured thermophysical data. Structural and Positional Isomerism Influence in the Physical Properties of Pyridinium NTf2-Based Ionic Liquids: Pure and Water-Saturated Mixtures
Source: J. Chem. Eng. Data, 2010, 10.1021/je100377k
Compound 1: 3-methyl-1-propylpyridinium bis(trifluoromethylsulfonyl)imide, C11H14F6N2O4S2, purity 99%
Compound 2: 1-butyl-3-methylpyridinium 1,1,1-trifluoro-N-[(trifluoromethyl)sulfonyl]methanesulfonamide, C12H16F6N2O4S2, purity 99%
Compound 3: 1-butyl-4-methylpyridinium bis(trifluoromethylsulfonyl)imide, C12H16F6N2O4S2, purity 99%
Compound 4: 1-butylpyridinium bis[(trifluoromethyl)sulfonyl]imide, C11H14F6N2O4S2, purity 99%
Compound 5: 1-hexylpyridinium bis(trifluoromethylsulfonyl)imide, C13H18F6N2O4S2, purity 99%
Compound 6: 1-octylpyridinium bis[(trifluoromethyl)sulfonyl]imide, C16H24F6N2O4S2, purity 99%
Compound 7: water, H2O

System: 3-methyl-1-propylpyridinium bis(trifluoromethylsulfonyl)imide; phases: Liquid
Fixed: Pressure, kPa = 101.325
Property: Mass density, kg/m3 (Liquid); method: Vibrating tube method
Temperature, K	Mass density, kg/m3	uncertainty
278.15	1467.1	.5
283.15	1462.3	.5
288.15	1457.5	.5
293.15	1452.8	.5
298.15	1447.5	.5
303.15	1442.8	.5
308.15	1438.1	.5
313.15	1433.4	.5
318.15	1428.8	.5
323.15	1424.1	.5
328.15	1419.5	.5
333.15	1414.9	.5
338.15	1410.3	.5
343.15	1405.7	.5
348.15	1401.1	.5
353.15	1396.6	.5
358.15	1392.1	.5
363.15	1387.7	.5

System: 3-methyl-1-propylpyridinium bis(trifluoromethylsulfonyl)imide; phases: Liquid
Fixed: Pressure, kPa = 101.325
Property: Viscosity, Pa*s (Liquid); method: Concentric cylinders viscometry
Temperature, K	Viscosity, Pa*s	uncertainty
278.15	.15986	.00055951
283.15	.11781	.000412335
288.15	.089221	.0003122735
293.15	.069105	.0002418675
298.15	.054942	.000192297
303.15	.044221	.0001547735
308.15	.036146	.000126511
313.15	.029982	.000104937
318.15	.025197	.0000881895
323.15	.021433	.0000750155
328.15	.01841	.000064435
333.15	.015969	.0000558915
338.15	.013968	.000048888
343.15	.012314	.000043099
348.15	.010933	.0000382655
353.15	.009769	.0000341915
358.15	.008782	.000030737
363.15	.007937	.0000277795

System: 1-butyl-3-methylpyridinium 1,1,1-trifluoro-N-[(trifluoromethyl)sulfonyl]methanesulfonamide; phases: Liquid
Fixed: Pressure, kPa = 101.325
Property: Mass density, kg/m3 (Liquid); method: Vibrating tube method
Temperature, K	Mass density, kg/m3	uncertainty
278.15	1431.2	.5
283.15	1426.6	.5
288.15	1421.9	.5
293.15	1417.4	.5
298.15	1412.8	.5
303.15	1408.2	.5
308.15	1403.6	.5
313.15	1399	.5
318.15	1394.5	.5
323.15	1389.9	.5
328.15	1385.4	.5
333.15	1380.9	.5
338.15	1376.4	.5
343.15	1371.9	.5
348.15	1367.4	.5
353.15	1362.9	.5
358.15	1358.5	.5
363.15	1354.1	.5

System: 1-butyl-3-methylpyridinium 1,1,1-trifluoro-N-[(trifluoromethyl)sulfonyl]methanesulfonamide; phases: Liquid
Fixed: Pressure, kPa = 101.325
Property: Viscosity, Pa*s (Liquid); method: Capillary tube (Ostwald; Ubbelohde) method
Temperature, K	Viscosity, Pa*s	uncertainty
278.15	.19543	.000684005
283.15	.14273	.000499555
288.15	.10715	.000375025
293.15	.082194	.000287679
298.15	.064359	.0002252565
303.15	.051387	.0001798545
308.15	.04164	.00014574
313.15	.034263	.0001199205
318.15	.028566	.000099981
323.15	.024103	.0000843605
328.15	.020572	.000072002
333.15	.017712	.000061992
338.15	.015379	.0000538265
343.15	.01347	.000047145
348.15	.011897	.0000416395
353.15	.01056	.00003696
358.15	.00944	.00003304
363.15	.008484	.000029694

System: 1-butyl-4-methylpyridinium bis(trifluoromethylsulfonyl)imide; phases: Liquid
Fixed: Pressure, kPa = 101.325
Property: Mass density, kg/m3 (Liquid); method: Vibrating tube method
Temperature, K	Mass density, kg/m3	uncertainty
278.15	1431	.5
283.15	1426.3	.5
288.15	1421.6	.5
293.15	1416.9	.5
298.15	1412.2	.5
303.15	1407.6	.5
308.15	1402.9	.5
313.15	1398.3	.5
318.15	1393.6	.5
323.15	1389	.5
328.15	1384.4	.5
333.15	1379.8	.5
338.15	1375.3	.5
343.15	1370.7	.5
348.15	1366.2	.5
353.15	1361.7	.5
358.15	1357.2	.5
363.15	1352.7	.5

System: 1-butyl-4-methylpyridinium bis(trifluoromethylsulfonyl)imide; phases: Liquid
Fixed: Pressure, kPa = 101.325
Property: Viscosity, Pa*s (Liquid); method: Concentric cylinders viscometry
Temperature, K	Viscosity, Pa*s	uncertainty
278.15	.1699	.00059465
283.15	.12419	.000434665
288.15	.093266	.000326431
293.15	.071723	.0002510305
298.15	.05633	.000197155
303.15	.045071	.0001577485
308.15	.03667	.000128345
313.15	.030279	.0001059765
318.15	.02534	.00008869
323.15	.021453	.0000750855
328.15	.018365	.0000642775
333.15	.015865	.0000555275
338.15	.013824	.000048384
343.15	.012127	.0000424445
348.15	.010725	.0000375375
353.15	.00954	.00003339
358.15	.008531	.0000298585
363.15	.007673	.0000268555

System: 1-butylpyridinium bis[(trifluoromethyl)sulfonyl]imide; phases: Liquid
Fixed: Pressure, kPa = 101.325
Property: Mass density, kg/m3 (Liquid); method: Vibrating tube method
Temperature, K	Mass density, kg/m3	uncertainty
278.15	1467.6	.5
283.15	1462.8	.5
288.15	1458.1	.5
293.15	1453.4	.5
298.15	1448.7	.5
303.15	1444	.5
308.15	1439.3	.5
313.15	1434.6	.5
318.15	1430	.5
323.15	1425.4	.5
328.15	1420.7	.5
333.15	1416.1	.5
338.15	1411.6	.5
343.15	1407	.5
348.15	1402.5	.5
353.15	1398	.5
358.15	1393.5	.5
363.15	1389	.5

System: 1-butylpyridinium bis[(trifluoromethyl)sulfonyl]imide; phases: Liquid
Fixed: Pressure, kPa = 101.325
Property: Viscosity, Pa*s (Liquid); method: Concentric cylinders viscometry
Temperature, K	Viscosity, Pa*s	uncertainty
278.15	.18181	.000636335
283.15	.13334	.00046669
288.15	.10065	.000352275
293.15	.077715	.0002720025
298.15	.061249	.0002143715
303.15	.049154	.000172039
308.15	.040087	.0001403045
313.15	.033172	.000116102
318.15	.027811	.0000973385
323.15	.023589	.0000825615
328.15	.02023	.000070805
333.15	.017508	.000061278
338.15	.015279	.0000534765
343.15	.01344	.00004704
348.15	.011907	.0000416745
353.15	.01062	.00003717
358.15	.009528	.000033348
363.15	.008594	.000030079

System: 1-hexylpyridinium bis(trifluoromethylsulfonyl)imide; phases: Liquid
Fixed: Pressure, kPa = 101.325
Property: Mass density, kg/m3 (Liquid); method: Vibrating tube method
Temperature, K	Mass density, kg/m3	uncertainty
278.15	1412.5	.5
283.15	1407.8	.5
288.15	1403.2	.5
293.15	1398.7	.5
298.15	1394.2	.5
303.15	1389.7	.5
308.15	1385.2	.5
313.15	1380.7	.5
318.15	1376.3	.5
323.15	1371.8	.5
328.15	1367.3	.5
333.15	1362.9	.5
338.15	1358.5	.5
343.15	1354	.5
348.15	1349.6	.5
353.15	1345.3	.5
358.15	1340.9	.5
363.15	1336.6	.5

System: 1-hexylpyridinium bis(trifluoromethylsulfonyl)imide; phases: Liquid
Fixed: Pressure, kPa = 101.325
Property: Viscosity, Pa*s (Liquid); method: Concentric cylinders viscometry
Temperature, K	Viscosity, Pa*s	uncertainty
278.15	.32208	.00112728
283.15	.22905	.000801675
288.15	.16756	.00058646
293.15	.12556	.00043946
298.15	.096206	.000336721
303.15	.075215	.0002632525
308.15	.059862	.000209517
313.15	.048419	.0001694665
318.15	.039742	.000139097
323.15	.033039	.0001156365
328.15	.027794	.000097279
333.15	.023642	.000082747
338.15	.020298	.000071043
343.15	.017579	.0000615265
348.15	.015354	.000053739
353.15	.013508	.000047278
358.15	.011964	.000041874
363.15	.010663	.0000373205

System: 1-octylpyridinium bis[(trifluoromethyl)sulfonyl]imide; phases: Liquid
Fixed: Pressure, kPa = 101.325
Property: Mass density, kg/m3 (Liquid); method: Vibrating tube method
Temperature, K	Mass density, kg/m3	uncertainty
278.15	1347.2	.5
283.15	1342.7	.5
288.15	1338.2	.5
293.15	1333.8	.5
298.15	1329.5	.5
303.15	1325.2	.5
308.15	1320.9	.5
313.15	1316.6	.5
318.15	1312.3	.5
323.15	1308	.5
328.15	1303.7	.5
333.15	1299.5	.5
338.15	1295.2	.5
343.15	1290.9	.5
348.15	1286.7	.5
353.15	1282.5	.5
358.15	1278.3	.5
363.15	1274.1	.5

System: 1-octylpyridinium bis[(trifluoromethyl)sulfonyl]imide; phases: Liquid
Fixed: Pressure, kPa = 101.325
Property: Viscosity, Pa*s (Liquid); method: Concentric cylinders viscometry
Temperature, K	Viscosity, Pa*s	uncertainty
278.15	.39872	.00139552
283.15	.28138	.00098483
288.15	.20435	.000715225
293.15	.15198	.00053193
298.15	.11555	.000404425
303.15	.089603	.0003136105
308.15	.070721	.0002475235
313.15	.056766	.000198681
318.15	.04623	.000161805
323.15	.038144	.000133504
328.15	.031863	.0001115205
333.15	.026909	.0000941815
338.15	.022955	.0000803425
343.15	.019765	.0000691775
348.15	.017162	.000060067
353.15	.015018	.000052563
358.15	.013234	.000046319
363.15	.01174	.00004109

System: water + 3-methyl-1-propylpyridinium bis(trifluoromethylsulfonyl)imide; phases: Liquid mixture 1, Liquid
Fixed: Pressure, kPa = 101
Property: Mole fraction of water (Liquid mixture 1); method: Titration method
Temperature, K	Mole fraction of water	uncertainty
298.15	.238	

System: water + 3-methyl-1-propylpyridinium bis(trifluoromethylsulfonyl)imide; phases: Liquid mixture 1, Liquid
Fixed: Pressure, kPa = 101
Property: Mass density, kg/m3 (Liquid mixture 1); method: Vibrating tube method
Temperature, K	Mass density, kg/m3	uncertainty
298.15	1440.7	.5
303.15	1435.9	.5
308.15	1431.1	.5
313.15	1426.3	.5
318.15	1421.6	.5
323.15	1416.8	.5
328.15	1412.1	.5
333.15	1407.4	.5
338.15	1402.8	.5
343.15	1398.1	.5
348.15	1393.5	.5
353.15	1388.9	.5
358.15	1384.3	.5
363.15	1379.7	.5

System: water + 3-methyl-1-propylpyridinium bis(trifluoromethylsulfonyl)imide; phases: Liquid mixture 1, Liquid
Fixed: Pressure, kPa = 101
Property: Viscosity, Pa*s (Liquid mixture 1); method: Concentric cylinders viscometry
Temperature, K	Viscosity, Pa*s	uncertainty
298.15	.039448	.000138068
303.15	.032288	.000113008
308.15	.026831	.0000939085
313.15	.022583	.0000790405
318.15	.019225	.0000672875
323.15	.016534	.000057869
328.15	.014357	.0000502495
333.15	.012571	.0000439985
338.15	.011089	.0000388115
343.15	.009851	.0000344785
348.15	.008809	.0000308315
353.15	.007922	.000027727
358.15	.007162	.000025067
363.15	.006503	.0000227605

System: water + 1-butyl-3-methylpyridinium 1,1,1-trifluoro-N-[(trifluoromethyl)sulfonyl]methanesulfonamide; phases: Liquid mixture 1, Liquid
Fixed: Pressure, kPa = 101
Property: Mole fraction of water (Liquid mixture 1); method: Titration method
Temperature, K	Mole fraction of water	uncertainty
298.15	.214	

System: water + 1-butyl-3-methylpyridinium 1,1,1-trifluoro-N-[(trifluoromethyl)sulfonyl]methanesulfonamide; phases: Liquid mixture 1, Liquid
Fixed: Pressure, kPa = 101
Property: Mass density, kg/m3 (Liquid mixture 1); method: Vibrating tube method
Temperature, K	Mass density, kg/m3	uncertainty
298.15	1407.6	.5
303.15	1402.9	.5
308.15	1398.2	.5
313.15	1393.6	.5
318.15	1389	.5
323.15	1384.3	.5
328.15	1379.7	.5
333.15	1375.1	.5
338.15	1370.6	.5
343.15	1366	.5
348.15	1361.5	.5
353.15	1357	.5
358.15	1352.5	.5
363.15	1348	.5

System: water + 1-butyl-3-methylpyridinium 1,1,1-trifluoro-N-[(trifluoromethyl)sulfonyl]methanesulfonamide; phases: Liquid mixture 1, Liquid
Fixed: Pressure, kPa = 101
Property: Viscosity, Pa*s (Liquid mixture 1); method: Concentric cylinders viscometry
Temperature, K	Viscosity, Pa*s	uncertainty
298.15	.048932	.000171262
303.15	.039539	.0001383865
308.15	.03247	.000113645
313.15	.027031	.0000946085
318.15	.022791	.0000797685
323.15	.019429	.0000680015
328.15	.016736	.000058576
333.15	.014552	.000050932
338.15	.012754	.000044639
343.15	.011265	.0000394275
348.15	.010016	.000035056
353.15	.00893	.000031255
358.15	.008031	.0000281085
363.15	.00726	.00002541

System: water + 1-butyl-4-methylpyridinium bis(trifluoromethylsulfonyl)imide; phases: Liquid mixture 1, Liquid
Fixed: Pressure, kPa = 101
Property: Mole fraction of water (Liquid mixture 1); method: Titration method
Temperature, K	Mole fraction of water	uncertainty
298.15	.244	

System: water + 1-butyl-4-methylpyridinium bis(trifluoromethylsulfonyl)imide; phases: Liquid mixture 1, Liquid
Fixed: Pressure, kPa = 101
Property: Mass density, kg/m3 (Liquid mixture 1); method: Vibrating tube method
Temperature, K	Mass density, kg/m3	uncertainty
298.15	1402.4	.5
303.15	1397.6	.5
308.15	1392.8	.5
313.15	1388.1	.5
318.15	1383.4	.5
323.15	1378.6	.5
328.15	1373.9	.5
333.15	1369.3	.5
338.15	1364.6	.5
343.15	1359.9	.5
348.15	1355.3	.5
353.15	1350.7	.5
358.15	1346.1	.5
363.15	1341.5	.5

System: water + 1-butyl-4-methylpyridinium bis(trifluoromethylsulfonyl)imide; phases: Liquid mixture 1, Liquid
Fixed: Pressure, kPa = 101
Property: Viscosity, Pa*s (Liquid mixture 1); method: Concentric cylinders viscometry
Temperature, K	Viscosity, Pa*s	uncertainty
298.15	.034101	.0001193535
303.15	.027937	.0000977795
308.15	.023215	.0000812525
313.15	.019549	.0000684215
318.15	.016654	.000058289
323.15	.014338	.000050183
328.15	.012464	.000043624
333.15	.010926	.000038241
338.15	.009648	.000033768
343.15	.008583	.0000300405
348.15	.00768	.00002688
353.15	.006914	.000024199
358.15	.006255	.0000218925
363.15	.005688	.000019908

System: water + 1-butylpyridinium bis[(trifluoromethyl)sulfonyl]imide; phases: Liquid mixture 1, Liquid
Fixed: Pressure, kPa = 101
Property: Mole fraction of water (Liquid mixture 1); method: Titration method
Temperature, K	Mole fraction of water	uncertainty
298.15	.248	

System: water + 1-butylpyridinium bis[(trifluoromethyl)sulfonyl]imide; phases: Liquid mixture 1, Liquid
Fixed: Pressure, kPa = 101
Property: Mass density, kg/m3 (Liquid mixture 1); method: Vibrating tube method
Temperature, K	Mass density, kg/m3	uncertainty
298.15	1442.1	.5
303.15	1437.4	.5
308.15	1432.6	.5
313.15	1427.8	.5
318.15	1423.1	.5
323.15	1418.3	.5
328.15	1413.6	.5
333.15	1408.9	.5
338.15	1404.2	.5
343.15	1399.6	.5
348.15	1395	.5
353.15	1390.4	.5
358.15	1385.8	.5
363.15	1381.3	.5

System: water + 1-butylpyridinium bis[(trifluoromethyl)sulfonyl]imide; phases: Liquid mixture 1, Liquid
Fixed: Pressure, kPa = 101
Property: Viscosity, Pa*s (Liquid mixture 1); method: Concentric cylinders viscometry
Temperature, K	Viscosity, Pa*s	uncertainty
298.15	.04397	.000153895
303.15	.035859	.0001255065
308.15	.029684	.000103894
313.15	.024899	.0000871465
318.15	.021133	.0000739655
323.15	.018131	.0000634585
328.15	.015706	.000054971
333.15	.013728	.000048048
338.15	.012091	.0000423185
343.15	.010725	.0000375375
348.15	.009576	.000033516
353.15	.008603	.0000301105
358.15	.007768	.000027188
363.15	.007047	.0000246645

System: water + 1-hexylpyridinium bis(trifluoromethylsulfonyl)imide; phases: Liquid mixture 1, Liquid
Fixed: Pressure, kPa = 101
Property: Mole fraction of water (Liquid mixture 1); method: Titration method
Temperature, K	Mole fraction of water	uncertainty
298.15	.233	

System: water + 1-hexylpyridinium bis(trifluoromethylsulfonyl)imide; phases: Liquid mixture 1, Liquid
Fixed: Pressure, kPa = 101
Property: Mass density, kg/m3 (Liquid mixture 1); method: Vibrating tube method
Temperature, K	Mass density, kg/m3	uncertainty
298.15	1386.5	.5
303.15	1381.9	.5
308.15	1377.4	.5
313.15	1372.8	.5
318.15	1368.3	.5
323.15	1363.8	.5
328.15	1359.2	.5
333.15	1354.7	.5
338.15	1350.2	.5
343.15	1345.7	.5
348.15	1341.2	.5
353.15	1336.7	.5
358.15	1332.3	.5
363.15	1328	.5

System: water + 1-hexylpyridinium bis(trifluoromethylsulfonyl)imide; phases: Liquid mixture 1, Liquid
Fixed: Pressure, kPa = 101
Property: Viscosity, Pa*s (Liquid mixture 1); method: Concentric cylinders viscometry
Temperature, K	Viscosity, Pa*s	uncertainty
298.15	.063143	.0002210005
303.15	.05041	.000176435
308.15	.040912	.000143192
313.15	.033686	.000117901
318.15	.028104	.000098364
323.15	.023728	.000083048
328.15	.020244	.000070854
333.15	.01743	.000061005
338.15	.015157	.0000530495
343.15	.013285	.0000464975
348.15	.011743	.0000411005
353.15	.010434	.000036519
358.15	.009327	.0000326445
363.15	.008382	.000029337

System: water + 1-octylpyridinium bis[(trifluoromethyl)sulfonyl]imide; phases: Liquid mixture 1, Liquid
Fixed: Pressure, kPa = 101
Property: Mole fraction of water (Liquid mixture 1); method: Titration method
Temperature, K	Mole fraction of water	uncertainty
298.15	.197	

System: water + 1-octylpyridinium bis[(trifluoromethyl)sulfonyl]imide; phases: Liquid mixture 1, Liquid
Fixed: Pressure, kPa = 101
Property: Mass density, kg/m3 (Liquid mixture 1); method: Vibrating tube method
Temperature, K	Mass density, kg/m3	uncertainty
298.15	1324.6	.5
303.15	1320.2	.5
308.15	1315.8	.5
313.15	1311.5	.5
318.15	1307.1	.5
323.15	1302.7	.5
328.15	1298.4	.5
333.15	1294	.5
338.15	1289.7	.5
343.15	1285.4	.5
348.15	1281.1	.5
353.15	1276.9	.5
358.15	1272.6	.5
363.15	1268.4	.5

System: water + 1-octylpyridinium bis[(trifluoromethyl)sulfonyl]imide; phases: Liquid mixture 1, Liquid
Fixed: Pressure, kPa = 101
Property: Viscosity, Pa*s (Liquid mixture 1); method: Concentric cylinders viscometry
Temperature, K	Viscosity, Pa*s	uncertainty
298.15	.079903	.0002796605
303.15	.063087	.0002208045
308.15	.050632	.000177212
313.15	.041243	.0001443505
318.15	.034058	.000119203
323.15	.02847	.000099645
328.15	.024071	.0000842485
333.15	.020569	.0000719915
338.15	.017726	.000062041
343.15	.015412	.000053942
348.15	.013511	.0000472885
353.15	.011921	.0000417235
358.15	.010584	.000037044
363.15	.009454	.000033089
