Measured thermophysical data. High Solubility and Partial Molar Volume of 2,2'-Oxybis(N,N-bis(2-methoxyethyl)acetamide) in Supercritical Carbon Dioxide
Source: J. Chem. Eng. Data, 2011, 10.1021/je101104m
Compound 1: carbon dioxide, CO2, purity 99.99%
Compound 2: 2,2'-oxybis[N,N-bis(2-methoxyethyl)acetamide], C16H32N2O7, purity 99.5%

System: carbon dioxide + 2,2'-oxybis[N,N-bis(2-methoxyethyl)acetamide]; phases: Liquid, Gas
Property: Vapor or sublimation pressure, kPa (Liquid); method: Closed cell (Static) method
Temperature, K	Mole fraction of 2,2'-oxybis[N,N-bis(2-methoxyethyl)acetamide]	Vapor or sublimation pressure, kPa	uncertainty
313	.00184	9200	500
313	.00327	9700	500
313	.00457	10300	500
313	.00572	11200	500
313	.0068	12400	500
323	.00192	11100	500
323	.0035	11700	500
323	.00492	12300	500
323	.00529	13000	500
323	.00607	13400	500
333	.00201	12800	500
333	.00359	13800	500
333	.0045	14200	500
333	.00508	14500	500
333	.00647	15200	500
