Measured thermophysical data. Liquid-Liquid Extraction of Toluene from Heptane Using 1-Alkyl-3-methylimidazolium Bis(trifluoromethylsulfonyl)imide Ionic Liquids
Source: J. Chem. Eng. Data, 2011, 10.1021/je100982h
Compound 1: heptane, C7H16, purity 99.5%
Compound 2: toluene, C7H8, purity 99.7%
Compound 3: 1,3-dimethylimidazolium bis[(trifluoromethyl)sulfonyl]imide, C7H9F6N3O4S2, purity 99%
Compound 4: [C2mim][NTf2], C8H11F6N3O4S2, purity 99%
Compound 5: [C4mim] [NTf2], C10H15F6N3O4S2, purity 99%
Compound 6: 1-hexyl-3-methylimidazolium bis[(trifluoromethyl)sulfonyl]imide, C12H19F6N3O4S2, purity 99%

System: toluene + heptane + 1,3-dimethylimidazolium bis[(trifluoromethyl)sulfonyl]imide; phases: Liquid mixture 1, Liquid mixture 2
Property: Mole fraction of heptane (Liquid mixture 1); method: Chromatography
Property: Mole fraction of toluene (Liquid mixture 2); method: Chromatography
Property: Mole fraction of heptane (Liquid mixture 2); method: Chromatography
Temperature, K	Pressure, kPa	Mole fraction of toluene	Mole fraction of heptane	uncertainty	Mole fraction of toluene	uncertainty	Mole fraction of heptane	uncertainty
313.2	1	0	1	.001	0	.001	.0178	.001
313.2	1	.0297	.9703	.001	.0214	.001	.0186	.001
313.2	1	.0657	.9343	.001	.0454	.001	.0162	.001
313.2	1	.1364	.8636	.001	.0947	.001	.0174	.001
313.2	1	.2174	.7826	.001	.1428	.001	.0164	.001
313.2	1	.3421	.6579	.001	.2205	.001	.0154	.001
313.2	1	.4674	.5326	.001	.2847	.001	.0147	.001
313.2	1	.5264	.4736	.001	.3252	.001	.0151	.001
313.2	1	.6324	.3676	.001	.3921	.001	.0129	.001
313.2	1	.7442	.2558	.001	.445	.001	.0124	.001
313.2	1	.834	.166	.001	.5019	.001	.0107	.001
313.2	1	1	0	.001	.5891	.001	0	.001

System: toluene + heptane + [C2mim][NTf2]; phases: Liquid mixture 1, Liquid mixture 2
Property: Mole fraction of heptane (Liquid mixture 1); method: Chromatography
Property: Mole fraction of toluene (Liquid mixture 2); method: Chromatography
Property: Mole fraction of heptane (Liquid mixture 2); method: Chromatography
Temperature, K	Pressure, kPa	Mole fraction of toluene	Mole fraction of heptane	uncertainty	Mole fraction of toluene	uncertainty	Mole fraction of heptane	uncertainty
313.2	1	0	1	.001	0	.001	.0251	.001
313.2	1	.0288	.9712	.001	.0269	.001	.0299	.001
313.2	1	.0615	.9385	.001	.0501	.001	.0256	.001
313.2	1	.1297	.8703	.001	.1051	.001	.0261	.001
313.2	1	.217	.783	.001	.1706	.001	.0266	.001
313.2	1	.3419	.6581	.001	.2494	.001	.0252	.001
313.2	1	.4303	.5697	.001	.3111	.001	.0246	.001
313.2	1	.5095	.4905	.001	.3558	.001	.0236	.001
313.2	1	.6163	.3837	.001	.424	.001	.0227	.001
313.2	1	.7322	.2678	.001	.4802	.001	.0197	.001
313.2	1	.8334	.1666	.001	.5258	.001	.0144	.001
313.2	1	1	0	.001	.6341	.001	0	.001

System: toluene + heptane + [C4mim] [NTf2]; phases: Liquid mixture 1, Liquid mixture 2
Property: Mole fraction of heptane (Liquid mixture 1); method: Chromatography
Property: Mole fraction of toluene (Liquid mixture 2); method: Chromatography
Property: Mole fraction of heptane (Liquid mixture 2); method: Chromatography
Temperature, K	Pressure, kPa	Mole fraction of toluene	Mole fraction of heptane	uncertainty	Mole fraction of toluene	uncertainty	Mole fraction of heptane	uncertainty
313.2	1	0	1	.001	0	.001	.054	.001
313.2	1	.026	.974	.001	.0312	.001	.0584	.001
313.2	1	.0527	.9473	.001	.0581	.001	.0538	.001
313.2	1	.1133	.8867	.001	.1199	.001	.0509	.001
313.2	1	.1881	.8119	.001	.1901	.001	.0537	.001
313.2	1	.3051	.6949	.001	.2905	.001	.0531	.001
313.2	1	.3913	.6087	.001	.3464	.001	.0481	.001
313.2	1	.4776	.5224	.001	.4126	.001	.0492	.001
313.2	1	.591	.409	.001	.4757	.001	.0477	.001
313.2	1	.7126	.2874	.001	.541	.001	.0407	.001
313.2	1	.816	.184	.001	.6416	.001	.0332	.001
313.2	1	1	0	.001	.7273	.001	0	.001

System: toluene + heptane + 1-hexyl-3-methylimidazolium bis[(trifluoromethyl)sulfonyl]imide; phases: Liquid mixture 1, Liquid mixture 2
Property: Mole fraction of heptane (Liquid mixture 1); method: Chromatography
Property: Mole fraction of toluene (Liquid mixture 2); method: Chromatography
Property: Mole fraction of heptane (Liquid mixture 2); method: Chromatography
Temperature, K	Pressure, kPa	Mole fraction of toluene	Mole fraction of heptane	uncertainty	Mole fraction of toluene	uncertainty	Mole fraction of heptane	uncertainty
313.2	1	0	1	.001	0	.001	.1375	.001
313.2	1	.0228	.9772	.001	.0335	.001	.1161	.001
313.2	1	.047	.953	.001	.0623	.001	.1211	.001
313.2	1	.0949	.9051	.001	.1328	.001	.1153	.001
313.2	1	.1594	.8406	.001	.1984	.001	.1047	.001
313.2	1	.2692	.7308	.001	.3115	.001	.1036	.001
313.2	1	.3578	.6422	.001	.3809	.001	.0969	.001
313.2	1	.4814	.5186	.001	.4588	.001	.0852	.001
313.2	1	.551	.449	.001	.511	.001	.0864	.001
313.2	1	.6982	.3018	.001	.5971	.001	.0744	.001
313.2	1	.8121	.1879	.001	.6685	.001	.0552	.001
313.2	1	1	0	.001	.8068	.001	0	.001

System: heptane + 1,3-dimethylimidazolium bis[(trifluoromethyl)sulfonyl]imide; phases: Liquid mixture 2, Liquid mixture 1
Property: Mole fraction of heptane (Liquid mixture 2); method: Chromatography
Temperature, K	Pressure, kPa	Mole fraction of heptane	uncertainty
313.2	101.325	.0178	.001

System: heptane + 1,3-dimethylimidazolium bis[(trifluoromethyl)sulfonyl]imide; phases: Liquid mixture 2, Liquid mixture 1
Fixed: Pressure, kPa = 101
Property: Mole fraction of 1,3-dimethylimidazolium bis[(trifluoromethyl)sulfonyl]imide (Liquid mixture 2); method: Chromatography
Temperature, K	Mole fraction of 1,3-dimethylimidazolium bis[(trifluoromethyl)sulfonyl]imide	uncertainty
313.2	0	.001

System: toluene + 1,3-dimethylimidazolium bis[(trifluoromethyl)sulfonyl]imide; phases: Liquid mixture 2, Liquid mixture 1
Property: Mole fraction of toluene (Liquid mixture 2); method: Chromatography
Pressure, kPa	Temperature, K	Mole fraction of toluene	uncertainty
101.325	313.2	.5891	.001

System: toluene + 1,3-dimethylimidazolium bis[(trifluoromethyl)sulfonyl]imide; phases: Liquid mixture 2, Liquid mixture 1
Fixed: Pressure, kPa = 101
Property: Mole fraction of 1,3-dimethylimidazolium bis[(trifluoromethyl)sulfonyl]imide (Liquid mixture 2); method: Chromatography
Temperature, K	Mole fraction of 1,3-dimethylimidazolium bis[(trifluoromethyl)sulfonyl]imide	uncertainty
313.2	0	.001

System: heptane + [C2mim][NTf2]; phases: Liquid mixture 2, Liquid mixture 1
Property: Mole fraction of heptane (Liquid mixture 2); method: Chromatography
Temperature, K	Pressure, kPa	Mole fraction of heptane	uncertainty
313.2	101.325	.0251	.001

System: heptane + [C2mim][NTf2]; phases: Liquid mixture 2, Liquid mixture 1
Fixed: Pressure, kPa = 101
Property: Mole fraction of [C2mim][NTf2] (Liquid mixture 2); method: Chromatography
Temperature, K	Mole fraction of [C2mim][NTf2]	uncertainty
313.2	0	.001

System: toluene + [C2mim][NTf2]; phases: Liquid mixture 2, Liquid mixture 1
Property: Mole fraction of toluene (Liquid mixture 2); method: Chromatography
Pressure, kPa	Temperature, K	Mole fraction of toluene	uncertainty
101.325	313.2	.6341	.001

System: toluene + [C2mim][NTf2]; phases: Liquid mixture 2, Liquid mixture 1
Fixed: Pressure, kPa = 101
Property: Mole fraction of [C2mim][NTf2] (Liquid mixture 2); method: Chromatography
Temperature, K	Mole fraction of [C2mim][NTf2]	uncertainty
313.2	0	.001

System: heptane + [C4mim] [NTf2]; phases: Liquid mixture 2, Liquid mixture 1
Property: Mole fraction of heptane (Liquid mixture 2); method: Chromatography
Temperature, K	Pressure, kPa	Mole fraction of heptane	uncertainty
313.2	101.325	.054	.001

System: heptane + [C4mim] [NTf2]; phases: Liquid mixture 2, Liquid mixture 1
Fixed: Pressure, kPa = 101
Property: Mole fraction of [C4mim] [NTf2] (Liquid mixture 2); method: Chromatography
Temperature, K	Mole fraction of [C4mim] [NTf2]	uncertainty
313.2	0	.001

System: toluene + [C4mim] [NTf2]; phases: Liquid mixture 2, Liquid mixture 1
Property: Mole fraction of toluene (Liquid mixture 2); method: Chromatography
Pressure, kPa	Temperature, K	Mole fraction of toluene	uncertainty
101.325	313.2	.7273	.001

System: toluene + [C4mim] [NTf2]; phases: Liquid mixture 2, Liquid mixture 1
Fixed: Pressure, kPa = 101
Property: Mole fraction of [C4mim] [NTf2] (Liquid mixture 2); method: Chromatography
Temperature, K	Mole fraction of [C4mim] [NTf2]	uncertainty
313.2	0	.001

System: heptane + 1-hexyl-3-methylimidazolium bis[(trifluoromethyl)sulfonyl]imide; phases: Liquid mixture 2, Liquid mixture 1
Property: Mole fraction of heptane (Liquid mixture 2); method: Chromatography
Temperature, K	Pressure, kPa	Mole fraction of heptane	uncertainty
313.2	101.325	.1375	.001

System: heptane + 1-hexyl-3-methylimidazolium bis[(trifluoromethyl)sulfonyl]imide; phases: Liquid mixture 2, Liquid mixture 1
Fixed: Pressure, kPa = 101
Property: Mole fraction of 1-hexyl-3-methylimidazolium bis[(trifluoromethyl)sulfonyl]imide (Liquid mixture 2); method: Chromatography
Temperature, K	Mole fraction of 1-hexyl-3-methylimidazolium bis[(trifluoromethyl)sulfonyl]imide	uncertainty
313.2	0	.001

System: toluene + 1-hexyl-3-methylimidazolium bis[(trifluoromethyl)sulfonyl]imide; phases: Liquid mixture 2, Liquid mixture 1
Property: Mole fraction of toluene (Liquid mixture 2); method: Chromatography
Pressure, kPa	Temperature, K	Mole fraction of toluene	uncertainty
101.325	313.2	.8068	.001

System: toluene + 1-hexyl-3-methylimidazolium bis[(trifluoromethyl)sulfonyl]imide; phases: Liquid mixture 2, Liquid mixture 1
Fixed: Pressure, kPa = 101
Property: Mole fraction of 1-hexyl-3-methylimidazolium bis[(trifluoromethyl)sulfonyl]imide (Liquid mixture 2); method: Chromatography
Temperature, K	Mole fraction of 1-hexyl-3-methylimidazolium bis[(trifluoromethyl)sulfonyl]imide	uncertainty
313.2	0	.001
