Measured thermophysical data. Vapor Pressure Measurement and Correlation or Prediction for Water, 1-Propanol, 2-Propanol, and Their Binary Mixtures with [MMIM][DMP] Ionic Liquid
Source: J. Chem. Eng. Data, 2010, 10.1021/je100483d
Compound 1: propan-1-ol, C3H8O
Compound 2: 2-propanol, C3H8O
Compound 3: 1,3-dimethylimidazolium dimethylphosphate, C7H15N2O4P
Compound 4: water, H2O

System: water + 1,3-dimethylimidazolium dimethylphosphate; phases: Liquid, Gas
Property: Vapor or sublimation pressure, kPa (Liquid); method: Ebulliometric method (Recirculating still)
Mole fraction of water	Temperature, K	Vapor or sublimation pressure, kPa	uncertainty
.9911	329.215	16.236	.07
.9911	338.913	25.394	.07
.9911	346.99	36.093	.07
.9911	353.535	47.352	.07
.9911	359.06	59.162	.07
.9911	364.383	72.914	.07
.9911	369.074	87.1	.07
.9911	373.03	100.776	.07
.9664	328.936	15.045	.07
.9664	338.65	23.528	.07
.9664	346.576	33.254	.07
.9664	352.987	43.412	.07
.9664	359.121	55.445	.07
.9664	364.782	68.977	.07
.9664	370.206	84.737	.07
.9664	374.804	100.434	.07
.925	330.756	13.834	.07
.925	339.86	20.96	.07
.925	347.585	29.328	.07
.925	356.167	41.905	.07
.925	363.087	55.141	.07
.925	368.733	68.68	.07
.925	374.86	85.822	.07
.925	379.411	101.27	.07

System: propan-1-ol + 1,3-dimethylimidazolium dimethylphosphate; phases: Liquid, Gas
Property: Vapor or sublimation pressure, kPa (Liquid); method: Ebulliometric method (Recirculating still)
Mole fraction of propan-1-ol	Temperature, K	Vapor or sublimation pressure, kPa	uncertainty
.9708	333.635	20.354	.07
.9708	338.495	25.756	.07
.9708	344.055	33.341	.07
.9708	349.713	42.918	.07
.9708	355.775	55.621	.07
.9708	361.332	69.901	.07
.9708	366.936	87.18	.07
.9708	370.757	100.935	.07
.8961	330.478	15.244	.07
.8961	337.904	21.98	.07
.8961	345.631	31.556	.07
.8961	353.9	45.281	.07
.8961	359.885	58.267	.07
.8961	364.536	70.313	.07
.8961	369.607	85.754	.07
.8961	373.797	100.631	.07
.7871	343.306	19.076	.07
.7871	349.25	25.182	.07
.7871	357.22	36.07	.07
.7871	363.347	46.131	.07
.7871	368.688	57.38	.07
.7871	374.178	71.2	.07
.7871	378.875	85.632	.07
.7871	382.701	100.449	.07
.6131	349.026	11.094	.07
.6131	357.418	16.251	.07
.6131	365.949	24.282	.07
.6131	374.409	34.88	.07
.6131	381.83	48.399	.07
.6131	387.587	61.624	.07
.6131	394.777	78.786	.07
.6131	401.916	99.563	.07

System: 2-propanol + 1,3-dimethylimidazolium dimethylphosphate; phases: Liquid, Gas
Property: Vapor or sublimation pressure, kPa (Liquid); method: Ebulliometric method (Recirculating still)
Mole fraction of 2-propanol	Temperature, K	Vapor or sublimation pressure, kPa	uncertainty
.9708	317.341	16.832	.07
.9708	324.261	24.337	.07
.9708	332.024	35.611	.07
.9708	338.007	47.121	.07
.9708	343.105	59.198	.07
.9708	347.838	72.654	.07
.9708	352.377	87.726	.07
.9708	356.066	101.869	.07
.8961	316.402	14.437	.07
.8961	325.26	22.869	.07
.8961	333.239	33.802	.07
.8961	339.31	44.731	.07
.8961	345.028	57.668	.07
.8961	350.294	72.116	.07
.8961	355.052	87.776	.07
.8961	358.667	101.485	.07
.7871	324.277	14.941	.07
.7871	332.836	23.1	.07
.7871	341.816	35.256	.07
.7871	348.988	48.578	.07
.7871	354.658	61.855	.07
.7871	359.125	74.635	.07
.7871	363.015	87.832	.07
.7871	366.603	102.082	.07
.6131	333.981	11.149	.07
.6131	342.619	16.446	.07
.6131	348.812	23.043	.07
.6131	355.8	31.66	.07
.6131	362.591	42.945	.07
.6131	370.12	58.353	.07
.6131	377.929	78.826	.07
.6131	384.177	99.599	.07

System: propan-1-ol + water + 1,3-dimethylimidazolium dimethylphosphate; phases: Liquid, Gas
Property: Vapor or sublimation pressure, kPa (Liquid); method: Ebulliometric method (Recirculating still)
Mole fraction of water	Mole fraction of propan-1-ol	Temperature, K	Vapor or sublimation pressure, kPa	uncertainty
.2472	.6669	331.458	20.304	.07
.2472	.6669	337.477	27.196	.07
.2472	.6669	343.101	35.142	.07
.2472	.6669	349.476	46.605	.07
.2472	.6669	355.004	58.938	.07
.2472	.6669	359.551	71.053	.07
.2472	.6669	364.59	86.898	.07
.2472	.6669	368.665	101.152	.07
.5509	.3853	322.085	15.296	.07
.5509	.3853	329.351	22.025	.07
.5509	.3853	336.582	31.137	.07
.5509	.3853	344.24	43.988	.07
.5509	.3853	350.196	56.805	.07
.5509	.3853	355.768	71.558	.07
.5509	.3853	360.776	87.386	.07
.5509	.3853	364.85	102.156	.07
.7303	.2189	320.289	15.049	.07
.7303	.2189	327.543	21.627	.07
.7303	.2189	335.088	31.079	.07
.7303	.2189	342.052	42.531	.07
.7303	.2189	347.885	54.759	.07
.7303	.2189	353.881	70.238	.07
.7303	.2189	359.086	86.431	.07
.7303	.2189	363.362	101.953	.07
.8488	.1091	317.104	13.002	.07
.8488	.1091	325.851	20.266	.07
.8488	.1091	334.284	30.308	.07
.8488	.1091	341.614	42.173	.07
.8488	.1091	348.325	56.227	.07
.8488	.1091	353.956	70.856	.07
.8488	.1091	359.309	87.51	.07
.8488	.1091	363.231	101.681	.07
.9329	.0311	320.486	13.551	.07
.9329	.0311	327.956	19.615	.07
.9329	.0311	335.678	28.248	.07
.9329	.0311	343.525	40.001	.07
.9329	.0311	351.18	55.1	.07
.9329	.0311	357.363	70.552	.07
.9329	.0311	362.916	87.266	.07
.9329	.0311	367.081	101.831	.07

System: 2-propanol + water + 1,3-dimethylimidazolium dimethylphosphate; phases: Liquid, Gas
Property: Vapor or sublimation pressure, kPa (Liquid); method: Ebulliometric method (Recirculating still)
Mole fraction of water	Mole fraction of 2-propanol	Temperature, K	Vapor or sublimation pressure, kPa	uncertainty
.2472	.6669	317.212	16.452	.07
.2472	.6669	322.666	21.819	.07
.2472	.6669	330.794	32.586	.07
.2472	.6669	337.443	44.373	.07
.2472	.6669	343.359	57.662	.07
.2472	.6669	348.173	70.852	.07
.2472	.6669	353.22	87.224	.07
.2472	.6669	357.191	102.205	.07
.5509	.3853	311.361	13.038	.07
.5509	.3853	318.489	19.053	.07
.5509	.3853	327.197	29.43	.07
.5509	.3853	335.362	43.119	.07
.5509	.3853	341.624	56.852	.07
.5509	.3853	347.323	72.646	.07
.5509	.3853	351.669	86.839	.07
.5509	.3853	355.734	102.115	.07
.7303	.2189	313.53	14.296	.07
.7303	.2189	320.642	20.716	.07
.7303	.2189	327.404	28.943	.07
.7303	.2189	333.848	39.208	.07
.7303	.2189	340.698	53.209	.07
.7303	.2189	346.375	67.862	.07
.7303	.2189	352.01	85.497	.07
.7303	.2189	356.151	100.94	.07
.8488	.1091	312.791	13.362	.07
.8488	.1091	321.525	20.879	.07
.8488	.1091	328.684	29.662	.07
.8488	.1091	334.958	39.68	.07
.8488	.1091	343.024	56.53	.07
.8488	.1091	348.407	70.765	.07
.8488	.1091	353.323	86.243	.07
.8488	.1091	357.258	100.525	.07
.9329	.0311	319.258	13.794	.07
.9329	.0311	327.383	20.918	.07
.9329	.0311	334.755	29.619	.07
.9329	.0311	343.277	43.445	.07
.9329	.0311	349.287	56.092	.07
.9329	.0311	354.644	69.742	.07
.9329	.0311	359.795	84.827	.07
.9329	.0311	364.314	100.969	.07
