Measured thermophysical data. Thermodynamic Study of Sublimation of PbF2 and PbF4 from Torsion-Effusion Vapor Pressure Measurements
Source: J. Chem. Eng. Data, 2010, 10.1021/je100260z
Compound 1: plumbous fluoride, F2Pb, purity 99.997%
Compound 2: lead fluoride (PbF4), F4Pb, purity 99%

System: plumbous fluoride; phases: Crystal, Gas
Property: Vapor or sublimation pressure, kPa (Crystal); method: Torsion effusion method
Temperature, K	Vapor or sublimation pressure, kPa	uncertainty
798	.000411	
811	.000487	
824	.000613	
835	.000705	
846	.000827	
854	.00098	
863	.001116	
873	.001323	
882	.001507	
891	.001682	
900	.001896	
910	.002138	
919	.002387	
928	.002638	
793	.000361	
803	.000411	
810	.000454	
818	.000554	
827	.000613	
837	.000748	
845	.000861	
859	.00098	
868	.001234	
875	.001323	
884	.001419	
895	.001716	
904	.001916	
913	.002096	
803	.000411	
816	.000522	
825	.000613	
835	.000705	
845	.000827	
856	.00101	
867	.001185	
878	.001391	
890	.001632	
899	.00184	
910	.002117	
921	.002411	
934	.002801	
951	.003669	
808	.000454	
820	.000554	
830	.000638	
840	.000771	
852	.000951	
863	.001116	
873	.001284	
883	.001477	
895	.001716	
903	.001916	
914	.002203	
923	.002387	
933	.002746	
948	.003456	
833	.000664	
841	.000748	
858	.00098	
867	.001116	
876	.001284	
886	.001507	
905	.001896	
912	.002075	
931	.002664	

System: lead fluoride (PbF4); phases: Crystal, Gas
Property: Vapor or sublimation pressure, kPa (Crystal); method: Torsion effusion method
Temperature, K	Vapor or sublimation pressure, kPa	uncertainty
635	.001062	
638	.001116	
644	.001259	
648	.001336	
654	.001492	
664	.001751	
669	.001896	
675	.002096	
682	.00234	
628	.000844	
634	.000942	
645	.001139	
647	.001209	
653	.001297	
658	.001448	
663	.001584	
668	.001751	
673	.001878	
676	.001974	
684	.002203	
603	.000566	
612	.000677	
622	.000844	
631	.00097	
639	.001116	
648	.001336	
657	.0016	
666	.00184	
670	.001974	
