Measured thermophysical data. Solid-Liquid Equilibrium and Activity Coefficients for Binary Mixtures of Caprolactam and Cyclohexanone Oxime with Room-Temperature Ionic Liquids
Source: J. Chem. Eng. Data, 2011, 10.1021/je1005054
Compound 1: 1-butyl-3-methylimidazolium hexafluorophosphate, C8H15F6N2P, purity 99%
Compound 2: 1-butyl-3-methylimidazolium tetrafluoroborate, C8H15BF4N2, purity 99%
Compound 3: 1-tetradecyl-3-methylimidazolium bis(trifluoromethylsulfonyl)imide, C20H35F6N3O4S2
Compound 4: 1-butyl-3-methylimidazolium tosylate, C15H22N2O3S
Compound 5: 6-aminohexanoic acid, .epsilon.-lactam, C6H11NO, purity 99.5%
Compound 6: cyclohexanone oxime, C6H11NO, purity 95%

System: 6-aminohexanoic acid, .epsilon.-lactam; phases: Liquid, Gas
Property: Vapor or sublimation pressure, kPa (Liquid); method: Knudsen effusion method
Temperature, K	Vapor or sublimation pressure, kPa	uncertainty
343	.0263	.001315
348	.0374	.00187
353	.0527	.002635
347.9	.0372	.00186
352.9	.0523	.002615

System: 6-aminohexanoic acid, .epsilon.-lactam + 1-butyl-3-methylimidazolium hexafluorophosphate; phases: Liquid, Crystal
Fixed: Pressure, kPa = 101
Property: Solid-liquid equilibrium temperature, K (Liquid); method: Visual observation
Mole fraction of 6-aminohexanoic acid, .epsilon.-lactam	Solid-liquid equilibrium temperature, K	uncertainty
.118	280.1	.5
.2	278.7	.5

System: 6-aminohexanoic acid, .epsilon.-lactam + 1-butyl-3-methylimidazolium hexafluorophosphate; phases: Liquid, Crystal of intercomponent compound 1
Fixed: Pressure, kPa = 101
Property: Solid-liquid equilibrium temperature, K (Liquid); method: Visual observation
Mole fraction of 6-aminohexanoic acid, .epsilon.-lactam	Solid-liquid equilibrium temperature, K	uncertainty
.271	298	.5
.32	306.1	.5

System: 6-aminohexanoic acid, .epsilon.-lactam + 1-butyl-3-methylimidazolium hexafluorophosphate; phases: Liquid, Crystal
Fixed: Pressure, kPa = 101
Property: Solid-liquid equilibrium temperature, K (Liquid); method: Visual observation
Mole fraction of 6-aminohexanoic acid, .epsilon.-lactam	Solid-liquid equilibrium temperature, K	uncertainty
.87	335.9	.5
.825	333.5	.5
.696	325.7	.5
.578	317.9	.5
.529	314.7	.5
.426	307.5	.5
.336	300.6	.5

System: 6-aminohexanoic acid, .epsilon.-lactam + 1-butyl-3-methylimidazolium hexafluorophosphate; phases: Liquid, Gas
Property: Vapor or sublimation pressure, kPa (Liquid); method: Knudsen effusion method
Temperature, K	Mole fraction of 6-aminohexanoic acid, .epsilon.-lactam	Vapor or sublimation pressure, kPa	uncertainty
343	1	.0263	.001315
343	.728	.011	.00055
343	.507	.0073	.000365
343	.21	.0025	.000125
343	.068	.0006	.00003
348	1	.0374	.00187
348	.765	.0154	.00077
348	.586	.0111	.000555
348	.287	.0048	.00024
348	.151	.0021	.000105
353	1	.0527	.002635
353	.804	.0224	.00112
353	.668	.0172	.00086
353	.403	.0091	.000455
353	.099	.0015	.000075

System: 6-aminohexanoic acid, .epsilon.-lactam + 1-butyl-3-methylimidazolium tetrafluoroborate; phases: Liquid, Crystal
Fixed: Pressure, kPa = 101
Property: Solid-liquid equilibrium temperature, K (Liquid); method: Visual observation
Mole fraction of 6-aminohexanoic acid, .epsilon.-lactam	Solid-liquid equilibrium temperature, K	uncertainty
.206	293.5	.5

System: 6-aminohexanoic acid, .epsilon.-lactam + 1-butyl-3-methylimidazolium tetrafluoroborate; phases: Liquid, Crystal of intercomponent compound 1
Fixed: Pressure, kPa = 101
Property: Solid-liquid equilibrium temperature, K (Liquid); method: Visual observation
Mole fraction of 6-aminohexanoic acid, .epsilon.-lactam	Solid-liquid equilibrium temperature, K	uncertainty
.616	322.7	.5
.575	323.4	.5
.493	320.3	.5
.433	311.4	.5
.364	305.4	.5
.301	305	.5

System: 6-aminohexanoic acid, .epsilon.-lactam + 1-butyl-3-methylimidazolium tetrafluoroborate; phases: Liquid, Crystal
Fixed: Pressure, kPa = 101
Property: Solid-liquid equilibrium temperature, K (Liquid); method: Visual observation
Mole fraction of 6-aminohexanoic acid, .epsilon.-lactam	Solid-liquid equilibrium temperature, K	uncertainty
.832	335.2	.5
.77	331.7	.5
.688	325.1	.5

System: 6-aminohexanoic acid, .epsilon.-lactam + 1-butyl-3-methylimidazolium tetrafluoroborate; phases: Liquid, Gas
Property: Vapor or sublimation pressure, kPa (Liquid); method: Knudsen effusion method
Temperature, K	Mole fraction of 6-aminohexanoic acid, .epsilon.-lactam	Vapor or sublimation pressure, kPa	uncertainty
343	1	.0263	.001315
343	.73	.013	.00065
343	.605	.0113	.000565
343	.416	.0068	.00034
343	.217	.0034	.00017
343	.098	.0014	.00007
347.9	1	.0372	.00186
347.9	.787	.0199	.000995
347.9	.701	.017	.00085
347.9	.555	.0127	.000635
347.9	.355	.0076	.00038
347.9	.172	.0033	.000165
347.9	.075	.0013	.000065
352.9	1	.0523	.002615
352.9	.759	.0249	.001245
352.9	.654	.02	.001
352.9	.483	.0133	.000665
352.9	.28	.0072	.00036
352.9	.13	.003	.00015

System: 6-aminohexanoic acid, .epsilon.-lactam + 1-tetradecyl-3-methylimidazolium bis(trifluoromethylsulfonyl)imide; phases: Liquid, Crystal
Fixed: Pressure, kPa = 101
Property: Solid-liquid equilibrium temperature, K (Liquid); method: Visual observation
Mole fraction of 6-aminohexanoic acid, .epsilon.-lactam	Solid-liquid equilibrium temperature, K	uncertainty
.532	300.9	.5
.452	302.1	.5
.312	304.5	.5
.216	307.4	.5

System: 6-aminohexanoic acid, .epsilon.-lactam + 1-tetradecyl-3-methylimidazolium bis(trifluoromethylsulfonyl)imide; phases: Liquid, Crystal
Fixed: Pressure, kPa = 101
Property: Solid-liquid equilibrium temperature, K (Liquid); method: Visual observation
Mole fraction of 6-aminohexanoic acid, .epsilon.-lactam	Solid-liquid equilibrium temperature, K	uncertainty
.934	338.8	.5
.856	328	.5
.773	317.2	.5
.661	303	.5
.587	293.8	.5

System: cyclohexanone oxime + 1-tetradecyl-3-methylimidazolium bis(trifluoromethylsulfonyl)imide; phases: Liquid, Crystal
Fixed: Pressure, kPa = 101
Property: Solid-liquid equilibrium temperature, K (Liquid); method: Visual observation
Mole fraction of cyclohexanone oxime	Solid-liquid equilibrium temperature, K	uncertainty
.732	359.4	.5
.4	330.1	.5

System: cyclohexanone oxime + 1-butyl-3-methylimidazolium tosylate; phases: Liquid, Crystal
Fixed: Pressure, kPa = 101
Property: Solid-liquid equilibrium temperature, K (Liquid); method: Visual observation
Mole fraction of cyclohexanone oxime	Solid-liquid equilibrium temperature, K	uncertainty
.497	305.2	.5
.453	312.1	.5
.432	314.6	.5
.279	329.1	.5
.067	341.7	.5

System: cyclohexanone oxime + 1-butyl-3-methylimidazolium tosylate; phases: Liquid, Crystal of intercomponent compound 1
Fixed: Pressure, kPa = 101
Property: Solid-liquid equilibrium temperature, K (Liquid); method: Visual observation
Mole fraction of cyclohexanone oxime	Solid-liquid equilibrium temperature, K	uncertainty
.663	348.5	.5
.663	347.9	.5
.574	328.2	.5
.557	322.8	.5
.507	310.7	.5

System: cyclohexanone oxime + 1-butyl-3-methylimidazolium tosylate; phases: Liquid, Crystal of intercomponent compound 2
Fixed: Pressure, kPa = 101
Property: Solid-liquid equilibrium temperature, K (Liquid); method: Visual observation
Mole fraction of cyclohexanone oxime	Solid-liquid equilibrium temperature, K	uncertainty
.902	355.7	.5
.887	355.6	.5
.868	355.6	.5
.841	354.4	.5
.82	354.5	.5
.768	353.2	.5
.742	349.4	.5
.732	349.6	.5
.7	344.4	.5
.669	351.7	.5

System: cyclohexanone oxime + 1-butyl-3-methylimidazolium tosylate; phases: Liquid, Crystal
Fixed: Pressure, kPa = 101
Property: Solid-liquid equilibrium temperature, K (Liquid); method: Visual observation
Mole fraction of cyclohexanone oxime	Solid-liquid equilibrium temperature, K	uncertainty
.952	359.8	.5
.938	356.9	.5
.924	356.6	.5
.907	354.6	.5
