Measured thermophysical data. Liquid-Liquid Equilibria of Ionic Liquid 1-Butyl-3-Methylimidazolium Tetrafluoroborate + Sodium and Ammonium Citrate Aqueous Two-Phase Systems at (298.15, 308.15, and 323.15) K
Source: J. Chem. Eng. Data, 2010, 10.1021/je1002797
Compound 1: 1-butyl-3-methylimidazolium tetrafluoroborate, C8H15BF4N2, purity 99%
Compound 2: 3-carboxy-3-hydroxy-pentan-1,5-dioic acid trisodium salt, C6H5Na3O7
Compound 3: triammonium citrate, C6H17N3O7
Compound 4: water, H2O

System: 3-carboxy-3-hydroxy-pentan-1,5-dioic acid trisodium salt + water + 1-butyl-3-methylimidazolium tetrafluoroborate; phases: Liquid mixture 1, Liquid mixture 2
Fixed: Pressure, kPa = 101
Property: Mass fraction of 3-carboxy-3-hydroxy-pentan-1,5-dioic acid trisodium salt (Liquid mixture 1); method: Titration method
Temperature, K	Mass fraction of 1-butyl-3-methylimidazolium tetrafluoroborate	Mass fraction of 3-carboxy-3-hydroxy-pentan-1,5-dioic acid trisodium salt	uncertainty
298.15	.792	.0026	.0005
298.15	.7065	.0044	.0005
298.15	.6621	.0049	.0005
298.15	.6298	.0069	.0005
298.15	.5961	.008	.0005
298.15	.523	.0126	.0005
298.15	.4792	.0151	.0005
298.15	.4494	.0185	.0005
298.15	.4008	.022	.0005
298.15	.376	.024	.0005
298.15	.3418	.0266	.0005
298.15	.3172	.0294	.0005
298.15	.28	.0349	.0005
298.15	.2588	.0377	.0005
298.15	.2294	.0452	.0005
298.15	.2094	.0508	.0005
298.15	.1745	.0661	.0005
298.15	.1557	.0743	.0005
298.15	.1405	.0857	.0005
298.15	.1277	.0963	.0005
298.15	.1069	.1228	.0005
298.15	.0865	.1409	.0005
298.15	.0712	.1674	.0005
298.15	.0677	.1742	.0005
298.15	.0647	.1805	.0005
298.15	.056	.2007	.0005
308.15	.7884	.005	.0005
308.15	.659	.0069	.0005
308.15	.6325	.0078	.0005
308.15	.5971	.0098	.0005
308.15	.5611	.0112	.0005
308.15	.5499	.0133	.0005
308.15	.5122	.0159	.0005
308.15	.4793	.0187	.0005
308.15	.4389	.0229	.0005
308.15	.3942	.0285	.0005
308.15	.3568	.0337	.0005
308.15	.3147	.0396	.0005
308.15	.2821	.0453	.0005
308.15	.2455	.0529	.0005
308.15	.2177	.0622	.0005
308.15	.189	.071	.0005
308.15	.1537	.0922	.0005
308.15	.1376	.1013	.0005
308.15	.0943	.1454	.0005
308.15	.0823	.1629	.0005
308.15	.0785	.1671	.0005
308.15	.0668	.1905	.0005
323.15	.6431	.0129	.0005
323.15	.6047	.0148	.0005
323.15	.5833	.018	.0005
323.15	.5369	.0211	.0005
323.15	.4816	.0263	.0005
323.15	.4748	.026	.0005
323.15	.4579	.0287	.0005
323.15	.451	.0305	.0005
323.15	.4358	.0338	.0005
323.15	.4173	.0367	.0005
323.15	.3925	.0416	.0005
323.15	.3791	.0427	.0005
323.15	.3136	.0555	.0005
323.15	.3042	.0591	.0005
323.15	.2884	.0634	.0005
323.15	.2689	.0661	.0005
323.15	.2266	.0823	.0005
323.15	.208	.0856	.0005
323.15	.1882	.095	.0005
323.15	.1446	.1191	.0005
323.15	.1382	.124	.0005
323.15	.1215	.1364	.0005
323.15	.1167	.1449	.0005
323.15	.09	.1739	.0005
323.15	.0759	.1948	.0005
323.15	.0607	.2232	.0005

System: 3-carboxy-3-hydroxy-pentan-1,5-dioic acid trisodium salt + water + 1-butyl-3-methylimidazolium tetrafluoroborate; phases: Liquid mixture 1, Liquid mixture 2
Fixed: Pressure, kPa = 101
Property: Mass density, kg/m3 (Liquid mixture 1); method: Vibrating tube method
Temperature, K	Mass fraction of 3-carboxy-3-hydroxy-pentan-1,5-dioic acid trisodium salt	Mass density, kg/m3	uncertainty
298.15	.000851	1156.6	.1
298.15	.00184	1145.8	.1
298.15	.004857	1118	.1
298.15	.005088	1117.2	.1
298.15	.005991	1106.6	.1
298.15	.009983	1091.8	.1
298.15	.016902	1076.1	.1
298.15	.026896	1067.3	.1
298.15	.035242	1064.3	.1
298.15	.042849	1062.5	.1
308.15	.010211	1103.2	.1
308.15	.012966	1096.5	.1
308.15	.017461	1090.2	.1
308.15	.02189	1085.1	.1
308.15	.026779	1079.2	.1
308.15	.043546	1074	.1
308.15	.051947	1073	.1
308.15	.061414	1072.1	.1
323.15	.004552	1125.3	.1
323.15	.005982	1111.6	.1
323.15	.012606	1097.3	.1
323.15	.01663	1091.3	.1
323.15	.031743	1078.7	.1
323.15	.049217	1071.4	.1

System: 3-carboxy-3-hydroxy-pentan-1,5-dioic acid trisodium salt + water + 1-butyl-3-methylimidazolium tetrafluoroborate; phases: Liquid mixture 2, Liquid mixture 1
Fixed: Pressure, kPa = 101
Property: Mass density, kg/m3 (Liquid mixture 2); method: Vibrating tube method
Temperature, K	Mass fraction of 3-carboxy-3-hydroxy-pentan-1,5-dioic acid trisodium salt	Mass density, kg/m3	uncertainty
298.15	.042849	1062.5	.1
298.15	.06997	1074	.1
298.15	.095551	1086.5	.1
298.15	.12717	1104.3	.1
298.15	.175164	1138.5	.1
298.15	.280072	1218.7	.1
298.15	.333792	1262.2	.1
308.15	.061414	1072.1	.1
308.15	.078956	1077.3	.1
308.15	.103345	1087.3	.1
308.15	.131481	1101.7	.1
308.15	.19539	1143.7	.1
308.15	.357482	1276.4	.1
308.15	.357764	1272.4	.1
323.15	.049217	1071.4	.1
323.15	.065072	1074.3	.1
323.15	.087924	1083.6	.1
323.15	.134167	1109.4	.1
323.15	.196359	1150.4	.1
323.15	.247544	1188.1	.1
323.15	.321796	1247.1	.1

System: 3-carboxy-3-hydroxy-pentan-1,5-dioic acid trisodium salt + water + 1-butyl-3-methylimidazolium tetrafluoroborate; phases: Liquid mixture 1, Liquid mixture 2
Property: Mass fraction of 3-carboxy-3-hydroxy-pentan-1,5-dioic acid trisodium salt (Liquid mixture 1); method: Titration method
Property: Mass fraction of 3-carboxy-3-hydroxy-pentan-1,5-dioic acid trisodium salt (Liquid mixture 2); method: Titration method
Property: Mass fraction of 1-butyl-3-methylimidazolium tetrafluoroborate (Liquid mixture 2); method: Titration method
Temperature, K	Pressure, kPa	Mass fraction of 1-butyl-3-methylimidazolium tetrafluoroborate	Mass fraction of 3-carboxy-3-hydroxy-pentan-1,5-dioic acid trisodium salt	uncertainty	Mass fraction of 3-carboxy-3-hydroxy-pentan-1,5-dioic acid trisodium salt	uncertainty	Mass fraction of 1-butyl-3-methylimidazolium tetrafluoroborate	uncertainty
298.15	1	.5873	.0084	.0005	.195	.0005	.0622	.0005
298.15	1	.4954	.0132	.0005	.1744	.0005	.0676	.0005
298.15	1	.5068	.0125	.0005	.1821	.0005	.0684	.0005
298.15	1	.3741	.0234	.0005	.1523	.0005	.0765	.0005
308.15	1	.6136	.009	.0005	.2349	.0005	.0424	.0005
308.15	1	.6804	.0062	.0005	.2436	.0005	.0393	.0005
308.15	1	.5737	.0111	.0005	.2263	.0005	.0458	.0005
308.15	1	.4884	.0177	.0005	.205	.0005	.0551	.0005
323.15	1	.5271	.0219	.0005	.2341	.0005	.0445	.0005
323.15	1	.6402	.0133	.0005	.2646	.0005	.0299	.0005
323.15	1	.5624	.0189	.0005	.244	.0005	.0392	.0005
323.15	1	.6887	.0106	.0005	.2881	.0005	.0213	.0005

System: triammonium citrate + water + 1-butyl-3-methylimidazolium tetrafluoroborate; phases: Liquid mixture 1, Liquid mixture 2
Fixed: Pressure, kPa = 101
Property: Mass fraction of triammonium citrate (Liquid mixture 1); method: Titration method
Temperature, K	Mass fraction of 1-butyl-3-methylimidazolium tetrafluoroborate	Mass fraction of triammonium citrate	uncertainty
298.15	.7219	.0059	.0005
298.15	.6811	.0068	.0005
298.15	.6083	.0094	.0005
298.15	.5348	.0138	.0005
298.15	.4649	.0189	.0005
298.15	.4207	.0226	.0005
298.15	.3808	.0258	.0005
298.15	.345	.0296	.0005
298.15	.3106	.0342	.0005
298.15	.2767	.0416	.0005
298.15	.2301	.0521	.0005
298.15	.2134	.058	.0005
298.15	.196	.0657	.0005
298.15	.181	.0738	.0005
298.15	.1615	.0864	.0005
298.15	.1578	.0899	.0005
298.15	.1485	.0983	.0005
298.15	.1397	.1054	.0005
298.15	.1211	.1247	.0005
298.15	.1117	.1359	.0005
298.15	.1074	.1434	.0005
298.15	.0952	.1627	.0005
298.15	.0927	.1731	.0005
298.15	.0877	.1839	.0005
298.15	.08	.1918	.0005
298.15	.0784	.2017	.0005
308.15	.7496	.0051	.0005
308.15	.7237	.0058	.0005
308.15	.6563	.0091	.0005
308.15	.6149	.0106	.0005
308.15	.5233	.0174	.0005
308.15	.4517	.0231	.0005
308.15	.3818	.0322	.0005
308.15	.3683	.0354	.0005
308.15	.3276	.0421	.0005
308.15	.2963	.0493	.0005
308.15	.2552	.0597	.0005
308.15	.234	.0651	.0005
308.15	.2099	.0759	.0005
308.15	.1961	.0825	.0005
308.15	.1801	.0904	.0005
308.15	.1572	.1089	.0005
308.15	.1416	.1197	.0005
308.15	.1261	.1368	.0005
308.15	.1115	.1596	.0005
308.15	.0993	.1795	.0005
308.15	.0844	.2008	.0005
308.15	.0731	.2262	.0005
308.15	.0656	.2438	.0005
308.15	.0578	.2775	.0005
323.15	.6783	.0126	.0005
323.15	.5735	.0194	.0005
323.15	.5366	.0244	.0005
323.15	.449	.0363	.0005
323.15	.3876	.0476	.0005
323.15	.3428	.0561	.0005
323.15	.2829	.0689	.0005
323.15	.247	.0804	.0005
323.15	.2287	.0921	.0005
323.15	.2181	.0934	.0005
323.15	.202	.1045	.0005
323.15	.1861	.113	.0005
323.15	.1652	.1272	.0005
323.15	.1488	.1435	.0005
323.15	.1388	.1531	.0005
323.15	.1219	.1742	.0005
323.15	.1039	.1964	.0005
323.15	.0974	.2026	.0005
323.15	.085	.2254	.0005
323.15	.0797	.2406	.0005
323.15	.0746	.2469	.0005
323.15	.0713	.2596	.0005

System: triammonium citrate + water + 1-butyl-3-methylimidazolium tetrafluoroborate; phases: Liquid mixture 1, Liquid mixture 2
Fixed: Pressure, kPa = 101
Property: Mass density, kg/m3 (Liquid mixture 1); method: Vibrating tube method
Temperature, K	Mass fraction of triammonium citrate	Mass density, kg/m3	uncertainty
298.15	.005988	1122.9	.1
298.15	.008966	1108.5	.1
298.15	.015404	1089.6	.1
298.15	.022176	1075.2	.1
298.15	.028729	1071.4	.1
298.15	.03576	1065.4	.1
298.15	.047002	1060.8	.1
298.15	.063923	1058.6	.1
308.15	.006068	1125.4	.1
308.15	.012927	1098.5	.1
308.15	.022009	1081.2	.1
308.15	.035738	1068.4	.1
308.15	.047079	1063.4	.1
308.15	.056711	1060.8	.1
323.15	.012002	1104.6	.1
323.15	.019535	1089.8	.1
323.15	.032881	1074.8	.1
323.15	.051588	1066.9	.1
323.15	.066759	1063.8	.1
323.15	.097469	1062.6	.1

System: triammonium citrate + water + 1-butyl-3-methylimidazolium tetrafluoroborate; phases: Liquid mixture 2, Liquid mixture 1
Fixed: Pressure, kPa = 101
Property: Mass density, kg/m3 (Liquid mixture 2); method: Vibrating tube method
Temperature, K	Mass fraction of triammonium citrate	Mass density, kg/m3	uncertainty
298.15	.063923	1058.6	.1
298.15	.086098	1063.3	.1
298.15	.142903	1080.4	.1
298.15	.178998	1093.1	.1
298.15	.241735	1113.1	.1
298.15	.34858	1160.8	.1
298.15	.498785	1226.2	.1
308.15	.056711	1060.8	.1
308.15	.102919	1069.6	.1
308.15	.158016	1083.6	.1
308.15	.262357	1121.7	.1
308.15	.37849	1171.8	.1
308.15	.493351	1218	.1
323.15	.097469	1062.6	.1
323.15	.128805	1069.2	.1
323.15	.187914	1089.8	.1
323.15	.220863	1101.1	.1
323.15	.298465	1127.9	.1
323.15	.353516	1147.7	.1
323.15	.497118	1213.7	.1

System: triammonium citrate + water + 1-butyl-3-methylimidazolium tetrafluoroborate; phases: Liquid mixture 1, Liquid mixture 2
Property: Mass fraction of triammonium citrate (Liquid mixture 1); method: Titration method
Property: Mass fraction of triammonium citrate (Liquid mixture 2); method: Titration method
Property: Mass fraction of 1-butyl-3-methylimidazolium tetrafluoroborate (Liquid mixture 2); method: Titration method
Temperature, K	Pressure, kPa	Mass fraction of 1-butyl-3-methylimidazolium tetrafluoroborate	Mass fraction of triammonium citrate	uncertainty	Mass fraction of triammonium citrate	uncertainty	Mass fraction of 1-butyl-3-methylimidazolium tetrafluoroborate	uncertainty
298.15	1	.4121	.0232	.0005	.2313	.0005	.0659	.0005
298.15	1	.5513	.013	.0005	.3108	.0005	.049	.0005
298.15	1	.6149	.0098	.0005	.3458	.0005	.0448	.0005
298.15	1	.5778	.0116	.0005	.3244	.0005	.0472	.0005
308.15	1	.5995	.0116	.0005	.3409	.0005	.0575	.0005
308.15	1	.4493	.0238	.0005	.2623	.0005	.0644	.0005
308.15	1	.5718	.0133	.0005	.333	.0005	.0576	.0005
308.15	1	.5389	.0156	.0005	.3177	.0005	.0581	.0005
323.15	1	.4982	.028	.0005	.3269	.0005	.0482	.0005
323.15	1	.4555	.0335	.0005	.2874	.0005	.0596	.0005
323.15	1	.5251	.025	.0005	.3323	.0005	.0468	.0005
323.15	1	.5957	.0185	.0005	.3748	.0005	.0377	.0005
