Measured thermophysical data. Property Estimation of Ionic Liquid N-Pentylpyridine Perrhenate
Source: J. Chem. Eng. Data, 2011, 10.1021/je101112w
Compound 1: 1-pentylpyridinium (T-4)-tetraoxorhenate(1-), C10H16NO4Re

System: 1-pentylpyridinium (T-4)-tetraoxorhenate(1-); phases: Liquid
Fixed: Pressure, kPa = 101.325
Property: Mass density, kg/m3 (Liquid); method: Buoyancy - hydrostatic balance with magnetic suspension - one sinker
Temperature, K	Mass density, kg/m3	uncertainty
293.15	1852.6	.2
298.15	1844.6	.2
303.15	1836.1	.2
308.15	1829.2	.2
313.15	1823	.2
318.15	1818.1	.2
323.15	1809.9	.2
328.15	1802.9	.2
333.15	1796.7	.2
338.15	1792.9	.2
343.15	1787	.2

System: 1-pentylpyridinium (T-4)-tetraoxorhenate(1-); phases: Liquid, Gas
Property: Surface tension liquid-gas, N/m (Liquid); method: Maximal bubble pressure
Temperature, K	Surface tension liquid-gas, N/m	uncertainty
293.15	.0379	
298.15	.0375	
303.15	.0373	
308.15	.0369	
313.15	.0364	
318.15	.0363	
323.15	.0359	
328.15	.0356	
333.15	.0352	
338.15	.0349	
343.15	.0346	
