Measured thermophysical data. Experimental Data and Correlation of Surface Tensions of the Binary and Ternary Systems of Water + Acetonitrile + 2-Propanol at 298.15 K and Atmospheric Pressure
Source: J. Chem. Eng. Data, 2010, 10.1021/je1001329
Compound 1: methylnitrile, C2H3N, purity 99.9%
Compound 2: 2-propanol, C3H8O, purity 99.5%
Compound 3: water, H2O

System: methylnitrile; phases: Liquid, Air at 1 atmosphere
Property: Surface tension liquid-gas, N/m (Liquid); method: Ring tensiometer
Temperature, K	Surface tension liquid-gas, N/m	uncertainty
298.15	.02776	.0002

System: 2-propanol; phases: Liquid, Air at 1 atmosphere
Property: Surface tension liquid-gas, N/m (Liquid); method: Ring tensiometer
Temperature, K	Surface tension liquid-gas, N/m	uncertainty
298.15	.02095	.0002

System: water; phases: Liquid, Air at 1 atmosphere
Property: Surface tension liquid-gas, N/m (Liquid); method: Ring tensiometer
Temperature, K	Surface tension liquid-gas, N/m	uncertainty
298.15	.07209	.0002

System: 2-propanol + methylnitrile + water; phases: Liquid, Air at 1 atmosphere
Fixed: Temperature, K = 298.15
Property: Surface tension liquid-gas, N/m (Liquid); method: Ring tensiometer
Mole fraction of water	Mole fraction of methylnitrile	Surface tension liquid-gas, N/m	uncertainty
.9851	.0149	.06236	.0002
.9702	.0298	.05592	.0002
.9484	.0516	.04939	.0002
.905	.095	.04054	.0002
.8773	.1227	.03797	.0002
.8977	.1023	.03963	.0002
.8145	.1855	.03397	.0002
.7459	.2541	.03292	.0002
.6041	.3959	.03168	.0002
.5149	.4851	.03145	.0002
.4087	.5913	.03095	.0002
.2032	.7968	.02946	.0002
.9697	0	.03936	.0002
.9598	0	.03583	.0002
.945	0	.03236	.0002
.8991	0	.02664	.0002
.8502	0	.02504	.0002
.8	0	.02437	.0002
.7021	0	.02328	.0002
.5993	0	.02274	.0002
.5018	0	.02228	.0002
.2949	0	.02197	.0002
.099	0	.02165	.0002
0	.9851	.02755	.0002
0	.9701	.02728	.0002
0	.9579	.0271	.0002
0	.8984	.02623	.0002
0	.8001	.02494	.0002
0	.7	.02384	.0002
0	.6001	.02288	.0002
0	.5398	.02244	.0002
0	.4885	.02215	.0002
0	.3621	.02155	.0002
0	.2001	.02105	.0002
.6999	.1001	.02615	.0002
.6	.0998	.02461	.0002
.4992	.1001	.02376	.0002
.3938	.1131	.02315	.0002
.3004	.1001	.02238	.0002
.1947	.1404	.02214	.0002
.099	.1024	.02139	.0002
.5977	.1999	.02686	.0002
.3982	.2034	.02378	.0002
.301	.2001	.02273	.0002
.2012	.1995	.02185	.0002
.2006	.2004	.0219	.0002
.1008	.2004	.0213	.0002
.6008	.2995	.02922	.0002
.5005	.2993	.02651	.0002
.3995	.3005	.02472	.0002
.299	.3001	.02357	.0002
.1955	.2914	.02247	.0002
.3996	.4005	.02697	.0002
.3014	.3958	.02493	.0002
.2005	.4	.02372	.0002
.3988	.5005	.02876	.0002
.3112	.4921	.02648	.0002
.2039	.4976	.02479	.0002
.2997	.6002	.02861	.0002
.1996	.6002	.02613	.0002
.1041	.5974	.02445	.0002
.1984	.6966	.02774	.0002
.0958	.6985	.02547	.0002
.1002	.7999	.02773	.0002
.052	.8983	.02709	.0002
.9498	.0252	.0395	.0002

System: methylnitrile + water; phases: Liquid, Air at 1 atmosphere
Property: Surface tension liquid-gas, N/m (Liquid); method: Ring tensiometer
Mole fraction of water	Temperature, K	Surface tension liquid-gas, N/m	uncertainty
.9851	298.15	.06236	.0002
.9702	298.15	.05592	.0002
.9484	298.15	.04939	.0002
.905	298.15	.04054	.0002
.8773	298.15	.03797	.0002
.8977	298.15	.03963	.0002
.8145	298.15	.03397	.0002
.7459	298.15	.03292	.0002
.6041	298.15	.03168	.0002
.5149	298.15	.03145	.0002
.4087	298.15	.03095	.0002
.2032	298.15	.02946	.0002

System: 2-propanol + water; phases: Liquid, Air at 1 atmosphere
Property: Surface tension liquid-gas, N/m (Liquid); method: Ring tensiometer
Mole fraction of water	Temperature, K	Surface tension liquid-gas, N/m	uncertainty
.9697	298.15	.03936	.0002
.9598	298.15	.03583	.0002
.945	298.15	.03236	.0002
.8991	298.15	.02664	.0002
.8502	298.15	.02504	.0002
.8	298.15	.02437	.0002
.7021	298.15	.02328	.0002
.5993	298.15	.02274	.0002
.5018	298.15	.02228	.0002
.2949	298.15	.02197	.0002
.099	298.15	.02165	.0002

System: 2-propanol + methylnitrile; phases: Liquid, Air at 1 atmosphere
Property: Surface tension liquid-gas, N/m (Liquid); method: Ring tensiometer
Mole fraction of methylnitrile	Temperature, K	Surface tension liquid-gas, N/m	uncertainty
.9851	298.15	.02755	.0002
.9701	298.15	.02728	.0002
.9579	298.15	.0271	.0002
.8984	298.15	.02623	.0002
.8001	298.15	.02494	.0002
.7	298.15	.02384	.0002
.6001	298.15	.02288	.0002
.5398	298.15	.02244	.0002
.4885	298.15	.02215	.0002
.3621	298.15	.02155	.0002
.2001	298.15	.02105	.0002
