Measured thermophysical data. Thermodynamics of Dissolution for Bis(triazine)-Bipyridine-Class Ligands in Different Diluents and Its Reflection on Extraction
Source: J. Chem. Eng. Data, 2010, 10.1021/je1005246
Compound 1: 1,2,4-benzotriazine, 3,3'-[2,2'-bipyridine]-6,6'-diylbis[5,6,7,8-tetrahydro-5,5,8,8-tetramethyl-, C32H38N8
Compound 2: 1,2,4-triazine, 3,3'-[2,2'-bipyridine]-6,6'-diylbis[5,6-dipentyl-, C36H50N8
Compound 3: 1,2,4-triazine, 3,3'-[2,2'-bipyridine]-6,6'-diylbis[5,6-diethyl-, C24H26N8
Compound 4: 1,2,4-triazine, 3,3'-[4-(1,1-dimethylethyl)[2,2'-bipyridine]-6,6'-diyl]bis[5,6-diethyl-, C28H34N8
Compound 5: 4-tert-butyl-6,6'-bis(5,5,8,8-tetramethyl-5,6,7,8-tetrahydro-benzo-[1,2,4]triazin-3-yl)-[2,2']bipyridine), C36H46N8
Compound 6: cyclohexanone, C6H10O
Compound 7: 1-octanol, C8H18O
Compound 8: pentylcarbinol, C6H14O
Compound 9: nitrobenzene, C6H5NO2

System: cyclohexanone + 1,2,4-benzotriazine, 3,3'-[2,2'-bipyridine]-6,6'-diylbis[5,6,7,8-tetrahydro-5,5,8,8-tetramethyl-; phases: Liquid, Crystal
Fixed: Pressure, kPa = 101
Property: Amount concentration (molarity), mol/dm3 of 1,2,4-benzotriazine, 3,3'-[2,2'-bipyridine]-6,6'-diylbis[5,6,7,8-tetrahydro-5,5,8,8-tetramethyl- (Liquid); method: Spectrophotometry
Temperature, K	Amount concentration (molarity), mol/dm3 of 1,2,4-benzotriazine, 3,3'-[2,2'-bipyridine]-6,6'-diylbis[5,6,7,8-tetrahydro-5,5,8,8-tetramethyl-	uncertainty
283	.0087	.0014
293	.0168	.0016
303	.0252	.0016

System: 1-octanol + 1,2,4-benzotriazine, 3,3'-[2,2'-bipyridine]-6,6'-diylbis[5,6,7,8-tetrahydro-5,5,8,8-tetramethyl-; phases: Liquid, Crystal
Fixed: Pressure, kPa = 101
Property: Amount concentration (molarity), mol/dm3 of 1,2,4-benzotriazine, 3,3'-[2,2'-bipyridine]-6,6'-diylbis[5,6,7,8-tetrahydro-5,5,8,8-tetramethyl- (Liquid); method: Spectrophotometry
Temperature, K	Amount concentration (molarity), mol/dm3 of 1,2,4-benzotriazine, 3,3'-[2,2'-bipyridine]-6,6'-diylbis[5,6,7,8-tetrahydro-5,5,8,8-tetramethyl-	uncertainty
283	.0043	.0011
293	.0082	.0008
303	.0131	.001

System: pentylcarbinol + 1,2,4-benzotriazine, 3,3'-[2,2'-bipyridine]-6,6'-diylbis[5,6,7,8-tetrahydro-5,5,8,8-tetramethyl-; phases: Liquid, Crystal
Fixed: Pressure, kPa = 101
Property: Amount concentration (molarity), mol/dm3 of 1,2,4-benzotriazine, 3,3'-[2,2'-bipyridine]-6,6'-diylbis[5,6,7,8-tetrahydro-5,5,8,8-tetramethyl- (Liquid); method: Spectrophotometry
Temperature, K	Amount concentration (molarity), mol/dm3 of 1,2,4-benzotriazine, 3,3'-[2,2'-bipyridine]-6,6'-diylbis[5,6,7,8-tetrahydro-5,5,8,8-tetramethyl-	uncertainty
283	.0064	.0014
293	.01	.0021
303	.0114	.0012

System: nitrobenzene + 1,2,4-benzotriazine, 3,3'-[2,2'-bipyridine]-6,6'-diylbis[5,6,7,8-tetrahydro-5,5,8,8-tetramethyl-; phases: Liquid, Crystal
Fixed: Pressure, kPa = 101
Property: Amount concentration (molarity), mol/dm3 of 1,2,4-benzotriazine, 3,3'-[2,2'-bipyridine]-6,6'-diylbis[5,6,7,8-tetrahydro-5,5,8,8-tetramethyl- (Liquid); method: Spectrophotometry
Temperature, K	Amount concentration (molarity), mol/dm3 of 1,2,4-benzotriazine, 3,3'-[2,2'-bipyridine]-6,6'-diylbis[5,6,7,8-tetrahydro-5,5,8,8-tetramethyl-	uncertainty
287	.0409	.0058
293	.0513	.0046
303	.0646	.0061

System: cyclohexanone + 1,2,4-triazine, 3,3'-[2,2'-bipyridine]-6,6'-diylbis[5,6-dipentyl-; phases: Liquid, Crystal
Fixed: Pressure, kPa = 101
Property: Amount concentration (molarity), mol/dm3 of 1,2,4-triazine, 3,3'-[2,2'-bipyridine]-6,6'-diylbis[5,6-dipentyl- (Liquid); method: Spectrophotometry
Temperature, K	Amount concentration (molarity), mol/dm3 of 1,2,4-triazine, 3,3'-[2,2'-bipyridine]-6,6'-diylbis[5,6-dipentyl-	uncertainty
283	.0386	.002
293	.0843	.0042
303	.2497	.0152

System: 1-octanol + 1,2,4-triazine, 3,3'-[2,2'-bipyridine]-6,6'-diylbis[5,6-dipentyl-; phases: Liquid, Crystal
Fixed: Pressure, kPa = 101
Property: Amount concentration (molarity), mol/dm3 of 1,2,4-triazine, 3,3'-[2,2'-bipyridine]-6,6'-diylbis[5,6-dipentyl- (Liquid); method: Spectrophotometry
Temperature, K	Amount concentration (molarity), mol/dm3 of 1,2,4-triazine, 3,3'-[2,2'-bipyridine]-6,6'-diylbis[5,6-dipentyl-	uncertainty
283	.0111	.0012
293	.0239	.0015
303	.0459	.0024

System: pentylcarbinol + 1,2,4-triazine, 3,3'-[2,2'-bipyridine]-6,6'-diylbis[5,6-dipentyl-; phases: Liquid, Crystal
Fixed: Pressure, kPa = 101
Property: Amount concentration (molarity), mol/dm3 of 1,2,4-triazine, 3,3'-[2,2'-bipyridine]-6,6'-diylbis[5,6-dipentyl- (Liquid); method: Spectrophotometry
Temperature, K	Amount concentration (molarity), mol/dm3 of 1,2,4-triazine, 3,3'-[2,2'-bipyridine]-6,6'-diylbis[5,6-dipentyl-	uncertainty
283	.0153	.0018
293	.0266	.0022
303	.0501	.0019

System: nitrobenzene + 1,2,4-triazine, 3,3'-[2,2'-bipyridine]-6,6'-diylbis[5,6-dipentyl-; phases: Liquid, Crystal
Fixed: Pressure, kPa = 101
Property: Amount concentration (molarity), mol/dm3 of 1,2,4-triazine, 3,3'-[2,2'-bipyridine]-6,6'-diylbis[5,6-dipentyl- (Liquid); method: Spectrophotometry
Temperature, K	Amount concentration (molarity), mol/dm3 of 1,2,4-triazine, 3,3'-[2,2'-bipyridine]-6,6'-diylbis[5,6-dipentyl-	uncertainty
287	.0487	.0048
293	.0586	.0035
303	.1055	.0055

System: cyclohexanone + 1,2,4-triazine, 3,3'-[2,2'-bipyridine]-6,6'-diylbis[5,6-diethyl-; phases: Liquid, Crystal
Fixed: Pressure, kPa = 101
Property: Amount concentration (molarity), mol/dm3 of 1,2,4-triazine, 3,3'-[2,2'-bipyridine]-6,6'-diylbis[5,6-diethyl- (Liquid); method: Spectrophotometry
Temperature, K	Amount concentration (molarity), mol/dm3 of 1,2,4-triazine, 3,3'-[2,2'-bipyridine]-6,6'-diylbis[5,6-diethyl-	uncertainty
283	.0092	.00006
293	.0111	.00006
303	.016	.00005

System: cyclohexanone + 1,2,4-triazine, 3,3'-[4-(1,1-dimethylethyl)[2,2'-bipyridine]-6,6'-diyl]bis[5,6-diethyl-; phases: Liquid, Crystal
Fixed: Pressure, kPa = 101
Property: Amount concentration (molarity), mol/dm3 of 1,2,4-triazine, 3,3'-[4-(1,1-dimethylethyl)[2,2'-bipyridine]-6,6'-diyl]bis[5,6-diethyl- (Liquid); method: Spectrophotometry
Temperature, K	Amount concentration (molarity), mol/dm3 of 1,2,4-triazine, 3,3'-[4-(1,1-dimethylethyl)[2,2'-bipyridine]-6,6'-diyl]bis[5,6-diethyl-	uncertainty
283	.017	.0005
293	.0263	.0006
303	.0524	.0008

System: 1-octanol + 1,2,4-triazine, 3,3'-[4-(1,1-dimethylethyl)[2,2'-bipyridine]-6,6'-diyl]bis[5,6-diethyl-; phases: Liquid, Crystal
Fixed: Pressure, kPa = 101
Property: Amount concentration (molarity), mol/dm3 of 1,2,4-triazine, 3,3'-[4-(1,1-dimethylethyl)[2,2'-bipyridine]-6,6'-diyl]bis[5,6-diethyl- (Liquid); method: Spectrophotometry
Temperature, K	Amount concentration (molarity), mol/dm3 of 1,2,4-triazine, 3,3'-[4-(1,1-dimethylethyl)[2,2'-bipyridine]-6,6'-diyl]bis[5,6-diethyl-	uncertainty
283	.0061	.0002
293	.0099	.0002
303	.0174	.0002

System: cyclohexanone + 4-tert-butyl-6,6'-bis(5,5,8,8-tetramethyl-5,6,7,8-tetrahydro-benzo-[1,2,4]triazin-3-yl)-[2,2']bipyridine); phases: Liquid, Crystal
Fixed: Pressure, kPa = 101
Property: Amount concentration (molarity), mol/dm3 of 4-tert-butyl-6,6'-bis(5,5,8,8-tetramethyl-5,6,7,8-tetrahydro-benzo-[1,2,4]triazin-3-yl)-[2,2']bipyridine) (Liquid); method: Spectrophotometry
Temperature, K	Amount concentration (molarity), mol/dm3 of 4-tert-butyl-6,6'-bis(5,5,8,8-tetramethyl-5,6,7,8-tetrahydro-benzo-[1,2,4]triazin-3-yl)-[2,2']bipyridine)	uncertainty
283	.0338	.0053
293	.3035	.0349
303	1.106	.151
