Measured thermophysical data. Densities and Viscosities of Binary Mixture of the Ionic Liquid Bis(2-hydroxyethyl)ammonium Propionate with Methanol, Ethanol, and 1-Propanol at T = (293.15, 303.15, 313.15, and 323.15) K and at P = 0.1 MPa
Source: J. Chem. Eng. Data, 2011, 10.1021/je100848r
Compound 1: diethanolamine propionate, C7H17NO4
Compound 2: methanol, CH4O, purity 99.9%
Compound 3: ethanol, C2H6O, purity 99.7%
Compound 4: propyl alcohol, C3H8O, purity 99.5%

System: diethanolamine propionate; phases: Liquid
Property: Mass density, kg/m3 (Liquid); method: Vibrating tube method
Temperature, K	Pressure, kPa	Mass density, kg/m3	uncertainty
293.15	101	1142.7	.5
303.15	101	1136.1	.5
313.15	101	1129.2	.5
323.15	101	1125.2	.5

System: diethanolamine propionate; phases: Liquid
Property: Viscosity, Pa*s (Liquid); method: Concentric cylinders viscometry
Temperature, K	Pressure, kPa	Viscosity, Pa*s	uncertainty
293.15	101	.74028	.00259098
303.15	101	.32217	.001127595
313.15	101	.15797	.000552895
323.15	101	.096542	.000337897

System: methanol; phases: Liquid
Property: Mass density, kg/m3 (Liquid); method: Vibrating tube method
Temperature, K	Pressure, kPa	Mass density, kg/m3	uncertainty
293.15	101	791.2	.5
303.15	101	781.8	.5
313.15	101	772.3	.5
323.15	101	765.1	.5

System: methanol; phases: Liquid
Property: Viscosity, Pa*s (Liquid); method: Concentric cylinders viscometry
Temperature, K	Pressure, kPa	Viscosity, Pa*s	uncertainty
293.15	101	.0006075	.00000212625
303.15	101	.0005535	.00000193725
313.15	101	.000501	.0000017535
323.15	101	.0004601	.00000161035

System: ethanol; phases: Liquid
Property: Mass density, kg/m3 (Liquid); method: Vibrating tube method
Temperature, K	Pressure, kPa	Mass density, kg/m3	uncertainty
293.15	101	789.3	.5
303.15	101	780.7	.5
313.15	101	772.5	.5
323.15	101	763.6	.5

System: ethanol; phases: Liquid
Property: Viscosity, Pa*s (Liquid); method: Concentric cylinders viscometry
Temperature, K	Pressure, kPa	Viscosity, Pa*s	uncertainty
293.15	101	.0011802	.0000041307
303.15	101	.0010191	.00000356685
313.15	101	.0008424	.0000029484
323.15	101	.0007081	.00000247835

System: propyl alcohol; phases: Liquid
Property: Mass density, kg/m3 (Liquid); method: Vibrating tube method
Temperature, K	Pressure, kPa	Mass density, kg/m3	uncertainty
293.15	101	803.2	.5
303.15	101	795.5	.5
313.15	101	787.6	.5
323.15	101	778.7	.5

System: propyl alcohol; phases: Liquid
Property: Viscosity, Pa*s (Liquid); method: Concentric cylinders viscometry
Temperature, K	Pressure, kPa	Viscosity, Pa*s	uncertainty
293.15	101	.0021412	.0000074942
303.15	101	.001788	.000006258
313.15	101	.0013907	.00000486745
323.15	101	.0010977	.00000384195

System: methanol + diethanolamine propionate; phases: Liquid
Fixed: Pressure, kPa = 101
Property: Mass density, kg/m3 (Liquid); method: Vibrating tube method
Temperature, K	Mole fraction of diethanolamine propionate	Mass density, kg/m3	uncertainty
293.15	0	791.2	.5
293.15	.0437	851.2	.5
293.15	.1045	913.4	.5
293.15	.2138	987.8	.5
293.15	.2957	1024.6	.5
293.15	.4	1058.1	.5
293.15	.5038	1082.4	.5
293.15	.6125	1101.8	.5
293.15	.6981	1114	.5
293.15	.8026	1126.4	.5
293.15	.9121	1136.5	.5
293.15	.9587	1140	.5
293.15	1	1142.7	.5
303.15	0	781.8	.5
303.15	.0437	842.3	.5
303.15	.1045	905.2	.5
303.15	.2138	980.3	.5
303.15	.2957	1017.4	.5
303.15	.4	1051.2	.5
303.15	.5038	1075.6	.5
303.15	.6125	1095.2	.5
303.15	.6981	1107.6	.5
303.15	.8026	1120	.5
303.15	.9121	1130.1	.5
303.15	.9587	1133.5	.5
303.15	1	1136.1	.5
313.15	0	772.3	.5
313.15	.0437	833.3	.5
313.15	.1045	896.9	.5
313.15	.2138	972.6	.5
313.15	.2957	1010	.5
313.15	.4	1044	.5
313.15	.5038	1068.6	.5
313.15	.6125	1088.3	.5
313.15	.6981	1100.9	.5
313.15	.8026	1113.3	.5
313.15	.9121	1123.4	.5
313.15	.9587	1126.8	.5
313.15	1	1129.2	.5
323.15	0	765.1	.5
323.15	.0437	826.8	.5
323.15	.1045	891.1	.5
323.15	.2138	967.8	.5
323.15	.2957	1005.5	.5
323.15	.4	1039.7	.5
323.15	.5038	1064.6	.5
323.15	.6125	1084.5	.5
323.15	.6981	1097.1	.5
323.15	.8026	1109.7	.5
323.15	.9121	1119.7	.5
323.15	.9587	1123	.5
323.15	1	1125.2	.5

System: methanol + diethanolamine propionate; phases: Liquid
Fixed: Pressure, kPa = 101
Property: Viscosity, Pa*s (Liquid); method: Concentric cylinders viscometry
Temperature, K	Mole fraction of diethanolamine propionate	Viscosity, Pa*s	uncertainty
293.15	0	.0006075	.00000212625
303.15	0	.0005535	.00000193725
313.15	0	.000501	.0000017535
323.15	0	.0004601	.00000161035
293.15	.0437	.023191	.0000811685
303.15	.0437	.013008	.000045528
313.15	.0437	.0042418	.0000148463
323.15	.0437	.0026389	.00000923615
303.15	.1045	.02018	.00007063
293.15	.1045	.05244	.00018354
313.15	.1045	.0089027	.00003115945
323.15	.1045	.0055091	.00001928185
303.15	.2138	.042758	.000149653
313.15	.2138	.019003	.0000665105
293.15	.2138	.10939	.000382865
323.15	.2138	.011762	.000041167
303.15	.2957	.062122	.000217427
293.15	.2957	.15361	.000537635
313.15	.2957	.027333	.0000956655
323.15	.2957	.01699	.000059465
303.15	.4	.086115	.0003014025
313.15	.4	.038581	.0001350335
293.15	.4	.21082	.00073787
323.15	.4	.024155	.0000845425
293.15	.5038	.26965	.000943775
313.15	.5038	.05082	.00017787
303.15	.5038	.10907	.000381745
323.15	.5038	.032041	.0001121435
303.15	.6125	.13536	.00047376
313.15	.6125	.065917	.0002307095
293.15	.6125	.33706	.00117971
323.15	.6125	.041764	.000146174
313.15	.6981	.080808	.000282828
293.15	.6981	.39951	.001398285
303.15	.6981	.16204	.00056714
323.15	.6981	.051212	.000179242
303.15	.8026	.20861	.000730135
293.15	.8026	.49691	.001739185
313.15	.8026	.10449	.000365715
323.15	.8026	.065817	.0002303595
293.15	.9121	.63696	.00222936
303.15	.9121	.27664	.00096824
313.15	.9121	.13575	.000475125
323.15	.9121	.084159	.0002945565
293.15	.9587	.69241	.002423435
303.15	.9587	.30108	.00105378
313.15	.9587	.14767	.000516845
323.15	.9587	.09146	.00032011
293.15	1	.74028	.00259098
303.15	1	.32217	.001127595
313.15	1	.15797	.000552895
323.15	1	.096542	.000337897

System: ethanol + diethanolamine propionate; phases: Liquid
Fixed: Pressure, kPa = 101
Property: Mass density, kg/m3 (Liquid); method: Vibrating tube method
Temperature, K	Mole fraction of diethanolamine propionate	Mass density, kg/m3	uncertainty
293.15	0	789.3	.5
293.15	.0536	842.7	.5
293.15	.1087	887.2	.5
293.15	.2052	947	.5
293.15	.3168	997.5	.5
293.15	.4238	1034.5	.5
293.15	.5084	1058.3	.5
293.15	.5946	1078.8	.5
293.15	.6965	1099.1	.5
293.15	.804	1116.8	.5
293.15	.8895	1128.8	.5
293.15	.9458	1136	.5
293.15	1	1142.7	.5
303.15	0	780.7	.5
303.15	.0536	834.4	.5
303.15	.1087	879.2	.5
303.15	.2052	939.4	.5
303.15	.3168	990.1	.5
303.15	.4238	1027.3	.5
303.15	.5084	1051.2	.5
303.15	.5946	1071.8	.5
303.15	.6965	1092.3	.5
303.15	.804	1110	.5
303.15	.8895	1122	.5
303.15	.9458	1129.3	.5
303.15	1	1136.1	.5
313.15	0	772.5	.5
313.15	.0536	826.6	.5
313.15	.1087	871.7	.5
313.15	.2052	932.2	.5
313.15	.3168	983	.5
313.15	.4238	1020.2	.5
313.15	.5084	1044.2	.5
313.15	.5946	1064.9	.5
313.15	.6965	1085.4	.5
313.15	.804	1103.1	.5
313.15	.8895	1115.1	.5
313.15	.9458	1122.4	.5
313.15	1	1129.2	.5
323.15	0	763.6	.5
323.15	.0536	818.5	.5
323.15	.1087	864.2	.5
323.15	.2052	925.5	.5
323.15	.3168	977.1	.5
323.15	.4238	1014.8	.5
323.15	.5084	1039.1	.5
323.15	.5946	1060	.5
323.15	.6965	1080.8	.5
323.15	.804	1098.8	.5
323.15	.8895	1111	.5
323.15	.9458	1118.3	.5
323.15	1	1125.2	.5

System: ethanol + diethanolamine propionate; phases: Liquid
Fixed: Pressure, kPa = 101
Property: Viscosity, Pa*s (Liquid); method: Concentric cylinders viscometry
Temperature, K	Mole fraction of diethanolamine propionate	Viscosity, Pa*s	uncertainty
293.15	0	.0011802	.0000041307
293.15	.0536	.028358	.000099253
293.15	.1087	.05519	.000193165
293.15	.2052	.10581	.000370335
293.15	.3168	.16785	.000587475
293.15	.4238	.23131	.000809585
293.15	.5084	.28444	.00099554
293.15	.5946	.34318	.00120113
293.15	.6965	.42804	.00149814
293.15	.804	.53161	.001860635
293.15	.8895	.62632	.00219212
293.15	.9458	.68637	.002402295
293.15	1	.74028	.00259098
303.15	0	.0010191	.00000356685
303.15	.0536	.014198	.000049693
303.15	.1087	.021361	.0000747635
303.15	.2052	.041433	.0001450155
303.15	.3168	.068598	.000240093
303.15	.4238	.095161	.0003330635
303.15	.5084	.11645	.000407575
303.15	.5946	.14021	.000490735
303.15	.6965	.17751	.000621285
303.15	.804	.22645	.000792575
303.15	.8895	.27172	.00095102
303.15	.9458	.29835	.001044225
303.15	1	.32217	.001127595
313.15	0	.0008424	.0000029484
313.15	.0536	.0052706	.0000184471
313.15	.1087	.0096024	.0000336084
313.15	.2052	.018597	.0000650895
313.15	.3168	.030487	.0001067045
313.15	.4238	.043458	.000152103
313.15	.5084	.054872	.000192052
313.15	.5946	.06808	.00023828
313.15	.6965	.088082	.000308287
313.15	.804	.11251	.000393785
313.15	.8895	.13371	.000467985
313.15	.9458	.14649	.000512715
313.15	1	.15797	.000552895
323.15	0	.0007081	.00000247835
323.15	.0536	.0033091	.00001158185
323.15	.1087	.0059737	.00002090795
323.15	.2052	.011535	.0000403725
323.15	.3168	.018985	.0000664475
323.15	.4238	.027199	.0000951965
323.15	.5084	.034452	.000120582
323.15	.5946	.042814	.000149849
323.15	.6965	.055217	.0001932595
323.15	.804	.070069	.0002452415
323.15	.8895	.082607	.0002891245
323.15	.9458	.090376	.000316316
323.15	1	.096542	.000337897

System: propyl alcohol + diethanolamine propionate; phases: Liquid
Fixed: Pressure, kPa = 101
Property: Mass density, kg/m3 (Liquid); method: Vibrating tube method
Temperature, K	Mole fraction of diethanolamine propionate	Mass density, kg/m3	uncertainty
293.15	0	803.2	.5
293.15	.0585	846.5	.5
293.15	.1031	875.3	.5
293.15	.2292	942.2	.5
293.15	.3021	973.6	.5
293.15	.4017	1010.3	.5
293.15	.5009	1041.2	.5
293.15	.636	1076.2	.5
293.15	.7135	1093.1	.5
293.15	.8018	1110.2	.5
293.15	.8979	1126.6	.5
293.15	.9568	1136	.5
293.15	1	1142.7	.5
303.15	0	795.5	.5
303.15	.0585	839	.5
303.15	.1031	867.9	.5
303.15	.2292	935	.5
303.15	.3021	966.5	.5
303.15	.4017	1003.3	.5
303.15	.5009	1034.3	.5
303.15	.636	1069.4	.5
303.15	.7135	1086.4	.5
303.15	.8018	1103.5	.5
303.15	.8979	1119.9	.5
303.15	.9568	1129.3	.5
303.15	1	1136.1	.5
313.15	0	787.6	.5
313.15	.0585	831.3	.5
313.15	.1031	860.4	.5
313.15	.2292	927.7	.5
313.15	.3021	959.3	.5
313.15	.4017	996.2	.5
313.15	.5009	1027.3	.5
313.15	.636	1062.5	.5
313.15	.7135	1079.5	.5
313.15	.8018	1096.5	.5
313.15	.8979	1113	.5
313.15	.9568	1122.4	.5
313.15	1	1129.2	.5
323.15	0	778.7	.5
323.15	.0585	823.1	.5
323.15	.1031	852.6	.5
323.15	.2292	920.9	.5
323.15	.3021	952.9	.5
323.15	.4017	990.3	.5
323.15	.5009	1021.9	.5
323.15	.636	1057.6	.5
323.15	.7135	1074.8	.5
323.15	.8018	1092.1	.5
323.15	.8979	1108.8	.5
323.15	.9568	1118.4	.5
323.15	1	1125.2	.5

System: propyl alcohol + diethanolamine propionate; phases: Liquid
Fixed: Pressure, kPa = 101
Property: Viscosity, Pa*s (Liquid); method: Concentric cylinders viscometry
Temperature, K	Mole fraction of diethanolamine propionate	Viscosity, Pa*s	uncertainty
293.15	0	.0021412	.0000074942
303.15	0	.001788	.000006258
313.15	0	.0013907	.00000486745
323.15	0	.0010977	.00000384195
293.15	.0585	.031598	.000110593
303.15	.0585	.015366	.000053781
313.15	.0585	.0061456	.0000215096
323.15	.0585	.0038968	.0000136388
303.15	.1031	.021148	.000074018
293.15	.1031	.053286	.000186501
313.15	.1031	.0096328	.0000337148
323.15	.1031	.0060394	.0000211379
303.15	.2292	.047979	.0001679265
313.15	.2292	.021603	.0000756105
293.15	.2292	.12007	.000420245
323.15	.2292	.013442	.000047047
303.15	.3021	.066192	.000231672
293.15	.3021	.1615	.00056525
313.15	.3021	.029623	.0001036805
323.15	.3021	.018459	.0000646065
303.15	.4017	.091873	.0003215555
313.15	.4017	.041983	.0001469405
293.15	.4017	.2219	.00077665
323.15	.4017	.026244	.000091854
293.15	.5009	.28832	.00100912
313.15	.5009	.056396	.000197386
303.15	.5009	.11916	.00041706
323.15	.5009	.035314	.000123599
303.15	.636	.1635	.00057225
313.15	.636	.080351	.0002812285
293.15	.636	.39308	.00137578
323.15	.636	.050214	.000175749
313.15	.7135	.096415	.0003374525
293.15	.7135	.46184	.00161644
303.15	.7135	.19452	.00068082
323.15	.7135	.06005	.000210175
303.15	.8018	.23475	.000821625
293.15	.8018	.5475	.00191625
313.15	.8018	.11623	.000406805
323.15	.8018	.072003	.0002520105
293.15	.8979	.64669	.002263415
303.15	.8979	.28111	.000983885
313.15	.8979	.13808	.00048328
323.15	.8979	.084926	.000297241
293.15	.9568	.70108	.00245378
303.15	.9568	.30498	.00106743
313.15	.9568	.14964	.00052374
323.15	.9568	.09203	.000322105
293.15	1	.74028	.00259098
303.15	1	.32217	.001127595
313.15	1	.15797	.000552895
323.15	1	.096542	.000337897
