Measured thermophysical data. Liquid-Liquid Phase Behavior of Solutions of 1-Hexyl-3-methylimidazolium Bis((trifluoromethyl)sulfonyl)amide (C6mimNTf2) in n-Alkyl Alcohols
Source: J. Chem. Eng. Data, 2011, 10.1021/je1011357
Compound 1: 1-hexyl-3-methylimidazolium bis[(trifluoromethyl)sulfonyl]imide, C12H19F6N3O4S2, purity 99%
Compound 2: pentylcarbinol, C6H14O, purity 98%
Compound 3: 1-heptanol, C7H16O, purity 99%
Compound 4: 1-octanol, C8H18O, purity 99%
Compound 5: 1-nonanol, C9H20O, purity 98%
Compound 6: 1-decanol, C10H22O, purity 99%
Compound 7: 1-undecanol, C11H24O, purity 98%
Compound 8: 1-dodecanol, C12H26O, purity 99%
Compound 9: 1-tetradecanol, C14H30O, purity 98%

System: pentylcarbinol + 1-hexyl-3-methylimidazolium bis[(trifluoromethyl)sulfonyl]imide; phases: Liquid mixture 1, Liquid mixture 2
Fixed: Pressure, kPa = 101
Property: Liquid-liquid equilibrium temperature, K (Liquid mixture 1); method: Visual observation
Mass fraction of 1-hexyl-3-methylimidazolium bis[(trifluoromethyl)sulfonyl]imide	Liquid-liquid equilibrium temperature, K	uncertainty
.078	294.28	.05
.119	299.48	.05
.178	303.19	.05
.218	304.57	.05
.273	305.49	.05
.327	305.92	.05
.432	306.05	.05
.521	305.69	.05
.591	304.81	.05
.651	302.73	.05
.695	300.62	.05
.745	296.65	.05
.78	292.71	.05

System: 1-heptanol + 1-hexyl-3-methylimidazolium bis[(trifluoromethyl)sulfonyl]imide; phases: Liquid mixture 1, Liquid mixture 2
Fixed: Pressure, kPa = 101
Property: Liquid-liquid equilibrium temperature, K (Liquid mixture 1); method: Visual observation
Mass fraction of 1-hexyl-3-methylimidazolium bis[(trifluoromethyl)sulfonyl]imide	Liquid-liquid equilibrium temperature, K	uncertainty
.07	306.42	.05
.112	312.44	.06
.127	315.13	.08
.16	316.2	.05
.237	318.81	.06
.299	319.85	.07
.402	320.3	.05
.487	320.14	.07
.564	319.33	.05
.615	317.98	.06
.672	315.63	.05
.722	312.15	.06
.757	309	.11
.795	304.33	.18

System: 1-octanol + 1-hexyl-3-methylimidazolium bis[(trifluoromethyl)sulfonyl]imide; phases: Liquid mixture 1, Liquid mixture 2
Fixed: Pressure, kPa = 101
Property: Liquid-liquid equilibrium temperature, K (Liquid mixture 1); method: Visual observation
Mass fraction of 1-hexyl-3-methylimidazolium bis[(trifluoromethyl)sulfonyl]imide	Liquid-liquid equilibrium temperature, K	uncertainty
.059	321.15	.05
.096	325.06	.05
.121	327.9	.06
.154	330.51	.05
.218	332.36	.11
.277	333.23	.05
.375	333.52	.06
.462	333.42	.05
.534	332.73	.07
.594	331.26	.05
.644	329.34	.06
.692	326.19	.08
.729	323.35	.05

System: 1-nonanol + 1-hexyl-3-methylimidazolium bis[(trifluoromethyl)sulfonyl]imide; phases: Liquid mixture 1, Liquid mixture 2
Fixed: Pressure, kPa = 101
Property: Liquid-liquid equilibrium temperature, K (Liquid mixture 1); method: Visual observation
Mass fraction of 1-hexyl-3-methylimidazolium bis[(trifluoromethyl)sulfonyl]imide	Liquid-liquid equilibrium temperature, K	uncertainty
.093	334.69	.05
.141	339.47	.05
.211	340.94	.05
.256	341.95	.05
.31	343.04	.05
.351	344.06	.05
.435	344.26	.06
.51	344.07	.06
.567	342.49	.05
.624	340.59	.08
.672	338.06	.06
.719	333.87	.05

System: 1-decanol + 1-hexyl-3-methylimidazolium bis[(trifluoromethyl)sulfonyl]imide; phases: Liquid mixture 1, Liquid mixture 2
Fixed: Pressure, kPa = 101
Property: Liquid-liquid equilibrium temperature, K (Liquid mixture 1); method: Visual observation
Mass fraction of 1-hexyl-3-methylimidazolium bis[(trifluoromethyl)sulfonyl]imide	Liquid-liquid equilibrium temperature, K	uncertainty
.053	340.98	.05
.081	348.81	.05
.105	349.99	.05
.128	352.32	.05
.19	354.35	.07
.239	355.71	.05
.273	355.63	.06
.329	356.34	.05
.416	356.15	.06
.483	355.77	.09
.545	354.63	.05
.608	353.13	.05
.65	350.82	.05
.702	348.05	.05

System: 1-undecanol + 1-hexyl-3-methylimidazolium bis[(trifluoromethyl)sulfonyl]imide; phases: Liquid mixture 1, Liquid mixture 2
Fixed: Pressure, kPa = 101
Property: Liquid-liquid equilibrium temperature, K (Liquid mixture 1); method: Visual observation
Mass fraction of 1-hexyl-3-methylimidazolium bis[(trifluoromethyl)sulfonyl]imide	Liquid-liquid equilibrium temperature, K	uncertainty
.074	350.39	.06
.12	356.05	.05
.224	363.21	.05
.313	364.09	.05
.393	364.22	.05
.462	364.18	.05
.523	364.1	.05
.587	362.65	.07
.634	360.67	.05
.685	358.28	.05

System: 1-dodecanol + 1-hexyl-3-methylimidazolium bis[(trifluoromethyl)sulfonyl]imide; phases: Liquid mixture 1, Liquid mixture 2
Fixed: Pressure, kPa = 101
Property: Liquid-liquid equilibrium temperature, K (Liquid mixture 1); method: Visual observation
Mass fraction of 1-hexyl-3-methylimidazolium bis[(trifluoromethyl)sulfonyl]imide	Liquid-liquid equilibrium temperature, K	uncertainty
.059	364.39	.05
.068	365.18	.05
.108	371.31	.05
.141	373.8	.05
.187	375.38	.05
.229	376.19	.05
.308	376.69	.05
.393	376.72	.05
.5	376.08	.05
.531	375.24	.05
.592	373.92	.05
.629	371.88	.05
.678	368.85	.05

System: 1-tetradecanol + 1-hexyl-3-methylimidazolium bis[(trifluoromethyl)sulfonyl]imide; phases: Liquid mixture 1, Liquid mixture 2
Fixed: Pressure, kPa = 101
Property: Liquid-liquid equilibrium temperature, K (Liquid mixture 1); method: Visual observation
Mass fraction of 1-hexyl-3-methylimidazolium bis[(trifluoromethyl)sulfonyl]imide	Liquid-liquid equilibrium temperature, K	uncertainty
.099	394.02	.1
.191	399.56	.06
.267	401.25	.05
.339	401.06	.05
.411	401.35	.05
.471	400.18	.06
.525	398.89	.05
.571	396.75	.05
.636	394.55	.05
.676	390.95	.05
