Measured thermophysical data. Solubilities of Phloretin in 12 Solvents at Different Temperatures
Source: J. Chem. Eng. Data, 2011, 10.1021/je101168w
Compound 1: phloretin, C15H14O5, purity 98%
Compound 2: methanol, CH4O
Compound 3: ethanol, C2H6O
Compound 4: propan-1-ol, C3H8O
Compound 5: 2-propanol, C3H8O
Compound 6: butan-1-ol, C4H10O
Compound 7: dl-sec-butyl alcohol, C4H10O
Compound 8: pentan-1-ol, C5H12O
Compound 9: pentylcarbinol, C6H14O
Compound 10: ethyl ethanoate, C4H8O2
Compound 11: acetic acid, butyl ester, C6H12O2
Compound 12: dioxane, C4H8O2
Compound 13: water, H2O

System: phloretin + methanol; phases: Liquid, Crystal
Fixed: Pressure, kPa = 101
Property: Mole fraction of phloretin (Liquid); method: Chromatography
Temperature, K	Mole fraction of phloretin	uncertainty
288.2	.0245	.0013
298.2	.0259	.001
308.2	.0275	.0003
318.2	.0299	.0005
328.2	.0317	.001

System: phloretin + ethanol; phases: Liquid, Crystal
Fixed: Pressure, kPa = 101
Property: Mole fraction of phloretin (Liquid); method: Chromatography
Temperature, K	Mole fraction of phloretin	uncertainty
288.2	.0345	.0017
298.2	.0373	.0016
308.2	.0399	.0004
318.2	.0421	.0008
328.2	.0447	.0001

System: phloretin + propan-1-ol; phases: Liquid, Crystal
Fixed: Pressure, kPa = 101
Property: Mole fraction of phloretin (Liquid); method: Chromatography
Temperature, K	Mole fraction of phloretin	uncertainty
288.2	.03	.0015
298.2	.0318	.0015
308.2	.0336	.0005
318.2	.0358	.0003
328.2	.0382	.0006

System: phloretin + 2-propanol; phases: Liquid, Crystal
Fixed: Pressure, kPa = 101
Property: Mole fraction of phloretin (Liquid); method: Chromatography
Temperature, K	Mole fraction of phloretin	uncertainty
288.2	.0351	.0012
298.2	.0374	.0014
308.2	.039	.0008
318.2	.0411	.002
328.2	.0429	.0011

System: phloretin + butan-1-ol; phases: Liquid, Crystal
Fixed: Pressure, kPa = 101
Property: Mole fraction of phloretin (Liquid); method: Chromatography
Temperature, K	Mole fraction of phloretin	uncertainty
288.2	.0336	.0004
298.2	.035	.0003
308.2	.0362	.0001
318.2	.0378	.0006
328.2	.0394	.001

System: phloretin + dl-sec-butyl alcohol; phases: Liquid, Crystal
Fixed: Pressure, kPa = 101
Property: Mole fraction of phloretin (Liquid); method: Chromatography
Temperature, K	Mole fraction of phloretin	uncertainty
288.2	.0101	.0004
298.2	.014	.0004
308.2	.0175	.0006
318.2	.0217	.0006
328.2	.0244	.0001

System: phloretin + pentan-1-ol; phases: Liquid, Crystal
Fixed: Pressure, kPa = 101
Property: Mole fraction of phloretin (Liquid); method: Chromatography
Temperature, K	Mole fraction of phloretin	uncertainty
288.2	.0301	.0008
298.2	.0324	.0013
308.2	.034	.0007
318.2	.0357	.0018
328.2	.0378	.0019

System: phloretin + pentylcarbinol; phases: Liquid, Crystal
Fixed: Pressure, kPa = 101
Property: Mole fraction of phloretin (Liquid); method: Chromatography
Temperature, K	Mole fraction of phloretin	uncertainty
288.2	.0289	.001
298.2	.0313	.0012
308.2	.0332	.0015
318.2	.0347	.0012
328.2	.0366	.0015

System: phloretin + ethyl ethanoate; phases: Liquid, Crystal
Fixed: Pressure, kPa = 101
Property: Mole fraction of phloretin (Liquid); method: Chromatography
Temperature, K	Mole fraction of phloretin	uncertainty
288.2	.0266	.001
298.2	.0283	.0015
308.2	.0309	.0007
318.2	.0343	.0013
328.2	.037	.002

System: phloretin + acetic acid, butyl ester; phases: Liquid, Crystal
Fixed: Pressure, kPa = 101
Property: Mole fraction of phloretin (Liquid); method: Chromatography
Temperature, K	Mole fraction of phloretin	uncertainty
288.2	.0258	.0008
298.2	.0281	.0003
308.2	.0305	.0008
318.2	.0323	.0002
328.2	.0346	.0013

System: phloretin + dioxane; phases: Liquid, Crystal
Fixed: Pressure, kPa = 101
Property: Mole fraction of phloretin (Liquid); method: Chromatography
Temperature, K	Mole fraction of phloretin	uncertainty
288.2	.0211	.0005
298.2	.0249	.0002
308.2	.029	.0001
318.2	.0331	.0008
328.2	.0384	.0003

System: phloretin + water; phases: Liquid, Crystal
Fixed: Pressure, kPa = 101
Property: Mole fraction of phloretin (Liquid); method: Chromatography
Temperature, K	Mole fraction of phloretin	uncertainty
288.2	.000346	.000006
298.2	.000576	.000005
308.2	.00112	.00005
318.2	.0017	.00001
328.2	.0027	.00001
