Measured thermophysical data. Densities and Viscosities of Minority Fatty Acid Methyl and Ethyl Esters Present in Biodiesel
Source: J. Chem. Eng. Data, 2011, 10.1021/je1012235
Compound 1: (Z,Z)-9,12-octadecadienoic acid, ethyl ester, C20H36O2, purity 99%
Compound 2: ethyl 9,12,15-octadecatrienoate, C20H34O2, purity 99%
Compound 3: ethyl eicosanoate, C22H44O2, purity 98%
Compound 4: methyl palmitoleate, C17H32O2, purity 99%
Compound 5: 9,12,15-octadecatrienoic acid, methyl ester, (Z,Z,Z)-, C19H32O2, purity 99%
Compound 6: eicosanoic acid, methyl ester, C21H42O2, purity 99.5%
Compound 7: methyl cis-11-eicosenoate, C21H40O2, purity 98%
Compound 8: methyl docosanoate, C23H46O2, purity 99%
Compound 9: erucic acid, methyl ester, C23H44O2, purity 99%
Compound 10: tetracosanoic acid, methyl ester, C25H50O2, purity 99%

System: (Z,Z)-9,12-octadecadienoic acid, ethyl ester; phases: Liquid
Fixed: Pressure, kPa = 101.325
Property: Mass density, kg/m3 (Liquid); method: Vibrating tube method
Temperature, K	Mass density, kg/m3	uncertainty
278.15	893.8	.5
283.15	890	.5
288.15	886.3	.5
293.15	882.6	.5
298.15	878.8	.5
303.15	875.2	.5
308.15	871.5	.5
313.15	867.8	.5
318.15	864.2	.5
323.15	860.6	.5
328.15	856.9	.5
333.15	853.3	.5
338.15	849.7	.5
343.15	846	.5
348.15	842.4	.5
353.15	838.8	.5
358.15	835.2	.5
363.15	831.6	.5

System: (Z,Z)-9,12-octadecadienoic acid, ethyl ester; phases: Liquid
Fixed: Pressure, kPa = 101.325
Property: Viscosity, Pa*s (Liquid); method: Concentric cylinders viscometry
Temperature, K	Viscosity, Pa*s	uncertainty
278.15	.0081875	.0000409375
283.15	.0070842	.000035421
288.15	.0061652	.000030826
293.15	.0054231	.0000271155
298.15	.0048073	.0000240365
303.15	.0043074	.000021537
308.15	.0038539	.0000192695
313.15	.003406	.00001703
318.15	.0031608	.000015804
323.15	.0028291	.0000141455
328.15	.0026411	.0000132055
333.15	.0024287	.0000121435
338.15	.0022414	.000011207
343.15	.0020753	.0000103765
348.15	.001927	.000009635
353.15	.0017727	.0000088635
358.15	.0016757	.0000083785
363.15	.0015685	.0000078425

System: ethyl 9,12,15-octadecatrienoate; phases: Liquid
Fixed: Pressure, kPa = 101.325
Property: Mass density, kg/m3 (Liquid); method: Vibrating tube method
Temperature, K	Mass density, kg/m3	uncertainty
278.15	904.6	.5
283.15	900.8	.5
288.15	897	.5
293.15	893.3	.5
298.15	889.5	.5
303.15	885.8	.5
308.15	882	.5
313.15	878.3	.5
318.15	874.6	.5
323.15	870.9	.5
328.15	867.2	.5
333.15	863.5	.5
338.15	859.9	.5
343.15	856.2	.5
348.15	852.5	.5
353.15	848.9	.5
358.15	845.3	.5
363.15	841.6	.5
368.15	838	.5
373.15	834.5	.5

System: ethyl 9,12,15-octadecatrienoate; phases: Liquid
Fixed: Pressure, kPa = 101.325
Property: Viscosity, Pa*s (Liquid); method: Concentric cylinders viscometry
Temperature, K	Viscosity, Pa*s	uncertainty
278.15	.006282	.00003141
283.15	.0055379	.0000276895
288.15	.004921	.000024605
293.15	.0044014	.000022007
298.15	.0039606	.000019803
303.15	.0035831	.0000179155
308.15	.0032578	.000016289
313.15	.002975	.000014875
318.15	.0027281	.0000136405
323.15	.0025114	.000012557
328.15	.0023204	.000011602
333.15	.0021511	.0000107555
338.15	.0020004	.000010002
343.15	.0018658	.000009329
348.15	.001745	.000008725
353.15	.0016362	.000008181
358.15	.0015382	.000007691
363.15	.0014491	.0000072455
368.15	.0013684	.000006842
373.15	.001295	.000006475

System: ethyl eicosanoate; phases: Liquid
Fixed: Pressure, kPa = 101.325
Property: Mass density, kg/m3 (Liquid); method: Vibrating tube method
Temperature, K	Mass density, kg/m3	uncertainty
318.15	841.2	.5
323.15	837.7	.5
328.15	834.1	.5
333.15	830.5	.5
338.15	827	.5
343.15	823.5	.5
348.15	820	.5
353.15	816.6	.5
358.15	813.2	.5
363.15	809.7	.5
368.15	806.1	.5
373.15	802.4	.5

System: ethyl eicosanoate; phases: Liquid
Fixed: Pressure, kPa = 101.325
Property: Viscosity, Pa*s (Liquid); method: Concentric cylinders viscometry
Temperature, K	Viscosity, Pa*s	uncertainty
318.15	.0056573	.0000282865
323.15	.0049733	.0000248665
328.15	.004507	.000022535
333.15	.0040577	.0000202885
338.15	.0036714	.000018357
343.15	.0033373	.0000166865
348.15	.0030462	.000015231
353.15	.0027799	.0000138995
358.15	.002569	.000012845
363.15	.0023716	.000011858
368.15	.0021961	.0000109805
373.15	.0020395	.0000101975

System: methyl palmitoleate; phases: Liquid
Fixed: Pressure, kPa = 101.325
Property: Mass density, kg/m3 (Liquid); method: Vibrating tube method
Temperature, K	Mass density, kg/m3	uncertainty
278.15	880.4	.5
283.15	876.6	.5
288.15	872.8	.5
293.15	869	.5
298.15	865.2	.5
303.15	861.4	.5
308.15	857.6	.5
313.15	853.8	.5
318.15	850	.5
323.15	846.3	.5
328.15	842.5	.5
333.15	838.7	.5
338.15	834.9	.5
343.15	831.1	.5
348.15	827.3	.5
353.15	823.5	.5
358.15	819.8	.5
363.15	816	.5

System: methyl palmitoleate; phases: Liquid
Fixed: Pressure, kPa = 101.325
Property: Viscosity, Pa*s (Liquid); method: Concentric cylinders viscometry
Temperature, K	Viscosity, Pa*s	uncertainty
278.15	.0061685	.0000308425
283.15	.0053667	.0000268335
288.15	.0046617	.0000233085
293.15	.0041075	.0000205375
298.15	.0036471	.0000182355
303.15	.0032886	.000016443
308.15	.002943	.000014715
313.15	.0026162	.000013081
318.15	.0024218	.000012109
323.15	.0021751	.0000108755
328.15	.0020304	.000010152
333.15	.0018697	.0000093485
338.15	.0017275	.0000086375
343.15	.0015945	.0000079725
348.15	.0014822	.000007411
353.15	.0013656	.000006828
358.15	.0012898	.000006449
363.15	.001207	.000006035

System: 9,12,15-octadecatrienoic acid, methyl ester, (Z,Z,Z)-; phases: Liquid
Fixed: Pressure, kPa = 101.325
Property: Mass density, kg/m3 (Liquid); method: Vibrating tube method
Temperature, K	Mass density, kg/m3	uncertainty
278.15	913.2	.5
283.15	909.5	.5
288.15	905.7	.5
293.15	901.9	.5
298.15	898.2	.5
303.15	894.5	.5
308.15	890.7	.5
313.15	887	.5
318.15	883.3	.5
323.15	879.6	.5
328.15	876	.5
333.15	872.3	.5
338.15	868.6	.5
343.15	864.9	.5
348.15	861.2	.5
353.15	857.6	.5
358.15	853.9	.5
363.15	850.3	.5

System: 9,12,15-octadecatrienoic acid, methyl ester, (Z,Z,Z)-; phases: Liquid
Fixed: Pressure, kPa = 101.325
Property: Viscosity, Pa*s (Liquid); method: Concentric cylinders viscometry
Temperature, K	Viscosity, Pa*s	uncertainty
278.15	.0063612	.000031806
283.15	.0056183	.0000280915
288.15	.0050032	.000025016
293.15	.0044844	.000022422
298.15	.0040429	.0000202145
303.15	.0036665	.0000183325
308.15	.0033405	.0000167025
313.15	.0029253	.0000146265
318.15	.002675	.000013375
323.15	.0024725	.0000123625
328.15	.002303	.000011515
333.15	.0021234	.000010617
338.15	.0019659	.0000098295
343.15	.0018165	.0000090825
348.15	.0016878	.000008439
353.15	.0015827	.0000079135
358.15	.0014877	.0000074385
363.15	.0014021	.0000070105
368.15	.0013272	.000006636
373.15	.0012527	.0000062635

System: eicosanoic acid, methyl ester; phases: Liquid
Fixed: Pressure, kPa = 101.325
Property: Mass density, kg/m3 (Liquid); method: Vibrating tube method
Temperature, K	Mass density, kg/m3	uncertainty
323.15	842.3	.5
328.15	838.7	.5
333.15	834.9	.5
338.15	831.4	.5
343.15	827.8	.5
348.15	824.3	.5
353.15	820.8	.5
358.15	817.3	.5
363.15	813.8	.5
368.15	810.4	.5
373.15	807	.5

System: eicosanoic acid, methyl ester; phases: Liquid
Fixed: Pressure, kPa = 101.325
Property: Viscosity, Pa*s (Liquid); method: Concentric cylinders viscometry
Temperature, K	Viscosity, Pa*s	uncertainty
323.15	.0048319	.0000241595
328.15	.0043226	.000021613
333.15	.0038888	.000019444
338.15	.003517	.000017585
343.15	.0031964	.000015982
348.15	.0029177	.0000145885
353.15	.0026745	.0000133725
358.15	.0024612	.000012306
363.15	.0022726	.000011363
368.15	.0021066	.000010533
373.15	.0019591	.0000097955

System: methyl cis-11-eicosenoate; phases: Liquid
Fixed: Pressure, kPa = 101.325
Property: Mass density, kg/m3 (Liquid); method: Vibrating tube method
Temperature, K	Mass density, kg/m3	uncertainty
278.15	884.8	.5
283.15	881.1	.5
288.15	877.5	.5
293.15	873.8	.5
298.15	870.2	.5
303.15	866.6	.5
308.15	863	.5
313.15	859.5	.5
318.15	855.9	.5
323.15	852.3	.5
328.15	848.8	.5
333.15	845.2	.5
338.15	841.7	.5
343.15	838.2	.5
348.15	834.6	.5
353.15	831.1	.5
358.15	827.6	.5
363.15	824.1	.5
368.15	820.7	.5
373.15	817.3	.5

System: methyl cis-11-eicosenoate; phases: Liquid
Fixed: Pressure, kPa = 101.325
Property: Viscosity, Pa*s (Liquid); method: Concentric cylinders viscometry
Temperature, K	Viscosity, Pa*s	uncertainty
278.15	.01434	.0000717
283.15	.011975	.000059875
288.15	.010131	.000050655
293.15	.0086667	.0000433335
298.15	.0074879	.0000374395
303.15	.0065284	.000032642
308.15	.0057379	.0000286895
313.15	.0050803	.0000254015
318.15	.0045289	.0000226445
323.15	.0040624	.000020312
328.15	.0036649	.0000183245
333.15	.0033231	.0000166155
338.15	.0030278	.000015139
343.15	.0027709	.0000138545
348.15	.0025461	.0000127305
353.15	.0023484	.000011742
358.15	.0021736	.000010868
363.15	.0020186	.000010093
368.15	.0018807	.0000094035
373.15	.0017576	.000008788

System: methyl docosanoate; phases: Liquid
Fixed: Pressure, kPa = 101.325
Property: Mass density, kg/m3 (Liquid); method: Vibrating tube method
Temperature, K	Mass density, kg/m3	uncertainty
333.15	834.5	.5
338.15	831	.5
343.15	827.5	.5
348.15	824.1	.5
353.15	820.6	.5
358.15	817.2	.5
363.15	813.7	.5
368.15	810.3	.5
373.15	806.9	.5

System: methyl docosanoate; phases: Liquid
Fixed: Pressure, kPa = 101.325
Property: Viscosity, Pa*s (Liquid); method: Concentric cylinders viscometry
Temperature, K	Viscosity, Pa*s	uncertainty
333.15	.0047493	.0000237465
338.15	.0042736	.000021368
343.15	.0038657	.0000193285
348.15	.0035133	.0000175665
353.15	.0032066	.000016033
358.15	.0029392	.000014696
363.15	.0027087	.0000135435
368.15	.002502	.00001251
373.15	.0023169	.0000115845

System: erucic acid, methyl ester; phases: Liquid
Fixed: Pressure, kPa = 101.325
Property: Mass density, kg/m3 (Liquid); method: Vibrating tube method
Temperature, K	Mass density, kg/m3	uncertainty
278.15	881.6	.5
283.15	877.9	.5
288.15	874.3	.5
293.15	870.7	.5
298.15	867.1	.5
303.15	863.6	.5
308.15	860	.5
313.15	856.5	.5
318.15	853	.5
323.15	849.4	.5
328.15	845.9	.5
333.15	842.4	.5
338.15	839	.5
343.15	835.5	.5
348.15	832	.5
353.15	828.6	.5
358.15	825.1	.5
363.15	821.7	.5

System: erucic acid, methyl ester; phases: Liquid
Fixed: Pressure, kPa = 101.325
Property: Viscosity, Pa*s (Liquid); method: Concentric cylinders viscometry
Temperature, K	Viscosity, Pa*s	uncertainty
278.15	.018087	.000090435
283.15	.014943	.000074715
288.15	.012556	.00006278
293.15	.010657	.000053285
298.15	.0091414	.000045707
303.15	.0079069	.0000395345
308.15	.0069171	.0000345855
313.15	.0059575	.0000297875
318.15	.0054021	.0000270105
323.15	.0047602	.000023801
328.15	.0043306	.000021653
333.15	.00391	.00001955
338.15	.003548	.00001774
343.15	.0032344	.000016172
348.15	.0029609	.0000148045
353.15	.002707	.000013535
358.15	.0025097	.0000125485
363.15	.0023223	.0000116115

System: tetracosanoic acid, methyl ester; phases: Liquid
Fixed: Pressure, kPa = 101.325
Property: Mass density, kg/m3 (Liquid); method: Vibrating tube method
Temperature, K	Mass density, kg/m3	uncertainty
338.15	830.5	.5
343.15	827.1	.5
348.15	823.7	.5
353.15	820.3	.5
358.15	816.9	.5
363.15	813.5	.5
368.15	810.1	.5
373.15	806.8	.5

System: tetracosanoic acid, methyl ester; phases: Liquid
Fixed: Pressure, kPa = 101.325
Property: Viscosity, Pa*s (Liquid); method: Concentric cylinders viscometry
Temperature, K	Viscosity, Pa*s	uncertainty
338.15	.0051392	.000025696
343.15	.0046279	.0000231395
348.15	.0041894	.000020947
353.15	.0038102	.000019051
358.15	.0034797	.0000173985
363.15	.0031895	.0000159475
368.15	.0029327	.0000146635
373.15	.0027066	.000013533
