Measured thermophysical data. Density, Excess Molar Volume and Conductivity of Binary Mixtures of the Ionic Liquid 1,2-Dimethyl-3-hexylimidazolium Bis(trifluoromethylsulfonyl)imide and Dimethyl Carbonate
Source: J. Chem. Eng. Data, 2011, 10.1021/je100679s
Compound 1: 1-hexyl-2,3-dimethylimidazolium bis[(trifluoromethyl)sulfonyl]imide, C13H21F6N3O4S2
Compound 2: dimethyl carbonate, C3H6O3, purity 99%

System: 1-hexyl-2,3-dimethylimidazolium bis[(trifluoromethyl)sulfonyl]imide; phases: Liquid
Property: Mass density, kg/m3 (Liquid); method: Vibrating tube method
Temperature, K	Pressure, kPa	Mass density, kg/m3	uncertainty
293.15	101	1358.188	.005
298.15	101	1353.111	.005
303.15	101	1348.707	.005
308.15	101	1344.292	.005
313.15	101	1339.879	.005
318.15	101	1335.468	.005
323.15	101	1331.055	.005
328.15	101	1326.65	.005
333.15	101	1322.24	.005

System: 1-hexyl-2,3-dimethylimidazolium bis[(trifluoromethyl)sulfonyl]imide; phases: Liquid
Property: Electrical conductivity, S/m (Liquid); method: DDS-307 conductivity meter
Temperature, K	Pressure, kPa	Electrical conductivity, S/m	uncertainty
298.15	101	.108	.00108
303.15	101	.1577	.001577
308.15	101	.2134	.002134
313.15	101	.271	.00271
318.15	101	.3191	.003191
323.15	101	.3689	.003689
328.15	101	.426	.00426
333.15	101	.4801	.004801

System: dimethyl carbonate; phases: Liquid
Property: Mass density, kg/m3 (Liquid); method: Vibrating tube method
Temperature, K	Pressure, kPa	Mass density, kg/m3	uncertainty
293.15	101	1069.923	.005
298.15	101	1063.337	.005
303.15	101	1056.719	.005
308.15	101	1050.071	.005
313.15	101	1043.388	.005
318.15	101	1036.687	.005
323.15	101	1029.939	.005
328.15	101	1023.246	.005
333.15	101	1016.319	.005

System: dimethyl carbonate + 1-hexyl-2,3-dimethylimidazolium bis[(trifluoromethyl)sulfonyl]imide; phases: Liquid
Fixed: Pressure, kPa = 101
Property: Mass density, kg/m3 (Liquid); method: Vibrating tube method
Temperature, K	Mole fraction of 1-hexyl-2,3-dimethylimidazolium bis[(trifluoromethyl)sulfonyl]imide	Mass density, kg/m3	uncertainty
293.15	0	1069.923	.005
293.15	.0466	1120.021	.005
293.15	.0774	1145.967	.005
293.15	.1154	1173.259	.005
293.15	.1633	1201.7	.005
293.15	.2269	1231.144	.005
293.15	.3131	1261.37	.005
293.15	.4385	1292.476	.005
293.15	.6368	1324.48	.005
293.15	.7472	1337.221	.005
293.15	1	1358.188	.005
298.15	0	1063.337	.005
298.15	.0466	1113.88	.005
298.15	.0774	1140.013	.005
298.15	.1154	1167.458	.005
298.15	.1633	1195.922	.005
298.15	.2269	1225.504	.005
298.15	.3131	1255.942	.005
298.15	.4385	1287.184	.005
298.15	.6368	1319.317	.005
298.15	.7472	1332.182	.005
298.15	1	1353.111	.005
303.15	0	1056.719	.005
303.15	.0466	1107.709	.005
303.15	.0774	1134.134	.005
303.15	.1154	1161.839	.005
303.15	.1633	1190.526	.005
303.15	.2269	1220.217	.005
303.15	.3131	1250.93	.005
303.15	.4385	1282.322	.005
303.15	.6368	1314.702	.005
303.15	.7472	1327.652	.005
303.15	1	1348.707	.005
308.15	0	1050.071	.005
308.15	.0466	1101.519	.005
308.15	.0774	1128.205	.005
308.15	.1154	1156.118	.005
308.15	.1633	1185.04	.005
308.15	.2269	1214.852	.005
308.15	.3131	1245.851	.005
308.15	.4385	1277.481	.005
308.15	.6368	1310.137	.005
308.15	.7472	1323.097	.005
308.15	1	1344.292	.005
313.15	0	1043.388	.005
313.15	.0466	1096.103	.005
313.15	.0774	1122.998	.005
313.15	.1154	1151.087	.005
313.15	.1633	1180.199	.005
313.15	.2269	1210.16	.005
313.15	.3131	1241.279	.005
313.15	.4385	1272.945	.005
313.15	.6368	1305.673	.005
313.15	.7472	1318.619	.005
313.15	1	1339.879	.005
318.15	0	1036.687	.005
318.15	.0466	1089.11	.005
318.15	.0774	1116.298	.005
318.15	.1154	1144.641	.005
318.15	.1633	1174.051	.005
318.15	.2269	1204.452	.005
318.15	.3131	1235.847	.005
318.15	.4385	1267.89	.005
318.15	.6368	1300.91	.005
318.15	.7472	1314.09	.005
318.15	1	1335.468	.005
323.15	0	1029.939	.005
323.15	.0466	1082.852	.005
323.15	.0774	1110.319	.005
323.15	.1154	1138.89	.005
323.15	.1633	1168.728	.005
323.15	.2269	1199.159	.005
323.15	.3131	1230.719	.005
323.15	.4385	1263.009	.005
323.15	.6368	1296.312	.005
323.15	.7472	1309.514	.005
323.15	1	1331.055	.005
328.15	0	1023.246	.005
328.15	.0466	1076.68	.005
328.15	.0774	1104.425	.005
328.15	.1154	1133.315	.005
328.15	.1633	1163.271	.005
328.15	.2269	1193.979	.005
328.15	.3131	1225.631	.005
328.15	.4385	1258.144	.005
328.15	.6368	1291.79	.005
328.15	.7472	1304.969	.005
328.15	1	1326.65	.005
333.15	0	1016.319	.005
333.15	.0466	1070.279	.005
333.15	.0774	1098.507	.005
333.15	.1154	1127.614	.005
333.15	.1633	1157.769	.005
333.15	.2269	1188.579	.005
333.15	.3131	1220.429	.005
333.15	.4385	1253.164	.005
333.15	.6368	1287.102	.005
333.15	.7472	1300.467	.005
333.15	1	1322.24	.005

System: dimethyl carbonate + 1-hexyl-2,3-dimethylimidazolium bis[(trifluoromethyl)sulfonyl]imide; phases: Liquid
Fixed: Pressure, kPa = 101
Property: Electrical conductivity, S/m (Liquid); method: DDS-307 conductivity meter
Temperature, K	Mole fraction of 1-hexyl-2,3-dimethylimidazolium bis[(trifluoromethyl)sulfonyl]imide	Electrical conductivity, S/m	uncertainty
298.15	0	0	0
303.15	0	0	0
308.15	0	0	0
313.15	0	0	0
318.15	0	0	0
323.15	0	0	0
328.15	0	0	0
333.15	0	0	0
298.15	1	.108	.00108
303.15	1	.1577	.001577
298.15	.7472	.164	.00164
303.15	.7472	.2091	.002091
308.15	1	.2134	.002134
298.15	.6368	.2301	.002301
313.15	1	.271	.00271
308.15	.7472	.2751	.002751
303.15	.6368	.2961	.002961
318.15	1	.3191	.003191
298.15	.0466	.3401	.003401
313.15	.7472	.3499	.003499
308.15	.6368	.361	.00361
323.15	1	.3689	.003689
303.15	.0466	.378	.00378
318.15	.7472	.399	.00399
308.15	.0466	.416	.00416
328.15	1	.426	.00426
313.15	.6368	.4331	.004331
313.15	.0466	.4541	.004541
323.15	.7472	.469	.00469
333.15	1	.4801	.004801
318.15	.0466	.4921	.004921
318.15	.6368	.4921	.004921
298.15	.4385	.509	.00509
323.15	.0466	.5301	.005301
328.15	.7472	.5369	.005369
323.15	.6368	.5482	.005482
303.15	.4385	.553	.00553
328.15	.0466	.5681	.005681
298.15	.0774	.5792	.005792
333.15	.7472	.605	.00605
333.15	.0466	.6061	.006061
308.15	.4385	.6099	.006099
328.15	.6368	.6231	.006231
298.15	.3131	.631	.00631
303.15	.0774	.6487	.006487
313.15	.4385	.6669	.006669
333.15	.6368	.686	.00686
303.15	.3131	.6889	.006889
318.15	.4385	.706	.00706
308.15	.0774	.7182	.007182
308.15	.3131	.751	.00751
298.15	.1154	.7552	.007552
323.15	.4385	.7821	.007821
313.15	.0774	.7877	.007877
313.15	.3131	.8121	.008121
298.15	.2269	.8134	.008134
303.15	.1154	.8198	.008198
328.15	.4385	.834	.00834
298.15	.1633	.839	.00839
318.15	.0774	.8572	.008572
303.15	.2269	.8618	.008618
318.15	.3131	.876	.00876
308.15	.1154	.8842	.008842
303.15	.1633	.8931	.008931
308.15	.2269	.9101	.009101
333.15	.4385	.915	.00915
323.15	.0774	.9267	.009267
323.15	.3131	.933	.00933
308.15	.1633	.9472	.009472
313.15	.1154	.9487	.009487
313.15	.2269	.9585	.009585
328.15	.0774	.9962	.009962
328.15	.3131	.9979	.009979
313.15	.1633	1.001	.01001
318.15	.2269	1.007	.01007
318.15	.1154	1.013	.01013
323.15	.2269	1.055	.01055
318.15	.1633	1.055	.01055
333.15	.0774	1.066	.01066
333.15	.3131	1.067	.01067
323.15	.1154	1.077	.01077
328.15	.2269	1.104	.01104
323.15	.1633	1.109	.01109
328.15	.1154	1.142	.01142
333.15	.2269	1.152	.01152
328.15	.1633	1.163	.01163
333.15	.1154	1.207	.01207
333.15	.1633	1.217	.01217
