Measured thermophysical data. Interfacial Tension of n-Alkane and Ionic Liquid Systems
Source: J. Chem. Eng. Data, 2010, 10.1021/je100407f
Compound 1: 1-butyl-3-methylimidazolium hexafluorophosphate, C8H15F6N2P
Compound 2: 1-methyl-3-pentylimidazolium hexafluorophosphate, C9H17F6N2P
Compound 3: 1-hexyl-3-methylimidazolium hexafluorophosphate, C10H19F6N2P
Compound 4: 1-octyl-3-methylimidazolium hexafluorophosphate, C12H23F6N2P
Compound 5: heptane, C7H16
Compound 6: n-hexane, C6H14

System: n-hexane + 1-methyl-3-pentylimidazolium hexafluorophosphate; phases: Liquid mixture 1, Liquid mixture 2
Fixed: Pressure, kPa = 101
Property: Interfacial tension, N/m (Liquid mixture 1); method: Ring tensiometer
Temperature, K	Interfacial tension, N/m	uncertainty
283.15	.01237	.0001
293.15	.01192	.0001
313.15	.012	.0001
313.15	.01193	.0001
323.15	.01178	.0001
333.15	.01167	.0001

System: n-hexane + 1-hexyl-3-methylimidazolium hexafluorophosphate; phases: Liquid mixture 1, Liquid mixture 2
Fixed: Pressure, kPa = 101
Property: Interfacial tension, N/m (Liquid mixture 1); method: Ring tensiometer
Temperature, K	Interfacial tension, N/m	uncertainty
283.15	.00901	.0001
293.15	.0089	.0001
303.15	.00883	.0001
313.15	.00884	.0001
323.15	.00873	.0001
333.15	.00868	.0001

System: n-hexane + 1-octyl-3-methylimidazolium hexafluorophosphate; phases: Liquid mixture 1, Liquid mixture 2
Fixed: Pressure, kPa = 101
Property: Interfacial tension, N/m (Liquid mixture 1); method: Ring tensiometer
Temperature, K	Interfacial tension, N/m	uncertainty
283.15	.00489	.0001
293.15	.00477	.0001
303.15	.00466	.0001
313.15	.00452	.0001
323.15	.00445	.0001
333.15	.00446	.0001

System: heptane + 1-butyl-3-methylimidazolium hexafluorophosphate; phases: Liquid mixture 1, Liquid mixture 2
Fixed: Pressure, kPa = 101
Property: Interfacial tension, N/m (Liquid mixture 1); method: Ring tensiometer
Temperature, K	Interfacial tension, N/m	uncertainty
283.15	.01481	.0001
293.15	.01469	.0001
303.15	.01467	.0001
313.15	.01459	.0001
323.15	.0145	.0001
333.15	.01441	.0001

System: heptane + 1-methyl-3-pentylimidazolium hexafluorophosphate; phases: Liquid mixture 1, Liquid mixture 2
Fixed: Pressure, kPa = 101
Property: Interfacial tension, N/m (Liquid mixture 1); method: Ring tensiometer
Temperature, K	Interfacial tension, N/m	uncertainty
283.15	.01223	.0001
293.15	.01212	.0001
303.15	.01202	.0001
313.15	.0119	.0001
323.15	.01163	.0001
333.15	.01153	.0001

System: heptane + 1-hexyl-3-methylimidazolium hexafluorophosphate; phases: Liquid mixture 1, Liquid mixture 2
Fixed: Pressure, kPa = 101
Property: Interfacial tension, N/m (Liquid mixture 1); method: Ring tensiometer
Temperature, K	Interfacial tension, N/m	uncertainty
283.15	.00886	.0001
293.15	.00874	.0001
303.15	.00873	.0001
313.15	.00869	.0001
323.15	.00854	.0001
333.15	.00847	.0001
