Measured thermophysical data. Calorimetric Study of Nitrile Group-Solvent Interactions and Comparison with Dispersive Quasi-Chemical (DISQUAC) Predictions
Source: J. Chem. Eng. Data, 2010, 10.1021/je100489z
Compound 1: methylnitrile, C2H3N, purity 99.9%
Compound 2: ethyl cyanide, C3H5N, purity 99%
Compound 3: butanenitrile, C4H7N, purity 99%
Compound 4: 1-cyanobutane, C5H9N, purity 99.5%
Compound 5: benzene, C6H6, purity 99.7%
Compound 6: carbon tetrachloride, CCl4, purity 99.8%

System: methylnitrile; phases: Liquid
Fixed: Pressure, kPa = 101.325
Property: Mass density, kg/m3 (Liquid); method: Vibrating tube method
Temperature, K	Mass density, kg/m3	uncertainty
298.15	776.62	

System: ethyl cyanide; phases: Liquid
Fixed: Pressure, kPa = 101.325
Property: Mass density, kg/m3 (Liquid); method: Vibrating tube method
Temperature, K	Mass density, kg/m3	uncertainty
298.15	777.69	

System: butanenitrile; phases: Liquid
Fixed: Pressure, kPa = 101.325
Property: Mass density, kg/m3 (Liquid); method: Vibrating tube method
Temperature, K	Mass density, kg/m3	uncertainty
298.15	786.27	

System: 1-cyanobutane; phases: Liquid
Fixed: Pressure, kPa = 101.325
Property: Mass density, kg/m3 (Liquid); method: Vibrating tube method
Temperature, K	Mass density, kg/m3	uncertainty
298.15	794.79	

System: benzene; phases: Liquid
Fixed: Pressure, kPa = 101.325
Property: Mass density, kg/m3 (Liquid); method: Vibrating tube method
Temperature, K	Mass density, kg/m3	uncertainty
298.15	875.47	

System: carbon tetrachloride; phases: Liquid
Fixed: Pressure, kPa = 101.325
Property: Mass density, kg/m3 (Liquid); method: Vibrating tube method
Temperature, K	Mass density, kg/m3	uncertainty
298.15	1584.3	

System: benzene + methylnitrile; phases: Liquid
Fixed: Temperature, K = 298.15
Fixed: Pressure, kPa = 101
Property: Excess molar enthalpy (molar enthalpy of mixing), kJ/mol (Liquid); method: Flow calorimetry
Mole fraction of methylnitrile	Excess molar enthalpy (molar enthalpy of mixing), kJ/mol	uncertainty
.2196	.2399	.004798
.2968	.319	.00638
.3876	.3768	.007536
.4577	.4289	.008578
.5295	.4415	.00883
.628	.4522	.009044
.7169	.4239	.008478
.7715	.3988	.007976
.8351	.3188	.006376
.871	.2692	.005384
.9101	.2021	.004042

System: benzene + ethyl cyanide; phases: Liquid
Fixed: Temperature, K = 298.15
Fixed: Pressure, kPa = 101
Property: Excess molar enthalpy (molar enthalpy of mixing), kJ/mol (Liquid); method: Flow calorimetry
Mole fraction of ethyl cyanide	Excess molar enthalpy (molar enthalpy of mixing), kJ/mol	uncertainty
.0949	.0237	.000474
.1118	.0253	.000506
.1359	.0255	.00051
.1734	.0299	.000598
.1909	.0279	.000558
.2393	.0338	.000676
.2955	.0393	.000786
.3206	.0434	.000868
.3862	.0543	.001086
.4562	.0624	.001248
.4855	.0682	.001364
.5572	.0784	.001568
.6265	.0831	.001662
.6537	.08	.0016
.7156	.0819	.001638
.7906	.0762	.001524
.8342	.0668	.001336
.883	.054	.00108
.9096	.0462	.000924
.9497	.0277	.000554

System: benzene + butanenitrile; phases: Liquid
Fixed: Temperature, K = 298.15
Fixed: Pressure, kPa = 101
Property: Excess molar enthalpy (molar enthalpy of mixing), kJ/mol (Liquid); method: Flow calorimetry
Mole fraction of butanenitrile	Excess molar enthalpy (molar enthalpy of mixing), kJ/mol	uncertainty
.0922	-.0154	-.000308
.1126	-.0246	-.000492
.1447	-.0331	-.000662
.2024	-.0457	-.000914
.2528	-.0571	-.001142
.2757	-.0611	-.001222
.3367	-.0658	-.001316
.4322	-.0666	-.001332
.5037	-.0659	-.001318
.5751	-.0562	-.001124
.67	-.0434	-.000868
.7528	-.0312	-.000624
.8024	-.0229	-.000458
.8904	-.0096	-.000192
.9241	-.0059	-.000118
.9384	-.0048	-.000096

System: benzene + 1-cyanobutane; phases: Liquid
Fixed: Temperature, K = 298.15
Fixed: Pressure, kPa = 101
Property: Excess molar enthalpy (molar enthalpy of mixing), kJ/mol (Liquid); method: Flow calorimetry
Mole fraction of 1-cyanobutane	Excess molar enthalpy (molar enthalpy of mixing), kJ/mol	uncertainty
.0964	-.0355	-.00071
.1245	-.0478	-.000956
.1758	-.0711	-.001422
.2214	-.0876	-.001752
.299	-.1017	-.002034
.3625	-.1117	-.002234
.4603	-.1155	-.00231
.5321	-.1065	-.00213
.5613	-.1029	-.002058
.6305	-.0929	-.001858
.719	-.0733	-.001466
.7733	-.0597	-.001194
.8366	-.0451	-.000902
.8722	-.035	-.0007
.8951	-.0287	-.000574
.911	-.0234	-.000468
.9275	-.0198	-.000396

System: carbon tetrachloride + methylnitrile; phases: Liquid
Fixed: Temperature, K = 298.15
Fixed: Pressure, kPa = 101
Property: Excess molar enthalpy (molar enthalpy of mixing), kJ/mol (Liquid); method: Flow calorimetry
Mole fraction of methylnitrile	Excess molar enthalpy (molar enthalpy of mixing), kJ/mol	uncertainty
.1552	.5388	.010776
.1867	.5874	.011748
.2344	.6492	.012984
.3147	.7151	.014302
.3798	.7395	.01479
.4787	.7775	.01555
.5505	.7542	.015084
.6475	.6534	.013068
.7101	.5982	.011964
.7337	.5844	.011688
.786	.4851	.009702
.8305	.4286	.008572
.8802	.3209	.006418
.9484	.1561	.003122

System: carbon tetrachloride + ethyl cyanide; phases: Liquid
Fixed: Temperature, K = 298.15
Fixed: Pressure, kPa = 101
Property: Excess molar enthalpy (molar enthalpy of mixing), kJ/mol (Liquid); method: Flow calorimetry
Mole fraction of ethyl cyanide	Excess molar enthalpy (molar enthalpy of mixing), kJ/mol	uncertainty
.1025	.2755	.00551
.1205	.3169	.006338
.1859	.355	.0071
.2551	.3704	.007408
.3135	.3721	.007442
.4065	.3551	.007102
.4774	.3254	.006508
.5068	.3118	.006236
.6462	.2359	.004718
.6729	.2228	.004456
.7326	.1846	.003692
.7851	.1383	.002766
.8457	.1015	.00203
.932	.0515	.00103

System: carbon tetrachloride + butanenitrile; phases: Liquid
Fixed: Temperature, K = 298.15
Fixed: Pressure, kPa = 101
Property: Excess molar enthalpy (molar enthalpy of mixing), kJ/mol (Liquid); method: Flow calorimetry
Mole fraction of butanenitrile	Excess molar enthalpy (molar enthalpy of mixing), kJ/mol	uncertainty
.0843	.191	.00382
.0995	.2048	.004096
.1556	.2293	.004586
.2165	.2315	.00463
.2692	.2208	.004416
.293	.2166	.004332
.3559	.1723	.003446
.4242	.1425	.00285
.4532	.1333	.002666
.525	.0895	.00179
.5957	.0537	.001074
.6338	.0436	.000872
.6885	.0043	.000086
.7683	-.0196	-.000392
.8155	-.0277	-.000554
.869	-.0268	-.000536
.917	-.0215	-.00043
.9299	-.0174	-.000348

System: carbon tetrachloride + 1-cyanobutane; phases: Liquid
Fixed: Temperature, K = 298.15
Fixed: Pressure, kPa = 101
Property: Excess molar enthalpy (molar enthalpy of mixing), kJ/mol (Liquid); method: Flow calorimetry
Mole fraction of 1-cyanobutane	Excess molar enthalpy (molar enthalpy of mixing), kJ/mol	uncertainty
.0718	.1433	.002866
.0849	.152	.00304
.104	.1585	.00317
.134	.1612	.003224
.1884	.1558	.003116
.2363	.135	.0027
.317	.0874	.001748
.3823	.0491	.000982
.4814	-.009	-.00018
.5531	-.0572	-.001144
.582	-.063	-.00126
.6499	-.0896	-.001792
.7358	-.1071	-.002142
.7878	-.0973	-.001946
.8478	-.0828	-.001656
.9027	-.0622	-.001244
.9176	-.0536	-.001072
