Measured thermophysical data. Vapor-Liquid Equilibrium in the Binary Systems 2-Butanol + tert-Amyl Methyl Ether, 2-Butanol + Heptane, and Heptane + tert-Amyl Methyl Ether
Source: J. Chem. Eng. Data, 2011, 10.1021/je101250d
Compound 1: dl-sec-butyl alcohol, C4H10O, purity 99.97%
Compound 2: heptane, C7H16, purity 99.85%
Compound 3: tert-amyl methyl ether, C6H14O, purity 99.86%

System: dl-sec-butyl alcohol; phases: Liquid
Fixed: Pressure, kPa = 101.325
Property: Mass density, kg/m3 (Liquid); method: Vibrating tube method
Temperature, K	Mass density, kg/m3	uncertainty
298.15	802.98	.005

System: dl-sec-butyl alcohol; phases: Liquid, Gas
Property: Boiling temperature at pressure P, K (Liquid); method: Ebulliometric method (Recirculating still)
Pressure, kPa	Boiling temperature at pressure P, K	uncertainty
101.33	372.65	.02

System: dl-sec-butyl alcohol; phases: Liquid
Fixed: Pressure, kPa = 101.325
Property: Refractive index (Na D-line) (Liquid); method: Standard Abbe refractometry
Temperature, K	Refractive index (Na D-line)	uncertainty
298.15	1.39676	.00001

System: dl-sec-butyl alcohol; phases: Liquid, Gas
Property: Vapor or sublimation pressure, kPa (Liquid); method: Ebulliometric method (Recirculating still)
Temperature, K	Vapor or sublimation pressure, kPa	uncertainty
334.83	20.01	.03
339.42	25.01	.03
343.31	30.01	.03
346.69	35.01	.03
349.69	40.01	.03
352.38	45.01	.03
354.84	50.01	.03
357.11	55.01	.03
359.21	60.01	.03
361.55	66.01	.03
364.08	73.01	.03
366.4	80.01	.03
368.58	87.01	.03
370.61	94.01	.03
372.82	102.18	.03
354.91	50	.03
364.8	75	.03
370.66	94	.03
355.12	50	.03
365.2	75	.03
371.17	94	.03

System: heptane; phases: Liquid
Fixed: Pressure, kPa = 101.325
Property: Mass density, kg/m3 (Liquid); method: Vibrating tube method
Temperature, K	Mass density, kg/m3	uncertainty
298.15	679.55	.005

System: heptane; phases: Liquid, Gas
Property: Boiling temperature at pressure P, K (Liquid); method: Ebulliometric method (Recirculating still)
Pressure, kPa	Boiling temperature at pressure P, K	uncertainty
101.33	371.5	.02

System: heptane; phases: Liquid
Fixed: Pressure, kPa = 101.325
Property: Refractive index (Na D-line) (Liquid); method: Standard Abbe refractometry
Temperature, K	Refractive index (Na D-line)	uncertainty
298.15	1.38668	.00001

System: heptane; phases: Liquid, Gas
Property: Vapor or sublimation pressure, kPa (Liquid); method: Ebulliometric method (Recirculating still)
Temperature, K	Vapor or sublimation pressure, kPa	uncertainty
319.06	16.01	.03
329.07	24.01	.03
334.91	30.01	.03
339.08	35.01	.03
342.78	40.01	.03
346.14	45.01	.03
349.19	50.01	.03
352.01	55.01	.03
354.63	60.01	.03
357.1	65.01	.03
359.42	70.01	.03
361.59	75.01	.03
363.67	80.01	.03
366.41	87.01	.03
368.99	94.01	.03
371.63	101.74	.03
349.24	50	.03
361.66	75	.03
369.04	94	.03
349.19	50	.03
361.6	75	.03
368.98	94	.03

System: tert-amyl methyl ether; phases: Liquid
Fixed: Pressure, kPa = 101.325
Property: Mass density, kg/m3 (Liquid); method: Vibrating tube method
Temperature, K	Mass density, kg/m3	uncertainty
298.15	765.83	.005

System: tert-amyl methyl ether; phases: Liquid, Gas
Property: Boiling temperature at pressure P, K (Liquid); method: Ebulliometric method (Recirculating still)
Pressure, kPa	Boiling temperature at pressure P, K	uncertainty
101.33	359.52	.02

System: tert-amyl methyl ether; phases: Liquid
Fixed: Pressure, kPa = 101.325
Property: Refractive index (Na D-line) (Liquid); method: Standard Abbe refractometry
Temperature, K	Refractive index (Na D-line)	uncertainty
298.15	1.38712	.00001

System: tert-amyl methyl ether; phases: Liquid, Gas
Property: Vapor or sublimation pressure, kPa (Liquid); method: Ebulliometric method (Recirculating still)
Temperature, K	Vapor or sublimation pressure, kPa	uncertainty
313.44	20.01	.03
318.99	25.01	.03
323.68	30.01	.03
327.77	35.01	.03
331.41	40.01	.03
334.69	45.01	.03
337.69	50.01	.03
340.46	55.01	.03
343.03	60.01	.03
345.89	66.01	.03
348.97	73.01	.03
351.84	80.01	.03
354.52	87.01	.03
357.02	94.01	.03
359.95	102.73	.03
337.64	50	.03
349.73	75	.03
356.92	94	.03
337.66	50	.03
349.8	75	.03
357.04	94	.03

System: dl-sec-butyl alcohol + heptane; phases: Liquid, Gas
Property: Azeotropic temperature, K (Liquid); method: By X=Y
Pressure, kPa	Azeotropic temperature, K	uncertainty
50	341.69	.02
75	352.67	.02
94	359.14	.02

System: dl-sec-butyl alcohol + heptane; phases: Liquid, Gas
Property: Azeotropic composition: mole fraction of dl-sec-butyl alcohol (Liquid); method: By X=Y
Pressure, kPa	Azeotropic composition: mole fraction of dl-sec-butyl alcohol	uncertainty
50	.345	.001
75	.386	.001
94	.409	.001

System: dl-sec-butyl alcohol + heptane; phases: Liquid, Gas
Property: Boiling temperature at pressure P, K (Liquid); method: Ebulliometric method (Recirculating still)
Mole fraction of dl-sec-butyl alcohol	Pressure, kPa	Boiling temperature at pressure P, K	uncertainty
1	50	354.91	.02
.961	50	351.68	.02
.918	50	349.08	.02
.867	50	347.05	.02
.811	50	345.36	.02
.757	50	344.33	.02
.708	50	343.57	.02
.656	50	343.02	.02
.611	50	342.54	.02
.564	50	342.28	.02
.516	50	342.04	.02
.471	50	341.87	.02
.421	50	341.74	.02
.37	50	341.75	.02
.322	50	341.67	.02
.267	50	341.82	.02
.218	50	341.91	.02
.164	50	342.2	.02
.114	50	342.62	.02
.061	50	344.19	.02
0	50	349.24	.02
1	75	364.8	.02
.961	75	361.92	.02
.916	75	359.53	.02
.867	75	357.62	.02
.809	75	356.05	.02
.755	75	354.98	.02
.705	75	354.16	.02
.655	75	353.73	.02
.608	75	353.19	.02
.563	75	353.02	.02
.518	75	352.77	.02
.47	75	352.79	.02
.417	75	352.8	.02
.368	75	352.74	.02
.32	75	352.81	.02
.266	75	352.88	.02
.215	75	353.1	.02
.163	75	353.51	.02
.111	75	354.29	.02
.062	75	356.22	.02
0	75	361.66	.02
1	94	370.66	.02
.962	94	367.76	.02
.916	94	365.59	.02
.867	94	363.88	.02
.807	94	362.33	.02
.756	94	361.37	.02
.705	94	360.49	.02
.655	94	359.89	.02
.606	94	359.61	.02
.561	94	359.45	.02
.517	94	359.3	.02
.468	94	359.22	.02
.417	94	359.25	.02
.367	94	359.27	.02
.319	94	359.29	.02
.263	94	359.52	.02
.214	94	359.71	.02
.162	94	360.19	.02
.112	94	361.22	.02
.061	94	363.55	.02
0	94	369.04	.02

System: dl-sec-butyl alcohol + heptane; phases: Gas, Liquid
Property: Mole fraction of dl-sec-butyl alcohol (Gas); method: Chromatography
Mole fraction of dl-sec-butyl alcohol	Pressure, kPa	Mole fraction of dl-sec-butyl alcohol	uncertainty
1	50	1	.001
.961	50	.837	.001
.918	50	.716	.001
.867	50	.627	.001
.811	50	.557	.001
.757	50	.513	.001
.708	50	.479	.001
.656	50	.453	.001
.611	50	.432	.001
.564	50	.414	.001
.516	50	.399	.001
.471	50	.386	.001
.421	50	.371	.001
.37	50	.357	.001
.322	50	.342	.001
.267	50	.324	.001
.218	50	.307	.001
.164	50	.282	.001
.114	50	.252	.001
.061	50	.196	.001
0	50	0	.001
1	75	1	.001
.961	75	.856	.001
.916	75	.746	.001
.867	75	.661	.001
.809	75	.592	.001
.755	75	.546	.001
.705	75	.512	.001
.655	75	.486	.001
.608	75	.464	.001
.563	75	.448	.001
.518	75	.431	.001
.47	75	.416	.001
.417	75	.4	.001
.368	75	.384	.001
.32	75	.367	.001
.266	75	.347	.001
.215	75	.327	.001
.163	75	.3	.001
.111	75	.264	.001
.062	75	.197	.001
0	75	0	.001
1	94	1	.001
.962	94	.867	.001
.916	94	.763	.001
.867	94	.682	.001
.807	94	.612	.001
.756	94	.568	.001
.705	94	.533	.001
.655	94	.506	.001
.606	94	.484	.001
.561	94	.467	.001
.517	94	.45	.001
.468	94	.433	.001
.417	94	.416	.001
.367	94	.399	.001
.319	94	.381	.001
.263	94	.36	.001
.214	94	.338	.001
.162	94	.309	.001
.112	94	.269	.001
.061	94	.197	.001
0	94	0	.001

System: dl-sec-butyl alcohol + tert-amyl methyl ether; phases: Liquid, Gas
Property: Azeotropic temperature, K (Liquid); method: By X=Y
Pressure, kPa	Azeotropic temperature, K	uncertainty
50	337.64	.02
75	349.62	.02
94	356.67	.02

System: dl-sec-butyl alcohol + tert-amyl methyl ether; phases: Liquid, Gas
Property: Azeotropic composition: mole fraction of dl-sec-butyl alcohol (Liquid); method: By X=Y
Pressure, kPa	Azeotropic composition: mole fraction of dl-sec-butyl alcohol	uncertainty
50	.011	.001
75	.062	.001
94	.096	.001

System: dl-sec-butyl alcohol + tert-amyl methyl ether; phases: Liquid, Gas
Property: Boiling temperature at pressure P, K (Liquid); method: Ebulliometric method (Recirculating still)
Mole fraction of dl-sec-butyl alcohol	Pressure, kPa	Boiling temperature at pressure P, K	uncertainty
0	50	337.64	.02
.047	50	337.65	.02
.086	50	337.79	.02
.139	50	338.04	.02
.191	50	338.29	.02
.244	50	338.67	.02
.303	50	339.11	.02
.357	50	339.52	.02
.404	50	340.12	.02
.452	50	340.73	.02
.515	50	341.57	.02
.578	50	342.39	.02
.623	50	343.23	.02
.672	50	344.19	.02
.715	50	345.06	.02
.771	50	346.51	.02
.815	50	347.82	.02
.859	50	349.17	.02
.903	50	350.74	.02
.945	50	352.4	.02
1	50	355.12	.02
0	75	349.73	.02
.047	75	349.65	.02
.085	75	349.69	.02
.138	75	349.75	.02
.192	75	349.88	.02
.243	75	350.28	.02
.304	75	350.63	.02
.355	75	351.06	.02
.403	75	351.53	.02
.457	75	351.76	.02
.518	75	352.79	.02
.578	75	353.46	.02
.623	75	354.19	.02
.671	75	354.79	.02
.714	75	355.7	.02
.77	75	357.32	.02
.814	75	358.44	.02
.858	75	359.7	.02
.902	75	361.06	.02
.944	75	362.52	.02
1	75	365.2	.02
0	94	356.92	.02
.047	94	356.79	.02
.085	94	356.77	.02
.137	94	356.74	.02
.191	94	356.84	.02
.243	94	357.09	.02
.303	94	357.31	.02
.355	94	357.62	.02
.403	94	358.03	.02
.455	94	358.5	.02
.516	94	359.26	.02
.577	94	359.88	.02
.622	94	360.83	.02
.67	94	361.41	.02
.712	94	362.2	.02
.769	94	363.66	.02
.813	94	364.72	.02
.858	94	365.83	.02
.901	94	366.82	.02
.944	94	368.44	.02
1	94	371.17	.02

System: dl-sec-butyl alcohol + tert-amyl methyl ether; phases: Gas, Liquid
Property: Mole fraction of dl-sec-butyl alcohol (Gas); method: Chromatography
Mole fraction of dl-sec-butyl alcohol	Pressure, kPa	Mole fraction of dl-sec-butyl alcohol	uncertainty
0	50	0	.001
.047	50	.043	.001
.086	50	.072	.001
.139	50	.107	.001
.191	50	.138	.001
.244	50	.17	.001
.303	50	.201	.001
.357	50	.228	.001
.404	50	.255	.001
.452	50	.285	.001
.515	50	.323	.001
.578	50	.367	.001
.623	50	.399	.001
.672	50	.442	.001
.715	50	.481	.001
.771	50	.543	.001
.815	50	.603	.001
.859	50	.671	.001
.903	50	.753	.001
.945	50	.849	.001
1	50	1	.001
0	75	0	.001
.047	75	.047	.001
.085	75	.081	.001
.138	75	.119	.001
.192	75	.156	.001
.243	75	.19	.001
.304	75	.225	.001
.355	75	.255	.001
.403	75	.284	.001
.457	75	.316	.001
.518	75	.357	.001
.578	75	.4	.001
.623	75	.436	.001
.671	75	.476	.001
.714	75	.516	.001
.77	75	.58	.001
.814	75	.637	.001
.858	75	.703	.001
.902	75	.778	.001
.944	75	.866	.001
1	75	1	.001
0	94	0	.001
.047	94	.049	.001
.085	94	.085	.001
.137	94	.126	.001
.191	94	.165	.001
.243	94	.201	.001
.303	94	.238	.001
.355	94	.27	.001
.403	94	.3	.001
.455	94	.334	.001
.516	94	.376	.001
.577	94	.42	.001
.622	94	.458	.001
.67	94	.496	.001
.712	94	.536	.001
.769	94	.599	.001
.813	94	.657	.001
.858	94	.72	.001
.901	94	.791	.001
.944	94	.873	.001
1	94	1	.001

System: heptane + tert-amyl methyl ether; phases: Liquid, Gas
Property: Boiling temperature at pressure P, K (Liquid); method: Ebulliometric method (Recirculating still)
Mole fraction of heptane	Pressure, kPa	Boiling temperature at pressure P, K	uncertainty
0	50	337.66	.02
.057	50	338.02	.02
.108	50	338.35	.02
.157	50	338.73	.02
.208	50	339.06	.02
.258	50	339.44	.02
.306	50	339.81	.02
.36	50	340.25	.02
.408	50	340.79	.02
.458	50	341.31	.02
.511	50	341.85	.02
.555	50	342.28	.02
.599	50	342.88	.02
.645	50	343.45	.02
.691	50	344.01	.02
.737	50	344.74	.02
.783	50	345.44	.02
.834	50	346.23	.02
.885	50	347.05	.02
1	50	349.19	.02
0	75	349.8	.02
.059	75	350.18	.02
.109	75	350.49	.02
.158	75	350.87	.02
.208	75	351.23	.02
.258	75	351.62	.02
.307	75	352.01	.02
.36	75	352.5	.02
.408	75	352.97	.02
.459	75	353.48	.02
.511	75	353.98	.02
.556	75	354.57	.02
.6	75	355.02	.02
.645	75	355.73	.02
.691	75	356.2	.02
.738	75	357.01	.02
.783	75	357.71	.02
.834	75	358.47	.02
.885	75	359.34	.02
1	75	361.6	.02
0	94	357.04	.02
.059	94	357.39	.02
.11	94	357.73	.02
.158	94	358.11	.02
.209	94	358.46	.02
.259	94	358.86	.02
.307	94	359.29	.02
.361	94	359.8	.02
.409	94	360.27	.02
.459	94	360.78	.02
.511	94	361.25	.02
.557	94	361.78	.02
.6	94	362.3	.02
.646	94	363.01	.02
.691	94	363.5	.02
.738	94	364.31	.02
.783	94	364.88	.02
.835	94	365.8	.02
.885	94	366.7	.02
1	94	368.98	.02

System: heptane + tert-amyl methyl ether; phases: Gas, Liquid
Property: Mole fraction of heptane (Gas); method: Chromatography
Mole fraction of heptane	Pressure, kPa	Mole fraction of heptane	uncertainty
0	50	0	.001
.057	50	.044	.001
.108	50	.083	.001
.157	50	.12	.001
.208	50	.159	.001
.258	50	.196	.001
.306	50	.234	.001
.36	50	.277	.001
.408	50	.318	.001
.458	50	.361	.001
.511	50	.408	.001
.555	50	.444	.001
.599	50	.491	.001
.645	50	.537	.001
.691	50	.586	.001
.737	50	.638	.001
.783	50	.691	.001
.834	50	.755	.001
.885	50	.823	.001
1	50	1	.001
0	75	0	.001
.059	75	.046	.001
.109	75	.084	.001
.158	75	.122	.001
.208	75	.161	.001
.258	75	.2	.001
.307	75	.238	.001
.36	75	.282	.001
.408	75	.323	.001
.459	75	.366	.001
.511	75	.412	.001
.556	75	.453	.001
.6	75	.497	.001
.645	75	.542	.001
.691	75	.592	.001
.738	75	.644	.001
.783	75	.697	.001
.834	75	.76	.001
.885	75	.826	.001
1	75	1	.001
0	94	0	.001
.059	94	.046	.001
.11	94	.085	.001
.158	94	.123	.001
.209	94	.162	.001
.259	94	.203	.001
.307	94	.241	.001
.361	94	.286	.001
.409	94	.327	.001
.459	94	.37	.001
.511	94	.416	.001
.557	94	.458	.001
.6	94	.501	.001
.646	94	.544	.001
.691	94	.596	.001
.738	94	.647	.001
.783	94	.7	.001
.835	94	.763	.001
.885	94	.83	.001
1	94	1	.001
