Measured thermophysical data. Measurement and Correlation of Solubilities of (Z)-2-(2-Aminothiazol-4-yl)-2-methoxyiminoacetic Acid in Different Pure Solvents and Binary Mixtures of Water + (Ethanol, Methanol, or Glycol)
Source: J. Chem. Eng. Data, 2011, 10.1021/je101351w
Compound 1: 4-thiazoleacetic acid, 2-amino-alpha-(methoxyimino)-, (alpha-Z)-, C6H7N3O3S, purity 99.3%
Compound 2: water, H2O, purity 99.9%
Compound 3: methanol, CH4O, purity 99%
Compound 4: ethanol, C2H6O, purity 99%
Compound 5: ethylene glycol, C2H6O2, purity 99%
Compound 6: propan-1-ol, C3H8O, purity 99%

System: water + 4-thiazoleacetic acid, 2-amino-alpha-(methoxyimino)-, (alpha-Z)-; phases: Liquid, Crystal
Fixed: Pressure, kPa = 101
Property: Mole fraction of 4-thiazoleacetic acid, 2-amino-alpha-(methoxyimino)-, (alpha-Z)- (Liquid); method: Laser Monitoring System
Temperature, K	Mole fraction of 4-thiazoleacetic acid, 2-amino-alpha-(methoxyimino)-, (alpha-Z)-	uncertainty
283.67	.0003556	.000007112
288.48	.0004157	.000008314
293.22	.0004835	.00000967
298.36	.0005573	.000011146
303.22	.0006366	.000012732
307.9	.0007254	.000014508
313.25	.0008158	.000016316
317.45	.0009105	.00001821
322.9	.001015	.0000203
328.17	.001134	.00002268

System: methanol + 4-thiazoleacetic acid, 2-amino-alpha-(methoxyimino)-, (alpha-Z)-; phases: Liquid, Crystal
Fixed: Pressure, kPa = 101
Property: Mole fraction of 4-thiazoleacetic acid, 2-amino-alpha-(methoxyimino)-, (alpha-Z)- (Liquid); method: Laser Monitoring System
Temperature, K	Mole fraction of 4-thiazoleacetic acid, 2-amino-alpha-(methoxyimino)-, (alpha-Z)-	uncertainty
283.75	.0002929	.000005858
288.17	.0003343	.000006686
293.36	.0003802	.000007604
298.26	.0004301	.000008602
303.1	.0004885	.00000977
308.13	.0005568	.000011136
312.55	.0006403	.000012806
318.05	.0007397	.000014794
323.15	.0008534	.000017068
328.18	.0009812	.000019624

System: ethanol + 4-thiazoleacetic acid, 2-amino-alpha-(methoxyimino)-, (alpha-Z)-; phases: Liquid, Crystal
Fixed: Pressure, kPa = 101
Property: Mole fraction of 4-thiazoleacetic acid, 2-amino-alpha-(methoxyimino)-, (alpha-Z)- (Liquid); method: Laser Monitoring System
Temperature, K	Mole fraction of 4-thiazoleacetic acid, 2-amino-alpha-(methoxyimino)-, (alpha-Z)-	uncertainty
283.12	.00006904	.0000013808
288.42	.00008311	.0000016622
293.23	.0001007	.000002014
298.17	.0001242	.000002484
303.33	.0001506	.000003012
308.1	.0001816	.000003632
313.3	.0002227	.000004454
318.27	.0002759	.000005518
323.13	.0003341	.000006682
328.18	.0003967	.000007934

System: ethylene glycol + 4-thiazoleacetic acid, 2-amino-alpha-(methoxyimino)-, (alpha-Z)-; phases: Liquid, Crystal
Fixed: Pressure, kPa = 101
Property: Mole fraction of 4-thiazoleacetic acid, 2-amino-alpha-(methoxyimino)-, (alpha-Z)- (Liquid); method: Laser Monitoring System
Temperature, K	Mole fraction of 4-thiazoleacetic acid, 2-amino-alpha-(methoxyimino)-, (alpha-Z)-	uncertainty
283.11	.001295	.0000259
288.68	.001518	.00003036
293.41	.001747	.00003494
298.26	.002002	.00004004
303.46	.002304	.00004608
308.44	.002642	.00005284
313.66	.003058	.00006116
318.42	.003657	.00007314
323.15	.004341	.00008682
328.65	.005084	.00010168

System: propan-1-ol + 4-thiazoleacetic acid, 2-amino-alpha-(methoxyimino)-, (alpha-Z)-; phases: Liquid, Crystal
Fixed: Pressure, kPa = 101
Property: Mole fraction of 4-thiazoleacetic acid, 2-amino-alpha-(methoxyimino)-, (alpha-Z)- (Liquid); method: Laser Monitoring System
Temperature, K	Mole fraction of 4-thiazoleacetic acid, 2-amino-alpha-(methoxyimino)-, (alpha-Z)-	uncertainty
282.85	.00002141	.0000004282
288.05	.0000249	.000000498
293.09	.00003099	.0000006198
298.3	.00004245	.000000849
303.08	.00005937	.0000011874
308.27	.00008066	.0000016132
313.13	.0001084	.000002168
318.05	.0001419	.000002838
323.55	.0001807	.000003614
328.13	.0002246	.000004492

System: methanol + water + 4-thiazoleacetic acid, 2-amino-alpha-(methoxyimino)-, (alpha-Z)-; phases: Liquid, Crystal
Fixed: Pressure, kPa = 101
Property: Mole fraction of 4-thiazoleacetic acid, 2-amino-alpha-(methoxyimino)-, (alpha-Z)- (Liquid); method: Laser Monitoring System
Solvent: Mole fraction of water	Temperature, K	Mole fraction of 4-thiazoleacetic acid, 2-amino-alpha-(methoxyimino)-, (alpha-Z)-	uncertainty
0	283.75	.0002929	.000005858
0	288.17	.0003343	.000006686
0	293.36	.0003802	.000007604
0	298.26	.0004301	.000008602
0	303.1	.0004885	.00000977
.08605	283.04	.0002913	.000005826
.08605	288.27	.0003463	.000006926
.08605	293.32	.0004081	.000008162
.08605	298.27	.0004749	.000009498
.08605	303.36	.0005442	.000010884
.323	283.23	.0003071	.000006142
.323	288.1	.0003563	.000007126
.323	293.26	.000415	.0000083
.323	298.39	.0004838	.000009676
.323	302.72	.000546	.00001092
.5381	283.09	.0003354	.000006708
.5381	288.29	.0003873	.000007746
.5381	293.13	.0004569	.000009138
.5381	298.44	.0005381	.000010762
.5381	303.45	.0006203	.000012406
.6387	282.67	.0003544	.000007088
.6387	288.2	.0004204	.000008408
.6387	293.33	.0005049	.000010098
.6387	298.5	.0005912	.000011824
.6387	303.45	.0006857	.000013714
.7111	283.08	.0003465	.00000693
.7111	287.91	.0004054	.000008108
.7111	293	.0004819	.000009638
.7111	298.02	.0005676	.000011352
.7111	303.44	.0006661	.000013322
.877	283.22	.0003304	.000006608
.877	288.36	.0003857	.000007714
.877	293.17	.0004474	.000008948
.877	298.45	.0005233	.000010466
.877	303.22	.0006017	.000012034
1	283.67	.0003556	.000007112
1	288.48	.0004157	.000008314
1	293.22	.0004835	.00000967
1	298.36	.0005573	.000011146
1	303.22	.0006366	.000012732
0	308.13	.0005568	.000011136
0	312.55	.0006403	.000012806
0	318.05	.0007397	.000014794
0	323.15	.0008534	.000017068
0	328.18	.0009812	.000019624
.08605	307.65	.000616	.00001232
.08605	312.55	.0007025	.00001405
.08605	317.54	.0008002	.000016004
.08605	322.8	.000917	.00001834
.08605	328.16	.001048	.00002096
.323	307.96	.000627	.00001254
.323	312.87	.0007203	.000014406
.323	318.17	.000833	.00001666
.323	323.2	.0009467	.000018934
.323	327.96	.001069	.00002138
.5381	308.4	.0007311	.000014622
.5381	313.64	.0008801	.000017602
.5381	318.26	.00104	.0000208
.5381	323.16	.001229	.00002458
.5381	328.14	.001406	.00002812
.6387	308.17	.000794	.00001588
.6387	312.83	.0009171	.000018342
.6387	318.6	.001074	.00002148
.6387	323.5	.001243	.00002486
.6387	328.64	.001436	.00002872
.7111	308.42	.0007732	.000015464
.7111	313.25	.0009271	.000018542
.7111	318.16	.001095	.0000219
.7111	323.24	.001296	.00002592
.7111	328.14	.001488	.00002976
.877	308.48	.000689	.00001378
.877	313.24	.0007789	.000015578
.877	318.4	.0008758	.000017516
.877	323.2	.0009808	.000019616
.877	328	.001096	.00002192
1	307.9	.0007254	.000014508
1	313.25	.0008158	.000016316
1	317.45	.0009105	.00001821
1	322.9	.001015	.0000203
1	328.17	.001134	.00002268

System: ethanol + water + 4-thiazoleacetic acid, 2-amino-alpha-(methoxyimino)-, (alpha-Z)-; phases: Liquid, Crystal
Fixed: Pressure, kPa = 101
Property: Mole fraction of 4-thiazoleacetic acid, 2-amino-alpha-(methoxyimino)-, (alpha-Z)- (Liquid); method: Laser Monitoring System
Solvent: Mole fraction of water	Temperature, K	Mole fraction of 4-thiazoleacetic acid, 2-amino-alpha-(methoxyimino)-, (alpha-Z)-	uncertainty
0	283.12	.00006904	.0000013808
0	288.42	.00008311	.0000016622
0	293.23	.0001007	.000002014
0	298.17	.0001242	.000002484
0	303.33	.0001506	.000003012
.2285	283.09	.00009968	.0000019936
.2285	288.07	.0001206	.000002412
.2285	293.13	.0001422	.000002844
.2285	298.21	.0001669	.000003338
.2285	303.21	.0001924	.000003848
.5285	283.12	.0001406	.000002812
.5285	288.45	.0001919	.000003838
.5285	293.13	.0002556	.000005112
.5285	298.21	.0003199	.000006398
.5285	303.15	.000385	.0000077
.7194	283.15	.0002004	.000004008
.7194	288.23	.0002536	.000005072
.7194	293.17	.0003234	.000006468
.7194	298.4	.0004115	.00000823
.7194	303.55	.0005191	.000010382
.7929	283.15	.0002534	.000005068
.7929	288.62	.0003112	.000006224
.7929	293.21	.0003903	.000007806
.7929	298.4	.0004783	.000009566
.7929	303.51	.0005807	.000011614
.8566	282.79	.0002927	.000005854
.8566	288.07	.0003504	.000007008
.8566	293.04	.0004214	.000008428
.8566	298.24	.0005039	.000010078
.8566	303.33	.0006084	.000012168
.953	282.98	.000328	.00000656
.953	288.49	.0003985	.00000797
.953	293.53	.0004746	.000009492
.953	298.27	.0005347	.000010694
.953	303.25	.0006139	.000012278
1	283.67	.0003556	.000007112
1	288.48	.0004157	.000008314
1	293.22	.0004835	.00000967
1	298.36	.0005573	.000011146
1	303.22	.0006366	.000012732
0	308.1	.0001816	.000003632
0	313.3	.0002227	.000004454
0	318.27	.0002759	.000005518
0	323.13	.0003341	.000006682
0	328.18	.0003967	.000007934
.2285	308.31	.0002215	.00000443
.2285	313.34	.000264	.00000528
.2285	318.25	.0003293	.000006586
.2285	323.35	.0004192	.000008384
.2285	328.15	.0005187	.000010374
.5285	308.28	.000451	.00000902
.5285	313.34	.0005195	.00001039
.5285	318.25	.0006154	.000012308
.5285	323.25	.0007412	.000014824
.5285	328.15	.0008688	.000017376
.7194	308.51	.00063	.0000126
.7194	313.25	.0007463	.000014926
.7194	318.29	.0008704	.000017408
.7194	323.35	.001029	.00002058
.7194	328.15	.001214	.00002428
.7929	308.53	.0006901	.000013802
.7929	313.67	.0008127	.000016254
.7929	318.39	.0009496	.000018992
.7929	323.35	.001099	.00002198
.7929	328.15	.001283	.00002566
.8566	308.53	.0007165	.00001433
.8566	313.26	.0008366	.000016732
.8566	318.39	.0009927	.000019854
.8566	323.25	.001152	.00002304
.8566	328.15	.001336	.00002672
.953	308.41	.000704	.00001408
.953	313.57	.0007999	.000015998
.953	318.35	.0009097	.000018194
.953	323.07	.001023	.00002046
.953	328.05	.001157	.00002314
1	307.9	.0007254	.000014508
1	313.25	.0008158	.000016316
1	317.45	.0009105	.00001821
1	322.9	.001015	.0000203
1	328.17	.001134	.00002268

System: ethylene glycol + water + 4-thiazoleacetic acid, 2-amino-alpha-(methoxyimino)-, (alpha-Z)-; phases: Liquid, Crystal
Fixed: Pressure, kPa = 101
Property: Mole fraction of 4-thiazoleacetic acid, 2-amino-alpha-(methoxyimino)-, (alpha-Z)- (Liquid); method: Laser Monitoring System
Solvent: Mole fraction of water	Temperature, K	Mole fraction of 4-thiazoleacetic acid, 2-amino-alpha-(methoxyimino)-, (alpha-Z)-	uncertainty
0	283.11	.001295	.0000259
0	288.68	.001518	.00003036
0	293.41	.001747	.00003494
0	298.26	.002002	.00004004
0	303.46	.002304	.00004608
.2851	283.16	.001189	.00002378
.2851	288.25	.001387	.00002774
.2851	293.35	.001605	.0000321
.2851	298.13	.001866	.00003732
.2851	303.22	.002156	.00004312
.3825	283.1	.001057	.00002114
.3825	288.49	.001253	.00002506
.3825	293.31	.001465	.0000293
.3825	298.14	.001701	.00003402
.3825	303.15	.001949	.00003898
.4765	283.12	.0009394	.000018788
.4765	288.71	.001089	.00002178
.4765	293.33	.001248	.00002496
.4765	298.26	.001427	.00002854
.4765	303.34	.001618	.00003236
.6027	282.87	.0007851	.000015702
.6027	288.56	.0009177	.000018354
.6027	293.23	.001056	.00002112
.6027	298.23	.001205	.0000241
.6027	303.35	.001358	.00002716
.6523	283.1	.0007102	.000014204
.6523	288.61	.0008011	.000016022
.6523	292.96	.0009084	.000018168
.6523	298.37	.001035	.0000207
.6523	303.55	.001168	.00002336
.7757	284.09	.0005402	.000010804
.7757	287.69	.0006219	.000012438
.7757	293.24	.0007212	.000014424
.7757	298.32	.0008268	.000016536
.7757	303.49	.0009465	.00001893
.8374	282.97	.0004877	.000009754
.8374	288.24	.0005667	.000011334
.8374	292.94	.0006482	.000012964
.8374	298.32	.0007481	.000014962
.8374	303.62	.0008572	.000017144
.9372	283.25	.0004164	.000008328
.9372	288.44	.000493	.00000986
.9372	293.2	.0005715	.00001143
.9372	298.2	.0006536	.000013072
.9372	303.35	.0007454	.000014908
.9836	283.23	.000397	.00000794
.9836	288.25	.0004624	.000009248
.9836	293.25	.000529	.00001058
.9836	298.3	.0006022	.000012044
.9836	303.33	.0006806	.000013612
1	283.67	.0003556	.000007112
1	288.48	.0004157	.000008314
1	293.22	.0004835	.00000967
1	298.36	.0005573	.000011146
1	303.22	.0006366	.000012732
0	308.44	.002642	.00005284
0	313.66	.003058	.00006116
0	318.42	.003657	.00007314
0	323.15	.004341	.00008682
0	328.65	.005084	.00010168
.2851	308.31	.002455	.0000491
.2851	313.17	.002812	.00005624
.2851	318.32	.003342	.00006684
.2851	323.15	.003939	.00007878
.2851	328.15	.00459	.0000918
.3825	308.28	.002219	.00004438
.3825	313.56	.002522	.00005044
.3825	318.06	.002924	.00005848
.3825	323.15	.003367	.00006734
.3825	328.25	.00387	.0000774
.4765	308.58	.001808	.00003616
.4765	313.52	.002003	.00004006
.4765	318.12	.002344	.00004688
.4765	322.97	.002726	.00005452
.4765	327.75	.003163	.00006326
.6027	308.72	.001511	.00003022
.6027	313.21	.001679	.00003358
.6027	318.22	.001958	.00003916
.6027	323.17	.002283	.00004566
.6027	327.95	.002661	.00005322
.6523	308.41	.001315	.0000263
.6523	313.55	.001485	.0000297
.6523	318.42	.001757	.00003514
.6523	322.64	.00204	.0000408
.6523	328.05	.002341	.00004682
.7757	308.39	.00109	.0000218
.7757	313.02	.001253	.00002506
.7757	318.57	.001463	.00002926
.7757	323.55	.00176	.0000352
.7757	329.54	.002149	.00004298
.8374	308.54	.0009787	.000019574
.8374	313.09	.001112	.00002224
.8374	318.39	.001305	.0000261
.8374	322.76	.001504	.00003008
.8374	327.85	.001722	.00003444
.9372	308.35	.0008514	.000017028
.9372	313.15	.0009791	.000019582
.9372	318.06	.001148	.00002296
.9372	323.25	.001342	.00002684
.9372	330.25	.001572	.00003144
.9836	308.25	.0007719	.000015438
.9836	313	.0008822	.000017644
.9836	318.03	.001021	.00002042
.9836	323.15	.001186	.00002372
.9836	330.3	.001383	.00002766
1	307.9	.0007254	.000014508
1	313.25	.0008158	.000016316
1	317.45	.0009105	.00001821
1	322.9	.001015	.0000203
1	328.17	.001134	.00002268
