Measured thermophysical data. Surface Tensions of the Ternary Mixtures Containing an Isomeric Butanol + n-Hexane + 1-Chlorobutane at 298.15 K
Source: J. Chem. Eng. Data, 2010, 10.1021/je100177u
Compound 1: butan-1-ol, C4H10O
Compound 2: isobutanol, C4H10O
Compound 3: tert-butanol, C4H10O
Compound 4: dl-sec-butyl alcohol, C4H10O
Compound 5: n-hexane, C6H14
Compound 6: 1-chlorobutane, C4H9Cl

System: butan-1-ol; phases: Liquid
Fixed: Pressure, kPa = 101.325
Property: Mass density, kg/m3 (Liquid); method: Vibrating tube method
Temperature, K	Mass density, kg/m3	uncertainty
298.15	805.8	

System: butan-1-ol; phases: Liquid, Air at 1 atmosphere
Property: Surface tension liquid-gas, N/m (Liquid); method: Drop volume
Temperature, K	Surface tension liquid-gas, N/m	uncertainty
298.15	.02425	.00001

System: isobutanol; phases: Liquid
Fixed: Pressure, kPa = 101.325
Property: Mass density, kg/m3 (Liquid); method: Vibrating tube method
Temperature, K	Mass density, kg/m3	uncertainty
298.15	797.77	

System: isobutanol; phases: Liquid, Air at 1 atmosphere
Property: Surface tension liquid-gas, N/m (Liquid); method: Drop volume
Temperature, K	Surface tension liquid-gas, N/m	uncertainty
298.15	.02247	.00001

System: tert-butanol; phases: Liquid
Fixed: Pressure, kPa = 101.325
Property: Mass density, kg/m3 (Liquid); method: Vibrating tube method
Temperature, K	Mass density, kg/m3	uncertainty
298.15	780.78	

System: tert-butanol; phases: Liquid, Air at 1 atmosphere
Property: Surface tension liquid-gas, N/m (Liquid); method: Drop volume
Temperature, K	Surface tension liquid-gas, N/m	uncertainty
298.15	.0203	.00001

System: dl-sec-butyl alcohol; phases: Liquid
Fixed: Pressure, kPa = 101.325
Property: Mass density, kg/m3 (Liquid); method: Vibrating tube method
Temperature, K	Mass density, kg/m3	uncertainty
298.15	802.44	

System: dl-sec-butyl alcohol; phases: Liquid, Air at 1 atmosphere
Property: Surface tension liquid-gas, N/m (Liquid); method: Drop volume
Temperature, K	Surface tension liquid-gas, N/m	uncertainty
298.15	.02308	.00001

System: n-hexane; phases: Liquid
Fixed: Pressure, kPa = 101.325
Property: Mass density, kg/m3 (Liquid); method: Vibrating tube method
Temperature, K	Mass density, kg/m3	uncertainty
298.15	655.07	

System: n-hexane; phases: Liquid, Air at 1 atmosphere
Property: Surface tension liquid-gas, N/m (Liquid); method: Drop volume
Temperature, K	Surface tension liquid-gas, N/m	uncertainty
298.15	.01806	.00001

System: 1-chlorobutane; phases: Liquid
Fixed: Pressure, kPa = 101.325
Property: Mass density, kg/m3 (Liquid); method: Vibrating tube method
Temperature, K	Mass density, kg/m3	uncertainty
298.15	880.69	

System: 1-chlorobutane; phases: Liquid, Air at 1 atmosphere
Property: Surface tension liquid-gas, N/m (Liquid); method: Drop volume
Temperature, K	Surface tension liquid-gas, N/m	uncertainty
298.15	.02329	.00001

System: butan-1-ol + 1-chlorobutane + n-hexane; phases: Liquid, Air at 1 atmosphere
Fixed: Temperature, K = 298.15
Property: Surface tension liquid-gas, N/m (Liquid); method: Drop volume
Mole fraction of butan-1-ol	Mole fraction of n-hexane	Surface tension liquid-gas, N/m	uncertainty
.061	.8385	.01845	.00001
.0544	.8825	.01834	.00001
.1013	.1103	.02222	.00001
.1029	.2001	.02148	.00001
.107	.2967	.0208	.00001
.1064	.3976	.02023	.00001
.1027	.5004	.01972	.00001
.1008	.5934	.0193	.00001
.1118	.6834	.01892	.00001
.1131	.7856	.01859	.00001
.1082	.838	.01841	.00001
.2064	.1976	.02143	.00001
.1992	.3017	.02064	.00001
.1955	.4013	.02004	.00001
.2022	.4943	.01959	.00001
.2994	.2032	.02126	.00001
.2978	.3007	.02059	.00001
.3007	.3962	.02006	.00001
.2991	.4992	.01957	.00001
.3975	.3998	.02	.00001
.3945	.5028	.01947	.00001
.4908	.1046	.02219	.00001
.4948	.2019	.0213	.00001
.4892	.3061	.02053	.00001
.4947	.4	.01991	.00001
.5932	.1028	.02233	.00001
.5911	.2022	.02135	.00001
.5939	.302	.02053	.00001
.6883	.202	.02138	.00001
.7934	.1003	.02254	.00001
.8459	.0516	.02323	.00001
.8394	.1004	.02262	.00001
.2067	.5932	.01921	.00001
.2975	.2017	.02128	.00001
.2985	.6004	.01916	.00001
.3985	.199	.02128	.00001
.3985	.3028	.02049	.00001
.2009	.0957	.02229	.00001
.2971	.0986	.02222	.00001
.3997	.097	.02224	.00001
.0585	.052	.0228	.00001
.0611	.101	.02236	.00001
.097	.0535	.02277	.00001
.2037	.6971	.01887	.00001
.6885	.1019	.0224	.00001

System: butan-1-ol + 1-chlorobutane + n-hexane; phases: Liquid
Fixed: Pressure, kPa = 101
Fixed: Temperature, K = 298.15
Property: Mass density, kg/m3 (Liquid); method: Vibrating tube method
Mole fraction of butan-1-ol	Mole fraction of n-hexane	Mass density, kg/m3	uncertainty
.061	.8385	679.96	.01
.0544	.8825	672.11	.01
.1013	.1103	842.45	.01
.1029	.2001	818.54	.01
.107	.2967	793.9	.01
.1064	.3976	769.69	.01
.1027	.5004	746.47	.01
.1008	.5934	726.27	.01
.1118	.6834	706.66	.01
.1131	.7856	686.17	.01
.1082	.838	676.41	.01
.2064	.1976	811.64	.01
.1992	.3017	785.8	.01
.1955	.4013	762.19	.01
.2022	.4943	740.35	.01
.2994	.2032	803.51	.01
.2978	.3007	778.89	.01
.3007	.3962	755.62	.01
.2991	.4992	732.16	.01
.3975	.3998	747.75	.01
.3945	.5028	724.23	.01
.4908	.1046	816.1	.01
.4948	.2019	789.75	.01
.4892	.3061	763.6	.01
.4947	.4	740.38	.01
.5932	.1028	809.09	.01
.5911	.2022	782.51	.01
.5939	.302	756.67	.01
.6883	.202	775.01	.01
.7934	.1003	794.26	.01
.8459	.0516	803.78	.01
.8394	.1004	790.44	.01
.2067	.5932	718.43	.01
.2975	.2017	803.98	.01
.2985	.6004	710.07	.01
.3985	.199	797.45	.01
.3985	.3028	771.1	.01
.2009	.0957	839.21	.01
.2971	.0986	831.6	.01
.3997	.097	824.73	.01
.0585	.052	861.58	.01
.0611	.101	847.92	.01
.097	.0535	858.31	.01
.2037	.6971	696.94	.01
.6885	.1019	802.12	.01

System: dl-sec-butyl alcohol + 1-chlorobutane + n-hexane; phases: Liquid, Air at 1 atmosphere
Fixed: Temperature, K = 298.15
Property: Surface tension liquid-gas, N/m (Liquid); method: Drop volume
Mole fraction of dl-sec-butyl alcohol	Mole fraction of n-hexane	Surface tension liquid-gas, N/m	uncertainty
.0507	.0506	.02272	.00001
.0499	.0996	.02233	.00001
.0494	.8511	.01848	.00001
.0478	.8511	.01848	.00001
.1033	.0453	.02266	.00001
.0938	.1	.0222	.00001
.0955	.2017	.02145	.00001
.1003	.297	.02085	.00001
.1013	.3996	.02036	.00001
.093	.5062	.01984	.00001
.096	.6002	.01948	.00001
.0963	.7002	.01908	.00001
.0975	.8012	.01859	.00001
.1016	.8468	.0184	.00001
.1979	.1001	.022	.00001
.1952	.1965	.02127	.00001
.1976	.3022	.02069	.00001
.1906	.403	.02023	.00001
.1959	.4987	.01979	.00001
.1996	.601	.0193	.00001
.1952	.7051	.01884	.00001
.2955	.0997	.02187	.00001
.2947	.2037	.02109	.00001
.2949	.3049	.02051	.00001
.2106	.4519	.02001	.00001
.2964	.5036	.0196	.00001
.2917	.607	.01908	.00001
.3929	.0969	.0218	.00001
.3964	.2002	.02098	.00001
.4153	.2923	.02039	.00001
.3959	.4013	.01987	.00001
.396	.5037	.01932	.00001
.4907	.1023	.02165	.00001
.4949	.198	.02086	.00001
.4957	.3024	.02024	.00001
.491	.4048	.0197	.00001
.594	.1013	.02165	.00001
.8005	.1002	.02183	.00001
.5913	.2029	.02085	.00001
.5967	.3014	.02021	.00001
.6916	.1007	.02177	.00001
.6921	.201	.02089	.00001
.8529	.0472	.02245	.00001
.8477	.0989	.02189	.00001
.9003	.0477	.02249	.00001

System: dl-sec-butyl alcohol + 1-chlorobutane + n-hexane; phases: Liquid
Fixed: Pressure, kPa = 101
Fixed: Temperature, K = 298.15
Property: Mass density, kg/m3 (Liquid); method: Vibrating tube method
Mole fraction of dl-sec-butyl alcohol	Mole fraction of n-hexane	Mass density, kg/m3	uncertainty
.0507	.0506	861.76	.01
.0499	.0996	848.4	.01
.0494	.8511	677.85	.01
.0478	.8511	678.06	.01
.1033	.0453	858.71	.01
.0938	.1	844.47	.01
.0955	.2017	817.38	.01
.1003	.297	793	.01
.1013	.3996	768.35	.01
.093	.5062	744.77	.01
.096	.6002	724.11	.01
.0963	.7002	703.32	.01
.0975	.8012	683.21	.01
.1016	.8468	674.09	.01
.1979	.1001	835.81	.01
.1952	.1965	810.38	.01
.1976	.3022	783.57	.01
.1906	.403	760	.01
.1959	.4987	737.71	.01
.1996	.601	715.19	.01
.1952	.7051	694.09	.01
.2955	.0997	828.21	.01
.2947	.2037	800.57	.01
.2949	.3049	775.01	.01
.2106	.4519	747.08	.01
.2964	.5036	728.53	.01
.2917	.607	706.51	.01
.3929	.0969	821.47	.01
.3964	.2002	793.62	.01
.4153	.2923	768.77	.01
.3959	.4013	744.03	.01
.396	.5037	720.6	.01
.4907	.1023	812.56	.01
.4949	.198	786.61	.01
.4957	.3024	760.1	.01
.491	.4048	735.72	.01
.594	.1013	804.99	.01
.8005	.1002	789.6	.01
.5913	.2029	778.01	.01
.5967	.3014	752.53	.01
.6916	.1007	797.79	.01
.6921	.201	770.84	.01
.8529	.0472	800.43	.01
.8477	.0989	786.32	.01
.9003	.0477	796.56	.01

System: isobutanol + 1-chlorobutane + n-hexane; phases: Liquid, Air at 1 atmosphere
Fixed: Temperature, K = 298.15
Property: Surface tension liquid-gas, N/m (Liquid); method: Drop volume
Mole fraction of isobutanol	Mole fraction of n-hexane	Surface tension liquid-gas, N/m	uncertainty
.0512	.0457	.0227	.00001
.052	.1032	.02218	.00001
.0588	.8475	.01851	.00001
.052	.89	.01838	.00001
.1064	.0506	.02259	.00001
.0973	.0987	.02214	.00001
.1016	.2005	.02136	.00001
.1049	.295	.02076	.00001
.1041	.3969	.02018	.00001
.0987	.5006	.01967	.00001
.0989	.5963	.01926	.00001
.099	.6987	.01889	.00001
.1001	.8025	.01861	.00001
.1045	.8432	.01844	.00001
.1986	.1	.022	.00001
.2026	.2015	.02122	.00001
.2014	.3023	.02054	.00001
.2038	.4007	.01997	.00001
.2022	.4965	.0195	.00001
.1998	.6018	.01905	.00001
.1981	.705	.01869	.00001
.2963	.2016	.02105	.00001
.2571	.2556	.02074	.00001
.2999	.3973	.01979	.00001
.2969	.5036	.01927	.00001
.2923	.605	.01889	.00001
.3954	.1012	.02177	.00001
.3944	.2042	.0209	.00001
.3958	.3031	.0202	.00001
.3971	.4012	.01964	.00001
.4512	.4576	.01928	.00001
.4973	.0994	.02171	.00001
.4957	.2035	.02081	.00001
.4953	.3007	.02012	.00001
.498	.4053	.01951	.00001
.5946	.1032	.02163	.00001
.5975	.2049	.02073	.00001
.5959	.3059	.02007	.00001
.7002	.1011	.02169	.00001
.7024	.2009	.02081	.00001
.7978	.1016	.0217	.00001
.8494	.0514	.02224	.00001
.898	.0489	.02219	.00001

System: isobutanol + 1-chlorobutane + n-hexane; phases: Liquid
Fixed: Pressure, kPa = 101
Fixed: Temperature, K = 298.15
Property: Mass density, kg/m3 (Liquid); method: Vibrating tube method
Mole fraction of isobutanol	Mole fraction of n-hexane	Mass density, kg/m3	uncertainty
.0512	.0457	863.32	.01
.052	.1032	847.47	.01
.0588	.8475	677.96	.01
.052	.89	670.58	.01
.1064	.0506	857.37	.01
.0973	.0987	844.8	.01
.1016	.2005	817.47	.01
.1049	.295	793.4	.01
.1041	.3969	768.94	.01
.0987	.5006	745.68	.01
.0989	.5963	724.85	.01
.099	.6987	703.62	.01
.1001	.8025	683.04	.01
.1045	.8432	674.9	.01
.1986	.1	836.19	.01
.2026	.2015	808.98	.01
.2014	.3023	783.58	.01
.2038	.4007	759.77	.01
.2022	.4965	737.98	.01
.1998	.6018	715.31	.01
.1981	.705	694.12	.01
.2963	.2016	801.49	.01
.2571	.2556	790.74	.01
.2999	.3973	752.9	.01
.2969	.5036	728.82	.01
.2923	.605	707.18	.01
.3954	.1012	820.49	.01
.3944	.2042	793.14	.01
.3958	.3031	767.97	.01
.3971	.4012	744.27	.01
.4512	.4576	726.76	.01
.4973	.0994	812.9	.01
.4957	.2035	785.24	.01
.4953	.3007	760.64	.01
.498	.4053	735.11	.01
.5946	.1032	804.04	.01
.5975	.2049	776.66	.01
.5959	.3059	751.02	.01
.7002	.1011	795.83	.01
.7024	.2009	768.74	.01
.7978	.1016	787.12	.01
.8494	.0514	796.65	.01
.898	.0489	792.95	.01

System: tert-butanol + 1-chlorobutane + n-hexane; phases: Liquid, Air at 1 atmosphere
Fixed: Temperature, K = 298.15
Property: Surface tension liquid-gas, N/m (Liquid); method: Drop volume
Mole fraction of tert-butanol	Mole fraction of n-hexane	Surface tension liquid-gas, N/m	uncertainty
.0507	.0505	.02244	.00001
.0625	.099	.02197	.00001
.0665	.8392	.0184	.00001
.0615	.8854	.01826	.00001
.1175	.0963	.02173	.00001
.101	.1991	.02105	.00001
.0991	.3002	.02046	.00001
.1128	.3938	.01992	.00001
.1017	.4987	.01949	.00001
.1047	.6016	.01905	.00001
.1027	.6989	.01873	.00001
.1202	.7866	.01838	.00001
.1015	.8488	.01825	.00001
.2078	.098	.02136	.00001
.2016	.1997	.02066	.00001
.1849	.3571	.01984	.00001
.2117	.4959	.01912	.00001
.1925	.6063	.01874	.00001
.2062	.6934	.01842	.00001
.2955	.1049	.021	.00001
.2939	.2018	.02031	.00001
.2968	.3039	.0197	.00001
.2967	.4034	.01923	.00001
.3034	.4998	.01882	.00001
.2986	.6032	.01844	.00001
.3991	.1013	.02068	.00001
.3976	.2042	.01994	.00001
.4048	.2928	.01942	.00001
.3963	.4018	.01895	.00001
.3961	.5071	.01853	.00001
.4963	.1012	.02041	.00001
.4956	.2032	.01971	.00001
.4968	.3046	.01916	.00001
.496	.408	.01875	.00001
.5958	.1031	.02013	.00001
.5995	.2013	.01947	.00001
.5927	.3065	.01896	.00001
.699	.0987	.01998	.00001
.6988	.2025	.01934	.00001
.798	.1028	.01987	.00001
.8487	.0503	.02017	.00001
.8512	.0978	.0198	.00001
.8926	.0532	.02007	.00001

System: tert-butanol + 1-chlorobutane + n-hexane; phases: Liquid
Fixed: Pressure, kPa = 101
Fixed: Temperature, K = 298.15
Property: Mass density, kg/m3 (Liquid); method: Vibrating tube method
Mole fraction of tert-butanol	Mole fraction of n-hexane	Mass density, kg/m3	uncertainty
.0507	.0505	860.44	.01
.0625	.099	845.74	.01
.0665	.8392	677.54	.01
.0615	.8854	669.26	.01
.1175	.0963	840.41	.01
.101	.1991	815.2	.01
.0991	.3002	790.15	.01
.1128	.3938	766.48	.01
.1017	.4987	743.86	.01
.1047	.6016	721.19	.01
.1027	.6989	701.36	.01
.1202	.7866	682.01	.01
.1015	.8488	672.04	.01
.2078	.098	830.29	.01
.2016	.1997	804.37	.01
.1849	.3571	767.49	.01
.2117	.4959	732.99	.01
.1925	.6063	711.1	.01
.2062	.6934	691.91	.01
.2955	.1049	819.34	.01
.2939	.2018	794.17	.01
.2968	.3039	768.51	.01
.2967	.4034	745.13	.01
.3034	.4998	722.83	.01
.2986	.6032	701.12	.01
.3991	.1013	809.76	.01
.3976	.2042	783.05	.01
.4048	.2928	760.23	.01
.3963	.4018	735.36	.01
.3961	.5071	711.91	.01
.4963	.1012	800	.01
.4956	.2032	773.42	.01
.4968	.3046	748.01	.01
.496	.408	723.77	.01
.5958	.1031	789.55	.01
.5995	.2013	763.28	.01
.5927	.3065	737.86	.01
.699	.0987	780.54	.01
.6988	.2025	753.41	.01
.798	.1028	770.02	.01
.8487	.0503	779.82	.01
.8512	.0978	766.46	.01
.8926	.0532	774.97	.01
