Measured thermophysical data. Solubility of H2S in Ionic Liquids 1-Ethyl-3-methylimidazolium Hexafluorophosphate ([emim][PF6]) and 1-Ethyl-3-methylimidazolium Bis(trifluoromethyl)sulfonylimide ([emim][Tf2N])
Source: J. Chem. Eng. Data, 2010, 10.1021/je100794k
Compound 1: hydrogen sulfide, H2S
Compound 2: 1-ethyl-3-methylimidazolium hexafluorophosphate, C6H11F6N2P
Compound 3: [C2mim][NTf2], C8H11F6N3O4S2

System: hydrogen sulfide + 1-ethyl-3-methylimidazolium hexafluorophosphate; phases: Liquid, Gas
Property: Mole fraction of hydrogen sulfide (Liquid); method: Volumetric based static apparatus
Temperature, K	Pressure, kPa	Mole fraction of hydrogen sulfide	uncertainty
333.15	144.9	.038	.001
333.15	297	.077	.001
333.15	483	.124	.002
333.15	685.2	.172	.002
333.15	922.7	.224	.003
333.15	1107	.265	.003
333.15	1369	.318	.004
333.15	1580	.359	.005
338.15	149.9	.037	.001
338.15	307.3	.075	.001
338.15	500.1	.119	.001
338.15	710.7	.166	.002
338.15	956.6	.218	.003
338.15	1149	.257	.003
338.15	1423	.308	.004
338.15	1644	.348	.004
343.15	154.1	.036	.001
343.15	316.9	.072	.001
343.15	516	.116	.001
343.15	732	.161	.002
343.15	990.1	.212	.003
343.15	1189	.249	.003
343.15	1474	.3	.004
343.15	1705	.339	.004
353.15	162.5	.033	.001
353.15	335.6	.068	.001
353.15	546.2	.109	.001
353.15	778.2	.152	.002
353.15	1052	.2	.002
353.15	1265	.236	.003
353.15	1567	.285	.003
353.15	1822	.322	.004
363.15	172.5	.032	.001
363.15	353.6	.064	.001
363.15	577	.102	.002
363.15	822.2	.143	.002
363.15	1112	.187	.003
363.15	1337	.223	.003
363.15	1664	.27	.004
363.15	1933	.306	.005

System: hydrogen sulfide + [C2mim][NTf2]; phases: Liquid, Gas
Property: Mole fraction of hydrogen sulfide (Liquid); method: Volumetric based static apparatus
Temperature, K	Pressure, kPa	Mole fraction of hydrogen sulfide	uncertainty
303.15	107.7	.07	.001
303.15	214.5	.136	.002
303.15	362.9	.221	.003
303.15	581.6	.33	.004
303.15	811.5	.427	.005
303.15	1025	.506	.006
303.15	1244	.567	.006
303.15	1444	.609	.007
313.15	118.6	.065	.001
313.15	236.5	.126	.001
313.15	401.7	.205	.002
313.15	644.5	.309	.004
313.15	907.8	.407	.005
313.15	1152	.481	.006
313.15	1395	.541	.006
313.15	1628	.584	.007
323.15	129	.059	.001
323.15	257.3	.118	.002
323.15	437.8	.19	.003
323.15	706.3	.291	.005
323.15	999.8	.387	.007
323.15	1274	.465	.008
323.15	1523	.523	.009
333.15	138.9	.056	.001
333.15	277.3	.108	.002
333.15	473	.178	.003
333.15	765.9	.273	.005
333.15	1087	.363	.006
333.15	1391	.438	.008
333.15	1686	.496	.009
343.15	148.3	.052	.001
343.15	296.3	.101	.002
343.15	506	.167	.004
343.15	821.4	.258	.006
343.15	1169	.345	.008
343.15	1499	.416	.009
353.15	156.9	.049	.001
353.15	314.1	.095	.002
353.15	537.5	.158	.004
353.15	874.5	.243	.006
353.15	1248	.328	.007
353.15	1606	.398	.009
