Measured thermophysical data. Solubility of 1,6-Naphthalene Disulfonic Acid Disodium in Binary Sodium Chloride + Water, Sodium Sulfate + Water, and Ethanol + Water Solvent Mixtures at Elevated Temperatures
Source: J. Chem. Eng. Data, 2011, 10.1021/je101047a
Compound 1: 1,6-naphthalenedisulfonic acid disodium, C10H6Na2O6S2, purity 99.3%
Compound 2: sodium chloride, ClNa, purity 99.6%
Compound 3: sodium sulfate, Na2O4S, purity 99.8%
Compound 4: water, H2O
Compound 5: ethanol, C2H6O, purity 99.9%

System: 1,6-naphthalenedisulfonic acid disodium + sodium chloride + water; phases: Liquid, Crystal
Fixed: Pressure, kPa = 101
Property: Mole fraction of 1,6-naphthalenedisulfonic acid disodium (Liquid); method: Chromatography
Temperature, K	Solvent: Mass fraction of sodium chloride	Mole fraction of 1,6-naphthalenedisulfonic acid disodium	uncertainty
273.15	0	.0259	.000518
278.15	0	.0308	.000616
283.15	0	.0369	.000738
288.15	0	.045	.0009
293.15	0	.0548	.001096
298.15	0	.0659	.001318
303.15	0	.0792	.001584
308.15	0	.0965	.00193
313.15	0	.117	.00234
318.15	0	.14	.0028
323.15	0	.1666	.003332
273.15	.05	.0087	.000174
278.15	.05	.0111	.000222
283.15	.05	.0143	.000286
288.15	.05	.0183	.000366
293.15	.05	.0234	.000468
298.15	.05	.0301	.000602
303.15	.05	.0382	.000764
308.15	.05	.0484	.000968
313.15	.05	.0611	.001222
318.15	.05	.0776	.001552
323.15	.05	.0972	.001944
273.15	.1	.0038	.000076
278.15	.1	.0053	.000106
283.15	.1	.0069	.000138
288.15	.1	.0093	.000186
293.15	.1	.0123	.000246
298.15	.1	.0158	.000316
303.15	.1	.0204	.000408
308.15	.1	.0266	.000532
313.15	.1	.0342	.000684
318.15	.1	.0434	.000868
323.15	.1	.0557	.001114
273.15	.15	.0019	.000038
278.15	.15	.0024	.000048
283.15	.15	.0033	.000066
288.15	.15	.0041	.000082
293.15	.15	.0055	.00011
298.15	.15	.007	.00014
303.15	.15	.0091	.000182
308.15	.15	.0114	.000228
313.15	.15	.0147	.000294
318.15	.15	.0184	.000368
323.15	.15	.0233	.000466
273.15	.2	.00035	.000007
278.15	.2	.000483	.00000966
283.15	.2	.000665	.0000133
288.15	.2	.000903	.00001806
293.15	.2	.001271	.00002542
298.15	.2	.001734	.00003468
303.15	.2	.002321	.00004642
308.15	.2	.003075	.0000615
313.15	.2	.004129	.00008258
318.15	.2	.005528	.00011056
323.15	.2	.007346	.00014692

System: 1,6-naphthalenedisulfonic acid disodium + water + sodium sulfate; phases: Liquid, Crystal
Fixed: Pressure, kPa = 101
Property: Mole fraction of 1,6-naphthalenedisulfonic acid disodium (Liquid); method: Chromatography
Temperature, K	Solvent: Mass fraction of sodium sulfate	Mole fraction of 1,6-naphthalenedisulfonic acid disodium	uncertainty
273.15	.04	.009	.00018
278.15	.04	.01	.0002
283.15	.04	.012	.00024
288.15	.04	.0144	.000288
293.15	.04	.0172	.000344
298.15	.04	.0215	.00043
303.15	.04	.0247	.000494
308.15	.04	.0298	.000596
313.15	.04	.0338	.000676
318.15	.04	.0385	.00077
323.15	.04	.0458	.000916
273.15	.08	.0071	.000142
278.15	.08	.0083	.000166
283.15	.08	.0095	.00019
288.15	.08	.0113	.000226
293.15	.08	.0136	.000272
298.15	.08	.0163	.000326
303.15	.08	.0197	.000394
308.15	.08	.023	.00046
313.15	.08	.0267	.000534
318.15	.08	.0318	.000636
323.15	.08	.0358	.000716
273.15	.12	.0062	.000124
278.15	.12	.0065	.00013
283.15	.12	.0075	.00015
288.15	.12	.0088	.000176
293.15	.12	.0108	.000216
298.15	.12	.0133	.000266
303.15	.12	.0154	.000308
308.15	.12	.0182	.000364
313.15	.12	.0213	.000426
318.15	.12	.0251	.000502
323.15	.12	.0284	.000568
273.15	.16	.0051	.000102
278.15	.16	.0055	.00011
283.15	.16	.0061	.000122
288.15	.16	.007	.00014
293.15	.16	.008	.00016
298.15	.16	.0096	.000192
303.15	.16	.0116	.000232
308.15	.16	.0135	.00027
313.15	.16	.0157	.000314
318.15	.16	.0181	.000362
323.15	.16	.0209	.000418

System: ethanol + 1,6-naphthalenedisulfonic acid disodium + water; phases: Liquid, Crystal
Fixed: Pressure, kPa = 101
Property: Mole fraction of 1,6-naphthalenedisulfonic acid disodium (Liquid); method: Chromatography
Temperature, K	Solvent: Mass fraction of ethanol	Mole fraction of 1,6-naphthalenedisulfonic acid disodium	uncertainty
273.15	.08	.0065	.00013
278.15	.08	.0072	.000144
283.15	.08	.008	.00016
288.15	.08	.009	.00018
293.15	.08	.01	.0002
298.15	.08	.0111	.000222
303.15	.08	.0125	.00025
308.15	.08	.014	.00028
313.15	.08	.0159	.000318
318.15	.08	.0176	.000352
273.15	.17	.0059	.000118
278.15	.17	.0065	.00013
283.15	.17	.0073	.000146
288.15	.17	.0081	.000162
293.15	.17	.009	.00018
298.15	.17	.0101	.000202
303.15	.17	.0112	.000224
308.15	.17	.0126	.000252
313.15	.17	.014	.00028
318.15	.17	.0156	.000312
273.15	.35	.0054	.000108
278.15	.35	.006	.00012
283.15	.35	.0065	.00013
288.15	.35	.0073	.000146
293.15	.35	.0082	.000164
298.15	.35	.0091	.000182
303.15	.35	.0102	.000204
308.15	.35	.0113	.000226
313.15	.35	.0126	.000252
318.15	.35	.014	.00028
273.15	.54	.0049	.000098
278.15	.54	.0053	.000106
283.15	.54	.006	.00012
288.15	.54	.0066	.000132
293.15	.54	.0073	.000146
298.15	.54	.0082	.000164
303.15	.54	.0091	.000182
308.15	.54	.0102	.000204
313.15	.54	.0114	.000228
318.15	.54	.0126	.000252
273.15	.76	.0042	.000084
278.15	.76	.0046	.000092
283.15	.76	.0051	.000102
288.15	.76	.0056	.000112
293.15	.76	.0062	.000124
298.15	.76	.007	.00014
303.15	.76	.0078	.000156
308.15	.76	.0089	.000178
313.15	.76	.0099	.000198
318.15	.76	.0109	.000218

System: 1,6-naphthalenedisulfonic acid disodium + water; phases: Liquid, Crystal
Property: Mole fraction of 1,6-naphthalenedisulfonic acid disodium (Liquid); method: Chromatography
Temperature, K	Pressure, kPa	Mole fraction of 1,6-naphthalenedisulfonic acid disodium	uncertainty
273.15	101.325	.0259	.000518
278.15	101.325	.0308	.000616
283.15	101.325	.0369	.000738
288.15	101.325	.045	.0009
293.15	101.325	.0548	.001096
298.15	101.325	.0659	.001318
303.15	101.325	.0792	.001584
308.15	101.325	.0965	.00193
313.15	101.325	.117	.00234
318.15	101.325	.14	.0028
323.15	101.325	.1666	.003332
