Measured thermophysical data. Volumes, Heat Capacities, and Compressibilities of the Mixtures of Acetonitrile with N,N-Dimethylacetamide and Propylene Carbonate
Source: J. Chem. Eng. Data, 2010, 10.1021/je1005483
Compound 1: methylnitrile, C2H3N, purity 99.8%
Compound 2: 4-methyl-1,3-dioxolan-2-one, C4H6O3, purity 99.7%
Compound 3: N,N-dimethylacetamide, C4H9NO, purity 99.8%

System: methylnitrile; phases: Liquid
Property: Mass density, kg/m3 (Liquid); method: Vibrating tube method
Temperature, K	Pressure, kPa	Mass density, kg/m3	uncertainty
308.15	101.3	765.735	.005
318.15	101.3	755.763	.005

System: methylnitrile; phases: Liquid
Property: Speed of sound, m/s (Liquid); method: Pulse-echo method
Pressure, kPa	Temperature, K	Speed of sound, m/s	uncertainty
101.3	298.15	1279.61	.2

System: methylnitrile; phases: Liquid
Property: Molar heat capacity at constant pressure, J/K/mol (Liquid); method: Flow calorimetry
Pressure, kPa	Temperature, K	Molar heat capacity at constant pressure, J/K/mol	uncertainty
101.3	298.15	92.36	.27708

System: 4-methyl-1,3-dioxolan-2-one; phases: Liquid
Property: Mass density, kg/m3 (Liquid); method: Vibrating tube method
Temperature, K	Pressure, kPa	Mass density, kg/m3	uncertainty
308.15	101.3	1188.733	.005
318.15	101.3	1179.306	.005

System: 4-methyl-1,3-dioxolan-2-one; phases: Liquid
Property: Speed of sound, m/s (Liquid); method: Pulse-echo method
Pressure, kPa	Temperature, K	Speed of sound, m/s	uncertainty
101.3	298.15	1442.96	.2

System: 4-methyl-1,3-dioxolan-2-one; phases: Liquid
Property: Molar heat capacity at constant pressure, J/K/mol (Liquid); method: Flow calorimetry
Pressure, kPa	Temperature, K	Molar heat capacity at constant pressure, J/K/mol	uncertainty
101.3	298.15	166.98	.50094

System: N,N-dimethylacetamide; phases: Liquid
Property: Mass density, kg/m3 (Liquid); method: Vibrating tube method
Temperature, K	Pressure, kPa	Mass density, kg/m3	uncertainty
308.15	101.3	927.294	.005
318.15	101.3	918.616	.005

System: N,N-dimethylacetamide; phases: Liquid
Property: Speed of sound, m/s (Liquid); method: Pulse-echo method
Pressure, kPa	Temperature, K	Speed of sound, m/s	uncertainty
101.3	298.15	1458.65	.2

System: N,N-dimethylacetamide; phases: Liquid
Property: Molar heat capacity at constant pressure, J/K/mol (Liquid); method: Flow calorimetry
Pressure, kPa	Temperature, K	Molar heat capacity at constant pressure, J/K/mol	uncertainty
101.3	298.15	175.49	.52647

System: methylnitrile + 4-methyl-1,3-dioxolan-2-one; phases: Liquid
Fixed: Pressure, kPa = 101.3
Property: Mass density, kg/m3 (Liquid); method: Vibrating tube method
Temperature, K	Mole fraction of 4-methyl-1,3-dioxolan-2-one	Mass density, kg/m3	uncertainty
308.15	0	765.735	.005
308.15	.00899	772.153	.005
308.15	.01974	779.714	.005
308.15	.02827	785.631	.005
308.15	.03912	793.054	.005
308.15	.04976	800.23	.005
308.15	.05955	806.732	.005
308.15	.06835	812.468	.005
308.15	.08237	821.557	.005
308.15	.09065	826.854	.005
308.15	.09974	832.541	.005
308.15	.14731	861.545	.005
308.15	.20176	892.585	.005
308.15	.25091	919.09	.005
308.15	.29829	943.362	.005
308.15	.40083	991.468	.005
308.15	.49049	1029.073	.005
308.15	.59787	1069.652	.005
308.15	.69017	1101.276	.005
308.15	.79027	1132.312	.005
308.15	.90095	1163.557	.005
308.15	.91207	1166.508	.005
308.15	.92179	1169.024	.005
308.15	.93015	1171.246	.005
308.15	.94112	1174.076	.005
308.15	.95038	1176.447	.005
308.15	.96093	1179.119	.005
308.15	.97151	1181.766	.005
308.15	.98152	1184.241	.005
308.15	1	1188.733	.005
318.15	0	755.763	.005
318.15	.00987	762.8	.005
318.15	.02015	770.008	.005
318.15	.04049	783.973	.005
318.15	.04999	790.403	.005
318.15	.05968	796.854	.005
318.15	.06983	803.478	.005
318.15	.07649	807.807	.005
318.15	.09048	816.808	.005
318.15	.10148	823.802	.005
318.15	.15269	855.059	.005
318.15	.20113	882.847	.005
318.15	.2502	909.428	.005
318.15	.29709	933.541	.005
318.15	.40373	983.751	.005
318.15	.50359	1025.462	.005
318.15	.60038	1061.559	.005
318.15	.70161	1095.757	.005
318.15	.7997	1125.73	.005
318.15	.90054	1153.945	.005
318.15	.91132	1156.823	.005
318.15	.93397	1162.752	.005
318.15	.94076	1164.499	.005
318.15	.95195	1167.375	.005
318.15	.96085	1169.623	.005
318.15	.97073	1172.108	.005
318.15	.98154	1174.791	.005
318.15	.99083	1177.075	.005
318.15	1	1179.306	.005

System: methylnitrile + 4-methyl-1,3-dioxolan-2-one; phases: Liquid
Fixed: Pressure, kPa = 101.3
Fixed: Temperature, K = 298.15
Property: Speed of sound, m/s (Liquid); method: Pulse-echo method
Mole fraction of 4-methyl-1,3-dioxolan-2-one	Speed of sound, m/s	uncertainty
0	1279.61	.2
.0502	1287.51	.2
.10219	1296.37	.2
.15123	1305.13	.2
.20055	1313.92	.2
.30313	1331.03	.2
.30507	1331.64	.2
.40456	1351.61	.2
.50666	1369	.2
.60875	1386.58	.2
.70348	1399.32	.2
.70368	1399.42	.2
.79863	1415.1	.2
.85596	1422.27	.2
.90518	1427.84	.2
.9518	1434.52	.2
.97655	1438.03	.2
1	1442.96	.2

System: methylnitrile + 4-methyl-1,3-dioxolan-2-one; phases: Liquid
Fixed: Pressure, kPa = 101.3
Fixed: Temperature, K = 298.15
Property: Molar heat capacity at constant pressure, J/K/mol (Liquid); method: Flow calorimetry
Mole fraction of 4-methyl-1,3-dioxolan-2-one	Molar heat capacity at constant pressure, J/K/mol	uncertainty
0	92.36	.27708
.02042	93.86	.28158
.04818	95.91	.28773
.08041	98.29	.29487
.09602	99.45	.29835
.10214	99.9	.2997
.12975	101.95	.30585
.14384	103	.309
.15208	103.61	.31083
.1801	105.69	.31707
.19304	106.65	.31995
.19885	107.08	.32124
.30064	114.62	.34386
.39942	121.92	.36576
.45071	125.72	.37716
.45078	125.72	.37716
.59972	136.77	.41031
.59986	136.78	.41034
.69732	144.05	.43215
.74853	147.88	.44364
.74937	147.94	.44382
.89947	159.26	.47778
.90036	159.33	.47799
1	166.98	.50094

System: methylnitrile + N,N-dimethylacetamide; phases: Liquid
Fixed: Pressure, kPa = 101.3
Property: Mass density, kg/m3 (Liquid); method: Vibrating tube method
Temperature, K	Mole fraction of N,N-dimethylacetamide	Mass density, kg/m3	uncertainty
308.15	0	765.735	.005
308.15	.00994	768.688	.005
308.15	.02031	771.713	.005
308.15	.03016	774.535	.005
308.15	.04069	777.504	.005
308.15	.05104	780.389	.005
308.15	.05848	782.424	.005
308.15	.06932	785.313	.005
308.15	.08223	788.745	.005
308.15	.09057	790.902	.005
308.15	.10089	793.541	.005
308.15	.14971	805.533	.005
308.15	.18843	814.49	.005
308.15	.23703	824.887	.005
308.15	.30148	837.769	.005
308.15	.40436	856.101	.005
308.15	.50855	872.475	.005
308.15	.6251	888.44	.005
308.15	.70587	898.16	.005
308.15	.80344	908.919	.005
308.15	.90244	918.675	.005
308.15	.91167	919.547	.005
308.15	.9216	920.459	.005
308.15	.93219	921.402	.005
308.15	.94102	922.202	.005
308.15	.95154	923.129	.005
308.15	.96143	924	.005
308.15	.97116	924.844	.005
308.15	.98112	925.7	.005
308.15	.98934	926.398	.005
308.15	1	927.294	.005
318.15	0	755.763	.005
318.15	.01091	759.018	.005
318.15	.02054	761.841	.005
318.15	.0309	764.83	.005
318.15	.04289	768.228	.005
318.15	.0529	771.009	.005
318.15	.05906	772.711	.005
318.15	.06978	775.606	.005
318.15	.08535	779.778	.005
318.15	.08742	780.299	.005
318.15	.10216	784.094	.005
318.15	.14381	794.432	.005
318.15	.18341	803.73	.005
318.15	.2301	813.975	.005
318.15	.29347	826.829	.005
318.15	.387	843.966	.005
318.15	.50302	862.53	.005
318.15	.60255	876.476	.005
318.15	.70466	889.23	.005
318.15	.80854	900.68	.005
318.15	.90897	910.546	.005
318.15	.9144	911.049	.005
318.15	.92152	911.696	.005
318.15	.93202	912.659	.005
318.15	.94143	913.506	.005
318.15	.95457	914.681	.005
318.15	.96296	915.423	.005
318.15	.97164	916.181	.005
318.15	.98094	916.988	.005
318.15	.99106	917.856	.005
318.15	1	918.616	.005

System: methylnitrile + N,N-dimethylacetamide; phases: Liquid
Fixed: Pressure, kPa = 101.3
Fixed: Temperature, K = 298.15
Property: Speed of sound, m/s (Liquid); method: Pulse-echo method
Mole fraction of N,N-dimethylacetamide	Speed of sound, m/s	uncertainty
0	1279.61	.2
.04872	1286.5	.2
.10044	1297.49	.2
.18975	1315.5	.2
.29316	1336.44	.2
.4046	1357.26	.2
.50298	1375.55	.2
.60438	1393.68	.2
.70739	1410.84	.2
.80483	1427.46	.2
.90354	1440.05	.2
1	1458.65	.2

System: methylnitrile + N,N-dimethylacetamide; phases: Liquid
Fixed: Pressure, kPa = 101.3
Fixed: Temperature, K = 298.15
Property: Molar heat capacity at constant pressure, J/K/mol (Liquid); method: Flow calorimetry
Mole fraction of N,N-dimethylacetamide	Molar heat capacity at constant pressure, J/K/mol	uncertainty
0	92.36	.27708
.03032	94.92	.28476
.05087	96.66	.28998
.08015	99.14	.29742
.1018	100.97	.30291
.12989	103.36	.31008
.15039	105.1	.3153
.1712	106.87	.32061
.20137	109.43	.32829
.25687	114.15	.34245
.30234	118.01	.35403
.35142	122.17	.36651
.40237	126.48	.37944
.50098	134.78	.40434
.55092	138.97	.41691
.59958	143.03	.42909
.65876	147.96	.44388
.75052	155.56	.46668
.84965	163.68	.49104
.90044	167.77	.50331
.92856	170	.51
.95065	171.73	.51519
1	175.49	.52647
