Measured thermophysical data. Extraction Ability of Nitrogen-Containing Compounds Involved in the Desulfurization of Fuels by Using Ionic Liquids
Source: J. Chem. Eng. Data, 2010, 10.1021/je100075m
Compound 1: azine, C5H5N, purity 99.5%
Compound 2: n-hexane, C6H14, purity 99%
Compound 3: 1-octyl-3-methylimidazolium tetrafluoroborate, C12H23BF4N2
Compound 4: 1-octyl-3-methylimidazolium bis[(trifluoromethyl)sulfonyl]imide, C14H23F6N3O4S2
Compound 5: 1-ethyl-3-methylimidazolium ethyl sulfate, C8H16N2O4S

System: azine; phases: Liquid
Fixed: Pressure, kPa = 101.325
Property: Mass density, kg/m3 (Liquid); method: Vibrating tube method
Temperature, K	Mass density, kg/m3	uncertainty
298.15	978.02	.01

System: azine; phases: Liquid
Fixed: Pressure, kPa = 101.325
Property: Refractive index (Na D-line) (Liquid); method: Standard Abbe refractometry
Temperature, K	Refractive index (Na D-line)	uncertainty
298.15	1.50699	.00004

System: n-hexane; phases: Liquid
Fixed: Pressure, kPa = 101.325
Property: Mass density, kg/m3 (Liquid); method: Vibrating tube method
Temperature, K	Mass density, kg/m3	uncertainty
298.15	655.06	.01

System: n-hexane; phases: Liquid
Fixed: Pressure, kPa = 101.325
Property: Refractive index (Na D-line) (Liquid); method: Standard Abbe refractometry
Temperature, K	Refractive index (Na D-line)	uncertainty
298.15	1.37287	.00004

System: 1-octyl-3-methylimidazolium tetrafluoroborate; phases: Liquid
Fixed: Pressure, kPa = 101.325
Property: Mass density, kg/m3 (Liquid); method: Vibrating tube method
Temperature, K	Mass density, kg/m3	uncertainty
298.15	1104.42	.01

System: 1-octyl-3-methylimidazolium tetrafluoroborate; phases: Liquid
Fixed: Pressure, kPa = 101.325
Property: Refractive index (Na D-line) (Liquid); method: Standard Abbe refractometry
Temperature, K	Refractive index (Na D-line)	uncertainty
298.15	1.43329	.00004

System: 1-octyl-3-methylimidazolium bis[(trifluoromethyl)sulfonyl]imide; phases: Liquid
Fixed: Pressure, kPa = 101.325
Property: Mass density, kg/m3 (Liquid); method: Vibrating tube method
Temperature, K	Mass density, kg/m3	uncertainty
298.15	1319.78	.01

System: 1-octyl-3-methylimidazolium bis[(trifluoromethyl)sulfonyl]imide; phases: Liquid
Fixed: Pressure, kPa = 101.325
Property: Refractive index (Na D-line) (Liquid); method: Standard Abbe refractometry
Temperature, K	Refractive index (Na D-line)	uncertainty
298.15	1.4327	.00004

System: 1-ethyl-3-methylimidazolium ethyl sulfate; phases: Liquid
Fixed: Pressure, kPa = 101.325
Property: Mass density, kg/m3 (Liquid); method: Vibrating tube method
Temperature, K	Mass density, kg/m3	uncertainty
298.15	1238.17	.01

System: 1-ethyl-3-methylimidazolium ethyl sulfate; phases: Liquid
Fixed: Pressure, kPa = 101.325
Property: Refractive index (Na D-line) (Liquid); method: Standard Abbe refractometry
Temperature, K	Refractive index (Na D-line)	uncertainty
298.15	1.47903	.00004

System: n-hexane + azine + 1-octyl-3-methylimidazolium tetrafluoroborate; phases: Liquid mixture 2, Liquid mixture 1
Property: Mole fraction of 1-octyl-3-methylimidazolium tetrafluoroborate (Liquid mixture 2); method: Chromatography
Property: Mole fraction of azine (Liquid mixture 1); method: Chromatography
Property: Mole fraction of 1-octyl-3-methylimidazolium tetrafluoroborate (Liquid mixture 1); method: Chromatography
Temperature, K	Pressure, kPa	Mole fraction of azine	Mole fraction of 1-octyl-3-methylimidazolium tetrafluoroborate	uncertainty	Mole fraction of azine	uncertainty	Mole fraction of 1-octyl-3-methylimidazolium tetrafluoroborate	uncertainty
298.15	1	0	.003	.006	0	.006	.855	.006
298.15	1	.028	.001	.006	.181	.006	.703	.006
298.15	1	.058	.005	.006	.3	.006	.599	.006
298.15	1	.079	.002	.006	.387	.006	.51	.006
298.15	1	.121	.004	.006	.499	.006	.404	.006
298.15	1	.188	0	.006	.602	.006	.296	.006
298.15	1	.334	0	.006	.694	.006	.186	.006
298.15	1	.532	0	.006	.72	.006	.088	.006

System: n-hexane + azine + 1-octyl-3-methylimidazolium bis[(trifluoromethyl)sulfonyl]imide; phases: Liquid mixture 1, Liquid mixture 2
Property: Mole fraction of 1-octyl-3-methylimidazolium bis[(trifluoromethyl)sulfonyl]imide (Liquid mixture 1); method: Chromatography
Property: Mole fraction of azine (Liquid mixture 2); method: Chromatography
Property: Mole fraction of 1-octyl-3-methylimidazolium bis[(trifluoromethyl)sulfonyl]imide (Liquid mixture 2); method: Chromatography
Temperature, K	Pressure, kPa	Mole fraction of azine	Mole fraction of 1-octyl-3-methylimidazolium bis[(trifluoromethyl)sulfonyl]imide	uncertainty	Mole fraction of azine	uncertainty	Mole fraction of 1-octyl-3-methylimidazolium bis[(trifluoromethyl)sulfonyl]imide	uncertainty
298.15	1	0	.711	.006	0	.006	0	.006
298.15	1	.16	.597	.006	.018	.006	.006	.006
298.15	1	.276	.5	.006	.047	.006	0	.006
298.15	1	.381	.408	.006	.061	.006	.004	.006
298.15	1	.442	.353	.006	.08	.006	.006	.006
298.15	1	.52	.278	.006	.119	.006	.005	.006
298.15	1	.584	.213	.006	.149	.006	.003	.006
298.15	1	.635	.126	.006	.297	.006	.004	.006
298.15	1	.642	.066	.006	.425	.006	.001	.006

System: n-hexane + azine + 1-ethyl-3-methylimidazolium ethyl sulfate; phases: Liquid mixture 1, Liquid mixture 2
Property: Mole fraction of 1-ethyl-3-methylimidazolium ethyl sulfate (Liquid mixture 1); method: Chromatography
Property: Mole fraction of azine (Liquid mixture 2); method: Chromatography
Property: Mole fraction of 1-ethyl-3-methylimidazolium ethyl sulfate (Liquid mixture 2); method: Chromatography
Temperature, K	Pressure, kPa	Mole fraction of azine	Mole fraction of 1-ethyl-3-methylimidazolium ethyl sulfate	uncertainty	Mole fraction of azine	uncertainty	Mole fraction of 1-ethyl-3-methylimidazolium ethyl sulfate	uncertainty
298.15	1	0	.993	.006	0	.006	0	.006
298.15	1	.123	.869	.006	.048	.006	.002	.006
298.15	1	.286	.705	.006	.094	.006	0	.006
298.15	1	.447	.54	.006	.206	.006	0	.006
298.15	1	.586	.395	.006	.341	.006	0	.006
298.15	1	.657	.32	.006	.515	.006	0	.006
298.15	1	.725	.248	.006	.625	.006	0	.006
298.15	1	.786	.168	.006	.771	.006	0	.006
