Measured thermophysical data. Solubility Measurements and Data Correlation of Carbon Dioxide in Pentaerythritol Tetra(2-ethylbutanoate) (PEBE6)
Source: J. Chem. Eng. Data, 2011, 10.1021/je100761z
Compound 1: carbon dioxide, CO2
Compound 2: pentaerythritol tetra-2-ethylbutanoate, C29H52O8

System: carbon dioxide + pentaerythritol tetra-2-ethylbutanoate; phases: Liquid, Gas
Property: Mole fraction of carbon dioxide (Liquid); method: calculated from total mole balance in gas and liquid
Temperature, K	Pressure, kPa	Mole fraction of carbon dioxide	uncertainty
283.15	1115	.461	.003
283.15	1585	.5699	.003
283.15	2193	.6747	.003
283.15	2726	.748	.003
283.15	3720	.8602	.003
283.15	4298	.9442	.003
283.15	4386	.9633	.003
293.15	848	.3322	.003
293.15	1217	.4308	.003
293.15	1744	.5361	.003
293.15	2435	.6412	.003
293.15	3062	.7149	.003
293.15	4345	.8314	.003
293.15	5390	.9283	.003
293.15	5590	.9579	.003
303.15	437	.1666	.003
303.15	428	.169	.003
303.15	909	.3073	.003
303.15	1314	.4042	.003
303.15	1892	.5061	.003
303.15	2661	.6094	.003
303.15	3372	.6847	.003
303.15	4905	.8029	.003
303.15	6425	.9004	.003
303.15	7008	.9381	.003
313.15	465	.1504	.003
313.15	461	.1521	.003
313.15	970	.2853	.003
313.15	1409	.3779	.003
313.15	2034	.4784	.003
313.15	2857	.5785	.003
313.15	2876	.5815	.003
313.15	3662	.6552	.003
313.15	5417	.7758	.003
313.15	7325	.8737	.003
313.15	8297	.9088	.003
323.15	483	.1439	.003
323.15	1024	.2693	.003
323.15	1493	.3571	.003
323.15	1533	.3619	.003
323.15	1584	.3722	.003
323.15	2165	.4522	.003
323.15	3073	.5577	.003
323.15	3931	.6301	.003
323.15	5895	.7519	.003
323.15	8123	.8573	.003
323.15	9540	.8898	.003
333.15	514	.1328	.003
333.15	508	.1348	.003
333.15	1078	.2525	.003
333.15	1576	.3398	.003
333.15	1615	.3439	.003
333.15	2290	.4314	.003
333.15	3262	.5337	.003
333.15	4188	.6099	.003
333.15	6341	.7332	.003
333.15	8873	.8474	.003
343.15	538	.1248	.003
343.15	533	.1276	.003
343.15	1128	.2359	.003
343.15	1641	.3202	.003
343.15	1656	.3222	.003
343.15	2408	.4165	.003
343.15	3443	.5172	.003
343.15	4429	.5913	.003
343.15	6763	.7207	.003
343.15	9632	.8388	.003
