Measured thermophysical data. Solubility of Minoxidil in Methanol, Ethanol, 1-Propanol, 2-Propanol, 1-Butanol, and Water from (278.15 to 333.15) K
Source: J. Chem. Eng. Data, 2011, 10.1021/je1012839
Compound 1: 6-(1-piperidinyl)-3-oxide-2,4-pyrimidinediamine, C9H15N5O, purity 99.5%
Compound 2: methanol, CH4O, purity 98%
Compound 3: ethanol, C2H6O, purity 98%
Compound 4: propan-1-ol, C3H8O, purity 98%
Compound 5: 2-propanol, C3H8O, purity 98%
Compound 6: butan-1-ol, C4H10O, purity 98%
Compound 7: water, H2O

System: methanol + 6-(1-piperidinyl)-3-oxide-2,4-pyrimidinediamine; phases: Liquid, Crystal
Fixed: Pressure, kPa = 101
Property: Mole fraction of 6-(1-piperidinyl)-3-oxide-2,4-pyrimidinediamine (Liquid); method: gravimetric
Temperature, K	Mole fraction of 6-(1-piperidinyl)-3-oxide-2,4-pyrimidinediamine	uncertainty
278.15	.00742	.000046004
283.15	.00801	.000049662
288.15	.0087	.00005394
293.15	.00944	.000058528
298.15	.0103	.00006386
303.15	.0113	.00007006
308.15	.0124	.00007688
313.15	.0138	.00008556
318.15	.015	.000093
323.15	.0168	.00010416
328.15	.0186	.00011532
333.15	.0205	.0001271

System: ethanol + 6-(1-piperidinyl)-3-oxide-2,4-pyrimidinediamine; phases: Liquid, Crystal
Fixed: Pressure, kPa = 101
Property: Mole fraction of 6-(1-piperidinyl)-3-oxide-2,4-pyrimidinediamine (Liquid); method: gravimetric
Temperature, K	Mole fraction of 6-(1-piperidinyl)-3-oxide-2,4-pyrimidinediamine	uncertainty
278.15	.00391	.000024242
283.15	.00435	.00002697
288.15	.00487	.000030194
293.15	.00544	.000033728
298.15	.00603	.000037386
303.15	.00678	.000042036
308.15	.00758	.000046996
313.15	.00851	.000052762
318.15	.0094	.00005828
323.15	.0106	.00006572
328.15	.0119	.00007378
333.15	.0132	.00008184

System: propan-1-ol + 6-(1-piperidinyl)-3-oxide-2,4-pyrimidinediamine; phases: Liquid, Crystal
Fixed: Pressure, kPa = 101
Property: Mole fraction of 6-(1-piperidinyl)-3-oxide-2,4-pyrimidinediamine (Liquid); method: gravimetric
Temperature, K	Mole fraction of 6-(1-piperidinyl)-3-oxide-2,4-pyrimidinediamine	uncertainty
278.15	.00431	.000026722
283.15	.00482	.000029884
288.15	.00537	.000033294
293.15	.006	.0000372
298.15	.00696	.000043152
303.15	.00786	.000048732
308.15	.00858	.000053196
313.15	.0097	.00006014
318.15	.0109	.00006758
323.15	.0122	.00007564
328.15	.0135	.0000837
333.15	.015	.000093

System: 2-propanol + 6-(1-piperidinyl)-3-oxide-2,4-pyrimidinediamine; phases: Liquid, Crystal
Fixed: Pressure, kPa = 101
Property: Mole fraction of 6-(1-piperidinyl)-3-oxide-2,4-pyrimidinediamine (Liquid); method: gravimetric
Temperature, K	Mole fraction of 6-(1-piperidinyl)-3-oxide-2,4-pyrimidinediamine	uncertainty
278.15	.00221	.000013702
283.15	.00258	.000015996
288.15	.00296	.000018352
293.15	.00343	.000021266
298.15	.00392	.000024304
303.15	.00445	.00002759
308.15	.00519	.000032178
313.15	.0058	.00003596
318.15	.00636	.000039432
323.15	.00726	.000045012
328.15	.00805	.00004991
333.15	.00898	.000055676

System: butan-1-ol + 6-(1-piperidinyl)-3-oxide-2,4-pyrimidinediamine; phases: Liquid, Crystal
Fixed: Pressure, kPa = 101
Property: Mole fraction of 6-(1-piperidinyl)-3-oxide-2,4-pyrimidinediamine (Liquid); method: gravimetric
Temperature, K	Mole fraction of 6-(1-piperidinyl)-3-oxide-2,4-pyrimidinediamine	uncertainty
278.15	.00391	.000024242
283.15	.0044	.00002728
288.15	.00493	.000030566
293.15	.00562	.000034844
298.15	.00649	.000040238
303.15	.00736	.000045632
308.15	.00814	.000050468
313.15	.00922	.000057164
318.15	.0104	.00006448
323.15	.0115	.0000713
328.15	.0126	.00007812
333.15	.0141	.00008742

System: water + 6-(1-piperidinyl)-3-oxide-2,4-pyrimidinediamine; phases: Liquid, Crystal
Fixed: Pressure, kPa = 101
Property: Mole fraction of 6-(1-piperidinyl)-3-oxide-2,4-pyrimidinediamine (Liquid); method: gravimetric
Temperature, K	Mole fraction of 6-(1-piperidinyl)-3-oxide-2,4-pyrimidinediamine	uncertainty
278.15	.000153	.0000009486
283.15	.000168	.0000010416
288.15	.000188	.0000011656
293.15	.000205	.000001271
298.15	.000235	.000001457
303.15	.000258	.0000015996
308.15	.000287	.0000017794
313.15	.000325	.000002015
318.15	.000368	.0000022816
323.15	.000416	.0000025792
328.15	.00047	.000002914
333.15	.000546	.0000033852
