Measured thermophysical data. Solvent Extraction of Toluene from Heptane with the Ionic Liquids N-Ethylpyridinium Bis(trifluoromethylsulfonyl)imide and z-Methyl-N-ethylpyridinium Bis(trifluoromethylsulfonyl)imide (z = 2, 3, or 4) at T = 313.2 K
Source: J. Chem. Eng. Data, 2010, 10.1021/je100509q
Compound 1: 1-ethylpyridinium bis[(trifluoromethyl)sulfonyl]imide, C9H10F6N2O4S2, purity 99%
Compound 2: 2-methyl-N-ethylpyridinium bis-(trifluoromethylsulfonyl)imide, C10H12F6N2O4S2, purity 99%
Compound 3: 3-methyl-N-ethylpyridinium bis-(trifluoromethylsulfonyl)imide, C10H12F6N2O4S2, purity 99%
Compound 4: 4-methyl-N-ethylpyridinium bis-(trifluoromethylsulfonyl)imide, C10H12F6N2O4S2, purity 99%
Compound 5: heptane, C7H16, purity 99.5%
Compound 6: toluene, C7H8, purity 99.7%

System: toluene + heptane + 1-ethylpyridinium bis[(trifluoromethyl)sulfonyl]imide; phases: Liquid mixture 1, Liquid mixture 2
Property: Mole fraction of heptane (Liquid mixture 1); method: Chromatography
Property: Mole fraction of toluene (Liquid mixture 2); method: Chromatography
Property: Mole fraction of heptane (Liquid mixture 2); method: Chromatography
Temperature, K	Pressure, kPa	Mole fraction of toluene	Mole fraction of heptane	uncertainty	Mole fraction of toluene	uncertainty	Mole fraction of heptane	uncertainty
313.2	1	.0263	.9737	.0008	.0289	.0008	.0236	.0008
313.2	1	.0568	.9432	.0008	.0549	.0008	.0236	.0008
313.2	1	.1517	.8483	.0008	.1312	.0008	.0209	.0008
313.2	1	.1753	.8247	.0008	.1546	.0008	.0215	.0008
313.2	1	.2226	.7774	.0008	.1875	.0008	.0236	.0008
313.2	1	.2748	.7252	.0008	.2441	.0008	.0246	.0008
313.2	1	.3575	.6425	.0008	.2781	.0008	.0218	.0008
313.2	1	.4282	.5718	.0008	.3552	.0008	.0246	.0008
313.2	1	.56	.44	.0008	.4379	.0008	.0248	.0008
313.2	1	.6541	.3459	.0008	.5411	.0008	.0257	.0008

System: toluene + heptane + 2-methyl-N-ethylpyridinium bis-(trifluoromethylsulfonyl)imide; phases: Liquid mixture 1, Liquid mixture 2
Property: Mole fraction of heptane (Liquid mixture 1); method: Chromatography
Property: Mole fraction of toluene (Liquid mixture 2); method: Chromatography
Property: Mole fraction of heptane (Liquid mixture 2); method: Chromatography
Temperature, K	Pressure, kPa	Mole fraction of toluene	Mole fraction of heptane	uncertainty	Mole fraction of toluene	uncertainty	Mole fraction of heptane	uncertainty
313.2	1	.0257	.9743	.0008	.0307	.0008	.0254	.0008
313.2	1	.0555	.9445	.0008	.056	.0008	.0237	.0008
313.2	1	.1168	.8832	.0008	.1168	.0008	.0243	.0008
313.2	1	.1636	.8364	.0008	.1721	.0008	.0269	.0008
313.2	1	.2672	.7328	.0008	.2502	.0008	.0241	.0008
313.2	1	.2911	.7089	.0008	.265	.0008	.0241	.0008
313.2	1	.3729	.6271	.0008	.3255	.0008	.0239	.0008
313.2	1	.4183	.5817	.0008	.371	.0008	.0261	.0008
313.2	1	.544	.456	.0008	.472	.0008	.0277	.0008
313.2	1	.6463	.3537	.0008	.5631	.0008	.0248	.0008

System: toluene + heptane + 3-methyl-N-ethylpyridinium bis-(trifluoromethylsulfonyl)imide; phases: Liquid mixture 2, Liquid mixture 1
Property: Mole fraction of heptane (Liquid mixture 2); method: Chromatography
Property: Mole fraction of toluene (Liquid mixture 1); method: Chromatography
Property: Mole fraction of heptane (Liquid mixture 1); method: Chromatography
Temperature, K	Pressure, kPa	Mole fraction of toluene	Mole fraction of heptane	uncertainty	Mole fraction of toluene	uncertainty	Mole fraction of heptane	uncertainty
313.2	1	.0305	.0329	.0008	.0244	.0008	.9756	.0008
313.2	1	.0595	.034	.0008	.0515	.0008	.9485	.0008
313.2	1	.1243	.0323	.0008	.1131	.0008	.8869	.0008
313.2	1	.1724	.0314	.0008	.1537	.0008	.8463	.0008
313.2	1	.2111	.0311	.0008	.2081	.0008	.7919	.0008
313.2	1	.2701	.0368	.0008	.2515	.0008	.7485	.0008
313.2	1	.2992	.0299	.0008	.3353	.0008	.6647	.0008
313.2	1	.3801	.0343	.0008	.4072	.0008	.5928	.0008
313.2	1	.4745	.0358	.0008	.544	.0008	.456	.0008
313.2	1	.5693	.0366	.0008	.6422	.0008	.3578	.0008

System: toluene + heptane + 4-methyl-N-ethylpyridinium bis-(trifluoromethylsulfonyl)imide; phases: Liquid mixture 1, Liquid mixture 2
Property: Mole fraction of heptane (Liquid mixture 1); method: Chromatography
Property: Mole fraction of toluene (Liquid mixture 2); method: Chromatography
Property: Mole fraction of heptane (Liquid mixture 2); method: Chromatography
Temperature, K	Pressure, kPa	Mole fraction of toluene	Mole fraction of heptane	uncertainty	Mole fraction of toluene	uncertainty	Mole fraction of heptane	uncertainty
313.2	1	.024	.976	.0008	.031	.0008	.0329	.0008
313.2	1	.052	.948	.0008	.0591	.0008	.0296	.0008
313.2	1	.1155	.8845	.0008	.1233	.0008	.032	.0008
313.2	1	.1617	.8383	.0008	.1761	.0008	.0334	.0008
313.2	1	.2141	.7859	.0008	.2236	.0008	.0353	.0008
313.2	1	.2724	.7276	.0008	.2503	.0008	.0349	.0008
313.2	1	.3164	.6836	.0008	.3216	.0008	.0366	.0008
313.2	1	.4246	.5754	.0008	.3543	.0008	.0336	.0008
313.2	1	.5332	.4668	.0008	.4891	.0008	.035	.0008
313.2	1	.6294	.3706	.0008	.5812	.0008	.0373	.0008
