Measured thermophysical data. Viscosities of Acetate or Chloride-Based Ionic Liquids and Some of Their Mixtures with Water or Other Common Solvents
Source: J. Chem. Eng. Data, 2011, 10.1021/je1007235
Compound 1: 1-ethyl-3-methylimidazolium chloride, C6H11ClN2, purity 95%
Compound 2: 1-butyl-3-methylimidazolium chloride, C8H15ClN2, purity 95%
Compound 3: 1-hexyl-3-methylimidazolium chloride, C10H19ClN2, purity 95%
Compound 4: 1-methyl-3-octylimidazolium chloride, C12H23ClN2, purity 95%
Compound 5: 1-ethyl-3-methylimidazolium acetate, C8H14N2O2, purity 95%
Compound 6: 1-butyl-3-methylimidazolium acetate, C10H18N2O2, purity 95%
Compound 7: 1-butyl-3-methylimidazolium dicyanamide, C10H15N5, purity 95%
Compound 8: methylnitrile, C2H3N, purity 99%
Compound 9: ethylene glycol, C2H6O2, purity 99%
Compound 10: N,N-dimethylformamide, C3H7NO, purity 99%
Compound 11: water, H2O

System: 1-ethyl-3-methylimidazolium chloride; phases: Liquid
Fixed: Pressure, kPa = 101.325
Property: Viscosity, Pa*s (Liquid); method: Concentric cylinders viscometry
Temperature, K	Viscosity, Pa*s	uncertainty
353.15	.065	.001
373.15	.027	.001
393.15	.013	.001

System: 1-butyl-3-methylimidazolium chloride; phases: Liquid
Fixed: Pressure, kPa = 101.325
Property: Viscosity, Pa*s (Liquid); method: Concentric cylinders viscometry
Temperature, K	Viscosity, Pa*s	uncertainty
353.15	.142	.001
373.15	.068	.001
393.15	.031	.001

System: 1-hexyl-3-methylimidazolium chloride; phases: Liquid
Fixed: Pressure, kPa = 101.325
Property: Viscosity, Pa*s (Liquid); method: Concentric cylinders viscometry
Temperature, K	Viscosity, Pa*s	uncertainty
353.15	.293	.001
373.15	.087	.001
393.15	.043	.001

System: 1-methyl-3-octylimidazolium chloride; phases: Liquid
Fixed: Pressure, kPa = 101.325
Property: Viscosity, Pa*s (Liquid); method: Concentric cylinders viscometry
Temperature, K	Viscosity, Pa*s	uncertainty
353.15	.375	.001
373.15	.161	.001
393.15	.081	.001

System: 1-ethyl-3-methylimidazolium acetate; phases: Liquid
Fixed: Pressure, kPa = 101.325
Property: Viscosity, Pa*s (Liquid); method: Concentric cylinders viscometry
Temperature, K	Viscosity, Pa*s	uncertainty
298.15	.162	.001
353.15	.017	.001
373.15	.009	.001
393.15	.005	.001

System: 1-butyl-3-methylimidazolium acetate; phases: Liquid
Fixed: Pressure, kPa = 101.325
Property: Viscosity, Pa*s (Liquid); method: Concentric cylinders viscometry
Temperature, K	Viscosity, Pa*s	uncertainty
298.15	.383	.001
353.15	.026	.001
373.15	.015	.001
393.15	.009	.001

System: 1-butyl-3-methylimidazolium dicyanamide; phases: Liquid
Fixed: Pressure, kPa = 101.325
Property: Viscosity, Pa*s (Liquid); method: Concentric cylinders viscometry
Temperature, K	Viscosity, Pa*s	uncertainty
298.15	.031	.001
353.15	.011	.001
373.15	.006	.001
393.15	.004	.001

System: water + 1-ethyl-3-methylimidazolium acetate; phases: Liquid
Fixed: Pressure, kPa = 101.3
Fixed: Temperature, K = 298.15
Property: Viscosity, Pa*s (Liquid); method: Concentric cylinders viscometry
Mass fraction of water	Viscosity, Pa*s	uncertainty
.023	.122	.001
.045	.081	.001
.084	.057	.001
.192	.032	.001
.374	.012	.001
.556	.004	.001
1	.00089	.001

System: water + 1-butyl-3-methylimidazolium acetate; phases: Liquid
Fixed: Pressure, kPa = 101.3
Fixed: Temperature, K = 298.15
Property: Viscosity, Pa*s (Liquid); method: Concentric cylinders viscometry
Mass fraction of water	Viscosity, Pa*s	uncertainty
.029	.383	.001
.031	.341	.001
.048	.236	.001
.512	.018	.001
.731	.005	.001
1	.00089	.001

System: methylnitrile + 1-butyl-3-methylimidazolium acetate; phases: Liquid
Fixed: Pressure, kPa = 101.3
Fixed: Temperature, K = 298.15
Property: Viscosity, Pa*s (Liquid); method: Concentric cylinders viscometry
Mass fraction of methylnitrile	Viscosity, Pa*s	uncertainty
.089	.148	.001
.213	.027	.001
.389	.005	.001
.593	.002	.001
1	.00034	.001

System: ethylene glycol + 1-butyl-3-methylimidazolium acetate; phases: Liquid
Fixed: Pressure, kPa = 101.3
Fixed: Temperature, K = 298.15
Property: Viscosity, Pa*s (Liquid); method: Concentric cylinders viscometry
Mass fraction of ethylene glycol	Viscosity, Pa*s	uncertainty
.081	.291	.001
.248	.102	.001
.464	.039	.001
.678	.026	.001
1	.0161	.001

System: N,N-dimethylformamide + 1-butyl-3-methylimidazolium acetate; phases: Liquid
Fixed: Pressure, kPa = 101.3
Fixed: Temperature, K = 298.15
Property: Viscosity, Pa*s (Liquid); method: Concentric cylinders viscometry
Mass fraction of N,N-dimethylformamide	Viscosity, Pa*s	uncertainty
.062	.231	.001
.191	.054	.001
.389	.011	.001
.606	.004	.001
1	.00092	.001
