Measured thermophysical data. Physicochemical Characterization of New Sulfate Ionic Liquids
Source: J. Chem. Eng. Data, 2011, 10.1021/je1006357
Compound 1: 1-ethyl-1-methylpyrrolidinium ethylsulfate, C9H21NO4S
Compound 2: 1-butyl-1-ethylpyrrolidinium ethylsulfate, C12H27NO4S
Compound 3: 1-butyl-1-methylpyrrolidinium methyl sulfate, C10H23NO4S
Compound 4: triethylmethylammonium methylsulfate, C8H21NO4S

System: 1-ethyl-1-methylpyrrolidinium ethylsulfate; phases: Crystal, Liquid, Air at 1 atmosphere
Property: Normal melting temperature, K (Crystal); method: DSC/DTA
Normal melting temperature, K	uncertainty
306	1

System: 1-ethyl-1-methylpyrrolidinium ethylsulfate; phases: Liquid
Fixed: Pressure, kPa = 101.325
Property: Mass density, kg/m3 (Liquid); method: Vibrating tube method
Temperature, K	Mass density, kg/m3	uncertainty
308.15	1189.67	.03
313.15	1186.53	.03
318.15	1183.41	.03
323.15	1180.3	.03
328.15	1177.22	.03
333.15	1174.15	.03
338.15	1171.11	.03
343.15	1168.07	.03

System: 1-ethyl-1-methylpyrrolidinium ethylsulfate; phases: Liquid
Fixed: Pressure, kPa = 101.325
Property: Viscosity, Pa*s (Liquid); method: Capillary tube (Ostwald; Ubbelohde) method
Temperature, K	Viscosity, Pa*s	uncertainty
308.15	.172	
313.15	.1349	
318.15	.1075	
323.15	.0868	
328.15	.0712	
333.15	.0591	
338.15	.0495	
343.15	.042	

System: 1-ethyl-1-methylpyrrolidinium ethylsulfate; phases: Liquid
Fixed: Pressure, kPa = 101.325
Property: Refractive index (Na D-line) (Liquid); method: Standard Abbe refractometry
Temperature, K	Refractive index (Na D-line)	uncertainty
308.15	1.47021	.00004
313.15	1.46891	.00004
318.15	1.4676	.00004
323.15	1.46632	.00004
328.15	1.46506	.00004
333.15	1.46378	.00004
338.15	1.46246	.00004
343.15	1.46116	.00004

System: 1-ethyl-1-methylpyrrolidinium ethylsulfate; phases: Liquid
Fixed: Pressure, kPa = 101.325
Property: Speed of sound, m/s (Liquid); method: Pulse-echo method
Temperature, K	Speed of sound, m/s	uncertainty
308.15	1750.2	.3
313.15	1737.5	.3
318.15	1725.2	.3
323.15	1713	.3
328.15	1701	.3
333.15	1689.2	.3
338.15	1677.3	.3
343.15	1665.7	.3

System: 1-butyl-1-ethylpyrrolidinium ethylsulfate; phases: Crystal, Liquid, Air at 1 atmosphere
Property: Normal melting temperature, K (Crystal); method: DSC/DTA
Normal melting temperature, K	uncertainty
326	1

System: 1-butyl-1-ethylpyrrolidinium ethylsulfate; phases: Liquid
Fixed: Pressure, kPa = 101.325
Property: Mass density, kg/m3 (Liquid); method: Vibrating tube method
Temperature, K	Mass density, kg/m3	uncertainty
328.15	1118.72	.03
333.15	1115.98	.03
338.15	1113.02	.03
343.15	1110.08	.03

System: 1-butyl-1-ethylpyrrolidinium ethylsulfate; phases: Liquid
Fixed: Pressure, kPa = 101.325
Property: Viscosity, Pa*s (Liquid); method: Capillary tube (Ostwald; Ubbelohde) method
Temperature, K	Viscosity, Pa*s	uncertainty
328.15	.1055	
333.15	.0829	
338.15	.0668	
343.15	.0558	

System: 1-butyl-1-ethylpyrrolidinium ethylsulfate; phases: Liquid
Fixed: Pressure, kPa = 101.325
Property: Refractive index (Na D-line) (Liquid); method: Standard Abbe refractometry
Temperature, K	Refractive index (Na D-line)	uncertainty
328.15	1.4671	.00004
333.15	1.46581	.00004
338.15	1.46454	.00004
343.15	1.46315	.00004

System: 1-butyl-1-ethylpyrrolidinium ethylsulfate; phases: Liquid
Fixed: Pressure, kPa = 101.325
Property: Speed of sound, m/s (Liquid); method: Pulse-echo method
Temperature, K	Speed of sound, m/s	uncertainty
328.15	1602	.3
333.15	1589.6	.3
338.15	1577.2	.3
343.15	1564.9	.3

System: 1-butyl-1-methylpyrrolidinium methyl sulfate; phases: Liquid
Fixed: Pressure, kPa = 101.325
Property: Mass density, kg/m3 (Liquid); method: Vibrating tube method
Temperature, K	Mass density, kg/m3	uncertainty
298.15	1166.69	.03
303.15	1163.58	.03
308.15	1160.46	.03
313.15	1157.4	.03
318.15	1154.4	.03
323.15	1151.42	.03
328.15	1148.42	.03
333.15	1145.42	.03
338.15	1142.44	.03
343.15	1139.47	.03

System: 1-butyl-1-methylpyrrolidinium methyl sulfate; phases: Liquid
Fixed: Pressure, kPa = 101.325
Property: Viscosity, Pa*s (Liquid); method: Capillary tube (Ostwald; Ubbelohde) method
Temperature, K	Viscosity, Pa*s	uncertainty
298.15	.4675	
303.15	.3349	
308.15	.2456	
313.15	.1841	
318.15	.1392	
323.15	.1078	
328.15	.0861	
333.15	.0692	
338.15	.0564	
343.15	.0466	

System: 1-butyl-1-methylpyrrolidinium methyl sulfate; phases: Liquid
Fixed: Pressure, kPa = 101.325
Property: Refractive index (Na D-line) (Liquid); method: Standard Abbe refractometry
Temperature, K	Refractive index (Na D-line)	uncertainty
298.15	1.47308	.00004
303.15	1.47184	.00004
308.15	1.47054	.00004
313.15	1.46924	.00004
318.15	1.46792	.00004
323.15	1.46661	.00004
328.15	1.46536	.00004
333.15	1.46406	.00004
338.15	1.46274	.00004
343.15	1.46143	.00004

System: 1-butyl-1-methylpyrrolidinium methyl sulfate; phases: Liquid
Fixed: Pressure, kPa = 101.325
Property: Speed of sound, m/s (Liquid); method: Pulse-echo method
Temperature, K	Speed of sound, m/s	uncertainty
298.15	1741.6	.3
303.15	1727.3	.3
308.15	1713.6	.3
313.15	1700.3	.3
318.15	1687.4	.3
323.15	1674.7	.3
328.15	1662.2	.3
333.15	1649.8	.3
338.15	1637.6	.3
343.15	1625.5	.3

System: triethylmethylammonium methylsulfate; phases: Crystal, Liquid, Air at 1 atmosphere
Property: Normal melting temperature, K (Crystal); method: DSC/DTA
Normal melting temperature, K	uncertainty
306	1

System: triethylmethylammonium methylsulfate; phases: Liquid
Fixed: Pressure, kPa = 101.325
Property: Mass density, kg/m3 (Liquid); method: Vibrating tube method
Temperature, K	Mass density, kg/m3	uncertainty
308.15	1166.44	.03
313.15	1163.4	.03
318.15	1160.36	.03
323.15	1157.34	.03
328.15	1154.32	.03
333.15	1151.33	.03
338.15	1148.34	.03
343.15	1145.36	.03

System: triethylmethylammonium methylsulfate; phases: Liquid
Fixed: Pressure, kPa = 101.325
Property: Viscosity, Pa*s (Liquid); method: Capillary tube (Ostwald; Ubbelohde) method
Temperature, K	Viscosity, Pa*s	uncertainty
308.15	.2185	
313.15	.1656	
318.15	.1277	
323.15	.1003	
328.15	.0797	
333.15	.064	
338.15	.05342	
343.15	.04492	

System: triethylmethylammonium methylsulfate; phases: Liquid
Fixed: Pressure, kPa = 101.325
Property: Refractive index (Na D-line) (Liquid); method: Standard Abbe refractometry
Temperature, K	Refractive index (Na D-line)	uncertainty
308.15	1.46191	.00004
313.15	1.46065	.00004
318.15	1.45939	.00004
323.15	1.45812	.00004
328.15	1.45687	.00004
333.15	1.45561	.00004
338.15	1.45402	.00004
343.15	1.45283	.00004

System: triethylmethylammonium methylsulfate; phases: Liquid
Fixed: Pressure, kPa = 101.325
Property: Speed of sound, m/s (Liquid); method: Pulse-echo method
Temperature, K	Speed of sound, m/s	uncertainty
308.15	1853.5	.3
313.15	1839.7	.3
318.15	1826.3	.3
323.15	1813.1	.3
328.15	1800	.3
333.15	1787.1	.3
338.15	1774.2	.3
343.15	1761.5	.3
