Measured thermophysical data. Density and Surface Tension of Amino Acid Ionic Liquid 1-Alkyl-3-methylimidazolium Glutamate
Source: J. Chem. Eng. Data, 2010, 10.1021/je1002434
Compound 1: 1-propyl-3-methylimidazolium glutamate, C12H21N3O4
Compound 2: water, H2O

System: 1-propyl-3-methylimidazolium glutamate; phases: Liquid
Property: Mass density, kg/m3 (Liquid); method: Buoyancy - hydrostatic balance with magnetic suspension - one sinker
Temperature, K	Pressure, kPa	Mass density, kg/m3	uncertainty
298.15	101	1.2292	.0002
318.15	101	1.2186	.0002
323.15	101	1.2159	.0002
328.15	101	1.2132	.0002
333.15	101	1.2106	.0002
338.15	101	1.2082	.0002
343.15	101	1.2053	.0002

System: 1-propyl-3-methylimidazolium glutamate; phases: Liquid, Gas
Property: Surface tension liquid-gas, N/m (Liquid); method: Maximal bubble pressure
Temperature, K	Surface tension liquid-gas, N/m	uncertainty
298.15	.0608	
318.15	.0547	
323.15	.0532	
328.15	.0518	
333.15	.0501	
338.15	.0487	

System: water + 1-propyl-3-methylimidazolium glutamate; phases: Liquid
Fixed: Pressure, kPa = 101
Property: Mass density, kg/m3 (Liquid); method: Buoyancy - hydrostatic balance with magnetic suspension - one sinker
Temperature, K	Mass fraction of water	Mass density, kg/m3	uncertainty
318.15	.00841	1.2048	.0002
323.15	.00841	1.2022	.0002
328.15	.00841	1.1995	.0002
333.15	.00841	1.1969	.0002
338.15	.00841	1.1943	.0002
343.15	.00841	1.1916	.0002
318.15	.01002	1.202	.0002
323.15	.01002	1.1993	.0002
328.15	.01002	1.1967	.0002
333.15	.01002	1.194	.0002
338.15	.01002	1.1914	.0002
343.15	.01002	1.1887	.0002
318.15	.01126	1.2003	.0002
323.15	.01126	1.1976	.0002
328.15	.01126	1.195	.0002
333.15	.01126	1.1923	.0002
338.15	.01126	1.1896	.0002
343.15	.01126	1.187	.0002
318.15	.01281	1.1974	.0002
323.15	.01281	1.1947	.0002
328.15	.01281	1.192	.0002
333.15	.01281	1.1894	.0002
338.15	.01281	1.1867	.0002
343.15	.01281	1.1841	.0002
318.15	.01404	1.1956	.0002
323.15	.01404	1.193	.0002
328.15	.01404	1.1904	.0002
333.15	.01404	1.1877	.0002
338.15	.01404	1.185	.0002
343.15	.01404	1.1824	.0002

System: water + 1-propyl-3-methylimidazolium glutamate; phases: Liquid, Gas
Property: Surface tension liquid-gas, N/m (Liquid); method: Maximal bubble pressure
Temperature, K	Mass fraction of water	Surface tension liquid-gas, N/m	uncertainty
318.15	.0089	.0552	
323.15	.0089	.0538	
328.15	.0089	.0525	
333.15	.0089	.0507	
338.15	.0089	.0494	
318.15	.012	.0554	
323.15	.012	.054	
328.15	.012	.0526	
333.15	.012	.0512	
338.15	.012	.0499	
318.15	.0151	.0555	
323.15	.0151	.0542	
328.15	.0151	.0528	
333.15	.0151	.0514	
338.15	.0151	.0502	
318.15	.0192	.0557	
323.15	.0192	.0544	
328.15	.0192	.0531	
333.15	.0192	.0517	
338.15	.0192	.0504	
318.15	.0222	.056	
323.15	.0222	.0547	
328.15	.0222	.0534	
333.15	.0222	.0519	
338.15	.0222	.0507	
