Measured thermophysical data. Mixed Micellization Properties of Cationic Monomeric and Gemini Surfactants
Source: J. Chem. Eng. Data, 2010, 10.1021/je100113r
Compound 1: N,N'-dihexadecyl-N,N,N',N'-tetramethyldecamethylenediammonium dibromide, C46H98N2Br2
Compound 2: trimethylcetylammonium bromide, C19H42BrN
Compound 3: hexadecyltriphenylphosphonium bromide, C34H48BrP
Compound 4: hexadecyltributylphosphonium bromide, C28H60BrP
Compound 5: tetradecyltriphenylphosphonium bromide, C32H44BrP
Compound 6: water, H2O

System: hexadecyltributylphosphonium bromide; phases: Liquid
Property: Electrical conductivity, S/m (Liquid); method: Systronics conductivity meter (Type 306)
Pressure, kPa	Temperature, K	Electrical conductivity, S/m	uncertainty
101	300	.00033	

System: trimethylcetylammonium bromide + water + N,N'-dihexadecyl-N,N,N',N'-tetramethyldecamethylenediammonium dibromide; phases: Liquid
Fixed: Pressure, kPa = 101
Fixed: Temperature, K = 300
Property: Electrical conductivity, S/m (Liquid); method: Systronics conductivity meter (Type 306)
Amount concentration (molarity), mol/dm3 of N,N'-dihexadecyl-N,N,N',N'-tetramethyldecamethylenediammonium dibromide	Solvent: Mole fraction of trimethylcetylammonium bromide	Electrical conductivity, S/m	uncertainty
0	.203	.0004	.000002
.000008	.203	.00068	.0000034
.000016	.203	.00087	.00000435
.000024	.203	.00107	.00000535
.000032	.203	.00126	.0000063
.00004	.203	.00139	.00000695
.000048	.203	.00154	.0000077
.000056	.203	.00168	.0000084
.000064	.203	.00181	.00000905
.00008	.203	.002	.00001
.000088	.203	.0021	.0000105
.000096	.203	.0022	.000011
.000104	.203	.0023	.0000115
.000112	.203	.0024	.000012
.00012	.203	.0025	.0000125
.000128	.203	.0026	.000013
.000024	.406	.00088	.0000044
.000032	.406	.00102	.0000051
.00004	.406	.00117	.00000585
0	.406	.0004	.000002
.000048	.406	.0013	.0000065
.000008	.406	.00057	.00000285
.000056	.406	.00142	.0000071
.000064	.406	.00152	.0000076
.000072	.406	.00162	.0000081
.00008	.406	.00172	.0000086
.000088	.406	.00182	.0000091
.000096	.406	.00198	.0000099
.000104	.406	.002	.00001
.000016	.406	.00073	.00000365
.000112	.406	.0021	.0000105
.00012	.406	.0022	.000011
.000128	.406	.0023	.0000115
.000136	.406	.0024	.000012
.000024	.502	.00094	.0000047
.000044	.502	.0012	.000006
.000048	.502	.00131	.00000655
.000008	.502	.0006	.000003
.000056	.502	.00142	.0000071
.000064	.502	.00152	.0000076
.000072	.502	.00162	.0000081
.000032	.502	.00106	.0000053
.00008	.502	.00172	.0000086
.000088	.502	.00183	.00000915
.000096	.502	.00196	.0000098
.0001	.502	.002	.00001
.000108	.502	.0021	.0000105
.000016	.502	.0008	.000004
.000116	.502	.0022	.000011
.000124	.502	.0023	.0000115
.00004	.502	.00118	.0000059
.000132	.502	.0024	.000012
.00014	.502	.0025	.0000125
.000008	.598	.00046	.0000023
.000064	.598	.0013	.0000065
.000072	.598	.0014	.000007
.000048	.598	.00108	.0000054
.000024	.598	.00071	.00000355
.00008	.598	.0015	.0000075
.000088	.598	.00159	.00000795
.000032	.598	.00084	.0000042
.000096	.598	.00167	.00000835
.000104	.598	.00176	.0000088
.000056	.598	.0012	.000006
.000112	.598	.00185	.00000925
0	.598	.00034	.0000017
.00012	.598	.00193	.00000965
.000128	.598	.002	.00001
.000016	.598	.00059	.00000295
.00004	.598	.00095	.00000475
.00008	.698	.0016	.000008
.000008	.698	.00059	.00000295
.000016	.698	.0007	.0000035
.000088	.698	.00168	.0000084
.000048	.698	.00119	.00000595
.000096	.698	.00176	.0000088
0	.698	.00052	.0000026
.000104	.698	.00184	.0000092
.000072	.698	.0015	.0000075
.000032	.698	.00095	.00000475
.00004	.698	.00107	.00000535
.000112	.698	.00192	.0000096
.000064	.698	.0014	.000007
.00012	.698	.002	.00001
.000056	.698	.0013	.0000065
.000024	.698	.00082	.0000041
.000032	.799	.00088	.0000044
0	.799	.00024	.0000012
.00004	.799	.00101	.00000505
.000104	.799	.002	.00001
.000088	.799	.00179	.00000895
.000096	.799	.00191	.00000955
.000072	.799	.00154	.0000077
.000112	.799	.0021	.0000105
.000016	.799	.00059	.00000295
.000008	.799	.00042	.0000021
.00012	.799	.0022	.000011
.000064	.799	.00142	.0000071
.000056	.799	.00129	.00000645
.00008	.799	.00167	.00000835
.000128	.799	.0023	.0000115
.000048	.799	.00115	.00000575
.000024	.799	.00073	.00000365
.000136	.799	.0024	.000012
.000144	.799	.0025	.0000125
.000152	.799	.0026	.000013
.00016	.799	.0027	.0000135
.000168	.799	.0028	.000014
.000176	.799	.0029	.0000145
.000184	.799	.003	.000015
.000192	.799	.0031	.0000155
.0002	.799	.0032	.000016
.000208	.799	.0033	.0000165
.000216	.799	.0034	.000017
.000224	.799	.0035	.0000175
.000232	.799	.0036	.000018
.00014	.899	.0021	.0000105
.000036	.899	.00087	.00000435
.000148	.899	.0021	.0000105
.00012	.899	.00187	.00000935
.000156	.899	.0022	.000011
.000072	.899	.00129	.00000645
.000164	.899	.0022	.000011
.000116	.899	.00179	.00000895
.000172	.899	.0023	.0000115
.000108	.899	.0017	.0000085
.00018	.899	.0023	.0000115
.000012	.899	.0006	.000003
.000188	.899	.0024	.000012
.000084	.899	.00143	.00000715
.000196	.899	.0024	.000012
.000128	.899	.00196	.0000098
.000204	.899	.0025	.0000125
.000096	.899	.00157	.00000785
.000212	.899	.0025	.0000125
.000048	.899	.00103	.00000515
.00022	.899	.0026	.000013
.000024	.899	.00074	.0000037
.000228	.899	.0026	.000013
.00006	.899	.00117	.00000585
.000236	.899	.0027	.0000135
.000244	.899	.0027	.0000135

System: water + hexadecyltriphenylphosphonium bromide + N,N'-dihexadecyl-N,N,N',N'-tetramethyldecamethylenediammonium dibromide; phases: Liquid
Fixed: Pressure, kPa = 101
Fixed: Temperature, K = 300
Property: Electrical conductivity, S/m (Liquid); method: Systronics conductivity meter (Type 306)
Amount concentration (molarity), mol/dm3 of N,N'-dihexadecyl-N,N,N',N'-tetramethyldecamethylenediammonium dibromide	Solvent: Mole fraction of water	Electrical conductivity, S/m	uncertainty
0	.198	.00031	.00000155
.000004	.198	.00042	.0000021
.000008	.198	.00054	.0000027
.000012	.198	.00066	.0000033
.000016	.198	.00078	.0000039
.00002	.198	.0009	.0000045
.000024	.198	.00102	.0000051
.000028	.198	.00112	.0000056
.000032	.198	.0012	.000006
.000036	.198	.00129	.00000645
.00004	.198	.00137	.00000685
.000044	.198	.00145	.00000725
.000048	.198	.00152	.0000076
.000052	.198	.00159	.00000795
.000056	.198	.00168	.0000084
.00006	.198	.00176	.0000088
.000004	.398	.00045	.00000225
.000016	.398	.00071	.00000355
.00002	.398	.00081	.00000405
.000024	.398	.0009	.0000045
.000028	.398	.00098	.0000049
.000032	.398	.00106	.0000053
.000036	.398	.00114	.0000057
.000038	.398	.00117	.00000585
.00004	.398	.00121	.00000605
.000008	.398	.00054	.0000027
.000044	.398	.00127	.00000635
.000048	.398	.00133	.00000665
.000052	.398	.0014	.000007
.000056	.398	.00148	.0000074
.000012	.398	.00062	.0000031
.000024	.498	.00075	.00000375
.000012	.498	.00051	.00000255
.000028	.498	.00083	.00000415
.000032	.498	.00091	.00000455
.000016	.498	.00059	.00000295
.000036	.498	.001	.000005
.00004	.498	.00107	.00000535
.000044	.498	.00115	.00000575
.00002	.498	.00067	.00000335
.000004	.498	.00036	.0000018
.000008	.498	.00043	.00000215
.000048	.498	.00123	.00000615
.000052	.498	.00129	.00000645
0	.498	.0003	.0000015
.000056	.498	.00133	.00000665
.00006	.498	.00139	.00000695
.000064	.498	.00143	.00000715
.000068	.498	.00147	.00000735
.000072	.498	.00152	.0000076
.000076	.498	.00156	.0000078
.00008	.498	.0016	.000008
.00004	.598	.00108	.0000054
0	.598	.00037	.00000185
.000044	.598	.00117	.00000585
.000028	.598	.00085	.00000425
.000048	.598	.00124	.0000062
.000012	.598	.00059	.00000295
.000024	.598	.00083	.00000415
.00002	.598	.00075	.00000375
.000008	.598	.00052	.0000026
.000052	.598	.0013	.0000065
.000032	.598	.00094	.0000047
.000056	.598	.00137	.00000685
.000004	.598	.00045	.00000225
.00006	.598	.00141	.00000705
.000064	.598	.00145	.00000725
.000068	.598	.00149	.00000745
.000072	.598	.00153	.00000765
.000036	.598	.00101	.00000505
.000076	.598	.00158	.0000079
.000016	.598	.0006	.000003
.00008	.598	.00162	.0000081
.000084	.598	.00166	.0000083
.000088	.598	.00171	.00000855
.000092	.598	.00176	.0000088
.000096	.598	.0018	.000009
.0001	.598	.00184	.0000092
.000104	.598	.00188	.0000094
.000108	.598	.00192	.0000096
.000024	.799	.00081	.00000405
.00006	.799	.00146	.0000073
.000012	.799	.00058	.0000029
.000068	.799	.00161	.00000805
.000044	.799	.00117	.00000585
.000004	.799	.00042	.0000021
.000076	.799	.00175	.00000875
.000036	.799	.00103	.00000515
.00002	.799	.00073	.00000365
.000052	.799	.00132	.0000066
.000084	.799	.00189	.00000945
.000028	.799	.00088	.0000044
.000092	.799	.002	.00001
.0001	.799	.0021	.0000105
.000108	.799	.0022	.000011
.000116	.799	.0023	.0000115
.000124	.799	.0024	.000012
.000132	.799	.0025	.0000125
.00014	.799	.0026	.000013
.000148	.799	.0027	.0000135
.000156	.799	.0028	.000014
.000164	.799	.0029	.0000145
.000064	.897	.00118	.0000059
.000088	.897	.00154	.0000077
.000032	.897	.00072	.0000036
.000072	.897	.00133	.00000665
.000096	.897	.00164	.0000082
.000048	.897	.00097	.00000485
.000056	.897	.00109	.00000545
.000104	.897	.0017	.0000085
.00004	.897	.00084	.0000042
.000012	.897	.00041	.00000205
.000112	.897	.00177	.00000885
.00012	.897	.00185	.00000925
.000128	.897	.00192	.0000096
.000004	.897	.00029	.00000145
.000136	.897	.002	.00001
.00008	.897	.00144	.0000072
.00002	.897	.00053	.00000265
.000072	1	.00161	.00000805
.00004	1	.00119	.00000595
.000056	1	.00139	.00000695
.000136	1	.0024	.000012
.000008	1	.00073	.00000365
.00012	1	.0022	.000011
.000024	1	.00095	.00000475
.000152	1	.0026	.000013
.000104	1	.00198	.0000099
.000088	1	.00183	.00000915
.000168	1	.0028	.000014
.000184	1	.0029	.0000145
.0002	1	.003	.000015
.000216	1	.0031	.0000155
.000232	1	.0032	.000016
.000248	1	.0034	.000017
.000264	1	.0035	.0000175
.00028	1	.0036	.000018

System: water + hexadecyltributylphosphonium bromide + N,N'-dihexadecyl-N,N,N',N'-tetramethyldecamethylenediammonium dibromide; phases: Liquid
Fixed: Pressure, kPa = 101
Fixed: Temperature, K = 300
Property: Electrical conductivity, S/m (Liquid); method: Systronics conductivity meter (Type 306)
Amount concentration (molarity), mol/dm3 of N,N'-dihexadecyl-N,N,N',N'-tetramethyldecamethylenediammonium dibromide	Solvent: Mole fraction of hexadecyltributylphosphonium bromide	Electrical conductivity, S/m	uncertainty
0	.198	.00035	.00000175
0	.397	.00035	.00000175
0	.498	.00035	.00000175
0	.598	.00035	.00000175
0	.698	.00035	.00000175
0	.799	.00035	.00000175
0	1	.00033	.00000165
.000004	.198	.00044	.0000022
.000004	.397	.00045	.00000225
.000004	.498	.00043	.00000215
.000004	.598	.00041	.00000205
.000004	.698	.0005	.0000025
.000004	.799	.00042	.0000021
.000008	.397	.00054	.0000027
.000008	.198	.00055	.00000275
.000008	.498	.00051	.00000255
.000008	.598	.00047	.00000235
.000008	.698	.00065	.00000325
.000008	.799	.00049	.00000245
.000012	.397	.00064	.0000032
.000012	.498	.00059	.00000295
.000012	.198	.00066	.0000033
.000012	.598	.00053	.00000265
.000012	.698	.0007	.0000035
.000012	.799	.00056	.0000028
.000016	.498	.00067	.00000335
.000016	.397	.00074	.0000037
.000016	.598	.00059	.00000295
.000016	.198	.00077	.00000385
.000016	.698	.00085	.00000425
.000016	.799	.00063	.00000315
.00002	.498	.00075	.00000375
.00002	.397	.00084	.0000042
.00002	.598	.00065	.00000325
.00002	.698	.00097	.00000485
.00002	.198	.00088	.0000044
.00002	.799	.0007	.0000035
.00002	1	.00053	.00000265
.000024	.498	.00083	.00000415
.000024	.598	.00071	.00000355
.000024	.397	.00094	.0000047
.000024	.698	.00109	.00000545
.000024	.799	.00077	.00000385
.000024	.198	.00099	.00000495
.000028	.498	.00091	.00000455
.000028	.598	.00077	.00000385
.000028	.198	.00109	.00000545
.000028	.698	.00121	.00000605
.000028	.397	.00104	.0000052
.000028	.799	.00084	.0000042
.000032	.598	.00083	.00000415
.000032	.498	.00099	.00000495
.000032	.698	.00133	.00000665
.000032	.198	.00118	.0000059
.000032	.397	.00114	.0000057
.000032	.799	.00091	.00000455
.000036	.397	.00124	.0000062
.000036	.198	.00126	.0000063
.000036	.598	.00089	.00000445
.000036	.498	.00108	.0000054
.000036	.698	.00145	.00000725
.000036	.799	.00098	.0000049
.00004	.397	.00134	.0000067
.00004	.598	.00095	.00000475
.00004	.198	.00133	.00000665
.00004	.698	.00157	.00000785
.00004	.498	.00116	.0000058
.00004	.799	.00105	.00000525
.00004	1	.00068	.0000034
.000044	.598	.00101	.00000505
.000044	.397	.00142	.0000071
.000044	.198	.00141	.00000705
.000044	.698	.00169	.00000845
.000044	.498	.00124	.0000062
.000044	.799	.00112	.0000056
.000048	.598	.00107	.00000535
.000048	.397	.0015	.0000075
.000048	.698	.00181	.00000905
.000048	.198	.0015	.0000075
.000048	.498	.0013	.0000065
.000048	.799	.00119	.00000595
.000052	.598	.00113	.00000565
.000052	.498	.00136	.0000068
.000052	.198	.00159	.00000795
.000052	.698	.00193	.00000965
.000052	.397	.00158	.0000079
.000052	.799	.00126	.0000063
.000056	.498	.00141	.00000705
.000056	.198	.00167	.00000835
.000056	.598	.00117	.00000585
.000056	.698	.00205	.00001025
.000056	.799	.00133	.00000665
.000056	.397	.00166	.0000083
.00006	.698	.00217	.00001085
.00006	.498	.00147	.00000735
.00006	.598	.00122	.0000061
.00006	.397	.00174	.0000087
.00006	.799	.0014	.000007
.00006	.198	.00175	.00000875
.00006	1	.00085	.00000425
.000064	.698	.00229	.00001145
.000064	.498	.00152	.0000076
.000064	.598	.00126	.0000063
.000064	.799	.00147	.00000735
.000064	.397	.00182	.0000091
.000064	.198	.00183	.00000915
.000068	.698	.00238	.0000119
.000068	.397	.0019	.0000095
.000068	.498	.00158	.0000079
.000068	.598	.00131	.00000655
.000068	.799	.00154	.0000077
.000072	.397	.00198	.0000099
.000072	.598	.00135	.00000675
.000072	.498	.00163	.00000815
.000072	.698	.00246	.0000123
.000072	.799	.00161	.00000805
.000076	.397	.00206	.0000103
.000076	.598	.0014	.000007
.000076	.498	.00169	.00000845
.000076	.698	.00253	.00001265
.000076	.799	.00168	.0000084
.00008	.598	.00144	.0000072
.00008	.799	.00175	.00000875
.00008	.397	.00214	.0000107
.00008	.698	.0026	.000013
.000084	.598	.00149	.00000745
.000084	.799	.00179	.00000895
.000084	.698	.00267	.00001335
.000088	.598	.00153	.00000765
.000088	.698	.00275	.00001375
.000088	.799	.00183	.00000915
.000092	.598	.00158	.0000079
.000092	.799	.00187	.00000935
.000092	.698	.00282	.0000141
.000096	.598	.00162	.0000081
.000096	.799	.00191	.00000955
.000096	.698	.00289	.00001445
.0001	.698	.00296	.0000148
.0001	.799	.00195	.00000975
.0001	.598	.00167	.00000835
.0001	1	.0012	.000006
.000104	.799	.00199	.00000995
.000104	.698	.00304	.0000152
.000108	.799	.00203	.00001015
.000108	.698	.00311	.00001555
.000112	.799	.00207	.00001035
.000112	.698	.00318	.0000159
.000116	.799	.00211	.00001055
.000116	.698	.00326	.0000163
.00012	.799	.00215	.00001075
.00012	.698	.00333	.00001665
.000124	.698	.00341	.00001705
.000124	.799	.00219	.00001095
.000128	.799	.00223	.00001115
.000132	.799	.00227	.00001135
.00014	1	.00151	.00000755
.00018	1	.0019	.0000095
.00022	1	.00215	.00001075
.00028	1	.00242	.0000121
.00032	1	.00266	.0000133
.00036	1	.0028	.000014
.0004	1	.00298	.0000149
.00044	1	.0032	.000016
.00048	1	.0034	.000017

System: water + tetradecyltriphenylphosphonium bromide + N,N'-dihexadecyl-N,N,N',N'-tetramethyldecamethylenediammonium dibromide; phases: Liquid
Fixed: Pressure, kPa = 101
Fixed: Temperature, K = 300
Property: Electrical conductivity, S/m (Liquid); method: Systronics conductivity meter (Type 306)
Amount concentration (molarity), mol/dm3 of N,N'-dihexadecyl-N,N,N',N'-tetramethyldecamethylenediammonium dibromide	Solvent: Mole fraction of tetradecyltriphenylphosphonium bromide	Electrical conductivity, S/m	uncertainty
0	.198	.00038	.0000019
.000004	.198	.00048	.0000024
.000008	.198	.00062	.0000031
.000012	.198	.00074	.0000037
.000016	.198	.00085	.00000425
.00002	.198	.001	.000005
.000024	.198	.00109	.00000545
.000028	.198	.00118	.0000059
.000032	.198	.00127	.00000635
.000036	.198	.00137	.00000685
.00004	.198	.00145	.00000725
.000044	.198	.00152	.0000076
.000048	.198	.00159	.00000795
.000052	.198	.00166	.0000083
.000056	.198	.00174	.0000087
.00006	.198	.00182	.0000091
.000064	.198	.00189	.00000945
.000068	.198	.00196	.0000098
.000072	.198	.00202	.0000101
0	.397	.00058	.0000029
.000004	.397	.00069	.00000345
.000008	.397	.00081	.00000405
.000012	.397	.00092	.0000046
.000016	.397	.00102	.0000051
.00002	.397	.00113	.00000565
.000024	.397	.00129	.00000645
.000028	.397	.0014	.000007
.000032	.397	.0015	.0000075
.000036	.397	.0016	.000008
.00004	.397	.0017	.0000085
.000044	.397	.00182	.0000091
.000048	.397	.00191	.00000955
.000052	.397	.00197	.00000985
.000056	.397	.00203	.00001015
.00006	.397	.0021	.0000105
.000064	.397	.00217	.00001085
.000068	.397	.00223	.00001115
.000072	.397	.0023	.0000115
.000076	.397	.00236	.0000118
.00008	.397	.00243	.00001215
.000084	.397	.0025	.0000125
0	.497	.00198	.0000099
.000004	.497	.00217	.00001085
.000008	.497	.00235	.00001175
.000012	.497	.00252	.0000126
.000016	.497	.00268	.0000134
.00002	.497	.00286	.0000143
.000024	.497	.00302	.0000151
.000028	.497	.00319	.00001595
.000032	.497	.00335	.00001675
.000036	.497	.00352	.0000176
.00004	.497	.00368	.0000184
.000044	.497	.00382	.0000191
.000048	.497	.00401	.00002005
.000052	.497	.0041	.0000205
.000056	.497	.0042	.000021
.00006	.497	.00432	.0000216
.000064	.497	.00445	.00002225
.000068	.497	.00453	.00002265
.000072	.497	.00462	.0000231
.000076	.497	.00471	.00002355
.00008	.497	.00481	.00002405
.000084	.497	.0049	.0000245
.000088	.497	.005	.000025
.000004	.698	.00203	.00001015
.000016	.698	.00227	.00001135
.000024	.698	.00242	.0000121
.000032	.698	.00257	.00001285
.00004	.698	.00272	.0000136
.000048	.698	.00287	.00001435
.000056	.698	.00301	.00001505
.000064	.698	.00315	.00001575
.000072	.698	.00325	.00001625
.00008	.698	.00342	.0000171
.000088	.698	.0035	.0000175
.000096	.698	.0036	.000018
.000104	.698	.0037	.0000185
.000112	.698	.0038	.000019
.00012	.698	.0039	.0000195
.000128	.698	.004	.00002
.000008	.9	.0025	.0000125
.000016	.9	.0028	.000014
.000024	.9	.0031	.0000155
.000032	.9	.0034	.000017
.00004	.9	.00369	.00001845
.000048	.9	.00396	.0000198
.000056	.9	.00424	.0000212
.000064	.9	.0045	.0000225
.000072	.9	.00477	.00002385
.00008	.9	.00503	.00002515
.000088	.9	.0054	.000027
.000096	.9	.00554	.0000277
.000104	.9	.00579	.00002895
.000112	.9	.0061	.0000305
.00012	.9	.0064	.000032
.000128	.9	.0066	.000033
.000136	.9	.00674	.0000337
.000144	.9	.00685	.00003425
.000152	.9	.00707	.00003535
.00016	.9	.00726	.0000363
.000168	.9	.00743	.00003715
.000176	.9	.00756	.0000378
.000184	.9	.00773	.00003865
.000192	.9	.0079	.0000395

System: trimethylcetylammonium bromide + water; phases: Liquid
Property: Electrical conductivity, S/m (Liquid); method: Systronics conductivity meter (Type 306)
Mole fraction of trimethylcetylammonium bromide	Pressure, kPa	Temperature, K	Electrical conductivity, S/m	uncertainty
.203	101	300	.0004	.000002
.406	101	300	.0004	.000002
.598	101	300	.00034	.0000017
.698	101	300	.00052	.0000026
.799	101	300	.00024	.0000012

System: water + hexadecyltriphenylphosphonium bromide; phases: Liquid
Property: Electrical conductivity, S/m (Liquid); method: Systronics conductivity meter (Type 306)
Mole fraction of water	Pressure, kPa	Temperature, K	Electrical conductivity, S/m	uncertainty
.198	101	300	.00031	.00000155
.498	101	300	.0003	.0000015
.598	101	300	.00037	.00000185

System: water + N,N'-dihexadecyl-N,N,N',N'-tetramethyldecamethylenediammonium dibromide; phases: Liquid
Property: Electrical conductivity, S/m (Liquid); method: Systronics conductivity meter (Type 306)
Amount concentration (molarity), mol/dm3 of N,N'-dihexadecyl-N,N,N',N'-tetramethyldecamethylenediammonium dibromide	Pressure, kPa	Temperature, K	Electrical conductivity, S/m	uncertainty
.000072	101	300	.00161	.00000805
.00004	101	300	.00119	.00000595
.000056	101	300	.00139	.00000695
.000136	101	300	.0024	.000012
.000008	101	300	.00073	.00000365
.00012	101	300	.0022	.000011
.000024	101	300	.00095	.00000475
.000152	101	300	.0026	.000013
.000104	101	300	.00198	.0000099
.000088	101	300	.00183	.00000915
.000168	101	300	.0028	.000014
.000184	101	300	.0029	.0000145
.0002	101	300	.003	.000015
.000216	101	300	.0031	.0000155
.000232	101	300	.0032	.000016
.000248	101	300	.0034	.000017
.000264	101	300	.0035	.0000175
.00028	101	300	.0036	.000018

System: water + hexadecyltributylphosphonium bromide; phases: Liquid
Property: Electrical conductivity, S/m (Liquid); method: Systronics conductivity meter (Type 306)
Mole fraction of hexadecyltributylphosphonium bromide	Pressure, kPa	Temperature, K	Electrical conductivity, S/m	uncertainty
.198	101	300	.00035	.00000175
.397	101	300	.00035	.00000175
.498	101	300	.00035	.00000175
.598	101	300	.00035	.00000175
.698	101	300	.00035	.00000175
.799	101	300	.00035	.00000175

System: hexadecyltributylphosphonium bromide + N,N'-dihexadecyl-N,N,N',N'-tetramethyldecamethylenediammonium dibromide; phases: Liquid
Property: Electrical conductivity, S/m (Liquid); method: Systronics conductivity meter (Type 306)
Amount concentration (molarity), mol/dm3 of N,N'-dihexadecyl-N,N,N',N'-tetramethyldecamethylenediammonium dibromide	Pressure, kPa	Temperature, K	Electrical conductivity, S/m	uncertainty
.00002	101	300	.00053	.00000265
.00004	101	300	.00068	.0000034
.00006	101	300	.00085	.00000425
.0001	101	300	.0012	.000006
.00014	101	300	.00151	.00000755
.00018	101	300	.0019	.0000095
.00022	101	300	.00215	.00001075
.00028	101	300	.00242	.0000121
.00032	101	300	.00266	.0000133
.00036	101	300	.0028	.000014
.0004	101	300	.00298	.0000149
.00044	101	300	.0032	.000016
.00048	101	300	.0034	.000017

System: water + tetradecyltriphenylphosphonium bromide; phases: Liquid
Property: Electrical conductivity, S/m (Liquid); method: Systronics conductivity meter (Type 306)
Mole fraction of tetradecyltriphenylphosphonium bromide	Pressure, kPa	Temperature, K	Electrical conductivity, S/m	uncertainty
.198	101	300	.00038	.0000019
.397	101	300	.00058	.0000029
.497	101	300	.00198	.0000099
