Measured thermophysical data. Solubility of 5-(Dithiolan-3-yl)pentanoic Acid in the Mixed Solvents of Cyclohexane + Ethyl Acetate, Heptane + Ethyl Acetate, and Hexane + Ethyl Acetate
Source: J. Chem. Eng. Data, 2010, 10.1021/je100048g
Compound 1: DL-6,8-dithiooctanoic acid, C8H14O2S2, purity 99%
Compound 2: cyclohexane, C6H12
Compound 3: ethyl ethanoate, C4H8O2
Compound 4: heptane, C7H16
Compound 5: n-hexane, C6H14

System: cyclohexane + ethyl ethanoate + DL-6,8-dithiooctanoic acid; phases: Liquid, Crystal
Fixed: Pressure, kPa = 101.3
Property: Mole fraction of DL-6,8-dithiooctanoic acid (Liquid); method: Gravimetric
Solvent: Volume fraction of cyclohexane	Temperature, K	Mole fraction of DL-6,8-dithiooctanoic acid	uncertainty
.9091	283.15	.00467	
.9091	288.15	.00599	
.9091	293.15	.00885	
.9091	298.15	.01255	
.9091	303.15	.01979	
.9091	308.15	.03238	
.9091	313.15	.05546	
.9375	283.15	.00361	
.9375	288.15	.00401	
.9375	293.15	.00601	
.9375	298.15	.00867	
.9375	303.15	.0141	
.9375	308.15	.02195	
.9375	313.15	.03827	
.9524	283.15	.00296	
.9524	288.15	.00332	
.9524	293.15	.00513	
.9524	298.15	.00713	
.9524	303.15	.01135	
.9524	308.15	.01816	
.9524	313.15	.03039	
1	283.15	.00071	
1	288.15	.00131	
1	293.15	.00248	
1	298.15	.00314	
1	303.15	.00562	
1	308.15	.0084	
1	313.15	.01368	

System: ethyl ethanoate + heptane + DL-6,8-dithiooctanoic acid; phases: Liquid, Crystal
Fixed: Pressure, kPa = 101.3
Property: Mole fraction of DL-6,8-dithiooctanoic acid (Liquid); method: Gravimetric
Solvent: Volume fraction of heptane	Temperature, K	Mole fraction of DL-6,8-dithiooctanoic acid	uncertainty
.9091	288.15	.00293	
.9091	293.15	.00442	
.9091	298.15	.00628	
.9091	303.15	.00905	
.9091	308.15	.01173	
.9091	313.15	.01974	
.9091	318.15	.02745	
.9375	288.15	.00175	
.9375	293.15	.00254	
.9375	298.15	.00402	
.9375	303.15	.00618	
.9375	308.15	.00874	
.9375	313.15	.01456	
.9375	318.15	.01873	
.9524	288.15	.00143	
.9524	293.15	.002	
.9524	298.15	.00336	
.9524	303.15	.00505	
.9524	308.15	.00634	
.9524	313.15	.01034	
.9524	318.15	.0153	

System: n-hexane + ethyl ethanoate + DL-6,8-dithiooctanoic acid; phases: Liquid, Crystal
Fixed: Pressure, kPa = 101.3
Property: Mole fraction of DL-6,8-dithiooctanoic acid (Liquid); method: Gravimetric
Solvent: Volume fraction of n-hexane	Temperature, K	Mole fraction of DL-6,8-dithiooctanoic acid	uncertainty
.9091	288.15	.0039	
.9091	293.15	.00378	
.9091	298.15	.00524	
.9091	303.15	.00709	
.9091	308.15	.0101	
.9091	313.15	.01415	
.9091	318.15	.0251	
.9524	288.15	.00174	
.9524	293.15	.00223	
.9524	298.15	.00248	
.9524	303.15	.0037	
.9524	308.15	.00542	
.9524	313.15	.00774	
.9524	318.15	.01404	

System: cyclohexane + DL-6,8-dithiooctanoic acid; phases: Liquid, Crystal
Property: Mole fraction of DL-6,8-dithiooctanoic acid (Liquid); method: Gravimetric
Temperature, K	Pressure, kPa	Mole fraction of DL-6,8-dithiooctanoic acid	uncertainty
283.15	101.3	.00071	
288.15	101.3	.00131	
293.15	101.3	.00248	
298.15	101.3	.00314	
303.15	101.3	.00562	
308.15	101.3	.0084	
313.15	101.3	.01368	
