Measured thermophysical data. Isobaric Vapor-Liquid Equilibria for Binary Systems of Acetic Acid + Benzene, Chloroacetic Acid + Benzene, and Dichloroacetic Acid + Benzene at 101.33 kPa
Source: J. Chem. Eng. Data, 2010, 10.1021/je100144t
Compound 1: benzene, C6H6
Compound 2: acetic acid, C2H4O2
Compound 3: monochloroacetic acid, C2H3ClO2
Compound 4: 2,2,-dichloroethanoic acid, C2H2Cl2O2

System: acetic acid + benzene; phases: Liquid, Gas
Property: Boiling temperature at pressure P, K (Liquid); method: Ebulliometric method (Recirculating still)
Mole fraction of acetic acid	Pressure, kPa	Boiling temperature at pressure P, K	uncertainty
.9881	101.3	383.95	.1
.9682	101.3	380.95	.1
.9499	101.3	378.65	.1
.9316	101.3	375.85	.1
.9006	101.3	372.85	.1
.8545	101.3	369.95	.1
.8196	101.3	367.35	.1
.7862	101.3	365.35	.1
.7583	101.3	364.05	.1
.6916	101.3	361.95	.1
.6288	101.3	359.95	.1
.5707	101.3	358.85	.1
.4991	101.3	357.05	.1
.3574	101.3	355.85	.1
.2168	101.3	354.65	.1
.1073	101.3	353.65	.1

System: acetic acid + benzene; phases: Gas, Liquid
Property: Mole fraction of acetic acid (Gas); method: Chromatography
Mole fraction of acetic acid	Pressure, kPa	Mole fraction of acetic acid	uncertainty
.9881	101.3	.9165	.001
.9682	101.3	.8347	.001
.9499	101.3	.775	.001
.9316	101.3	.7027	.001
.9006	101.3	.6202	.001
.8545	101.3	.5493	.001
.8196	101.3	.4898	.001
.7862	101.3	.4467	.001
.7583	101.3	.4141	.001
.6916	101.3	.3644	.001
.6288	101.3	.3045	.001
.5707	101.3	.2703	.001
.4991	101.3	.2319	.001
.3574	101.3	.1987	.001
.2168	101.3	.1562	.001
.1073	101.3	.0831	.001

System: benzene + monochloroacetic acid; phases: Liquid, Gas
Property: Boiling temperature at pressure P, K (Liquid); method: Ebulliometric method (Recirculating still)
Mole fraction of monochloroacetic acid	Pressure, kPa	Boiling temperature at pressure P, K	uncertainty
.9579	101.3	444.75	.1
.9474	101.3	436.85	.1
.9276	101.3	424.35	.1
.8852	101.3	416.95	.1
.8679	101.3	408.05	.1
.8061	101.3	395.45	.1
.7631	101.3	389.65	.1
.7217	101.3	383.25	.1
.6429	101.3	376.85	.1
.5792	101.3	371.95	.1
.4087	101.3	365.45	.1
.3429	101.3	363.15	.1
.2841	101.3	360.95	.1
.1953	101.3	358.45	.1
.1211	101.3	355.85	.1
.0709	101.3	354.35	.1

System: benzene + monochloroacetic acid; phases: Gas, Liquid
Property: Mole fraction of monochloroacetic acid (Gas); method: Chromatography
Mole fraction of monochloroacetic acid	Pressure, kPa	Mole fraction of monochloroacetic acid	uncertainty
.9579	101.3	.5881	.001
.9474	101.3	.4903	.001
.9276	101.3	.3732	.001
.8852	101.3	.3049	.001
.8679	101.3	.2134	.001
.8061	101.3	.1208	.001
.7631	101.3	.0971	.001
.7217	101.3	.0749	.001
.6429	101.3	.0435	.001
.5792	101.3	.0331	.001
.4087	101.3	.0131	.001
.3429	101.3	.0108	.001
.2841	101.3	.0084	.001
.1953	101.3	.0065	.001
.1211	101.3	.0052	.001
.0709	101.3	.0019	.001

System: benzene + 2,2,-dichloroethanoic acid; phases: Liquid, Gas
Property: Boiling temperature at pressure P, K (Liquid); method: Ebulliometric method (Recirculating still)
Mole fraction of 2,2,-dichloroethanoic acid	Pressure, kPa	Boiling temperature at pressure P, K	uncertainty
.9881	101.3	463.15	.1
.9682	101.3	457.75	.1
.9499	101.3	452.65	.1
.9216	101.3	443.55	.1
.8806	101.3	434.05	.1
.8196	101.3	425.25	.1
.7862	101.3	418.85	.1
.6916	101.3	403.45	.1
.6288	101.3	394.65	.1
.5707	101.3	387.95	.1
.4821	101.3	381.05	.1
.3562	101.3	369.25	.1
.2856	101.3	365.05	.1
.2197	101.3	361.45	.1
.1406	101.3	358.35	.1
.0834	101.3	355.45	.1

System: benzene + 2,2,-dichloroethanoic acid; phases: Gas, Liquid
Property: Mole fraction of 2,2,-dichloroethanoic acid (Gas); method: Chromatography
Mole fraction of 2,2,-dichloroethanoic acid	Pressure, kPa	Mole fraction of 2,2,-dichloroethanoic acid	uncertainty
.9881	101.3	.9365	.001
.9682	101.3	.8147	.001
.9499	101.3	.735	.001
.9216	101.3	.5927	.001
.8806	101.3	.4232	.001
.8196	101.3	.2647	.001
.7862	101.3	.2053	.001
.6916	101.3	.1058	.001
.6288	101.3	.0716	.001
.5707	101.3	.0533	.001
.4821	101.3	.0414	.001
.3562	101.3	.033	.001
.2856	101.3	.0253	.001
.2197	101.3	.0177	.001
.1406	101.3	.0128	.001
.0834	101.3	.0097	.001
