Measured thermophysical data. Thermodynamic Properties of 1-Ethyl-3-methylimidazolium Bis(trifluoromethylsulfonyl)imide
Source: J. Chem. Eng. Data, 2011, 10.1021/je100945u
Compound 1: [C2mim][NTf2], C8H11F6N3O4S2

System: [C2mim][NTf2]; phases: Liquid
Property: Mass density, kg/m3 (Liquid); method: Vibrating tube method
Temperature, K	Pressure, kPa	Mass density, kg/m3	uncertainty
283.19	1750	1533.9	1.22712
283.19	5136	1536.34	1.229072
283.2	10046	1539.78	1.231824
283.21	20030	1546.57	1.237256
283.2	29957	1553.14	1.242512
283.2	40033	1559.47	1.247576
283.19	49993	1565.54	1.252432
283.19	60272	1571.51	1.257208
283.19	69996	1577	1.2616
283.19	80287	1582.65	1.26612
283.19	89994	1587.84	1.270272
283.21	100034	1593.02	1.274416
293.17	1027	1524.24	1.219392
293.17	4981	1527.1	1.22168
293.15	10202	1530.8	1.22464
293.16	20787	1538.14	1.230512
293.17	29994	1544.31	1.235448
293.19	39872	1550.73	1.240584
293.17	49993	1557.07	1.245656
293.16	59685	1562.92	1.250336
293.16	69993	1568.91	1.255128
293.17	79912	1574.47	1.259576
293.15	89934	1579.84	1.263872
293.14	99755	1584.89	1.267912
298.14	1156	1519.1	1.21528
298.17	5194	1522.08	1.217664
298.19	10066	1525.62	1.220496
298.12	19701	1532.45	1.22596
298.12	29779	1539.35	1.23148
298.13	39926	1546.05	1.23684
298.15	49997	1552.45	1.24196
298.2	59613	1558.32	1.246656
298.19	69997	1564.42	1.251536
298.19	79938	1570	1.256
298.18	90001	1575.41	1.260328
298.18	99950	1580.52	1.264416
313.16	1963	1504.67	1.203736
313.17	5147	1507.08	1.205664
313.15	10156	1510.84	1.208672
313.16	19902	1517.96	1.214368
313.15	29996	1525.09	1.220072
313.15	39897	1531.84	1.225472
313.15	49994	1538.48	1.230784
313.15	60124	1544.89	1.235912
313.15	69993	1550.88	1.240704
313.16	80342	1556.93	1.245544
313.16	89994	1562.32	1.249856
313.17	100087	1567.72	1.254176
333.17	2359	1485.34	1.188272
333.17	5331	1487.73	1.190184
333.19	9791	1491.26	1.193008
333.19	18829	1498.27	1.198616
333.18	30001	1506.61	1.205288
333.17	40159	1513.9	1.21112
333.16	49997	1520.69	1.216552
333.15	60111	1527.39	1.221912
333.14	69997	1533.66	1.226928
333.13	80064	1539.77	1.231816
333.13	89994	1545.53	1.236424
333.14	99911	1551	1.2408
353.18	2168	1465.71	1.172568
353.18	5223	1468.32	1.174656
353.19	9673	1472.06	1.177648
353.19	20093	1480.58	1.184464
353.19	29997	1488.37	1.190696
353.19	39951	1495.89	1.196712
353.19	49979	1503.15	1.20252
353.19	60184	1510.23	1.208184
353.18	69993	1516.73	1.213384
353.18	80056	1523.09	1.218472
353.18	90001	1529.06	1.223248
353.19	99944	1534.73	1.227784
373.12	724	1445.01	1.156008
373.14	4935	1448.84	1.159072
373.17	10147	1453.42	1.162736
373.18	19879	1461.85	1.16948
373.16	30001	1470.33	1.176264
373.16	39858	1478.08	1.182464
373.16	49997	1485.67	1.188536
373.14	60448	1493.21	1.194568
373.14	69979	1499.69	1.199752
373.14	79868	1506.16	1.204928
373.14	89963	1512.49	1.209992
373.14	99920	1518.52	1.214816

System: [C2mim][NTf2]; phases: Liquid
Fixed: Pressure, kPa = 101.325
Property: Mass density, kg/m3 (Liquid); method: Vibrating tube method
Temperature, K	Mass density, kg/m3	uncertainty
283.15	1533.48	.02
293.15	1523.37	.02
298.15	1518.34	.02
313.15	1503.33	.02
333.15	1483.53	.02
353.15	1463.97	.02
363.15	1454.28	.02
