Measured thermophysical data. Solubility of Butyl Paraben in Methanol, Ethanol, Propanol, Ethyl Acetate, Acetone, and Acetonitrile
Source: J. Chem. Eng. Data, 2010, 10.1021/je1006289
Compound 1: butylparaben, C11H14O3
Compound 2: ethanol, C2H6O
Compound 3: methanol, CH4O
Compound 4: propan-1-ol, C3H8O
Compound 5: propanone, C3H6O
Compound 6: ethyl ethanoate, C4H8O2
Compound 7: methylnitrile, C2H3N

System: methanol + butylparaben; phases: Liquid, Crystal
Fixed: Pressure, kPa = 101.3
Property: Mass fraction of butylparaben (Liquid); method: Gravimetric Method
Temperature, K	Mass fraction of butylparaben	uncertainty
283.05	.63747	
293.05	.72337	
303.05	.79107	
313.05	.85382	
323.05	.91161	

System: ethanol + butylparaben; phases: Liquid, Crystal
Fixed: Pressure, kPa = 101.3
Property: Mass fraction of butylparaben (Liquid); method: Gravimetric Method
Temperature, K	Mass fraction of butylparaben	uncertainty
283.05	.59644	
293.05	.67228	
303.05	.7554	
313.05	.8242	
323.05	.89321	

System: propanone + butylparaben; phases: Liquid, Crystal
Fixed: Pressure, kPa = 101.3
Property: Mass fraction of butylparaben (Liquid); method: Gravimetric Method
Temperature, K	Mass fraction of butylparaben	uncertainty
283.05	.60032	
293.05	.66623	
303.05	.72983	
313.05	.79436	
323.05	.86062	

System: propan-1-ol + butylparaben; phases: Liquid, Crystal
Fixed: Pressure, kPa = 101.3
Property: Mass fraction of butylparaben (Liquid); method: Gravimetric Method
Temperature, K	Mass fraction of butylparaben	uncertainty
283.05	.5645	
293.05	.63368	
303.05	.70603	
313.05	.77721	
323.05	.84955	

System: butylparaben + ethyl ethanoate; phases: Liquid, Crystal
Fixed: Pressure, kPa = 101.3
Property: Mass fraction of butylparaben (Liquid); method: Gravimetric Method
Temperature, K	Mass fraction of butylparaben	uncertainty
283.05	.42415	
293.05	.50085	
303.05	.59077	
313.05	.68848	
323.05	.78087	

System: methylnitrile + butylparaben; phases: Liquid, Crystal
Fixed: Pressure, kPa = 101.3
Property: Mass fraction of butylparaben (Liquid); method: Gravimetric Method
Temperature, K	Mass fraction of butylparaben	uncertainty
283.05	.2747	
293.05	.44874	
303.05	.60998	
313.05	.75275	
323.05	.85689	
