Measured thermophysical data. Enthalpy of Solution of the Amino Acid Ionic Liquid 1-Butyl-3-methylimidazolium Glutamine
Source: J. Chem. Eng. Data, 2010, 10.1021/je100137g
Compound 1: 1-butyl-3-methylimidazolium glutamine, C13H24N4O3
Compound 2: water, H2O

System: 1-butyl-3-methylimidazolium glutamine; phases: Glass, Liquid, Air at 1 atmosphere
Property: Triple point temperature, K (Glass); method: DSC/DTA
Triple point temperature, K	uncertainty
239.5	3

System: water + 1-butyl-3-methylimidazolium glutamine; phases: Liquid
Fixed: Pressure, kPa = 101
Fixed: Temperature, K = 298.15
Property: Excess molar enthalpy (molar enthalpy of mixing), kJ/mol (Liquid); method: Isoperibol calorimetry
Molality, mol/kg of 1-butyl-3-methylimidazolium glutamine	Excess molar enthalpy (molar enthalpy of mixing), kJ/mol	uncertainty
.01251	-37.09	.4
.01472	-36.46	.24
.01602	-36.13	.2
.01851	-35.69	.18
.02051	-35.29	.15
.02214	-34.95	.15
.02402	-34.34	.13
.01923	-35.51	.11
.02629	-34.02	.11

System: water + 1-butyl-3-methylimidazolium glutamine; phases: Liquid
Fixed: Pressure, kPa = 101
Fixed: Temperature, K = 298.15
Property: Excess molar enthalpy (molar enthalpy of mixing), kJ/mol (Liquid); method: Isoperibol calorimetry
Molality, mol/kg of 1-butyl-3-methylimidazolium glutamine	Excess molar enthalpy (molar enthalpy of mixing), kJ/mol	uncertainty
.01519	-36	.42
.01614	-35.73	.18
.01847	-35.32	.34
.01954	-35.05	.13
.02056	-34.79	.13
.02619	-33.72	.12

System: water + 1-butyl-3-methylimidazolium glutamine; phases: Liquid
Fixed: Pressure, kPa = 101
Fixed: Temperature, K = 298.15
Property: Excess molar enthalpy (molar enthalpy of mixing), kJ/mol (Liquid); method: Isoperibol calorimetry
Molality, mol/kg of 1-butyl-3-methylimidazolium glutamine	Excess molar enthalpy (molar enthalpy of mixing), kJ/mol	uncertainty
.01401	-35.11	.34
.01709	-34.53	.32
.01797	-34.35	.26
.01949	-34.07	.16
.02135	-33.62	.12
.02468	-32.68	.12
.02625	-32.21	.11

System: water + 1-butyl-3-methylimidazolium glutamine; phases: Liquid
Fixed: Pressure, kPa = 101
Fixed: Temperature, K = 298.15
Property: Excess molar enthalpy (molar enthalpy of mixing), kJ/mol (Liquid); method: Isoperibol calorimetry
Molality, mol/kg of 1-butyl-3-methylimidazolium glutamine	Excess molar enthalpy (molar enthalpy of mixing), kJ/mol	uncertainty
.01165	-34.81	.44
.01493	-34.07	.26
.0178	-33.38	.18
.01985	-32.93	.16
.0214	-32.36	.11
.02231	-32.39	.11
