Measured thermophysical data. Carbon Dioxide + Fluoromethane and Nitrous Oxide + Fluoromethane: Solid-Liquid Equilibria Measurements
Source: J. Chem. Eng. Data, 2010, 10.1021/je100606z
Compound 1: carbon dioxide, CO2
Compound 2: dinitrogen oxide, N2O
Compound 3: R-41, CH3F

System: carbon dioxide + R-41; phases: Crystal, Crystal, Liquid, Gas
Fixed: Pressure, kPa = 101.325
Property: Eutectic temperature, K (Crystal); method: Thermal Analysis
Eutectic temperature, K	uncertainty
126.5	.023

System: carbon dioxide + R-41; phases: Crystal, Crystal, Liquid, Gas
Fixed: Pressure, kPa = 101.325
Property: Eutectic composition: mole fraction of carbon dioxide (Crystal); method: Thermal Analysis
Eutectic composition: mole fraction of carbon dioxide	uncertainty
.04	.005

System: carbon dioxide + R-41; phases: Liquid, Crystal, Gas
Property: Boiling temperature at pressure P, K (Liquid); method: Large-sample thermal analysis
Mole fraction of carbon dioxide	Boiling temperature at pressure P, K	uncertainty
0	129.77	.023
.04	126.45	.023

System: carbon dioxide + R-41; phases: Liquid, Crystal, Gas
Property: Boiling temperature at pressure P, K (Liquid); method: Large-sample thermal analysis
Mole fraction of carbon dioxide	Boiling temperature at pressure P, K	uncertainty
.04	124.65	.023
.057	137.9	.023
.068	142.35	.023
.101	146.25	.023
.101	146.65	.023
.129	153.82	.023
.129	153.93	.023
.131	154.35	.023
.196	164.05	.023
.196	163.81	.023
.282	173.35	.023
.282	173.15	.023
.321	177.25	.023
.321	177.65	.023
.348	179.65	.023
.348	178.45	.023
.4	183	.023
.459	190.25	.023
.475	190.35	.023
.509	191.25	.023
.509	190.79	.023
.534	199.45	.023
.608	199.45	.023
.663	203.81	.023
.687	206.95	.023
.758	209.05	.023
.765	210.55	.023
.817	212.38	.023
.855	213.45	.023
.908	212.05	.023
.922	212.75	.023
.941	213.8	.023
.963	215.03	.023
1	216.05	.023

System: R-41 + dinitrogen oxide; phases: Crystal, Crystal, Liquid, Gas
Fixed: Pressure, kPa = 101.325
Property: Eutectic temperature, K (Crystal); method: Thermal Analysis
Eutectic temperature, K	uncertainty
127	.023

System: R-41 + dinitrogen oxide; phases: Crystal, Crystal, Liquid, Gas
Fixed: Pressure, kPa = 101.325
Property: Eutectic composition: mole fraction of dinitrogen oxide (Crystal); method: Thermal Analysis
Eutectic composition: mole fraction of dinitrogen oxide	uncertainty
.16	.005

System: R-41 + dinitrogen oxide; phases: Liquid, Crystal, Gas
Property: Boiling temperature at pressure P, K (Liquid); method: Large-sample thermal analysis
Mole fraction of dinitrogen oxide	Boiling temperature at pressure P, K	uncertainty
0	129.77	.023
.035	131.05	.023
.036	129.15	.023
.052	130.02	.023
.09	128.55	.023
.099	128.35	.023
.157	128.65	.023

System: R-41 + dinitrogen oxide; phases: Liquid, Crystal, Gas
Property: Boiling temperature at pressure P, K (Liquid); method: Large-sample thermal analysis
Mole fraction of dinitrogen oxide	Boiling temperature at pressure P, K	uncertainty
.249	137.64	.023
.249	137.62	.023
.298	142.05	.023
.298	141.85	.023
.345	145.04	.023
.397	150.95	.023
.397	151.55	.023
.452	154.35	.023
.498	156.84	.023
.633	164.75	.023
.662	166.85	.023
.696	167.16	.023
.79	174.15	.023
.831	174.18	.023
.831	174.15	.023
.866	176.15	.023
.889	175.35	.023
.923	178.92	.023
.923	179	.023
.938	178.05	.023
1	181.99	.023
