Measured thermophysical data. Low-Viscosity Triethylbutylammonium Acetate as a Task-Specific Ionic Liquid for Reversible CO2 Absorption
Source: J. Chem. Eng. Data, 2011, 10.1021/je101014q
Compound 1: carbon dioxide, CO2, purity 99.99%
Compound 2: water, H2O
Compound 3: triethylbutylammonium acetate, C12H27NO2

System: carbon dioxide + water + triethylbutylammonium acetate; phases: Liquid, Gas
Property: Mole fraction of carbon dioxide (Liquid); method: Pressure Drop
Solvent: Mole fraction of triethylbutylammonium acetate	Temperature, K	Pressure, kPa	Mole fraction of carbon dioxide	uncertainty
.5	273.15	.7	.0566	.0035
.5	273.15	3.4	.108	.0035
.5	273.15	6.1	.159	.0035
.5	273.15	10.7	.203	.0035
.5	273.15	18.7	.237	.0035
.5	273.15	68	.345	.0035
.5	273.15	136	.398	.0035
.5	273.15	259.2	.445	.0035
.5	273.15	366.8	.464	.0035
.5	273.15	506.5	.485	.0093
.5	273.15	636.7	.503	.0093
.5	273.15	884.7	.529	.0093
.5	273.15	1510	.58	.0093
.5	273.15	2028	.608	.0093
.5	298.15	3.52	.0794	.0035
.5	298.15	8.5	.119	.0035
.5	298.15	25.6	.193	.0035
.5	298.15	43.7	.241	.0035
.5	298.15	65.2	.269	.0035
.5	298.15	87.8	.283	.0035
.5	298.15	105.5	.385	.0014
.5	298.15	294.4	.426	.0035
.5	298.15	410.9	.437	.0035
.5	298.15	536.6	.452	.0093
.5	298.15	766	.467	.0093
.5	298.15	1082	.486	.0093
.5	298.15	1466	.507	.0093
.5	298.15	2109	.545	.0093
.5	298.15	2800	.584	.0093
.5	313.15	7.47	.042	.0035
.5	313.15	16.7	.0723	.0035
.5	313.15	39.3	.149	.0016
.5	313.15	64.6	.187	.0035
.5	313.15	99.9	.194	.0042
.5	313.15	135.8	.26	.0035
.5	313.15	286.3	.296	.0035
.5	313.15	406.6	.307	.0035
.5	313.15	531.1	.323	.00093
.5	313.15	759	.351	.00093
.5	313.15	1112	.388	.00093
.5	313.15	1461	.416	.00093
.5	313.15	2083	.46	.00093
.5	313.15	2754	.496	.00093
.5	333.15	9.6	.032	.0035
.5	333.15	20.8	.0474	.0035
.5	333.15	34.2	.0602	.0035
.5	333.15	50.9	.0728	.0035
.5	333.15	102.3	.126	.0042
.5	333.15	155.6	.177	.0035
.5	333.15	313.8	.209	.0035
.5	333.15	436.7	.22	.0035
.5	333.15	552.6	.229	.00093
.5	333.15	796.5	.251	.00093
.5	333.15	1258	.293	.00093
.5	333.15	1584	.311	.00093
.5	333.15	2165	.336	.00093
.5	333.15	2821	.38	.00093
.33	298.15	16.5	.0854	.0035
.33	298.15	50.7	.143	.0035
.33	298.15	85.6	.184	.0035
.33	298.15	148.9	.219	.0016
.33	298.15	219	.248	.0035
.33	298.15	332.1	.292	.0035
.33	298.15	506.6	.317	.00093
.33	298.15	1106	.364	.00093
.33	298.15	1489	.402	.00093
.33	298.15	1907	.432	.00093
.33	298.15	2733	.49	.00093
.17	298.15	24.8	.0318	.0035
.17	298.15	52.8	.0466	.0035
.17	298.15	93.8	.0646	.0035
.17	298.15	195.7	.124	.0035
.17	298.15	329	.156	.0048
.17	298.15	511	.213	.00093
.17	298.15	753.8	.25	.00093
.17	298.15	1505.8	.289	.00093
.17	298.15	1977.8	.335	.00093
.17	298.15	2698.8	.392	.00093
1	298.15	9.3	.139	.00216
1	298.15	22.3	.244	.0035
1	298.15	60	.319	.0015
1	298.15	153	.381	.0035
1	298.15	266	.416	.00177
1	298.15	463	.448	.0035

System: water + triethylbutylammonium acetate; phases: Liquid
Fixed: Pressure, kPa = 101
Property: Viscosity, Pa*s (Liquid); method: Cone and plate viscometry
Temperature, K	Mole fraction of triethylbutylammonium acetate	Viscosity, Pa*s	uncertainty
298.2	1	.439	.00439
298.2	.5	.079	.00079
298.2	.33	.066	.00066
298.2	.17	.013	.00013
313.2	1	.3067	.003067
313.2	.5	.0555	.000555
313.2	.33	.0394	.000394
313.2	.17	.0109	.000109
333.2	1	.0473	.000473
333.2	.5	.0156	.000156
333.2	.33	.0126	.000126
333.2	.17	.00515	.0000515
