Measured thermophysical data. Physicochemical Characterization of New Sulfonate and Sulfate  Ammonium Ionic Liquids
Source: J. Chem. Eng. Data, 2012, 10.1021/je200208h
Compound 1: N,N,N-trimethyl-1-butyl ammonium methyl sulfate, C8H21NO4S, purity 99%
Compound 2: N,N,N-trimethylbutylammonium butanesulfonate, C11H27NO3S, purity 99%
Compound 3: N,N,N-trimethylbutylammonium octanesulfonate, C15H35NO3S, purity 99%
Compound 4: choline methanesulfonate, C8H17NO3S, purity 99%
Compound 5: N-(2-hydroxyethyl)-N,N,N-trimethylammonium butanesulfonate, C9H23NO4S, purity 99%
Compound 6: N-(2-hydroxyethyl)-N,N,N-trimethylammonium octanesulfonate, C13H31NO4S, purity 99%
Compound 7: N-ethyl-N-(2-hydroxyethyl)-N,N-dimethylammonium methanesulfonate, C9H19NO4S, purity 99%
Compound 8: N-ethyl-N-(2-hydroxyethyl)-N,N-dimethylammonium butanesulfonate, C10H25NO4S, purity 99%
Compound 9: N-ethyl-N-(2-hydroxyethyl)-N,N-dimethylammonium octanesulfonate, C14H33NO4S, purity 99%
Compound 10: N-ethyl-N,N-dimethylbutylammonium ethylsulfate, C10H25NO4S, purity 98%
Compound 11: N-ethyl-N-(2-hydroxyethyl)-N,N-dimethylammonium ethylsulfate, C8H21NO5S, purity 98%

System: N,N,N-trimethyl-1-butyl ammonium methyl sulfate; phases: Crystal, Liquid, Air at 1 atmosphere
Property: Triple point temperature, K (Crystal); method: DSC/DTA
Triple point temperature, K	uncertainty
442	1

System: N,N,N-trimethyl-1-butyl ammonium methyl sulfate; phases: Glass, Liquid, Air at 1 atmosphere
Property: Triple point temperature, K (Glass); method: DSC/DTA
Triple point temperature, K	uncertainty
404	1

System: N,N,N-trimethylbutylammonium butanesulfonate; phases: Crystal, Liquid, Air at 1 atmosphere
Property: Triple point temperature, K (Crystal); method: DSC/DTA
Triple point temperature, K	uncertainty
335	1

System: N,N,N-trimethylbutylammonium butanesulfonate; phases: Crystal, Liquid, Air at 1 atmosphere
Property: Molar enthalpy of transition or fusion, kJ/mol (Crystal); method: DSC/DTA
Molar enthalpy of transition or fusion, kJ/mol	uncertainty
3.0053598172	1.01361208

System: N,N,N-trimethylbutylammonium butanesulfonate; phases: Liquid
Fixed: Pressure, kPa = 101.325
Property: Molar heat capacity at constant pressure, J/K/mol (Liquid); method: Small sample (50 mg) DSC
Temperature, K	Molar heat capacity at constant pressure, J/K/mol	uncertainty
360.15	701	1
365.15	706	1
370.15	711	1
375.15	717	1
380.15	723	1
385.15	728	1
390.15	733	1
395.15	736	1
400.15	741	1

System: N,N,N-trimethylbutylammonium octanesulfonate; phases: Crystal 1, Liquid, Air at 1 atmosphere
Property: Triple point temperature, K (Crystal 1); method: DSC/DTA
Triple point temperature, K	uncertainty
484	1

System: N,N,N-trimethylbutylammonium octanesulfonate; phases: Crystal 3, Crystal 2, Air at 1 atmosphere
Property: Triple point temperature, K (Crystal 3); method: DSC/DTA
Triple point temperature, K	uncertainty
347	1

System: N,N,N-trimethylbutylammonium octanesulfonate; phases: Crystal 2, Crystal 1, Air at 1 atmosphere
Property: Triple point temperature, K (Crystal 2); method: DSC/DTA
Triple point temperature, K	uncertainty
413	1

System: N,N,N-trimethylbutylammonium octanesulfonate; phases: Crystal 3, Crystal 2, Air at 1 atmosphere
Property: Molar enthalpy of transition or fusion, kJ/mol (Crystal 3); method: DSC/DTA
Molar enthalpy of transition or fusion, kJ/mol	uncertainty
3.2869891908	1.23803736

System: N,N,N-trimethylbutylammonium octanesulfonate; phases: Crystal 2, Crystal 1, Air at 1 atmosphere
Property: Molar enthalpy of transition or fusion, kJ/mol (Crystal 2); method: DSC/DTA
Molar enthalpy of transition or fusion, kJ/mol	uncertainty
.495214944	1.23803736

System: choline methanesulfonate; phases: Crystal 1, Liquid, Air at 1 atmosphere
Property: Triple point temperature, K (Crystal 1); method: DSC/DTA
Triple point temperature, K	uncertainty
393	1

System: choline methanesulfonate; phases: Crystal 3, Crystal 2, Air at 1 atmosphere
Property: Triple point temperature, K (Crystal 3); method: DSC/DTA
Triple point temperature, K	uncertainty
350	1

System: choline methanesulfonate; phases: Crystal 2, Crystal 1, Air at 1 atmosphere
Property: Triple point temperature, K (Crystal 2); method: DSC/DTA
Triple point temperature, K	uncertainty
365	1

System: choline methanesulfonate; phases: Crystal 1, Liquid, Air at 1 atmosphere
Property: Molar enthalpy of transition or fusion, kJ/mol (Crystal 1); method: DSC/DTA
Molar enthalpy of transition or fusion, kJ/mol	uncertainty
5.1470484416	.82916608

System: choline methanesulfonate; phases: Crystal 3, Crystal 2, Air at 1 atmosphere
Property: Molar enthalpy of transition or fusion, kJ/mol (Crystal 3); method: DSC/DTA
Molar enthalpy of transition or fusion, kJ/mol	uncertainty
6.1109540096	.82916608

System: choline methanesulfonate; phases: Crystal 2, Crystal 1, Air at 1 atmosphere
Property: Molar enthalpy of transition or fusion, kJ/mol (Crystal 2); method: DSC/DTA
Molar enthalpy of transition or fusion, kJ/mol	uncertainty
2.829529248	.82916608

System: N-(2-hydroxyethyl)-N,N,N-trimethylammonium butanesulfonate; phases: Crystal, Liquid, Air at 1 atmosphere
Property: Triple point temperature, K (Crystal); method: DSC/DTA
Triple point temperature, K	uncertainty
324	1

System: N-(2-hydroxyethyl)-N,N,N-trimethylammonium butanesulfonate; phases: Crystal, Liquid, Air at 1 atmosphere
Property: Molar enthalpy of transition or fusion, kJ/mol (Crystal); method: DSC/DTA
Molar enthalpy of transition or fusion, kJ/mol	uncertainty
25.0013698434	.96539704

System: N-(2-hydroxyethyl)-N,N,N-trimethylammonium butanesulfonate; phases: Liquid
Fixed: Pressure, kPa = 101.325
Property: Molar heat capacity at constant pressure, J/K/mol (Liquid); method: Small sample (50 mg) DSC
Temperature, K	Molar heat capacity at constant pressure, J/K/mol	uncertainty
360.15	518	1
365.15	519	1
370.15	520	1
375.15	521	1
380.15	523	1
385.15	525	1
390.15	527	1
395.15	528	1
400.15	529	1

System: N-(2-hydroxyethyl)-N,N,N-trimethylammonium octanesulfonate; phases: Crystal 1, Liquid, Air at 1 atmosphere
Property: Triple point temperature, K (Crystal 1); method: DSC/DTA
Triple point temperature, K	uncertainty
390	1

System: N-(2-hydroxyethyl)-N,N,N-trimethylammonium octanesulfonate; phases: Crystal 4, Crystal 3, Air at 1 atmosphere
Property: Triple point temperature, K (Crystal 4); method: DSC/DTA
Triple point temperature, K	uncertainty
307	1

System: N-(2-hydroxyethyl)-N,N,N-trimethylammonium octanesulfonate; phases: Crystal 3, Crystal 2, Air at 1 atmosphere
Property: Triple point temperature, K (Crystal 3); method: DSC/DTA
Triple point temperature, K	uncertainty
337	1

System: N-(2-hydroxyethyl)-N,N,N-trimethylammonium octanesulfonate; phases: Crystal 2, Crystal 1, Air at 1 atmosphere
Property: Triple point temperature, K (Crystal 2); method: DSC/DTA
Triple point temperature, K	uncertainty
346	1

System: N-(2-hydroxyethyl)-N,N,N-trimethylammonium octanesulfonate; phases: Crystal, Liquid, Air at 1 atmosphere
Property: Molar enthalpy of transition or fusion, kJ/mol (Crystal); method: DSC/DTA
Molar enthalpy of transition or fusion, kJ/mol	uncertainty
4.5986632668	1.18982232

System: N-(2-hydroxyethyl)-N,N,N-trimethylammonium octanesulfonate; phases: Crystal 4, Crystal 3, Air at 1 atmosphere
Property: Molar enthalpy of transition or fusion, kJ/mol (Crystal 4); method: DSC/DTA
Molar enthalpy of transition or fusion, kJ/mol	uncertainty
6.5916156528	1.18982232

System: N-(2-hydroxyethyl)-N,N,N-trimethylammonium octanesulfonate; phases: Crystal 3, Crystal 2, Air at 1 atmosphere
Property: Molar enthalpy of transition or fusion, kJ/mol (Crystal 3); method: DSC/DTA
Molar enthalpy of transition or fusion, kJ/mol	uncertainty
5.250090987	1.18982232

System: N-(2-hydroxyethyl)-N,N,N-trimethylammonium octanesulfonate; phases: Crystal 2, Crystal 1, Air at 1 atmosphere
Property: Molar enthalpy of transition or fusion, kJ/mol (Crystal 2); method: DSC/DTA
Molar enthalpy of transition or fusion, kJ/mol	uncertainty
5.250090987	1.18982232

System: N-ethyl-N-(2-hydroxyethyl)-N,N-dimethylammonium methanesulfonate; phases: Crystal, Liquid, Air at 1 atmosphere
Property: Triple point temperature, K (Crystal); method: DSC/DTA
Triple point temperature, K	uncertainty
317	1

System: N-ethyl-N-(2-hydroxyethyl)-N,N-dimethylammonium methanesulfonate; phases: Crystal, Liquid, Air at 1 atmosphere
Property: Molar enthalpy of transition or fusion, kJ/mol (Crystal); method: DSC/DTA
Molar enthalpy of transition or fusion, kJ/mol	uncertainty
22.314964525	.94927

System: N-ethyl-N-(2-hydroxyethyl)-N,N-dimethylammonium methanesulfonate; phases: Liquid
Fixed: Pressure, kPa = 101.325
Property: Molar heat capacity at constant pressure, J/K/mol (Liquid); method: Small sample (50 mg) DSC
Temperature, K	Molar heat capacity at constant pressure, J/K/mol	uncertainty
355.15	406	1
360.15	411	1
365.15	415	1
370.15	419	1
375.15	422	1
380.15	425	1
385.15	428	1
390.15	432	1
395.15	435	1

System: N-ethyl-N-(2-hydroxyethyl)-N,N-dimethylammonium butanesulfonate; phases: Crystal, Liquid, Air at 1 atmosphere
Property: Triple point temperature, K (Crystal); method: DSC/DTA
Triple point temperature, K	uncertainty
293	1

System: N-ethyl-N-(2-hydroxyethyl)-N,N-dimethylammonium butanesulfonate; phases: Crystal, Liquid, Air at 1 atmosphere
Property: Molar enthalpy of transition or fusion, kJ/mol (Crystal); method: DSC/DTA
Molar enthalpy of transition or fusion, kJ/mol	uncertainty
23.7703831872	1.02150336

System: N-ethyl-N-(2-hydroxyethyl)-N,N-dimethylammonium butanesulfonate; phases: Liquid
Fixed: Pressure, kPa = 101.325
Property: Mass density, kg/m3 (Liquid); method: Vibrating tube method
Temperature, K	Mass density, kg/m3	uncertainty
298.15	1111.57	.002

System: N-ethyl-N-(2-hydroxyethyl)-N,N-dimethylammonium butanesulfonate; phases: Liquid
Fixed: Pressure, kPa = 101.325
Property: Refractive index (Na D-line) (Liquid); method: Standard Abbe refractometry
Temperature, K	Refractive index (Na D-line)	uncertainty
298.15	1.45985	.00004

System: N-ethyl-N-(2-hydroxyethyl)-N,N-dimethylammonium butanesulfonate; phases: Liquid
Fixed: Pressure, kPa = 101.325
Property: Molar heat capacity at constant pressure, J/K/mol (Liquid); method: Small sample (50 mg) DSC
Temperature, K	Molar heat capacity at constant pressure, J/K/mol	uncertainty
355.15	93	1
360.15	94	1
365.15	95	1
370.15	97	1
375.15	98	1
380.15	99	1
385.15	100	1
390.15	101	1
395.15	102	1
400.15	104	1

System: N-ethyl-N-(2-hydroxyethyl)-N,N-dimethylammonium butanesulfonate; phases: Liquid
Fixed: Pressure, kPa = 101.325
Property: Viscosity, Pa*s (Liquid); method: Capillary tube (Ostwald; Ubbelohde) method
Temperature, K	Viscosity, Pa*s	uncertainty
298.15	1.354	.003

System: N-ethyl-N-(2-hydroxyethyl)-N,N-dimethylammonium butanesulfonate; phases: Liquid
Fixed: Pressure, kPa = 101.325
Property: Speed of sound, m/s (Liquid); method: Sing-around technique in a fixed-path interferometer
Temperature, K	Speed of sound, m/s	uncertainty
298.15	1694	.3

System: N-ethyl-N-(2-hydroxyethyl)-N,N-dimethylammonium octanesulfonate; phases: Crystal, Liquid, Air at 1 atmosphere
Property: Triple point temperature, K (Crystal); method: DSC/DTA
Triple point temperature, K	uncertainty
320	1

System: N-ethyl-N-(2-hydroxyethyl)-N,N-dimethylammonium octanesulfonate; phases: Crystal, Liquid, Air at 1 atmosphere
Property: Molar enthalpy of transition or fusion, kJ/mol (Crystal); method: DSC/DTA
Molar enthalpy of transition or fusion, kJ/mol	uncertainty
29.8680243224	1.24592864

System: N-ethyl-N-(2-hydroxyethyl)-N,N-dimethylammonium octanesulfonate; phases: Liquid
Fixed: Pressure, kPa = 101.325
Property: Molar heat capacity at constant pressure, J/K/mol (Liquid); method: Small sample (50 mg) DSC
Temperature, K	Molar heat capacity at constant pressure, J/K/mol	uncertainty
355.15	711	1
360.15	715	1
365.15	720	1
370.15	725	1
375.15	730	1
380.15	736	1
385.15	740	1
390.15	744	1
395.15	748	1

System: N-ethyl-N,N-dimethylbutylammonium ethylsulfate; phases: Crystal, Liquid, Air at 1 atmosphere
Property: Triple point temperature, K (Crystal); method: DSC/DTA
Triple point temperature, K	uncertainty
307	1

System: N-ethyl-N,N-dimethylbutylammonium ethylsulfate; phases: Crystal, Liquid, Air at 1 atmosphere
Property: Molar enthalpy of transition or fusion, kJ/mol (Crystal); method: DSC/DTA
Molar enthalpy of transition or fusion, kJ/mol	uncertainty
11.6732296464	1.02150336

System: N-ethyl-N,N-dimethylbutylammonium ethylsulfate; phases: Liquid
Fixed: Pressure, kPa = 101.325
Property: Mass density, kg/m3 (Liquid); method: Vibrating tube method
Temperature, K	Mass density, kg/m3	uncertainty
298.15	1208.1	.002

System: N-ethyl-N,N-dimethylbutylammonium ethylsulfate; phases: Liquid
Fixed: Pressure, kPa = 101.325
Property: Refractive index (Na D-line) (Liquid); method: Standard Abbe refractometry
Temperature, K	Refractive index (Na D-line)	uncertainty
298.15	1.46252	.00004

System: N-ethyl-N,N-dimethylbutylammonium ethylsulfate; phases: Liquid
Fixed: Pressure, kPa = 101.325
Property: Molar heat capacity at constant pressure, J/K/mol (Liquid); method: Small sample (50 mg) DSC
Temperature, K	Molar heat capacity at constant pressure, J/K/mol	uncertainty
360.15	451	4
365.15	467	4
370.15	478	4
375.15	485	4
380.15	491	4
385.15	496	4
390.15	500	4

System: N-ethyl-N,N-dimethylbutylammonium ethylsulfate; phases: Liquid
Fixed: Pressure, kPa = 101.325
Property: Viscosity, Pa*s (Liquid); method: Capillary tube (Ostwald; Ubbelohde) method
Temperature, K	Viscosity, Pa*s	uncertainty
298.15	.333	.003

System: N-ethyl-N,N-dimethylbutylammonium ethylsulfate; phases: Liquid
Fixed: Pressure, kPa = 101.325
Property: Speed of sound, m/s (Liquid); method: Sing-around technique in a fixed-path interferometer
Temperature, K	Speed of sound, m/s	uncertainty
298.15	1817.9	.3

System: N-ethyl-N-(2-hydroxyethyl)-N,N-dimethylammonium ethylsulfate; phases: Liquid
Fixed: Pressure, kPa = 101.325
Property: Mass density, kg/m3 (Liquid); method: Vibrating tube method
Temperature, K	Mass density, kg/m3	uncertainty
298.15	1125.66	.002

System: N-ethyl-N-(2-hydroxyethyl)-N,N-dimethylammonium ethylsulfate; phases: Liquid
Fixed: Pressure, kPa = 101.325
Property: Refractive index (Na D-line) (Liquid); method: Standard Abbe refractometry
Temperature, K	Refractive index (Na D-line)	uncertainty
298.15	1.47303	.00004

System: N-ethyl-N-(2-hydroxyethyl)-N,N-dimethylammonium ethylsulfate; phases: Liquid
Fixed: Pressure, kPa = 101.325
Property: Molar heat capacity at constant pressure, J/K/mol (Liquid); method: Small sample (50 mg) DSC
Temperature, K	Molar heat capacity at constant pressure, J/K/mol	uncertainty
300.15	451	1
305.15	456	1
310.15	461	1
315.15	466	1
320.15	470	1
325.15	474	1
330.15	477	1
335.15	481	1
340.15	485	1
345.15	489	1
350.15	491	1
355.15	494	1
360.15	497	1
365.15	500	1
370.15	504	1
375.15	507	1

System: N-ethyl-N-(2-hydroxyethyl)-N,N-dimethylammonium ethylsulfate; phases: Liquid
Fixed: Pressure, kPa = 101.325
Property: Viscosity, Pa*s (Liquid); method: Capillary tube (Ostwald; Ubbelohde) method
Temperature, K	Viscosity, Pa*s	uncertainty
298.15	1.617	.003

System: N-ethyl-N-(2-hydroxyethyl)-N,N-dimethylammonium ethylsulfate; phases: Liquid
Fixed: Pressure, kPa = 101.325
Property: Speed of sound, m/s (Liquid); method: Sing-around technique in a fixed-path interferometer
Temperature, K	Speed of sound, m/s	uncertainty
298.15	1714	.3
