Measured thermophysical data. Binary and Ternary Vapor-Liquid Equilibrium Data of the System  (Ethylbenzene + Styrene + 4-Methyl-N-butylpyridinium  Tetrafluoroborate) at Vacuum Conditions and Liquid-Liquid  Equilibrium Data of Their Binary Systems
Source: J. Chem. Eng. Data, 2012, 10.1021/je201205t
Compound 1: styrene, C8H8, purity 99.5%
Compound 2: N-butyl-4-methylpyridinium tetrafluoroborate, C10H16BF4N, purity 98%
Compound 3: ethylbenzene, C8H10, purity 99%
Compound 4: pyrocatechol, 4-tert-butyl-, C10H14O2, purity 98%

System: ethylbenzene + N-butyl-4-methylpyridinium tetrafluoroborate; phases: Liquid mixture 1, Liquid mixture 2
Property: Mole fraction of ethylbenzene (Liquid mixture 1); method: Chromatography
Temperature, K	Pressure, kPa	Mole fraction of ethylbenzene	uncertainty
313.2	101.325	.9999	.002
333.2	101.325	.9999	.002
353.2	101.325	.9999	.002

System: ethylbenzene + N-butyl-4-methylpyridinium tetrafluoroborate; phases: Liquid mixture 2, Liquid mixture 1
Property: Mole fraction of N-butyl-4-methylpyridinium tetrafluoroborate (Liquid mixture 2); method: Chromatography
Temperature, K	Pressure, kPa	Mole fraction of N-butyl-4-methylpyridinium tetrafluoroborate	uncertainty
313.2	101.325	.286	.002
333.2	101.325	.28	.002
353.2	101.325	.275	.002

System: ethylbenzene + N-butyl-4-methylpyridinium tetrafluoroborate; phases: Liquid, Gas
Property: Vapor or sublimation pressure, kPa (Liquid); method: Ebulliometric method (Recirculating still)
Mole fraction of ethylbenzene	Temperature, K	Vapor or sublimation pressure, kPa	uncertainty
.12	346.1	4.95	.01
.12	356	7.47	.01
.12	362.9	9.99	.01
.12	369.1	12.5	.01
.12	374.2	15	.01
.12	378.9	17.49	.01
.12	383.4	20	.01
.12	387.5	22.49	.01
.12	391.1	24.99	.01
.12	394.6	27.47	.01
.12	397.9	29.95	.01
.181	334.7	4.98	.01
.181	344	7.47	.01
.181	351.5	10.29	.01
.181	356.2	12.49	.01
.181	360.8	14.99	.01
.181	365.1	17.49	.01
.181	368.9	19.96	.01
.181	372.3	22.49	.01
.181	375.4	24.99	.01
.181	378.3	27.5	.01
.181	381.1	29.92	.01
.224	328.2	5	.01
.224	337	7.5	.01
.224	343.7	9.99	.01
.224	349.1	12.48	.01
.224	353.8	15	.01
.224	357.9	17.49	.01
.224	361.6	19.98	.01
.224	365	22.48	.01
.224	368	24.98	.01
.224	370.8	27.48	.01
.224	373.5	29.98	.01

System: styrene + N-butyl-4-methylpyridinium tetrafluoroborate; phases: Liquid mixture 1, Liquid mixture 2
Property: Mole fraction of styrene (Liquid mixture 1); method: Chromatography
Temperature, K	Pressure, kPa	Mole fraction of styrene	uncertainty
313.2	101.325	.9999	.002
333.2	101.325	.9999	.002
353.2	101.325	.9999	.002

System: styrene + N-butyl-4-methylpyridinium tetrafluoroborate; phases: Liquid mixture 2, Liquid mixture 1
Property: Mole fraction of N-butyl-4-methylpyridinium tetrafluoroborate (Liquid mixture 2); method: Chromatography
Temperature, K	Pressure, kPa	Mole fraction of N-butyl-4-methylpyridinium tetrafluoroborate	uncertainty
313.2	101.325	.72	.002
333.2	101.325	.689	.002
353.2	101.325	.66	.002

System: styrene + N-butyl-4-methylpyridinium tetrafluoroborate; phases: Liquid, Gas
Property: Vapor or sublimation pressure, kPa (Liquid); method: Ebulliometric method (Recirculating still)
Mole fraction of styrene	Temperature, K	Vapor or sublimation pressure, kPa	uncertainty
.146	358.6	2.99	.01
.146	365.6	3.96	.01
.146	371.7	4.98	.01
.211	347	2.99	.01
.211	353.4	3.98	.01
.211	358.8	5	.01
.211	369.1	7.46	.01
.211	377.2	10	.01
.28	349.6	4.97	.01
.28	359.5	7.5	.01
.28	366.9	9.97	.01
.28	372.9	12.45	.01
.349	344.2	4.98	.01
.349	352.2	7.11	.01
.349	360.6	10	.01
.349	366.3	12.42	.01
.349	371.3	14.97	.01
.516	337.1	4.99	.01
.516	345.7	7.47	.01
.516	352.5	10.01	.01
.516	358.5	12.83	.01
.516	362.4	14.92	.01
.516	366.5	17.25	.01
.516	370.5	19.98	.01
.635	333.7	4.99	.01
.635	342.5	7.5	.01
.635	349.3	10	.01
.635	354.8	12.5	.01
.635	359.4	14.97	.01
.635	363.5	17.5	.01
.635	367.1	19.96	.01
.635	370.5	22.48	.01

System: ethylbenzene + styrene + N-butyl-4-methylpyridinium tetrafluoroborate; phases: Liquid, Gas
Property: Mole fraction of styrene (Liquid); method: Chromatography
Property: Mole fraction of styrene (Gas); method: Chromatography
Property: Mole fraction of ethylbenzene (Gas); method: Chromatography
Temperature, K	Pressure, kPa	Mass fraction of ethylbenzene	Mole fraction of styrene	uncertainty	Mole fraction of styrene	uncertainty	Mole fraction of ethylbenzene	uncertainty
348	5	.023	.23	.002	.806	.002	.194	.002
346.2	5	.028	.238	.002	.781	.002	.22	.002
341.4	5	.07	.2	.002	.54	.002	.46	.002
339.1	5	.106	.137	.002	.334	.002	.666	.002
334.1	5	.16	.093	.002	.18	.002	.82	.002
330.3	5	.209	.039	.002	.064	.002	.936	.002
328.7	5	.233	.028	.002	.042	.002	.958	.002
364.2	10	.023	.23	.002	.808	.002	.192	.002
361.3	10	.028	.237	.002	.781	.002	.219	.002
357	10	.07	.206	.002	.551	.002	.449	.002
355.4	10	.106	.138	.002	.346	.002	.654	.002
348.8	10	.162	.1	.002	.193	.002	.808	.002
345.8	10	.21	.04	.002	.066	.002	.934	.002
344.3	10	.231	.03	.002	.046	.002	.954	.002
375.1	15	.023	.229	.002	.81	.002	.19	.002
371.8	15	.028	.238	.002	.789	.002	.211	.002
367.4	15	.068	.203	.002	.564	.002	.436	.002
366	15	.105	.14	.002	.362	.002	.638	.002
358.4	15	.163	.098	.002	.194	.002	.806	.002
356.1	15	.209	.041	.002	.072	.002	.928	.002
354.2	15	.231	.029	.002	.047	.002	.954	.002
