Measured thermophysical data. Estimation of Activity Coefficients for the Pairs of the System 2-Ethoxyethanol + 2-Ethoxyethyl Acetate + 2-Butoxyethanol + 2-Butoxyethyl Acetate
Source: J. Chem. Eng. Data, 2011, 10.1021/je200565u
Compound 1: ethylene glycol, ethyl ether, C4H10O2, purity 99%
Compound 2: 2-ethoxyethyl ethanoate, C6H12O3, purity 99%
Compound 3: 2-butoxyethanol, C6H14O2, purity 99%
Compound 4: ethanol, 2-butoxy-, acetate, C8H16O3, purity 98%

System: ethylene glycol, ethyl ether; phases: Liquid, Gas
Property: Vapor or sublimation pressure, kPa (Liquid); method: Closed cell (Static) method
Temperature, K	Vapor or sublimation pressure, kPa	uncertainty
406.9	93.3	.4
407.8	93.6	.4
406.2	93.3	.4

System: 2-ethoxyethyl ethanoate; phases: Liquid, Gas
Property: Vapor or sublimation pressure, kPa (Liquid); method: Closed cell (Static) method
Temperature, K	Vapor or sublimation pressure, kPa	uncertainty
428.3	93.7	.4
428.6	93.3	.4
427.8	93.3	.4

System: 2-butoxyethanol; phases: Liquid, Gas
Property: Vapor or sublimation pressure, kPa (Liquid); method: Closed cell (Static) method
Temperature, K	Vapor or sublimation pressure, kPa	uncertainty
441.3	93.9	.4
442.1	94.1	.4
441.5	93.6	.4

System: ethanol, 2-butoxy-, acetate; phases: Liquid, Gas
Property: Vapor or sublimation pressure, kPa (Liquid); method: Closed cell (Static) method
Temperature, K	Vapor or sublimation pressure, kPa	uncertainty
463.3	93.6	.4
463	93.7	.4
464.2	93.9	.4

System: ethylene glycol, ethyl ether + 2-ethoxyethyl ethanoate; phases: Liquid, Gas
Property: Boiling temperature at pressure P, K (Liquid); method: Closed cell (Static) method
Mole fraction of ethylene glycol, ethyl ether	Pressure, kPa	Boiling temperature at pressure P, K	uncertainty
.15	93.6	422	1.7
.2	93.7	421.7	1.7
.28	93.6	417.6	1.7
.37	93.6	415.4	1.7
.47	93.6	413	1.7
.63	93.3	411.4	1.7
.74	93.3	409.6	1.7
.82	93.3	408.9	1.7
.91	93.3	407.6	1.7

System: ethylene glycol, ethyl ether + 2-butoxyethanol; phases: Liquid, Gas
Property: Boiling temperature at pressure P, K (Liquid); method: Closed cell (Static) method
Mole fraction of ethylene glycol, ethyl ether	Pressure, kPa	Boiling temperature at pressure P, K	uncertainty
.11	93.8	437.3	1.7
.21	93.8	432.4	1.7
.25	93.8	428.9	1.7
.34	93.5	426.4	1.7
.35	92.1	424.7	1.7
.41	92.1	422.8	1.7
.48	92.1	420.6	1.7
.59	92.1	417.9	1.7
.74	92.1	412.9	1.7
.83	92.1	411.2	1.7
.88	93.3	409.8	1.7

System: ethylene glycol, ethyl ether + ethanol, 2-butoxy-, acetate; phases: Liquid, Gas
Property: Boiling temperature at pressure P, K (Liquid); method: Closed cell (Static) method
Mole fraction of ethylene glycol, ethyl ether	Pressure, kPa	Boiling temperature at pressure P, K	uncertainty
.11	93.7	450.2	1.7
.18	93.7	445.2	1.7
.25	93.6	437.7	1.7
.35	93.7	431.3	1.7
.47	93.7	426.3	1.7
.57	93.6	420.7	1.7
.65	93.6	417.5	1.7
.74	93.6	414.9	1.7
.85	93.6	412.2	1.7
.96	93.6	409.4	1.7

System: 2-ethoxyethyl ethanoate + 2-butoxyethanol; phases: Liquid, Gas
Property: Boiling temperature at pressure P, K (Liquid); method: Closed cell (Static) method
Mole fraction of 2-ethoxyethyl ethanoate	Pressure, kPa	Boiling temperature at pressure P, K	uncertainty
.1	93.8	440.2	1.7
.2	94.2	437.4	1.7
.3	94.2	435.4	1.7
.36	94.2	434.4	1.7
.4	93.6	434.6	1.7
.48	93.6	433.2	1.7
.54	93.8	432.1	1.7
.66	93.8	431.1	1.7
.77	93.8	430.7	1.7
.88	93.8	429.4	1.7

System: 2-ethoxyethyl ethanoate + ethanol, 2-butoxy-, acetate; phases: Liquid, Gas
Property: Boiling temperature at pressure P, K (Liquid); method: Closed cell (Static) method
Mole fraction of 2-ethoxyethyl ethanoate	Pressure, kPa	Boiling temperature at pressure P, K	uncertainty
.12	93.9	457	1.7
.23	93.9	453	1.7
.26	93.6	451.2	1.7
.33	93.6	448.2	1.7
.37	93.6	445.8	1.7
.45	93.3	442.6	1.7
.51	93.3	440.4	1.7
.58	93.3	439	1.7
.66	93.3	437.3	1.7
.75	93.3	435	1.7
.88	93.3	431.6	1.7

System: 2-butoxyethanol + ethanol, 2-butoxy-, acetate; phases: Liquid, Gas
Property: Boiling temperature at pressure P, K (Liquid); method: Closed cell (Static) method
Mole fraction of 2-butoxyethanol	Pressure, kPa	Boiling temperature at pressure P, K	uncertainty
.12	93.9	458.9	1.7
.23	93.9	455.4	1.7
.36	93.9	452.2	1.7
.44	93.9	450.1	1.7
.52	93.9	448	1.7
.53	93.9	448.8	1.7
.58	93.9	448	1.7
.62	93.9	447.5	1.7
.69	93.9	446.6	1.7
.79	93.9	445	1.7
.89	93.9	443.4	1.7
