Measured thermophysical data. Viscosities of the Ternary Systems Y(NO3)3 + Ce(NO3)3 + H2O, Y(NO3)3 +  Nd(NO3)3 + H2O, and Ce(NO3)3 + Nd(NO3)3 + H2O and Their Binary  Subsystems at Different Temperatures and Atmospheric Pressure
Source: J. Chem. Eng. Data, 2012, 10.1021/je200914j
Compound 1: yttrium nitrate, N3O9Y, purity 99.99%
Compound 2: cerium nitrate, CeN3O9, purity 99.99%
Compound 3: neodymium nitrate, NdN3O9, purity 99%
Compound 4: water, H2O

System: water + cerium nitrate + yttrium nitrate; phases: Liquid
Fixed: Pressure, kPa = 101.3
Property: Viscosity, Pa*s (Liquid); method: Capillary tube (Ostwald; Ubbelohde) method
Temperature, K	Molality, mol/kg of yttrium nitrate	Molality, mol/kg of cerium nitrate	Viscosity, Pa*s	uncertainty
293.15	.2545	.7679	.0017458	.0000002
293.15	.5027	.5111	.0017539	.0000002
293.15	.7527	.2523	.0017738	.0000002
293.15	.4944	1.4988	.0033408	.0000002
293.15	.9897	.9998	.0033976	.0000002
293.15	1.4843	.5014	.003413	.0000002
293.15	.7655	2.3177	.0069965	.0000002
293.15	1.4879	1.5503	.0070303	.0000002
293.15	2.2402	.7513	.0070738	.0000002
293.15	.9855	2.9766	.0136404	.0000002
293.15	1.9734	1.983	.0142192	.0000002
293.15	2.9596	.9912	.0146905	.0000002
298.15	.2545	.7679	.0015566	.0000002
298.15	.5027	.5111	.0015758	.0000002
298.15	.7527	.2523	.0015792	.0000002
298.15	.4944	1.4988	.0029573	.0000002
298.15	.9897	.9998	.0029928	.0000002
298.15	1.4843	.5014	.0029916	.0000002
298.15	.7655	2.3177	.0059767	.0000002
298.15	1.4879	1.5503	.0060222	.0000002
298.15	2.2402	.7513	.0060927	.0000002
298.15	.9855	2.9766	.0114639	.0000002
298.15	1.9734	1.983	.011908	.0000002
298.15	2.9596	.9912	.0122887	.0000002
308.15	.2545	.7679	.0012634	.0000002
308.15	.5027	.5111	.0012747	.0000002
308.15	.7527	.2523	.0012969	.0000002
308.15	.4944	1.4988	.0023338	.0000002
308.15	.9897	.9998	.0023663	.0000002
308.15	1.4843	.5014	.002357	.0000002
308.15	.7655	2.3177	.0045869	.0000002
308.15	1.4879	1.5503	.0046288	.0000002
308.15	2.2402	.7513	.0046826	.0000002
308.15	.9855	2.9766	.0082675	.0000002
308.15	1.9734	1.983	.0085719	.0000002
308.15	2.9596	.9912	.0087001	.0000002

System: water + neodymium nitrate + yttrium nitrate; phases: Liquid
Fixed: Pressure, kPa = 101.3
Property: Viscosity, Pa*s (Liquid); method: Capillary tube (Ostwald; Ubbelohde) method
Temperature, K	Molality, mol/kg of yttrium nitrate	Molality, mol/kg of neodymium nitrate	Viscosity, Pa*s	uncertainty
293.15	.2532	.7618	.0017359	.0000002
293.15	.5005	.5083	.0017596	.0000002
293.15	.7512	.2514	.0018012	.0000002
293.15	.5132	1.5514	.0034205	.0000002
293.15	1.0147	1.0217	.0034283	.0000002
293.15	1.5034	.5055	.0034837	.0000002
293.15	.7595	2.2906	.0068497	.0000002
293.15	1.5011	1.5142	.0070071	.0000002
293.15	2.2355	.7454	.0071492	.0000002
293.15	1.0125	3.0658	.0150045	.0000002
293.15	2.0077	2.0254	.0151036	.0000002
293.15	2.9764	1.0127	.0151144	.0000002
298.15	.2532	.7618	.0015429	.0000002
298.15	.5005	.5083	.0015619	.0000002
298.15	.7512	.2514	.001598	.0000002
298.15	.5132	1.5514	.003	.0000002
298.15	1.0147	1.0217	.0030004	.0000002
298.15	1.5034	.5055	.0030502	.0000002
298.15	.7595	2.2906	.0058796	.0000002
298.15	1.5011	1.5142	.0059574	.0000002
298.15	2.2355	.7454	.0060401	.0000002
298.15	1.0125	3.0658	.0124411	.0000002
298.15	2.0077	2.0254	.0125609	.0000002
298.15	2.9764	1.0127	.0125957	.0000002
308.15	.2532	.7618	.0012577	.0000002
308.15	.5005	.5083	.0012632	.0000002
308.15	.7512	.2514	.0012959	.0000002
308.15	.5132	1.5514	.0023663	.0000002
308.15	1.0147	1.0217	.002365	.0000002
308.15	1.5034	.5055	.0024083	.0000002
308.15	.7595	2.2906	.0044386	.0000002
308.15	1.5011	1.5142	.0045591	.0000002
308.15	2.2355	.7454	.00464	.0000002
308.15	1.0125	3.0658	.0087943	.0000002
308.15	2.0077	2.0254	.0088491	.0000002
308.15	2.9764	1.0127	.0089047	.0000002

System: water + neodymium nitrate + cerium nitrate; phases: Liquid
Fixed: Pressure, kPa = 101.3
Property: Viscosity, Pa*s (Liquid); method: Capillary tube (Ostwald; Ubbelohde) method
Temperature, K	Molality, mol/kg of cerium nitrate	Molality, mol/kg of neodymium nitrate	Viscosity, Pa*s	uncertainty
293.15	.2565	.7673	.0017119	.0000002
293.15	.5097	.5165	.001725	.0000002
293.15	.772	.2568	.0017292	.0000002
293.15	.5182	1.5501	.0033398	.0000002
293.15	1.0233	1.0207	.0033403	.0000002
293.15	1.5159	.5042	.0033128	.0000002
293.15	.7723	2.3246	.0067878	.0000002
293.15	1.5687	1.5396	.0068709	.0000002
293.15	2.3415	.7779	.0068885	.0000002
293.15	1.0189	3.0651	.0144346	.0000002
293.15	2.0174	2.0272	.0139773	.0000002
293.15	3.0001	1.0057	.0135062	.0000002
298.15	.2565	.7673	.0015244	.0000002
298.15	.5097	.5165	.0015357	.0000002
298.15	.772	.2568	.0015267	.0000002
298.15	.5182	1.5501	.0029394	.0000002
298.15	1.0233	1.0207	.0029437	.0000002
298.15	1.5159	.5042	.0029359	.0000002
298.15	.7723	2.3246	.0058637	.0000002
298.15	1.5687	1.5396	.0058872	.0000002
298.15	2.3415	.7779	.0059272	.0000002
298.15	1.0189	3.0651	.0120306	.0000002
298.15	2.0174	2.0272	.0116631	.0000002
298.15	3.0001	1.0057	.0113557	.0000002
308.15	.2565	.7673	.0012455	.0000002
308.15	.5097	.5165	.001251	.0000002
308.15	.772	.2568	.0012557	.0000002
308.15	.5182	1.5501	.0023245	.0000002
308.15	1.0233	1.0207	.0023332	.0000002
308.15	1.5159	.5042	.0023219	.0000002
308.15	.7723	2.3246	.0044453	.0000002
308.15	1.5687	1.5396	.0045048	.0000002
308.15	2.3415	.7779	.0045306	.0000002
308.15	1.0189	3.0651	.0085555	.0000002
308.15	2.0174	2.0272	.008394	.0000002
308.15	3.0001	1.0057	.0081932	.0000002

System: water + yttrium nitrate; phases: Liquid
Fixed: Pressure, kPa = 101.3
Property: Viscosity, Pa*s (Liquid); method: Capillary tube (Ostwald; Ubbelohde) method
Temperature, K	Molality, mol/kg of yttrium nitrate	Viscosity, Pa*s	uncertainty
293.15	.4989	.0013349	.0000002
293.15	.9965	.0018093	.0000002
293.15	1.4972	.0024736	.0000002
293.15	1.982	.0034839	.0000002
293.15	2.9475	.0071801	.0000002
293.15	3.9452	.0152395	.0000002
293.15	4.9575	.0335047	.0000002
298.15	.4989	.0011907	.0000002
298.15	.9965	.0016099	.0000002
298.15	1.4972	.0021973	.0000002
298.15	1.982	.0030562	.0000002
298.15	2.9475	.0061639	.0000002
298.15	3.9452	.0127984	.0000002
298.15	4.9575	.0267241	.0000002
308.15	.4989	.0009655	.0000002
308.15	.9965	.0013048	.0000002
308.15	1.4972	.0017647	.0000002
308.15	1.982	.0024045	.0000002
308.15	2.9475	.0046765	.0000002
308.15	3.9452	.0089907	.0000002
308.15	4.9575	.0181385	.0000002

System: water + cerium nitrate; phases: Liquid
Fixed: Pressure, kPa = 101.3
Property: Viscosity, Pa*s (Liquid); method: Capillary tube (Ostwald; Ubbelohde) method
Temperature, K	Molality, mol/kg of cerium nitrate	Viscosity, Pa*s	uncertainty
293.15	.5112	.0013117	.0000002
293.15	1.0313	.0017177	.0000002
293.15	1.5546	.002423	.0000002
293.15	1.9969	.0032807	.0000002
293.15	3.1308	.0068985	.0000002
293.15	3.9676	.0130178	.0000002
293.15	4.4616	.01948	.0000002
298.15	.5112	.0011736	.0000002
298.15	1.0313	.0015292	.0000002
298.15	1.5546	.0021689	.0000002
298.15	1.9969	.0029109	.0000002
298.15	3.1308	.0059375	.0000002
298.15	3.9676	.0109893	.0000002
298.15	4.4616	.0160587	.0000002
308.15	.5112	.0009509	.0000002
308.15	1.0313	.0012488	.0000002
308.15	1.5546	.0017338	.0000002
308.15	1.9969	.0022989	.0000002
308.15	3.1308	.0045993	.0000002
308.15	3.9676	.0080548	.0000002
308.15	4.4616	.011338	.0000002

System: water + neodymium nitrate; phases: Liquid
Fixed: Pressure, kPa = 101.3
Property: Viscosity, Pa*s (Liquid); method: Capillary tube (Ostwald; Ubbelohde) method
Temperature, K	Molality, mol/kg of neodymium nitrate	Viscosity, Pa*s	uncertainty
293.15	.522	.001299	.0000002
293.15	1.0213	.0017212	.0000002
293.15	1.5554	.0023695	.0000002
293.15	2.0934	.0033825	.0000002
293.15	3.0857	.0067745	.0000002
293.15	4.1242	.0149008	.0000002
293.15	4.2972	.017157	.0000002
298.15	.522	.001159	.0000002
298.15	1.0213	.0015298	.0000002
298.15	1.5554	.0021057	.0000002
298.15	2.0934	.0029665	.0000002
298.15	3.0857	.0057997	.0000002
298.15	4.1242	.0123413	.0000002
298.15	4.2972	.0140902	.0000002
308.15	.522	.0009433	.0000002
308.15	1.0213	.0012416	.0000002
308.15	1.5554	.0016962	.0000002
308.15	2.0934	.0023526	.0000002
308.15	3.0857	.0043802	.0000002
308.15	4.1242	.0087147	.0000002
308.15	4.2972	.0098484	.0000002
