Measured thermophysical data. Influence of Molecular Structure on Densities and Viscosities of Several Ionic Liquids
Source: J. Chem. Eng. Data, 2011, 10.1021/je200883w
Compound 1: 1-butyl-2,3-dimethylimidazolium tris(pentafluoroethyl)trifluorophosphate, C15H17F18N2P, purity 98%
Compound 2: 1-butyl-1-methylpyrrolidinium tris(pentafluoroethyl)trifluorophosphate, C15H20F18NP, purity 98%
Compound 3: 1-(2-methoxyethyl)-1-methyl-pyrrolidinium tris(pentafluoroethyl)trifluorophosphate, C14H18F18NOP, purity 98%
Compound 4: trihexyl(tetradecyl)phosphonium tris(pentafluoroethyl)trifluorophosphate, C38H68F18P2, purity 98%
Compound 5: 1-butyl-2,3-dimethylimidazolium bis(trifluoromethylsulfonyl)imide, C11H17F6N3O4S2, purity 98%
Compound 6: 1-butyl-1-methylpyrrolidinium bis[(trifluoromethyl)sulfonyl]imide, C11H20F6N2O4S2, purity 98%
Compound 7: 1-(2-methoxyethyl)-1-methyl-pyrrolidinium bis(trifluoromethylsulfonyl)imide, C10H18F6N2O5S2, purity 98%
Compound 8: 1-ethyl-3-methylimidazolium ethyl sulfate, C8H16N2O4S, purity 98%
Compound 9: 1-ethyl-3-methylimidazolium hexylsulfate, C12H24N2O4S, purity 98%
Compound 10: 1butyl 1 methylpyrrolidinium triflouromethanesulfonate, C10H20F3NO3S, purity 98%

System: 1-butyl-2,3-dimethylimidazolium tris(pentafluoroethyl)trifluorophosphate; phases: Liquid
Fixed: Pressure, kPa = 101.325
Property: Mass density, kg/m3 (Liquid); method: Vibrating tube method
Temperature, K	Mass density, kg/m3	uncertainty
263.15	1639.8	.5
268.15	1633.8	.5
273.15	1627.9	.5
278.15	1622	.5
283.15	1615.5	.5
288.15	1609.7	.5
293.15	1604	.5
298.15	1598.4	.5
303.15	1592.9	.5
308.15	1587.4	.5
313.15	1582	.5
318.15	1576.6	.5
323.15	1571.2	.5
328.15	1565.8	.5
333.15	1560.4	.5
338.15	1554.9	.5
343.15	1549.5	.5
348.15	1544.1	.5
353.15	1538.5	.5
358.15	1532.8	.5
363.15	1527.2	.5
368.15	1521.9	.5
373.15	1516.8	.5

System: 1-butyl-2,3-dimethylimidazolium tris(pentafluoroethyl)trifluorophosphate; phases: Liquid
Fixed: Pressure, kPa = 101.325
Property: Viscosity, Pa*s (Liquid); method: Concentric cylinders viscometry
Temperature, K	Viscosity, Pa*s	uncertainty
283.15	.43603	.0043603
288.15	.29778	.0029778
293.15	.21104	.0021104
298.15	.1541	.001541
303.15	.11549	.0011549
308.15	.088592	.00088592
313.15	.069381	.00069381
318.15	.055336	.00055336
323.15	.044859	.00044859
328.15	.03689	.0003689
333.15	.030728	.00030728
338.15	.025906	.00025906
343.15	.022077	.00022077
348.15	.018996	.00018996
353.15	.01649	.0001649
358.15	.014426	.00014426
363.15	.012713	.00012713
368.15	.011278	.00011278
373.15	.010066	.00010066

System: 1-butyl-1-methylpyrrolidinium tris(pentafluoroethyl)trifluorophosphate; phases: Liquid
Fixed: Pressure, kPa = 101.325
Property: Mass density, kg/m3 (Liquid); method: Vibrating tube method
Temperature, K	Mass density, kg/m3	uncertainty
283.15	1599.8	.5
288.15	1594.2	.5
293.15	1588.6	.5
298.15	1583.2	.5
303.15	1577.9	.5
308.15	1572.6	.5
313.15	1567.4	.5
318.15	1562.1	.5
323.15	1556.9	.5
328.15	1551.7	.5
333.15	1546.6	.5
338.15	1541.5	.5
343.15	1536.3	.5
348.15	1531.1	.5
353.15	1525.7	.5
358.15	1520.4	.5
363.15	1515.3	.5
368.15	1510.4	.5
373.15	1505.5	.5

System: 1-butyl-1-methylpyrrolidinium tris(pentafluoroethyl)trifluorophosphate; phases: Liquid
Fixed: Pressure, kPa = 101.325
Property: Viscosity, Pa*s (Liquid); method: Concentric cylinders viscometry
Temperature, K	Viscosity, Pa*s	uncertainty
283.15	.5937	.005937
288.15	.4098	.004098
293.15	.2915	.002915
298.15	.2131	.002131
303.15	.15961	.0015961
308.15	.12218	.0012218
313.15	.09536	.0009536
318.15	.07575	.0007575
323.15	.06113	.0006113
328.15	.050033	.00050033
333.15	.041482	.00041482
338.15	.034793	.00034793
343.15	.029493	.00029493
348.15	.025242	.00025242
353.15	.021795	.00021795
358.15	.018968	.00018968
363.15	.01663	.0001663
368.15	.014678	.00014678
373.15	.013037	.00013037

System: 1-(2-methoxyethyl)-1-methyl-pyrrolidinium tris(pentafluoroethyl)trifluorophosphate; phases: Liquid
Fixed: Pressure, kPa = 101.325
Property: Mass density, kg/m3 (Liquid); method: Vibrating tube method
Temperature, K	Mass density, kg/m3	uncertainty
258.15	1678.1	.5
263.15	1672.2	.5
268.15	1666.1	.5
273.15	1659.8	.5
278.15	1653.8	.5
283.15	1647.9	.5
288.15	1642.2	.5
293.15	1636.6	.5
298.15	1631	.5
303.15	1625.5	.5
308.15	1620	.5
313.15	1614.4	.5
318.15	1608.9	.5
323.15	1603.4	.5
328.15	1598	.5
333.15	1592.5	.5
338.15	1587.1	.5
343.15	1581.6	.5
348.15	1576.2	.5
353.15	1570.9	.5
358.15	1565.5	.5
363.15	1559.8	.5
368.15	1554.3	.5
373.15	1549.1	.5

System: 1-(2-methoxyethyl)-1-methyl-pyrrolidinium tris(pentafluoroethyl)trifluorophosphate; phases: Liquid
Fixed: Pressure, kPa = 101.325
Property: Viscosity, Pa*s (Liquid); method: Concentric cylinders viscometry
Temperature, K	Viscosity, Pa*s	uncertainty
258.15	2.2821	.022821
263.15	1.3771	.013771
268.15	.8657	.008657
273.15	.56917	.0056917
278.15	.38725	.0038725
283.15	.27288	.0027288
288.15	.1981	.001981
293.15	.14772	.0014772
298.15	.11274	.0011274
303.15	.08788	.0008788
308.15	.0698	.000698
313.15	.056364	.00056364
318.15	.046178	.00046178
323.15	.038341	.00038341
328.15	.032198	.00032198
333.15	.027336	.00027336
338.15	.023435	.00023435
343.15	.020267	.00020267
348.15	.017672	.00017672
353.15	.015525	.00015525
358.15	.013728	.00013728
363.15	.012215	.00012215
368.15	.01093	.0001093
373.15	.009832	.00009832

System: trihexyl(tetradecyl)phosphonium tris(pentafluoroethyl)trifluorophosphate; phases: Liquid
Fixed: Pressure, kPa = 101.325
Property: Mass density, kg/m3 (Liquid); method: Vibrating tube method
Temperature, K	Mass density, kg/m3	uncertainty
268.15	1207.4	.5
273.15	1203.2	.5
278.15	1198.9	.5
283.15	1194.6	.5
288.15	1190.3	.5
293.15	1186	.5
298.15	1181.7	.5
303.15	1177.6	.5
308.15	1173.5	.5
313.15	1169.4	.5
318.15	1165.3	.5
323.15	1161.3	.5
328.15	1157.3	.5
333.15	1153.3	.5
338.15	1149.3	.5
343.15	1145.3	.5
348.15	1141.2	.5
353.15	1137	.5
358.15	1132.7	.5
363.15	1128.7	.5
368.15	1124.9	.5
373.15	1121.1	.5

System: trihexyl(tetradecyl)phosphonium tris(pentafluoroethyl)trifluorophosphate; phases: Liquid
Fixed: Pressure, kPa = 101.325
Property: Viscosity, Pa*s (Liquid); method: Concentric cylinders viscometry
Temperature, K	Viscosity, Pa*s	uncertainty
268.15	3.0673	.030673
273.15	2.01	.0201
278.15	1.3452	.013452
283.15	.92839	.0092839
288.15	.6542	.006542
293.15	.47176	.0047176
298.15	.34706	.0034706
303.15	.26012	.0026012
308.15	.1983	.001983
313.15	.15361	.0015361
318.15	.12076	.0012076
323.15	.096233	.00096233
328.15	.077677	.00077677
333.15	.063446	.00063446
338.15	.052393	.00052393
343.15	.04371	.0004371
348.15	.036803	.00036803
353.15	.031274	.00031274
358.15	.026789	.00026789
363.15	.023116	.00023116
368.15	.020087	.00020087
373.15	.017567	.00017567

System: 1-butyl-2,3-dimethylimidazolium bis(trifluoromethylsulfonyl)imide; phases: Liquid
Fixed: Pressure, kPa = 101.325
Property: Mass density, kg/m3 (Liquid); method: Vibrating tube method
Temperature, K	Mass density, kg/m3	uncertainty
273.15	1443.3	.5
278.15	1438.4	.5
283.15	1433.5	.5
288.15	1428.7	.5
293.15	1424	.5
298.15	1419.4	.5
303.15	1414.8	.5
308.15	1410.1	.5
313.15	1405.5	.5
318.15	1401	.5
323.15	1396.4	.5
328.15	1391.8	.5
333.15	1387.3	.5
338.15	1382.8	.5
343.15	1378.4	.5
348.15	1373.9	.5
353.15	1369.3	.5
358.15	1364.4	.5
363.15	1359.8	.5
368.15	1355.5	.5
373.15	1351.3	.5

System: 1-butyl-2,3-dimethylimidazolium bis(trifluoromethylsulfonyl)imide; phases: Liquid
Fixed: Pressure, kPa = 101.325
Property: Viscosity, Pa*s (Liquid); method: Concentric cylinders viscometry
Temperature, K	Viscosity, Pa*s	uncertainty
273.15	.51855	.0051855
278.15	.35344	.0035344
283.15	.24926	.0024926
288.15	.1805	.001805
293.15	.13422	.0013422
298.15	.10219	.0010219
303.15	.079465	.00079465
308.15	.062974	.00062974
313.15	.050755	.00050755
318.15	.041526	.00041526
323.15	.034445	.00034445
328.15	.028913	.00028913
333.15	.024536	.00024536
338.15	.021026	.00021026
343.15	.018172	.00018172
348.15	.015831	.00015831
353.15	.013899	.00013899
358.15	.012296	.00012296
363.15	.010942	.00010942
368.15	.0097936	.000097936
373.15	.0088135	.000088135

System: 1-butyl-1-methylpyrrolidinium bis[(trifluoromethyl)sulfonyl]imide; phases: Liquid
Fixed: Pressure, kPa = 101.325
Property: Mass density, kg/m3 (Liquid); method: Vibrating tube method
Temperature, K	Mass density, kg/m3	uncertainty
278.15	1412.9	.5
283.15	1408.3	.5
288.15	1403.8	.5
293.15	1399.3	.5
298.15	1394.9	.5
303.15	1390.5	.5
308.15	1386.1	.5
313.15	1381.8	.5
318.15	1377.4	.5
323.15	1373	.5
328.15	1368.7	.5
333.15	1364.3	.5
338.15	1360	.5
343.15	1355.7	.5
348.15	1351.4	.5
353.15	1346.9	.5
358.15	1342.5	.5
363.15	1338.3	.5
368.15	1334.3	.5
373.15	1330.3	.5

System: 1-butyl-1-methylpyrrolidinium bis[(trifluoromethyl)sulfonyl]imide; phases: Liquid
Fixed: Pressure, kPa = 101.325
Property: Viscosity, Pa*s (Liquid); method: Concentric cylinders viscometry
Temperature, K	Viscosity, Pa*s	uncertainty
278.15	.2303	.002303
283.15	.1696	.001696
288.15	.128	.00128
293.15	.09874	.0009874
298.15	.07765	.0007765
303.15	.06214	.0006214
308.15	.05052	.0005052
313.15	.04165	.0004165
318.15	.03478	.0003478
323.15	.029376	.00029376
328.15	.025074	.00025074
333.15	.021603	.00021603
338.15	.018772	.00018772
343.15	.01644	.0001644
348.15	.0145	.000145
353.15	.012872	.00012872
358.15	.011497	.00011497
363.15	.010325	.00010325
368.15	.00932	.0000932
373.15	.008454	.00008454

System: 1-(2-methoxyethyl)-1-methyl-pyrrolidinium bis(trifluoromethylsulfonyl)imide; phases: Liquid
Fixed: Pressure, kPa = 101.325
Property: Mass density, kg/m3 (Liquid); method: Vibrating tube method
Temperature, K	Mass density, kg/m3	uncertainty
258.15	1494.1	.5
263.15	1488.7	.5
268.15	1483.6	.5
273.15	1478.5	.5
278.15	1473.7	.5
283.15	1468.8	.5
288.15	1464	.5
293.15	1459.3	.5
298.15	1454.7	.5
303.15	1450	.5
308.15	1445.2	.5
313.15	1440.5	.5
318.15	1435.9	.5
323.15	1431.2	.5
328.15	1426.6	.5
333.15	1422	.5
338.15	1417.4	.5
343.15	1412.9	.5
348.15	1408.2	.5
353.15	1403.3	.5
358.15	1398.6	.5
363.15	1394.2	.5
368.15	1389.9	.5
373.15	1385.7	.5

System: 1-(2-methoxyethyl)-1-methyl-pyrrolidinium bis(trifluoromethylsulfonyl)imide; phases: Liquid
Fixed: Pressure, kPa = 101.325
Property: Viscosity, Pa*s (Liquid); method: Concentric cylinders viscometry
Temperature, K	Viscosity, Pa*s	uncertainty
258.15	.6203	.006203
263.15	.4123	.004123
268.15	.2864	.002864
273.15	.20456	.0020456
278.15	.14989	.0014989
283.15	.11296	.0011296
288.15	.08714	.0008714
293.15	.06861	.0006861
298.15	.05506	.0005506
303.15	.0449	.000449
308.15	.03715	.0003715
313.15	.03115	.0003115
318.15	.026427	.00026427
323.15	.022657	.00022657
328.15	.019586	.00019586
333.15	.01709	.0001709
338.15	.015034	.00015034
343.15	.013324	.00013324
348.15	.011883	.00011883
353.15	.010661	.00010661
358.15	.009617	.00009617
363.15	.008718	.00008718
368.15	.00794	.0000794
373.15	.007263	.00007263

System: 1-ethyl-3-methylimidazolium ethyl sulfate; phases: Liquid
Fixed: Pressure, kPa = 101.325
Property: Mass density, kg/m3 (Liquid); method: Vibrating tube method
Temperature, K	Mass density, kg/m3	uncertainty
253.15	1270.6	.5
258.15	1266.9	.5
263.15	1263.3	.5
268.15	1259.5	.5
273.15	1255.7	.5
278.15	1252	.5
283.15	1248.3	.5
288.15	1244.8	.5
293.15	1241.3	.5
298.15	1237.8	.5
303.15	1234.4	.5
308.15	1231	.5
313.15	1227.6	.5
318.15	1224.2	.5
323.15	1220.8	.5
328.15	1217.4	.5
333.15	1214	.5
338.15	1210.6	.5
343.15	1207.2	.5
348.15	1203.8	.5
353.15	1200.4	.5
358.15	1197.2	.5
363.15	1194.1	.5
368.15	1191.1	.5
373.15	1188.2	.5

System: 1-ethyl-3-methylimidazolium ethyl sulfate; phases: Liquid
Fixed: Pressure, kPa = 101.325
Property: Viscosity, Pa*s (Liquid); method: Concentric cylinders viscometry
Temperature, K	Viscosity, Pa*s	uncertainty
253.15	3.1464	.031464
258.15	1.7896	.017896
263.15	1.0944	.010944
268.15	.70085	.0070085
273.15	.46603	.0046603
278.15	.32137	.0032137
283.15	.22915	.0022915
288.15	.16831	.0016831
293.15	.12689	.0012689
298.15	.097843	.00097843
303.15	.077005	.00077005
308.15	.061708	.00061708
313.15	.050247	.00050247
318.15	.041506	.00041506
323.15	.03473	.0003473
328.15	.0294	.000294
333.15	.025151	.00025151
338.15	.02172	.0002172
343.15	.01891	.0001891
348.15	.016604	.00016604
353.15	.01468	.0001468
358.15	.013063	.00013063
363.15	.011694	.00011694
368.15	.01052	.0001052
373.15	.0095178	.000095178

System: 1-ethyl-3-methylimidazolium hexylsulfate; phases: Liquid
Fixed: Pressure, kPa = 101.325
Property: Mass density, kg/m3 (Liquid); method: Vibrating tube method
Temperature, K	Mass density, kg/m3	uncertainty
268.15	1151.4	.5
273.15	1147.9	.5
278.15	1144.4	.5
283.15	1140.9	.5
288.15	1137.4	.5
293.15	1133.8	.5
298.15	1130.4	.5
303.15	1127	.5
308.15	1123.7	.5
313.15	1120.5	.5
318.15	1117.2	.5
323.15	1114	.5
328.15	1110.8	.5
333.15	1107.6	.5
338.15	1104.4	.5
343.15	1101.2	.5
348.15	1097.9	.5
353.15	1094.5	.5
358.15	1091.2	.5
363.15	1088.1	.5
368.15	1085.1	.5
373.15	1082.3	.5

System: 1-ethyl-3-methylimidazolium hexylsulfate; phases: Liquid
Fixed: Pressure, kPa = 101.325
Property: Viscosity, Pa*s (Liquid); method: Concentric cylinders viscometry
Temperature, K	Viscosity, Pa*s	uncertainty
268.15	3.4259	.034259
273.15	2.1241	.021241
278.15	1.3621	.013621
283.15	.90477	.0090477
288.15	.62025	.0062025
293.15	.43753	.0043753
298.15	.31678	.0031678
303.15	.23483	.0023483
308.15	.17781	.0017781
313.15	.13723	.0013723
318.15	.10782	.0010782
323.15	.086062	.00086062
328.15	.069707	.00069707
333.15	.057208	.00057208
338.15	.047521	.00047521
343.15	.039912	.00039912
348.15	.033862	.00033862
353.15	.028997	.00028997
358.15	.025043	.00025043
363.15	.021798	.00021798
368.15	.019111	.00019111
373.15	.016868	.00016868

System: 1butyl 1 methylpyrrolidinium triflouromethanesulfonate; phases: Liquid
Fixed: Pressure, kPa = 101.325
Property: Mass density, kg/m3 (Liquid); method: Vibrating tube method
Temperature, K	Mass density, kg/m3	uncertainty
283.15	1263.6	.5
288.15	1259.9	.5
293.15	1256.1	.5
298.15	1252.4	.5
303.15	1248.7	.5
308.15	1245.1	.5
313.15	1241.5	.5
318.15	1238	.5
323.15	1234.4	.5
328.15	1230.8	.5
333.15	1227.3	.5
338.15	1223.8	.5
343.15	1220.3	.5
348.15	1216.8	.5
353.15	1213.3	.5
358.15	1209.7	.5
363.15	1205.9	.5
368.15	1202.5	.5
373.15	1199.2	.5

System: 1butyl 1 methylpyrrolidinium triflouromethanesulfonate; phases: Liquid
Fixed: Pressure, kPa = 101.325
Property: Viscosity, Pa*s (Liquid); method: Concentric cylinders viscometry
Temperature, K	Viscosity, Pa*s	uncertainty
283.15	.4149	.004149
288.15	.2994	.002994
293.15	.2217	.002217
298.15	.16787	.0016787
303.15	.12971	.0012971
308.15	.10206	.0010206
313.15	.08162	.0008162
318.15	.06624	.0006624
323.15	.05448	.0005448
328.15	.045344	.00045344
333.15	.038165	.00038165
338.15	.032445	.00032445
343.15	.027838	.00027838
348.15	.024085	.00024085
353.15	.020996	.00020996
358.15	.018437	.00018437
363.15	.016292	.00016292
368.15	.014483	.00014483
373.15	.012947	.00012947
