Measured thermophysical data. Physicochemical Properties of Ionic Liquids [C3py][NTf2] and [C6py][NTf2]
Source: J. Chem. Eng. Data, 2011, 10.1021/je200534b
Compound 1: 1-propylpyridinium bis(trifluormethylsulfonyl)imide, C10H12F6N2O4S2
Compound 2: 1-hexylpyridinium bis(trifluromethylsulfonyl)imide, C13H18F6N2O4S2

System: 1-propylpyridinium bis(trifluormethylsulfonyl)imide; phases: Crystal, Liquid, Air at 1 atmosphere
Property: Normal melting temperature, K (Crystal); method: DSC/DTA
Normal melting temperature, K	uncertainty
317.6	

System: 1-propylpyridinium bis(trifluormethylsulfonyl)imide; phases: Liquid
Fixed: Pressure, kPa = 101.325
Property: Mass density, kg/m3 (Liquid); method: Westphal balance
Temperature, K	Mass density, kg/m3	uncertainty
308.15	1484.5	.2
313.15	1480	.2
318.15	1475.7	.2
323.15	1471	.2
328.15	1466.7	.2
333.15	1462.3	.2
338.15	1457.4	.2

System: 1-propylpyridinium bis(trifluormethylsulfonyl)imide; phases: Liquid
Fixed: Pressure, kPa = 101.325
Property: Viscosity, Pa*s (Liquid); method: Capillary tube (Ostwald; Ubbelohde) method
Temperature, K	Viscosity, Pa*s	uncertainty
308.15	.033	.00033
313.15	.0276	.000276
318.15	.0233	.000233
323.15	.0198	.000198
328.15	.0171	.000171
333.15	.0149	.000149
338.15	.0135	.000135

System: 1-propylpyridinium bis(trifluormethylsulfonyl)imide; phases: Liquid
Fixed: Pressure, kPa = 101.325
Property: Electrical conductivity, S/m (Liquid); method: MP522 conductivity instrument
Temperature, K	Electrical conductivity, S/m	uncertainty
313.15	.719	.00719
318.15	.83	.0083
323.15	.955	.00955
328.15	1.083	.01083
333.15	1.223	.01223
338.15	1.365	.01365

System: 1-hexylpyridinium bis(trifluromethylsulfonyl)imide; phases: Glass, Liquid, Air at 1 atmosphere
Property: Triple point temperature, K (Glass); method: DSC/DTA
Triple point temperature, K	uncertainty
196.6	

System: 1-hexylpyridinium bis(trifluromethylsulfonyl)imide; phases: Crystal, Liquid, Air at 1 atmosphere
Property: Normal melting temperature, K (Crystal); method: DSC/DTA
Normal melting temperature, K	uncertainty
276.4	

System: 1-hexylpyridinium bis(trifluromethylsulfonyl)imide; phases: Liquid
Fixed: Pressure, kPa = 101.325
Property: Mass density, kg/m3 (Liquid); method: Westphal balance
Temperature, K	Mass density, kg/m3	uncertainty
283.15	1400.8	.2
288.15	1396.6	.2
293.15	1392.3	.2
298.15	1387.7	.2
303.15	1383.1	.2
308.15	1378.9	.2
313.15	1374.4	.2
318.15	1369.9	.2
323.15	1365.5	.2
328.15	1361.5	.2
333.15	1356.9	.2
338.15	1352.5	.2

System: 1-hexylpyridinium bis(trifluromethylsulfonyl)imide; phases: Liquid, Air at 1 atmosphere
Property: Surface tension liquid-gas, N/m (Liquid); method: Maximal bubble pressure
Temperature, K	Surface tension liquid-gas, N/m	uncertainty
283.15	.0325	.0001
288.15	.0322	.0001
293.15	.032	.0001
298.15	.0317	.0001
303.15	.0316	.0001
308.15	.0314	.0001
313.15	.0312	.0001
318.15	.031	.0001
323.15	.0308	.0001
328.15	.0306	.0001
333.15	.0303	.0001
338.15	.0301	.0001

System: 1-hexylpyridinium bis(trifluromethylsulfonyl)imide; phases: Liquid
Fixed: Pressure, kPa = 101.325
Property: Viscosity, Pa*s (Liquid); method: Capillary tube (Ostwald; Ubbelohde) method
Temperature, K	Viscosity, Pa*s	uncertainty
298.15	.0845	.000845
303.15	.0664	.000664
308.15	.0532	.000532
313.15	.0431	.000431
318.15	.0352	.000352
323.15	.0291	.000291
328.15	.0245	.000245
333.15	.0209	.000209
338.15	.0179	.000179

System: 1-hexylpyridinium bis(trifluromethylsulfonyl)imide; phases: Liquid
Fixed: Pressure, kPa = 101.325
Property: Electrical conductivity, S/m (Liquid); method: MP522 conductivity instrument
Temperature, K	Electrical conductivity, S/m	uncertainty
283.15	.076	.00076
288.15	.1	.001
293.15	.13	.0013
298.15	.166	.00166
303.15	.208	.00208
308.15	.257	.00257
313.15	.311	.00311
318.15	.387	.00387
323.15	.446	.00446
328.15	.538	.00538
333.15	.621	.00621
338.15	.712	.00712
