Measured thermophysical data. Densities and Viscosities of the Binary Mixtures of 1-Ethyl-3-methylimidazolium Bis(trifluoromethylsulfonyl)imide with N-Methyl-2-pyrrolidone or Ethanol at T = (293.15 to 323.15) K
Source: J. Chem. Eng. Data, 2012, 10.1021/je200922s
Compound 1: N-methyl-2-pyrrolidone, C5H9NO, purity 99%
Compound 2: ethanol, C2H6O, purity 99.8%
Compound 3: 1-ethyl-3-methylimidazolium bis[(trifluoromethyl)sulfonyl]imide, C8H11F6N3O4S2

System: N-methyl-2-pyrrolidone; phases: Liquid
Fixed: Pressure, kPa = 101.325
Property: Mass density, kg/m3 (Liquid); method: Vibrating tube method
Temperature, K	Mass density, kg/m3	uncertainty
293.15	1032.313	.005
298.15	1027.962	.005
303.15	1023.521	.005
308.15	1019.06	.005
313.15	1014.607	.005
318.15	1010.141	.005
323.15	1005.677	.005

System: N-methyl-2-pyrrolidone; phases: Liquid
Fixed: Pressure, kPa = 101.325
Property: Viscosity, Pa*s (Liquid); method: Capillary tube (Ostwald; Ubbelohde) method
Temperature, K	Viscosity, Pa*s	uncertainty
293.15	.001811	.00003622
298.15	.001667	.00003334
303.15	.001543	.00003086
308.15	.001437	.00002874
313.15	.001343	.00002686
318.15	.001258	.00002516
323.15	.001184	.00002368

System: ethanol; phases: Liquid
Fixed: Pressure, kPa = 101.325
Property: Mass density, kg/m3 (Liquid); method: Vibrating tube method
Temperature, K	Mass density, kg/m3	uncertainty
293.15	789.831	.005
298.15	785.535	.005
303.15	781.22	.005
308.15	776.875	.005
313.15	772.48	.005
318.15	768.042	.005
323.15	762.564	.005

System: ethanol; phases: Liquid
Fixed: Pressure, kPa = 101.325
Property: Viscosity, Pa*s (Liquid); method: Capillary tube (Ostwald; Ubbelohde) method
Temperature, K	Viscosity, Pa*s	uncertainty
293.15	.001189	.00002378
298.15	.001095	.0000219
303.15	.001003	.00002006
308.15	.000914	.00001828
313.15	.000845	.0000169
318.15	.000765	.0000153
323.15	.000704	.00001408

System: 1-ethyl-3-methylimidazolium bis[(trifluoromethyl)sulfonyl]imide; phases: Liquid
Fixed: Pressure, kPa = 101.325
Property: Mass density, kg/m3 (Liquid); method: Vibrating tube method
Temperature, K	Mass density, kg/m3	uncertainty
293.15	1523.284	.005
298.15	1518.251	.005
303.15	1513.232	.005
308.15	1508.204	.005
313.15	1503.162	.005
318.15	1498.194	.005
323.15	1493.33	.005

System: 1-ethyl-3-methylimidazolium bis[(trifluoromethyl)sulfonyl]imide; phases: Liquid
Fixed: Pressure, kPa = 101.325
Property: Viscosity, Pa*s (Liquid); method: Capillary tube (Ostwald; Ubbelohde) method
Temperature, K	Viscosity, Pa*s	uncertainty
293.15	.04024	.0008048
298.15	.03336	.0006672
303.15	.0281	.000562
308.15	.02393	.0004786
313.15	.02066	.0004132
318.15	.01798	.0003596
323.15	.0158	.000316

System: N-methyl-2-pyrrolidone + 1-ethyl-3-methylimidazolium bis[(trifluoromethyl)sulfonyl]imide; phases: Liquid
Fixed: Pressure, kPa = 101
Property: Mass density, kg/m3 (Liquid); method: Vibrating tube method
Temperature, K	Mole fraction of 1-ethyl-3-methylimidazolium bis[(trifluoromethyl)sulfonyl]imide	Mass density, kg/m3	uncertainty
293.15	.9002	1502.241	.005
293.15	.798	1478.942	.005
293.15	.6917	1451.444	.005
293.15	.5893	1420.549	.005
293.15	.493	1386.312	.005
293.15	.395	1344.491	.005
293.15	.2957	1292.831	.005
293.15	.1979	1228.992	.005
293.15	.0978	1144.094	.005
298.15	.9002	1497.092	.005
298.15	.798	1473.784	.005
298.15	.6917	1446.291	.005
298.15	.5893	1415.415	.005
298.15	.493	1381.192	.005
298.15	.395	1339.439	.005
298.15	.2957	1287.871	.005
298.15	.1979	1224.194	.005
298.15	.0978	1139.45	.005
303.15	.9002	1491.961	.005
303.15	.798	1468.635	.005
303.15	.6917	1441.151	.005
303.15	.5893	1410.27	.005
303.15	.493	1376.09	.005
303.15	.395	1334.421	.005
303.15	.2957	1282.914	.005
303.15	.1979	1219.334	.005
303.15	.0978	1134.72	.005
308.15	.9002	1486.834	.005
308.15	.798	1463.482	.005
308.15	.6917	1436.014	.005
308.15	.5893	1405.147	.005
308.15	.493	1371.001	.005
308.15	.395	1329.382	.005
308.15	.2957	1277.971	.005
308.15	.1979	1214.471	.005
308.15	.0978	1130.026	.005
313.15	.9002	1481.674	.005
313.15	.798	1458.282	.005
313.15	.6917	1430.827	.005
313.15	.5893	1399.964	.005
313.15	.493	1365.875	.005
313.15	.395	1324.284	.005
313.15	.2957	1272.99	.005
313.15	.1979	1209.604	.005
313.15	.0978	1125.305	.005
318.15	.9002	1476.54	.005
318.15	.798	1453.092	.005
318.15	.6917	1425.651	.005
318.15	.5893	1394.812	.005
318.15	.493	1360.772	.005
318.15	.395	1319.235	.005
318.15	.2957	1267.997	.005
318.15	.1979	1204.731	.005
318.15	.0978	1120.611	.005
323.15	.9002	1471.411	.005
323.15	.798	1448.032	.005
323.15	.6917	1420.575	.005
323.15	.5893	1389.731	.005
323.15	.493	1355.621	.005
323.15	.395	1314.121	.005
323.15	.2957	1262.96	.005
323.15	.1979	1199.83	.005
323.15	.0978	1115.906	.005

System: N-methyl-2-pyrrolidone + 1-ethyl-3-methylimidazolium bis[(trifluoromethyl)sulfonyl]imide; phases: Liquid
Fixed: Pressure, kPa = 101
Property: Viscosity, Pa*s (Liquid); method: Capillary tube (Ostwald; Ubbelohde) method
Temperature, K	Mole fraction of 1-ethyl-3-methylimidazolium bis[(trifluoromethyl)sulfonyl]imide	Viscosity, Pa*s	uncertainty
293.15	.9002	.03493	.0006986
293.15	.798	.02972	.0005944
293.15	.6917	.02472	.0004944
293.15	.5893	.02006	.0004012
293.15	.493	.01584	.0003168
293.15	.395	.01204	.0002408
293.15	.2957	.008637	.00017274
293.15	.1979	.005561	.00011122
293.15	.0978	.003344	.00006688
298.15	.9002	.0287	.000574
298.15	.798	.0247	.000494
298.15	.6917	.02087	.0004174
298.15	.5893	.01707	.0003414
298.15	.493	.0136	.000272
298.15	.395	.01045	.000209
298.15	.2957	.007604	.00015208
298.15	.1979	.004943	.00009886
298.15	.0978	.003026	.00006052
303.15	.9002	.02429	.0004858
303.15	.798	.02105	.000421
303.15	.6917	.01785	.000357
303.15	.5893	.0147	.000294
303.15	.493	.01182	.0002364
303.15	.395	.009159	.00018318
303.15	.2957	.006749	.00013498
303.15	.1979	.004457	.00008914
303.15	.0978	.002754	.00005508
308.15	.9002	.02083	.0004166
308.15	.798	.01824	.0003648
308.15	.6917	.01544	.0003088
308.15	.5893	.01281	.0002562
308.15	.493	.01037	.0002074
308.15	.395	.008092	.00016184
308.15	.2957	.006033	.00012066
308.15	.1979	.004028	.00008056
308.15	.0978	.002519	.00005038
313.15	.9002	.01812	.0003624
313.15	.798	.01576	.0003152
313.15	.6917	.01344	.0002688
313.15	.5893	.01126	.0002252
313.15	.493	.009174	.00018348
313.15	.395	.00719	.0001438
313.15	.2957	.00543	.0001086
313.15	.1979	.003647	.00007294
313.15	.0978	.002314	.00004628
318.15	.9002	.01579	.0003158
318.15	.798	.01378	.0002756
318.15	.6917	.01183	.0002366
318.15	.5893	.009989	.00019978
318.15	.493	.00818	.0001636
318.15	.395	.00644	.0001288
318.15	.2957	.004916	.00009832
318.15	.1979	.003325	.0000665
318.15	.0978	.00213	.0000426
323.15	.9002	.01395	.000279
323.15	.798	.01231	.0002462
323.15	.6917	.01051	.0002102
323.15	.5893	.008911	.00017822
323.15	.493	.007344	.00014688
323.15	.395	.005816	.00011632
323.15	.2957	.004481	.00008962
323.15	.1979	.003079	.00006158
323.15	.0978	.00198	.0000396

System: ethanol + 1-ethyl-3-methylimidazolium bis[(trifluoromethyl)sulfonyl]imide; phases: Liquid
Fixed: Pressure, kPa = 101
Property: Mass density, kg/m3 (Liquid); method: Vibrating tube method
Temperature, K	Mole fraction of 1-ethyl-3-methylimidazolium bis[(trifluoromethyl)sulfonyl]imide	Mass density, kg/m3	uncertainty
293.15	.9041	1506.315	.005
293.15	.7982	1484.184	.005
293.15	.6966	1458.636	.005
293.15	.5955	1427.558	.005
293.15	.5014	1391.851	.005
293.15	.3992	1341.773	.005
293.15	.3	1276.68	.005
293.15	.1971	1179.411	.005
293.15	.1008	1038.4	.005
298.15	.9041	1501.313	.005
298.15	.7982	1479.171	.005
298.15	.6966	1453.693	.005
298.15	.5955	1422.721	.005
298.15	.5014	1387.125	.005
298.15	.3992	1337.181	.005
298.15	.3	1272.192	.005
298.15	.1971	1175.213	.005
298.15	.1008	1034.141	.005
303.15	.9041	1496.341	.005
303.15	.7982	1474.28	.005
303.15	.6966	1448.783	.005
303.15	.5955	1417.99	.005
303.15	.5014	1382.491	.005
303.15	.3992	1332.393	.005
303.15	.3	1267.5	.005
303.15	.1971	1170.587	.005
303.15	.1008	1029.789	.005
308.15	.9041	1491.394	.005
308.15	.7982	1469.404	.005
308.15	.6966	1443.984	.005
308.15	.5955	1413.413	.005
308.15	.5014	1377.681	.005
308.15	.3992	1327.885	.005
308.15	.3	1263.4	.005
308.15	.1971	1166.55	.005
308.15	.1008	1025.121	.005
313.15	.9041	1486.411	.005
313.15	.7982	1464.393	.005
313.15	.6966	1439.3	.005
313.15	.5955	1408.572	.005
313.15	.5014	1372.99	.005
313.15	.3992	1323.621	.005
313.15	.3	1259.313	.005
313.15	.1971	1162.51	.005
313.15	.1008	1021.471	.005
318.15	.9041	1481.541	.005
318.15	.7982	1459.6	.005
318.15	.6966	1434.533	.005
318.15	.5955	1404	.005
318.15	.5014	1368.707	.005
318.15	.3992	1319.804	.005
318.15	.3	1255.227	.005
318.15	.1971	1159.513	.005
318.15	.1008	1019.104	.005
323.15	.9041	1476.731	.005
323.15	.7982	1454.973	.005
323.15	.6966	1429.971	.005
323.15	.5955	1399.501	.005
323.15	.5014	1364.61	.005
323.15	.3992	1316.241	.005
323.15	.3	1252.111	.005
323.15	.1971	1156.541	.005
323.15	.1008	1015.544	.005

System: ethanol + 1-ethyl-3-methylimidazolium bis[(trifluoromethyl)sulfonyl]imide; phases: Liquid
Fixed: Pressure, kPa = 101
Property: Viscosity, Pa*s (Liquid); method: Capillary tube (Ostwald; Ubbelohde) method
Temperature, K	Mole fraction of 1-ethyl-3-methylimidazolium bis[(trifluoromethyl)sulfonyl]imide	Viscosity, Pa*s	uncertainty
293.15	.9041	.02874	.0005748
293.15	.7982	.0218	.000436
293.15	.6966	.01776	.0003552
293.15	.5955	.01387	.0002774
293.15	.5014	.01065	.000213
293.15	.3992	.007429	.00014858
293.15	.3	.0046	.000092
293.15	.1971	.00278	.0000556
293.15	.1008	.001612	.00003224
298.15	.9041	.02452	.0004904
298.15	.7982	.0187	.000374
298.15	.6966	.01518	.0003036
298.15	.5955	.01205	.000241
298.15	.5014	.009232	.00018464
298.15	.3992	.006479	.00012958
298.15	.3	.00415	.000083
298.15	.1971	.00235	.000047
298.15	.1008	.001478	.00002956
303.15	.9041	.0209	.000418
303.15	.7982	.01612	.0003224
303.15	.6966	.01313	.0002626
303.15	.5955	.01031	.0002062
303.15	.5014	.0081	.000162
303.15	.3992	.005697	.00011394
303.15	.3	.003728	.00007456
303.15	.1971	.00216	.0000432
303.15	.1008	.00125	.000025
308.15	.9041	.01805	.000361
308.15	.7982	.01404	.0002808
308.15	.6966	.01147	.0002294
308.15	.5955	.009109	.00018218
308.15	.5014	.007177	.00014354
308.15	.3992	.005055	.0001011
308.15	.3	.003157	.00006314
308.15	.1971	.0019	.000038
308.15	.1008	.00112	.0000224
313.15	.9041	.01574	.0003148
313.15	.7982	.01234	.0002468
313.15	.6966	.01001	.0002002
313.15	.5955	.007954	.00015908
313.15	.5014	.006199	.00012398
313.15	.3992	.004404	.00008808
313.15	.3	.00264	.0000528
313.15	.1971	.001645	.0000329
313.15	.1008	.001101	.00002202
318.15	.9041	.01384	.0002768
318.15	.7982	.01093	.0002186
318.15	.6966	.008965	.0001793
318.15	.5955	.007141	.00014282
318.15	.5014	.005603	.00011206
318.15	.3992	.003945	.0000789
318.15	.3	.002459	.00004918
318.15	.1971	.001412	.00002824
318.15	.1008	.001001	.00002002
323.15	.9041	.01228	.0002456
323.15	.7982	.009799	.00019598
323.15	.6966	.008116	.00016232
323.15	.5955	.0065	.00013
323.15	.5014	.005195	.0001039
323.15	.3992	.003656	.00007312
323.15	.3	.002317	.00004634
323.15	.1971	.001307	.00002614
323.15	.1008	.000987	.00001974
