Measured thermophysical data. Density, Refractive Index, Viscosity, and Surface Tension of Binary Mixtures of exo-Tetrahydrodicyclopentadiene with Some n-Alkanes from (293.15 to 313.15) K
Source: J. Chem. Eng. Data, 2011, 10.1021/je200757a
Compound 1: nonane, C9H20, purity 99%
Compound 2: dodecane, C12H26, purity 99%
Compound 3: tridecane, C13H28, purity 99%
Compound 4: jp10, C10H16, purity 98%

System: nonane; phases: Liquid
Property: Mass density, kg/m3 (Liquid); method: Vibrating tube method
Temperature, K	Pressure, kPa	Mass density, kg/m3	uncertainty
293.15	101	717.8	.05
298.15	101	713.9	.05
303.15	101	710	.05
313.15	101	702.1	.05

System: nonane; phases: Liquid
Property: Viscosity, Pa*s (Liquid); method: Capillary tube (Ostwald; Ubbelohde) method
Temperature, K	Pressure, kPa	Viscosity, Pa*s	uncertainty
293.15	101	.000733	.000001
298.15	101	.000687	.000001
303.15	101	.000647	.000001
313.15	101	.000579	.000001

System: nonane; phases: Liquid
Fixed: Pressure, kPa = 101.325
Property: Refractive index (Na D-line) (Liquid); method: Standard Abbe refractometry
Temperature, K	Refractive index (Na D-line)	uncertainty
293.15	1.4048	.0003
303.15	1.4001	.0003

System: nonane; phases: Liquid, Air at 1 atmosphere
Property: Surface tension liquid-gas, N/m (Liquid); method: Capillary rise
Temperature, K	Surface tension liquid-gas, N/m	uncertainty
293.15	.0222	.0001
303.15	.02141	.0001

System: dodecane; phases: Liquid
Property: Mass density, kg/m3 (Liquid); method: Vibrating tube method
Temperature, K	Pressure, kPa	Mass density, kg/m3	uncertainty
293.15	101	748.6	.05
298.15	101	745	.05
303.15	101	741.4	.05
313.15	101	734.1	.05

System: dodecane; phases: Liquid
Property: Viscosity, Pa*s (Liquid); method: Capillary tube (Ostwald; Ubbelohde) method
Temperature, K	Pressure, kPa	Viscosity, Pa*s	uncertainty
293.15	101	.001507	.000001
298.15	101	.001377	.000001
303.15	101	.001266	.000001
313.15	101	.001084	.000001

System: dodecane; phases: Liquid
Fixed: Pressure, kPa = 101.325
Property: Refractive index (Na D-line) (Liquid); method: Standard Abbe refractometry
Temperature, K	Refractive index (Na D-line)	uncertainty
293.15	1.4219	.0003
303.15	1.4168	.0003

System: dodecane; phases: Liquid, Air at 1 atmosphere
Property: Surface tension liquid-gas, N/m (Liquid); method: Capillary rise
Temperature, K	Surface tension liquid-gas, N/m	uncertainty
293.15	.02407	.0001
303.15	.02367	.0001

System: tridecane; phases: Liquid
Property: Mass density, kg/m3 (Liquid); method: Vibrating tube method
Temperature, K	Pressure, kPa	Mass density, kg/m3	uncertainty
293.15	101	756.5	.05
298.15	101	752.9	.05
303.15	101	749.3	.05
313.15	101	742.2	.05

System: tridecane; phases: Liquid
Property: Viscosity, Pa*s (Liquid); method: Capillary tube (Ostwald; Ubbelohde) method
Temperature, K	Pressure, kPa	Viscosity, Pa*s	uncertainty
293.15	101	.001894	.000001
298.15	101	.001726	.000001
303.15	101	.001577	.000001
313.15	101	.001325	.000001

System: tridecane; phases: Liquid
Fixed: Pressure, kPa = 101.325
Property: Refractive index (Na D-line) (Liquid); method: Standard Abbe refractometry
Temperature, K	Refractive index (Na D-line)	uncertainty
293.15	1.4253	.0003
303.15	1.4213	.0003

System: tridecane; phases: Liquid, Air at 1 atmosphere
Property: Surface tension liquid-gas, N/m (Liquid); method: Capillary rise
Temperature, K	Surface tension liquid-gas, N/m	uncertainty
293.15	.02479	.0001
303.15	.02408	.0001

System: jp10; phases: Liquid
Property: Mass density, kg/m3 (Liquid); method: Vibrating tube method
Temperature, K	Pressure, kPa	Mass density, kg/m3	uncertainty
293.15	101	935.3	.05
298.15	101	931.4	.05
303.15	101	927.5	.05
313.15	101	919.6	.05

System: jp10; phases: Liquid
Property: Viscosity, Pa*s (Liquid); method: Capillary tube (Ostwald; Ubbelohde) method
Temperature, K	Pressure, kPa	Viscosity, Pa*s	uncertainty
293.15	101	.003077	.000001
298.15	101	.002784	.000001
303.15	101	.002525	.000001
313.15	101	.002112	.000001

System: jp10; phases: Liquid
Fixed: Pressure, kPa = 101.325
Property: Refractive index (Na D-line) (Liquid); method: Standard Abbe refractometry
Temperature, K	Refractive index (Na D-line)	uncertainty
293.15	1.4877	.0003
303.15	1.4832	.0003

System: jp10; phases: Liquid, Air at 1 atmosphere
Property: Surface tension liquid-gas, N/m (Liquid); method: Capillary rise
Temperature, K	Surface tension liquid-gas, N/m	uncertainty
293.15	.03186	.0001
303.15	.03109	.0001

System: nonane + jp10; phases: Liquid
Fixed: Pressure, kPa = 101
Property: Mass density, kg/m3 (Liquid); method: Vibrating tube method
Temperature, K	Mole fraction of nonane	Mass density, kg/m3	uncertainty
293.15	0	935.3	.05
293.15	.1089	907.6	.05
293.15	.2212	880.1	.05
293.15	.3244	855.8	.05
293.15	.4159	835.1	.05
293.15	.5099	814.5	.05
293.15	.6161	792	.05
293.15	.7128	772.3	.05
293.15	.8078	753.7	.05
293.15	.9133	733.7	.05
293.15	1	717.8	.05
298.15	0	931.4	.05
298.15	.1089	903.7	.05
298.15	.2212	876.2	.05
298.15	.3244	851.9	.05
298.15	.4159	831.2	.05
298.15	.5099	810.6	.05
298.15	.6161	788.1	.05
298.15	.7128	768.4	.05
298.15	.8078	749.8	.05
298.15	.9133	729.8	.05
298.15	1	713.9	.05
303.15	0	927.5	.05
303.15	.1089	899.8	.05
303.15	.2212	872.3	.05
303.15	.3244	848	.05
303.15	.4159	827.2	.05
303.15	.5099	806.6	.05
303.15	.6161	784.2	.05
303.15	.7128	764.5	.05
303.15	.8078	745.9	.05
303.15	.9133	725.9	.05
303.15	1	710	.05
313.15	0	919.6	.05
313.15	.1089	891.9	.05
313.15	.2212	864.4	.05
313.15	.3244	840.1	.05
313.15	.4159	819.4	.05
313.15	.5099	798.8	.05
313.15	.6161	776.3	.05
313.15	.7128	756.7	.05
313.15	.8078	738	.05
313.15	.9133	718.1	.05
313.15	1	702.1	.05

System: nonane + jp10; phases: Liquid
Fixed: Pressure, kPa = 101
Property: Viscosity, Pa*s (Liquid); method: Capillary tube (Ostwald; Ubbelohde) method
Temperature, K	Mole fraction of nonane	Viscosity, Pa*s	uncertainty
293.15	0	.003077	.000001
293.15	.1089	.002455	.000001
293.15	.2212	.002005	.000001
293.15	.3244	.001683	.000001
293.15	.4159	.001459	.000001
293.15	.5099	.001277	.000001
293.15	.6161	.001109	.000001
293.15	.7128	.000985	.000001
293.15	.8078	.000887	.000001
293.15	.9133	.000795	.000001
293.15	1	.000733	.000001
298.15	0	.002784	.000001
298.15	.1089	.002229	.000001
298.15	.2212	.001836	.000001
298.15	.3244	.001545	.000001
298.15	.4159	.001344	.000001
298.15	.5099	.001176	.000001
298.15	.6161	.001028	.000001
298.15	.7128	.000917	.000001
298.15	.8078	.000827	.000001
298.15	.9133	.000744	.000001
298.15	1	.000687	.000001
303.15	0	.002525	.000001
303.15	.1089	.00204	.000001
303.15	.2212	.001687	.000001
303.15	.3244	.001426	.000001
303.15	.4159	.001244	.000001
303.15	.5099	.001091	.000001
303.15	.6161	.000958	.000001
303.15	.7128	.000856	.000001
303.15	.8078	.000775	.000001
303.15	.9133	.000699	.000001
303.15	1	.000647	.000001
313.15	0	.002112	.000001
313.15	.1089	.001728	.000001
313.15	.2212	.001441	.000001
313.15	.3244	.001227	.000001
313.15	.4159	.001077	.000001
313.15	.5099	.000951	.000001
313.15	.6161	.000839	.000001
313.15	.7128	.000754	.000001
313.15	.8078	.000686	.000001
313.15	.9133	.000622	.000001
313.15	1	.000579	.000001

System: nonane + jp10; phases: Liquid
Fixed: Pressure, kPa = 101
Property: Refractive index (Na D-line) (Liquid); method: Standard Abbe refractometry
Temperature, K	Mole fraction of nonane	Refractive index (Na D-line)	uncertainty
293.15	0	1.4877	.0003
293.15	.1089	1.4777	.0003
293.15	.2212	1.4667	.0003
293.15	.3244	1.457	.0003
293.15	.4159	1.45	.0003
293.15	.5099	1.4422	.0003
293.15	.6161	1.4332	.0003
293.15	.7128	1.426	.0003
293.15	.8078	1.4192	.0003
293.15	.9133	1.4114	.0003
293.15	1	1.4048	.0003
303.15	0	1.4832	.0003
303.15	.1089	1.4728	.0003
303.15	.2212	1.4627	.0003
303.15	.3244	1.4517	.0003
303.15	.4159	1.445	.0003
303.15	.5099	1.4377	.0003
303.15	.6161	1.4282	.0003
303.15	.7128	1.421	.0003
303.15	.8078	1.4139	.0003
303.15	.9133	1.4062	.0003
303.15	1	1.4001	.0003

System: nonane + jp10; phases: Liquid, Air at 1 atmosphere
Property: Surface tension liquid-gas, N/m (Liquid); method: Capillary rise
Temperature, K	Mole fraction of nonane	Surface tension liquid-gas, N/m	uncertainty
293.15	0	.03186	.0001
293.15	.1089	.03017	.0001
293.15	.2212	.02792	.0001
293.15	.3244	.02712	.0001
293.15	.4159	.02634	.0001
293.15	.5099	.02559	.0001
293.15	.6161	.02435	.0001
293.15	.7128	.02384	.0001
293.15	.8078	.02314	.0001
293.15	.9133	.0226	.0001
293.15	1	.0222	.0001
303.15	0	.03109	.0001
303.15	.1089	.02901	.0001
303.15	.2212	.02745	.0001
303.15	.3244	.02663	.0001
303.15	.4159	.02574	.0001
303.15	.5099	.02486	.0001
303.15	.6161	.02336	.0001
303.15	.7128	.02288	.0001
303.15	.8078	.02239	.0001
303.15	.9133	.02181	.0001
303.15	1	.02141	.0001

System: dodecane + jp10; phases: Liquid
Fixed: Pressure, kPa = 101
Property: Mass density, kg/m3 (Liquid); method: Vibrating tube method
Temperature, K	Mole fraction of dodecane	Mass density, kg/m3	uncertainty
293.15	0	935.3	.05
293.15	.0803	913	.05
293.15	.1712	889.9	.05
293.15	.2563	870	.05
293.15	.3428	851.4	.05
293.15	.4443	831.4	.05
293.15	.5407	814.1	.05
293.15	.6527	795.7	.05
293.15	.7596	779.8	.05
293.15	.8855	762.7	.05
293.15	1	748.6	.05
298.15	0	931.4	.05
298.15	.0803	909.1	.05
298.15	.1712	886.1	.05
298.15	.2563	866.2	.05
298.15	.3428	847.7	.05
298.15	.4443	827.7	.05
298.15	.5407	810.4	.05
298.15	.6527	792	.05
298.15	.7596	776.1	.05
298.15	.8855	759.1	.05
298.15	1	745	.05
303.15	0	927.5	.05
303.15	.0803	905.2	.05
303.15	.1712	882.2	.05
303.15	.2563	862.4	.05
303.15	.3428	843.9	.05
303.15	.4443	824	.05
303.15	.5407	806.6	.05
303.15	.6527	788.3	.05
303.15	.7596	772.5	.05
303.15	.8855	755.5	.05
303.15	1	741.4	.05
313.15	0	919.6	.05
313.15	.0803	897.4	.05
313.15	.1712	874.5	.05
313.15	.2563	854.7	.05
313.15	.3428	836.2	.05
313.15	.4443	816.4	.05
313.15	.5407	799.2	.05
313.15	.6527	780.9	.05
313.15	.7596	765.1	.05
313.15	.8855	748.1	.05
313.15	1	734.1	.05

System: dodecane + jp10; phases: Liquid
Fixed: Pressure, kPa = 101
Property: Viscosity, Pa*s (Liquid); method: Capillary tube (Ostwald; Ubbelohde) method
Temperature, K	Mole fraction of dodecane	Viscosity, Pa*s	uncertainty
293.15	0	.003077	.000001
293.15	.0803	.002796	.000001
293.15	.1712	.00254	.000001
293.15	.2563	.00234	.000001
293.15	.3428	.002169	.000001
293.15	.4443	.002006	.000001
293.15	.5407	.001881	.000001
293.15	.6527	.001764	.000001
293.15	.7596	.001672	.000001
293.15	.8855	.001574	.000001
293.15	1	.001507	.000001
298.15	0	.002784	.000001
298.15	.0803	.002535	.000001
298.15	.1712	.002307	.000001
298.15	.2563	.002127	.000001
298.15	.3428	.001974	.000001
298.15	.4443	.001827	.000001
298.15	.5407	.001715	.000001
298.15	.6527	.00161	.000001
298.15	.7596	.001526	.000001
298.15	.8855	.001438	.000001
298.15	1	.001377	.000001
303.15	0	.002525	.000001
303.15	.0803	.002308	.000001
303.15	.1712	.002104	.000001
303.15	.2563	.001944	.000001
303.15	.3428	.001807	.000001
303.15	.4443	.001674	.000001
303.15	.5407	.001572	.000001
303.15	.6527	.001476	.000001
303.15	.7596	.0014	.000001
303.15	.8855	.001321	.000001
303.15	1	.001266	.000001
313.15	0	.002112	.000001
313.15	.0803	.001939	.000001
313.15	.1712	.001775	.000001
313.15	.2563	.001644	.000001
313.15	.3428	.001532	.000001
313.15	.4443	.001422	.000001
313.15	.5407	.001337	.000001
313.15	.6527	.001257	.000001
313.15	.7596	.001193	.000001
313.15	.8855	.001128	.000001
313.15	1	.001084	.000001

System: dodecane + jp10; phases: Liquid
Fixed: Pressure, kPa = 101
Property: Refractive index (Na D-line) (Liquid); method: Standard Abbe refractometry
Temperature, K	Mole fraction of dodecane	Refractive index (Na D-line)	uncertainty
293.15	0	1.4877	.0003
293.15	.0803	1.4796	.0003
293.15	.1712	1.4711	.0003
293.15	.2563	1.462	.0003
293.15	.3428	1.4573	.0003
293.15	.4443	1.4502	.0003
293.15	.5407	1.4448	.0003
293.15	.6527	1.4383	.0003
293.15	.7596	1.4325	.0003
293.15	.8855	1.4271	.0003
293.15	1	1.4219	.0003
303.15	0	1.4832	.0003
303.15	.0803	1.4733	.0003
303.15	.1712	1.4657	.0003
303.15	.2563	1.4571	.0003
303.15	.3428	1.4524	.0003
303.15	.4443	1.4455	.0003
303.15	.5407	1.4396	.0003
303.15	.6527	1.4333	.0003
303.15	.7596	1.4279	.0003
303.15	.8855	1.4214	.0003
303.15	1	1.4168	.0003

System: dodecane + jp10; phases: Liquid, Air at 1 atmosphere
Property: Surface tension liquid-gas, N/m (Liquid); method: Capillary rise
Temperature, K	Mole fraction of dodecane	Surface tension liquid-gas, N/m	uncertainty
293.15	0	.03186	.0001
293.15	.0803	.03013	.0001
293.15	.1712	.02915	.0001
293.15	.2563	.02863	.0001
293.15	.3428	.02795	.0001
293.15	.4443	.02732	.0001
293.15	.5407	.02632	.0001
293.15	.6527	.02594	.0001
293.15	.7596	.02567	.0001
293.15	.8855	.02451	.0001
293.15	1	.02407	.0001
303.15	0	.03109	.0001
303.15	.0803	.02937	.0001
303.15	.1712	.02851	.0001
303.15	.2563	.02782	.0001
303.15	.3428	.02677	.0001
303.15	.4443	.02651	.0001
303.15	.5407	.02584	.0001
303.15	.6527	.02568	.0001
303.15	.7596	.02458	.0001
303.15	.8855	.02382	.0001
303.15	1	.02367	.0001

System: tridecane + jp10; phases: Liquid
Fixed: Pressure, kPa = 101
Property: Mass density, kg/m3 (Liquid); method: Vibrating tube method
Temperature, K	Mole fraction of tridecane	Mass density, kg/m3	uncertainty
293.15	0	935.3	.05
293.15	.0757	913.9	.05
293.15	.1546	893.5	.05
293.15	.2392	873.7	.05
293.15	.3284	854.6	.05
293.15	.4236	836.3	.05
293.15	.5258	818.7	.05
293.15	.632	802.3	.05
293.15	.7477	786.3	.05
293.15	.8665	771.5	.05
293.15	1	756.5	.05
298.15	0	931.4	.05
298.15	.0757	910	.05
298.15	.1546	889.7	.05
298.15	.2392	869.9	.05
298.15	.3284	850.9	.05
298.15	.4236	832.6	.05
298.15	.5258	815	.05
298.15	.632	798.7	.05
298.15	.7477	782.7	.05
298.15	.8665	767.9	.05
298.15	1	752.9	.05
303.15	0	927.5	.05
303.15	.0757	906.1	.05
303.15	.1546	885.9	.05
303.15	.2392	866.1	.05
303.15	.3284	847.1	.05
303.15	.4236	828.9	.05
303.15	.5258	811.3	.05
303.15	.632	795	.05
303.15	.7477	779	.05
303.15	.8665	764.3	.05
303.15	1	749.3	.05
313.15	0	919.6	.05
313.15	.0757	898.4	.05
313.15	.1546	878.2	.05
313.15	.2392	858.4	.05
313.15	.3284	839.5	.05
313.15	.4236	821.4	.05
313.15	.5258	803.9	.05
313.15	.632	787.7	.05
313.15	.7477	771.8	.05
313.15	.8665	757	.05
313.15	1	742.2	.05

System: tridecane + jp10; phases: Liquid
Fixed: Pressure, kPa = 101
Property: Viscosity, Pa*s (Liquid); method: Capillary tube (Ostwald; Ubbelohde) method
Temperature, K	Mole fraction of tridecane	Viscosity, Pa*s	uncertainty
293.15	0	.003077	.000001
293.15	.0757	.00288	.000001
293.15	.1546	.002703	.000001
293.15	.2392	.002552	.000001
293.15	.3284	.002419	.000001
293.15	.4236	.002302	.000001
293.15	.5258	.002198	.000001
293.15	.632	.002108	.000001
293.15	.7477	.002028	.000001
293.15	.8665	.001963	.000001
293.15	1	.001894	.000001
298.15	0	.002784	.000001
298.15	.0757	.002609	.000001
298.15	.1546	.002448	.000001
298.15	.2392	.002311	.000001
298.15	.3284	.002189	.000001
298.15	.4236	.002082	.000001
298.15	.5258	.001992	.000001
298.15	.632	.001913	.000001
298.15	.7477	.001842	.000001
298.15	.8665	.001789	.000001
298.15	1	.001726	.000001
303.15	0	.002525	.000001
303.15	.0757	.00237	.000001
303.15	.1546	.002233	.000001
303.15	.2392	.002112	.000001
303.15	.3284	.002	.000001
303.15	.4236	.001904	.000001
303.15	.5258	.001822	.000001
303.15	.632	.001748	.000001
303.15	.7477	.001689	.000001
303.15	.8665	.001631	.000001
303.15	1	.001577	.000001
313.15	0	.002112	.000001
313.15	.0757	.001975	.000001
313.15	.1546	.00186	.000001
313.15	.2392	.001759	.000001
313.15	.3284	.001669	.000001
313.15	.4236	.001587	.000001
313.15	.5258	.001521	.000001
313.15	.632	.001466	.000001
313.15	.7477	.001416	.000001
313.15	.8665	.001369	.000001
313.15	1	.001325	.000001

System: tridecane + jp10; phases: Liquid
Fixed: Pressure, kPa = 101
Property: Refractive index (Na D-line) (Liquid); method: Standard Abbe refractometry
Temperature, K	Mole fraction of tridecane	Refractive index (Na D-line)	uncertainty
293.15	0	1.4877	.0003
293.15	.0757	1.4795	.0003
293.15	.1546	1.4726	.0003
293.15	.2392	1.4662	.0003
293.15	.3284	1.4586	.0003
293.15	.4236	1.4528	.0003
293.15	.5258	1.4468	.0003
293.15	.632	1.4407	.0003
293.15	.7477	1.4349	.0003
293.15	.8665	1.4306	.0003
293.15	1	1.4253	.0003
303.15	0	1.4832	.0003
303.15	.0757	1.4743	.0003
303.15	.1546	1.4683	.0003
303.15	.2392	1.4614	.0003
303.15	.3284	1.4541	.0003
303.15	.4236	1.4483	.0003
303.15	.5258	1.442	.0003
303.15	.632	1.4357	.0003
303.15	.7477	1.4305	.0003
303.15	.8665	1.4258	.0003
303.15	1	1.4213	.0003

System: tridecane + jp10; phases: Liquid, Air at 1 atmosphere
Property: Surface tension liquid-gas, N/m (Liquid); method: Capillary rise
Temperature, K	Mole fraction of tridecane	Surface tension liquid-gas, N/m	uncertainty
293.15	0	.03186	.0001
293.15	.0757	.0304	.0001
293.15	.1546	.02963	.0001
293.15	.2392	.02855	.0001
293.15	.3284	.02803	.0001
293.15	.4236	.02719	.0001
293.15	.5258	.02668	.0001
293.15	.632	.02595	.0001
293.15	.7477	.02554	.0001
293.15	.8665	.02519	.0001
293.15	1	.02479	.0001
303.15	0	.03109	.0001
303.15	.0757	.02994	.0001
303.15	.1546	.02898	.0001
303.15	.2392	.02838	.0001
303.15	.3284	.02721	.0001
303.15	.4236	.02674	.0001
303.15	.5258	.02572	.0001
303.15	.632	.02538	.0001
303.15	.7477	.02483	.0001
303.15	.8665	.0245	.0001
303.15	1	.02408	.0001
