Measured thermophysical data. Synthesis, Characterization, Physical Properties, and Cytotoxicities of 1-(6-Hydroxyhexyl)-3-alkylimidazolium Chloride Ionic Liquids
Source: J. Chem. Eng. Data, 2011, 10.1021/je200589f
Compound 1: 3-(6-hydroxyhexyl)-imidazolium chloride, C9H17ClN2O, purity 98%
Compound 2: 3-(6-hydroxyhexyl)-1-methylimidazolium chloride, C10H19ClN2O, purity 98%
Compound 3: 1-ethyl-3-(6-hydroxyhexyl)-imidazolium chloride, C11H21ClN2O, purity 98%
Compound 4: 1-butyl-3-(6-hydroxyhexyl)-imidazolium chloride, C13H25ClN2O, purity 98%

System: 3-(6-hydroxyhexyl)-imidazolium chloride; phases: Liquid
Fixed: Pressure, kPa = 101.325
Property: Mass density, kg/m3 (Liquid); method: Vibrating tube method
Temperature, K	Mass density, kg/m3	uncertainty
303.15	1136.588	.01
308.15	1133.516	.01
313.15	1130.533	.01
318.15	1127.576	.01
323.15	1124.629	.01
328.15	1121.672	.01
333.15	1118.718	.01
338.15	1115.771	.01
343.15	1112.836	.01
348.15	1109.919	.01
353.15	1107.032	.01

System: 3-(6-hydroxyhexyl)-imidazolium chloride; phases: Liquid
Fixed: Pressure, kPa = 101.325
Property: Viscosity, Pa*s (Liquid); method: Concentric cylinders viscometry
Temperature, K	Viscosity, Pa*s	uncertainty
293.15	.5872	.002936
298.15	.42	.0021
303.15	.3201	.0016005
308.15	.2456	.001228
313.15	.1805	.0009025
318.15	.1406	.000703
323.15	.1104	.000552
328.15	.0914	.000457
333.15	.0726	.000363
338.15	.0607	.0003035
343.15	.0489	.0002445
348.15	.0413	.0002065
353.15	.035	.000175

System: 3-(6-hydroxyhexyl)-imidazolium chloride; phases: Liquid
Fixed: Pressure, kPa = 101.325
Property: Refractive index (Na D-line) (Liquid); method: Standard Abbe refractometry
Temperature, K	Refractive index (Na D-line)	uncertainty
293.15	1.5093	.00004
298.15	1.508	.00004
303.15	1.5067	.00004
308.15	1.5054	.00004
313.15	1.5041	.00004
318.15	1.5028	.00004
323.15	1.5015	.00004
328.15	1.5002	.00004
333.15	1.4989	.00004

System: 3-(6-hydroxyhexyl)-imidazolium chloride; phases: Liquid, Gas
Property: Surface tension liquid-gas, N/m (Liquid); method: Pendant drop shape
Temperature, K	Surface tension liquid-gas, N/m	uncertainty
298.15	.05125	.0002
303.15	.05005	.0002
308.15	.04885	.0002
313.15	.04775	.0002
318.15	.0464	.0002
323.15	.04495	.0002

System: 3-(6-hydroxyhexyl)-1-methylimidazolium chloride; phases: Liquid
Fixed: Pressure, kPa = 101.325
Property: Mass density, kg/m3 (Liquid); method: Vibrating tube method
Temperature, K	Mass density, kg/m3	uncertainty
303.15	1119.488	.01
308.15	1116.646	.01
313.15	1113.908	.01
318.15	1111.275	.01
323.15	1108.627	.01
328.15	1105.916	.01
333.15	1103.398	.01
338.15	1100.778	.01
343.15	1098.144	.01
348.15	1095.59	.01
353.15	1092.916	.01

System: 3-(6-hydroxyhexyl)-1-methylimidazolium chloride; phases: Liquid
Fixed: Pressure, kPa = 101.325
Property: Viscosity, Pa*s (Liquid); method: Concentric cylinders viscometry
Temperature, K	Viscosity, Pa*s	uncertainty
293.15	1.0259	.0051295
298.15	.6798	.003399
303.15	.4897	.0024485
308.15	.3576	.001788
313.15	.2497	.0012485
318.15	.188	.00094
323.15	.1434	.000717
328.15	.1166	.000583
333.15	.0912	.000456
338.15	.0757	.0003785
343.15	.0606	.000303
348.15	.0513	.0002565
353.15	.0438	.000219

System: 3-(6-hydroxyhexyl)-1-methylimidazolium chloride; phases: Liquid
Fixed: Pressure, kPa = 101.325
Property: Refractive index (Na D-line) (Liquid); method: Standard Abbe refractometry
Temperature, K	Refractive index (Na D-line)	uncertainty
293.15	1.5106	.00004
298.15	1.5093	.00004
303.15	1.508	.00004
308.15	1.5067	.00004
313.15	1.5054	.00004
318.15	1.5041	.00004
323.15	1.5028	.00004
328.15	1.5015	.00004
333.15	1.5002	.00004

System: 3-(6-hydroxyhexyl)-1-methylimidazolium chloride; phases: Liquid, Gas
Property: Surface tension liquid-gas, N/m (Liquid); method: Pendant drop shape
Temperature, K	Surface tension liquid-gas, N/m	uncertainty
298.15	.04995	.0002
303.15	.04875	.0002
308.15	.04775	.0002
313.15	.04665	.0002
318.15	.04535	.0002
323.15	.04395	.0002

System: 1-ethyl-3-(6-hydroxyhexyl)-imidazolium chloride; phases: Liquid
Fixed: Pressure, kPa = 101.325
Property: Mass density, kg/m3 (Liquid); method: Vibrating tube method
Temperature, K	Mass density, kg/m3	uncertainty
303.15	1101.742	.01
308.15	1098.913	.01
313.15	1096.234	.01
318.15	1093.528	.01
323.15	1090.952	.01
328.15	1088.273	.01
333.15	1085.626	.01
338.15	1083.071	.01
343.15	1080.431	.01
348.15	1077.842	.01
353.15	1075.273	.01

System: 1-ethyl-3-(6-hydroxyhexyl)-imidazolium chloride; phases: Liquid
Fixed: Pressure, kPa = 101.325
Property: Viscosity, Pa*s (Liquid); method: Concentric cylinders viscometry
Temperature, K	Viscosity, Pa*s	uncertainty
293.15	1.3481	.0067405
298.15	.8617	.0043085
303.15	.6045	.0030225
308.15	.4313	.0021565
313.15	.294	.00147
318.15	.2177	.0010885
323.15	.1639	.0008195
328.15	.1322	.000661
333.15	.1026	.000513
338.15	.0847	.0004235
343.15	.0678	.000339
348.15	.0574	.000287
353.15	.0491	.0002455

System: 1-ethyl-3-(6-hydroxyhexyl)-imidazolium chloride; phases: Liquid
Fixed: Pressure, kPa = 101.325
Property: Refractive index (Na D-line) (Liquid); method: Standard Abbe refractometry
Temperature, K	Refractive index (Na D-line)	uncertainty
293.15	1.5115	.00004
298.15	1.5102	.00004
303.15	1.5089	.00004
308.15	1.5076	.00004
313.15	1.5063	.00004
318.15	1.505	.00004
323.15	1.5037	.00004
328.15	1.5024	.00004
333.15	1.5011	.00004

System: 1-ethyl-3-(6-hydroxyhexyl)-imidazolium chloride; phases: Liquid, Gas
Property: Surface tension liquid-gas, N/m (Liquid); method: Pendant drop shape
Temperature, K	Surface tension liquid-gas, N/m	uncertainty
298.15	.04232	.0002
303.15	.0413	.0002
308.15	.03995	.0002
313.15	.03875	.0002
318.15	.0374	.0002
323.15	.03625	.0002

System: 1-butyl-3-(6-hydroxyhexyl)-imidazolium chloride; phases: Liquid
Fixed: Pressure, kPa = 101.325
Property: Mass density, kg/m3 (Liquid); method: Vibrating tube method
Temperature, K	Mass density, kg/m3	uncertainty
303.15	1063.326	.01
308.15	1060.599	.01
313.15	1057.845	.01
318.15	1055.251	.01
323.15	1052.519	.01
328.15	1049.889	.01
333.15	1047.183	.01
338.15	1044.457	.01
343.15	1041.726	.01
348.15	1039.051	.01
353.15	1036.32	.01

System: 1-butyl-3-(6-hydroxyhexyl)-imidazolium chloride; phases: Liquid
Fixed: Pressure, kPa = 101.325
Property: Viscosity, Pa*s (Liquid); method: Concentric cylinders viscometry
Temperature, K	Viscosity, Pa*s	uncertainty
293.15	1.4897	.0074485
298.15	.9833	.0049165
303.15	.707	.003535
308.15	.5158	.002579
313.15	.3603	.0018015
318.15	.2715	.0013575
323.15	.2077	.0010385
328.15	.1694	.000847
333.15	.133	.000665
338.15	.1108	.000554
343.15	.0894	.000447
348.15	.0761	.0003805
353.15	.0653	.0003265

System: 1-butyl-3-(6-hydroxyhexyl)-imidazolium chloride; phases: Liquid
Fixed: Pressure, kPa = 101.325
Property: Refractive index (Na D-line) (Liquid); method: Standard Abbe refractometry
Temperature, K	Refractive index (Na D-line)	uncertainty
293.15	1.5132	.00004
298.15	1.5119	.00004
303.15	1.5106	.00004
308.15	1.5093	.00004
313.15	1.508	.00004
318.15	1.5067	.00004
323.15	1.5054	.00004
328.15	1.5041	.00004
333.15	1.5028	.00004

System: 1-butyl-3-(6-hydroxyhexyl)-imidazolium chloride; phases: Liquid, Gas
Property: Surface tension liquid-gas, N/m (Liquid); method: Pendant drop shape
Temperature, K	Surface tension liquid-gas, N/m	uncertainty
298.15	.03205	.0002
303.15	.0308	.0002
308.15	.02965	.0002
313.15	.02835	.0002
318.15	.0273	.0002
323.15	.0259	.0002
