Measured thermophysical data. Partition Behavior of Chlorophenols and Nitrophenols between Hydrophobic Ionic Liquids and Water
Source: J. Chem. Eng. Data, 2011, 10.1021/je200506p
Compound 1: [C4mim] [NTf2], C10H15F6N3O4S2, purity 98%
Compound 2: 1-butyl-1-methylpyrrolidinium bis[(trifluoromethyl)sulfonyl]imide, C11H20F6N2O4S2, purity 98%
Compound 3: 1-butyl-3-methylimidazolium hexafluorophosphate, C8H15F6N2P, purity 98%
Compound 4: 1-octyl-3-methylimidazolium bis[(trifluoromethyl)sulfonyl]imide, C14H23F6N3O4S2, purity 98%
Compound 5: 1-octyl-3-methylimidazolium tetrafluoroborate, C12H23BF4N2, purity 98%
Compound 6: phenol, C6H6O
Compound 7: 2-chlorophenol, C6H5ClO
Compound 8: phenol, 3-chloro-, C6H5ClO
Compound 9: phenol, 4-chloro-, C6H5ClO
Compound 10: phenol, 2,3-dichloro-, C6H4Cl2O
Compound 11: 3,5-dichlorophenol, C6H4Cl2O
Compound 12: phenol, 2,4,6-trichloro-, C6H3Cl3O
Compound 13: pentachlorophenol, C6HCl5O
Compound 14: o-nitrophenol, C6H5NO3
Compound 15: 3-hydroxynitrobenzene, C6H5NO3
Compound 16: phenol, 4-nitro-, C6H5NO3
Compound 17: water, H2O
Compound 18: phenol, 2,4-dinitro-, C6H4N2O5
Compound 19: 2,6-dinitrophenol, C6H4N2O5
Compound 20: phenol, 2,4,6-trinitro-, C6H3N3O7

System: 2-chlorophenol + water + [C4mim] [NTf2]; phases: Liquid mixture 1, Liquid
Fixed: Temperature, K = 298.2
Fixed: Pressure, kPa = 101
Property: Amount concentration (molarity), mol/dm3 of 2-chlorophenol (Liquid mixture 1); method: chromatography
Amount concentration (molarity), mol/dm3 of 2-chlorophenol	Amount concentration (molarity), mol/dm3 of 2-chlorophenol	uncertainty
0	79.4	1.8

System: water + 1-octyl-3-methylimidazolium bis[(trifluoromethyl)sulfonyl]imide; phases: Liquid mixture 1, Liquid
Fixed: Pressure, kPa = 101
Property: Mass density, kg/m3 (Liquid mixture 1); method: Vibrating tube method
Temperature, K	Mass density, kg/m3	uncertainty
298.2	1327.6	

System: phenol, 3-chloro- + water + [C4mim] [NTf2]; phases: Liquid mixture 1, Liquid
Fixed: Pressure, kPa = 101
Fixed: Temperature, K = 298.2
Property: Amount concentration (molarity), mol/dm3 of phenol, 3-chloro- (Liquid mixture 1); method: chromatography
Amount concentration (molarity), mol/dm3 of phenol, 3-chloro-	Amount concentration (molarity), mol/dm3 of phenol, 3-chloro-	uncertainty
0	83.8	1.2

System: phenol, 4-chloro- + water + [C4mim] [NTf2]; phases: Liquid mixture 1, Liquid
Fixed: Pressure, kPa = 101
Fixed: Temperature, K = 298.2
Property: Amount concentration (molarity), mol/dm3 of phenol, 4-chloro- (Liquid mixture 1); method: chromatography
Amount concentration (molarity), mol/dm3 of phenol, 4-chloro-	Amount concentration (molarity), mol/dm3 of phenol, 4-chloro-	uncertainty
0	79.4	3.7

System: phenol, 2,3-dichloro- + water + [C4mim] [NTf2]; phases: Liquid mixture 1, Liquid
Fixed: Pressure, kPa = 101
Fixed: Temperature, K = 298.2
Property: Amount concentration (molarity), mol/dm3 of phenol, 2,3-dichloro- (Liquid mixture 1); method: chromatography
Amount concentration (molarity), mol/dm3 of phenol, 2,3-dichloro-	Amount concentration (molarity), mol/dm3 of phenol, 2,3-dichloro-	uncertainty
0	260	11.8

System: 3,5-dichlorophenol + water + [C4mim] [NTf2]; phases: Liquid mixture 1, Liquid
Fixed: Pressure, kPa = 101
Fixed: Temperature, K = 298.2
Property: Amount concentration (molarity), mol/dm3 of 3,5-dichlorophenol (Liquid mixture 1); method: chromatography
Amount concentration (molarity), mol/dm3 of 3,5-dichlorophenol	Amount concentration (molarity), mol/dm3 of 3,5-dichlorophenol	uncertainty
0	245	5.6

System: phenol, 2,4,6-trichloro- + water + [C4mim] [NTf2]; phases: Liquid mixture 1, Liquid
Fixed: Pressure, kPa = 101
Fixed: Temperature, K = 298.2
Property: Amount concentration (molarity), mol/dm3 of phenol, 2,4,6-trichloro- (Liquid mixture 1); method: chromatography
Amount concentration (molarity), mol/dm3 of water	Amount concentration (molarity), mol/dm3 of phenol, 2,4,6-trichloro-	uncertainty
0	430	69

System: pentachlorophenol + water + [C4mim] [NTf2]; phases: Liquid mixture 1, Liquid
Fixed: Pressure, kPa = 101
Fixed: Temperature, K = 298.2
Property: Amount concentration (molarity), mol/dm3 of pentachlorophenol (Liquid mixture 1); method: chromatography
Amount concentration (molarity), mol/dm3 of water	Amount concentration (molarity), mol/dm3 of pentachlorophenol	uncertainty
0	4300	400

System: o-nitrophenol + water + [C4mim] [NTf2]; phases: Liquid mixture 1, Liquid
Fixed: Pressure, kPa = 101
Fixed: Temperature, K = 298.2
Property: Amount concentration (molarity), mol/dm3 of o-nitrophenol (Liquid mixture 1); method: chromatography
Amount concentration (molarity), mol/dm3 of o-nitrophenol	Amount concentration (molarity), mol/dm3 of o-nitrophenol	uncertainty
0	110	7.9

System: phenol, 2,4-dinitro- + water + [C4mim] [NTf2]; phases: Liquid mixture 1, Liquid
Fixed: Pressure, kPa = 101
Fixed: Temperature, K = 298.2
Property: Amount concentration (molarity), mol/dm3 of phenol, 2,4-dinitro- (Liquid mixture 1); method: chromatography
Amount concentration (molarity), mol/dm3 of phenol, 2,4-dinitro-	Amount concentration (molarity), mol/dm3 of phenol, 2,4-dinitro-	uncertainty
0	130	12

System: 2,6-dinitrophenol + water + [C4mim] [NTf2]; phases: Liquid mixture 1, Liquid
Fixed: Pressure, kPa = 101
Fixed: Temperature, K = 298.2
Property: Amount concentration (molarity), mol/dm3 of 2,6-dinitrophenol (Liquid mixture 1); method: chromatography
Amount concentration (molarity), mol/dm3 of 2,6-dinitrophenol	Amount concentration (molarity), mol/dm3 of 2,6-dinitrophenol	uncertainty
0	130	9.3

System: phenol, 2,4,6-trinitro- + water + [C4mim] [NTf2]; phases: Liquid mixture 1, Liquid
Fixed: Pressure, kPa = 101
Fixed: Temperature, K = 298.2
Property: Amount concentration (molarity), mol/dm3 of phenol, 2,4,6-trinitro- (Liquid mixture 1); method: chromatography
Amount concentration (molarity), mol/dm3 of phenol, 2,4,6-trinitro-	Amount concentration (molarity), mol/dm3 of phenol, 2,4,6-trinitro-	uncertainty
0	240	28

System: 2-chlorophenol + water + 1-butyl-1-methylpyrrolidinium bis[(trifluoromethyl)sulfonyl]imide; phases: Liquid mixture 1, Liquid
Fixed: Temperature, K = 298.2
Fixed: Pressure, kPa = 101
Property: Amount concentration (molarity), mol/dm3 of 2-chlorophenol (Liquid mixture 1); method: chromatography
Amount concentration (molarity), mol/dm3 of 2-chlorophenol	Amount concentration (molarity), mol/dm3 of 2-chlorophenol	uncertainty
0	91	2.1

System: phenol, 3-chloro- + water + 1-butyl-1-methylpyrrolidinium bis[(trifluoromethyl)sulfonyl]imide; phases: Liquid mixture 1, Liquid
Fixed: Temperature, K = 298.2
Fixed: Pressure, kPa = 101
Property: Amount concentration (molarity), mol/dm3 of phenol, 3-chloro- (Liquid mixture 1); method: chromatography
Amount concentration (molarity), mol/dm3 of phenol, 3-chloro-	Amount concentration (molarity), mol/dm3 of phenol, 3-chloro-	uncertainty
0	87	4

System: phenol, 4-chloro- + water + 1-butyl-1-methylpyrrolidinium bis[(trifluoromethyl)sulfonyl]imide; phases: Liquid mixture 1, Liquid
Fixed: Temperature, K = 298.2
Fixed: Pressure, kPa = 101
Property: Amount concentration (molarity), mol/dm3 of phenol, 4-chloro- (Liquid mixture 1); method: chromatography
Amount concentration (molarity), mol/dm3 of phenol, 4-chloro-	Amount concentration (molarity), mol/dm3 of phenol, 4-chloro-	uncertainty
0	83	3.8

System: phenol, 2,3-dichloro- + water + 1-butyl-1-methylpyrrolidinium bis[(trifluoromethyl)sulfonyl]imide; phases: Liquid mixture 1, Liquid
Fixed: Temperature, K = 298.2
Fixed: Pressure, kPa = 101
Property: Amount concentration (molarity), mol/dm3 of phenol, 2,3-dichloro- (Liquid mixture 1); method: chromatography
Amount concentration (molarity), mol/dm3 of phenol, 2,3-dichloro-	Amount concentration (molarity), mol/dm3 of phenol, 2,3-dichloro-	uncertainty
0	250	23

System: 3,5-dichlorophenol + water + 1-butyl-1-methylpyrrolidinium bis[(trifluoromethyl)sulfonyl]imide; phases: Liquid mixture 1, Liquid
Fixed: Temperature, K = 298.2
Fixed: Pressure, kPa = 101
Property: Amount concentration (molarity), mol/dm3 of 3,5-dichlorophenol (Liquid mixture 1); method: chromatography
Amount concentration (molarity), mol/dm3 of 3,5-dichlorophenol	Amount concentration (molarity), mol/dm3 of 3,5-dichlorophenol	uncertainty
0	240	17

System: phenol, 2,4-dinitro- + water + 1-butyl-1-methylpyrrolidinium bis[(trifluoromethyl)sulfonyl]imide; phases: Liquid mixture 1, Liquid
Fixed: Temperature, K = 298.2
Fixed: Pressure, kPa = 101
Property: Amount concentration (molarity), mol/dm3 of phenol, 2,4-dinitro- (Liquid mixture 1); method: chromatography
Amount concentration (molarity), mol/dm3 of phenol, 2,4-dinitro-	Amount concentration (molarity), mol/dm3 of phenol, 2,4-dinitro-	uncertainty
0	120	11

System: 2,6-dinitrophenol + water + 1-butyl-1-methylpyrrolidinium bis[(trifluoromethyl)sulfonyl]imide; phases: Liquid mixture 1, Liquid
Fixed: Temperature, K = 298.2
Fixed: Pressure, kPa = 101
Property: Amount concentration (molarity), mol/dm3 of 2,6-dinitrophenol (Liquid mixture 1); method: chromatography
Amount concentration (molarity), mol/dm3 of 2,6-dinitrophenol	Amount concentration (molarity), mol/dm3 of 2,6-dinitrophenol	uncertainty
0	130	12

System: phenol, 2,4,6-trinitro- + water + 1-butyl-1-methylpyrrolidinium bis[(trifluoromethyl)sulfonyl]imide; phases: Liquid mixture 1, Liquid
Fixed: Temperature, K = 298.2
Fixed: Pressure, kPa = 101
Property: Amount concentration (molarity), mol/dm3 of phenol, 2,4,6-trinitro- (Liquid mixture 1); method: chromatography
Amount concentration (molarity), mol/dm3 of phenol, 2,4,6-trinitro-	Amount concentration (molarity), mol/dm3 of phenol, 2,4,6-trinitro-	uncertainty
0	260	24

System: 2-chlorophenol + water + 1-butyl-3-methylimidazolium hexafluorophosphate; phases: Liquid mixture 1, Liquid
Fixed: Temperature, K = 298.2
Fixed: Pressure, kPa = 101
Property: Amount concentration (molarity), mol/dm3 of 2-chlorophenol (Liquid mixture 1); method: chromatography
Amount concentration (molarity), mol/dm3 of 2-chlorophenol	Amount concentration (molarity), mol/dm3 of 2-chlorophenol	uncertainty
0	63	1.5

System: phenol, 3-chloro- + water + 1-butyl-3-methylimidazolium hexafluorophosphate; phases: Liquid mixture 1, Liquid
Fixed: Temperature, K = 298.2
Fixed: Pressure, kPa = 101
Property: Amount concentration (molarity), mol/dm3 of phenol, 3-chloro- (Liquid mixture 1); method: chromatography
Amount concentration (molarity), mol/dm3 of phenol, 3-chloro-	Amount concentration (molarity), mol/dm3 of phenol, 3-chloro-	uncertainty
0	63	4.4

System: phenol, 4-chloro- + water + 1-butyl-3-methylimidazolium hexafluorophosphate; phases: Liquid mixture 1, Liquid
Fixed: Temperature, K = 298.2
Fixed: Pressure, kPa = 101
Property: Amount concentration (molarity), mol/dm3 of phenol, 4-chloro- (Liquid mixture 1); method: chromatography
Amount concentration (molarity), mol/dm3 of phenol, 4-chloro-	Amount concentration (molarity), mol/dm3 of phenol, 4-chloro-	uncertainty
0	60	4.2

System: phenol, 2,3-dichloro- + water + 1-butyl-3-methylimidazolium hexafluorophosphate; phases: Liquid mixture 1, Liquid
Fixed: Temperature, K = 298.2
Fixed: Pressure, kPa = 101
Property: Amount concentration (molarity), mol/dm3 of phenol, 2,3-dichloro- (Liquid mixture 1); method: chromatography
Amount concentration (molarity), mol/dm3 of phenol, 2,3-dichloro-	Amount concentration (molarity), mol/dm3 of phenol, 2,3-dichloro-	uncertainty
0	200	9.2

System: 3,5-dichlorophenol + water + 1-butyl-3-methylimidazolium hexafluorophosphate; phases: Liquid mixture 1, Liquid
Fixed: Temperature, K = 298.2
Fixed: Pressure, kPa = 101
Property: Amount concentration (molarity), mol/dm3 of 3,5-dichlorophenol (Liquid mixture 1); method: chromatography
Amount concentration (molarity), mol/dm3 of 3,5-dichlorophenol	Amount concentration (molarity), mol/dm3 of 3,5-dichlorophenol	uncertainty
0	170	7.8

System: phenol, 2,4,6-trichloro- + water + 1-butyl-3-methylimidazolium hexafluorophosphate; phases: Liquid mixture 1, Liquid
Fixed: Temperature, K = 298.2
Fixed: Pressure, kPa = 101
Property: Amount concentration (molarity), mol/dm3 of phenol, 2,4,6-trichloro- (Liquid mixture 1); method: chromatography
Amount concentration (molarity), mol/dm3 of phenol, 2,4,6-trichloro-	Amount concentration (molarity), mol/dm3 of phenol, 2,4,6-trichloro-	uncertainty
0	200	28

System: pentachlorophenol + water + 1-butyl-3-methylimidazolium hexafluorophosphate; phases: Liquid mixture 1, Liquid
Fixed: Temperature, K = 298.2
Fixed: Pressure, kPa = 101
Property: Amount concentration (molarity), mol/dm3 of pentachlorophenol (Liquid mixture 1); method: chromatography
Amount concentration (molarity), mol/dm3 of pentachlorophenol	Amount concentration (molarity), mol/dm3 of pentachlorophenol	uncertainty
0	1350	120

System: o-nitrophenol + water + 1-butyl-3-methylimidazolium hexafluorophosphate; phases: Liquid mixture 1, Liquid
Fixed: Temperature, K = 298.2
Fixed: Pressure, kPa = 101
Property: Amount concentration (molarity), mol/dm3 of o-nitrophenol (Liquid mixture 1); method: chromatography
Amount concentration (molarity), mol/dm3 of o-nitrophenol	Amount concentration (molarity), mol/dm3 of o-nitrophenol	uncertainty
0	91	10

System: 3-hydroxynitrobenzene + water + 1-butyl-3-methylimidazolium hexafluorophosphate; phases: Liquid mixture 1, Liquid
Fixed: Temperature, K = 298.2
Fixed: Pressure, kPa = 101
Property: Amount concentration (molarity), mol/dm3 of 3-hydroxynitrobenzene (Liquid mixture 1); method: chromatography
Amount concentration (molarity), mol/dm3 of 3-hydroxynitrobenzene	Amount concentration (molarity), mol/dm3 of 3-hydroxynitrobenzene	uncertainty
0	36	1.7

System: phenol, 4-nitro- + water + 1-butyl-3-methylimidazolium hexafluorophosphate; phases: Liquid mixture 1, Liquid
Fixed: Pressure, kPa = 101
Fixed: Temperature, K = 298.2
Property: Amount concentration (molarity), mol/dm3 of phenol, 4-nitro- (Liquid mixture 1); method: chromatography
Amount concentration (molarity), mol/dm3 of phenol, 4-nitro-	Amount concentration (molarity), mol/dm3 of phenol, 4-nitro-	uncertainty
0	39	3.6

System: phenol, 2,4-dinitro- + water + 1-butyl-3-methylimidazolium hexafluorophosphate; phases: Liquid mixture 1, Liquid
Fixed: Pressure, kPa = 101
Fixed: Temperature, K = 298.2
Property: Amount concentration (molarity), mol/dm3 of phenol, 2,4-dinitro- (Liquid mixture 1); method: chromatography
Amount concentration (molarity), mol/dm3 of phenol, 2,4-dinitro-	Amount concentration (molarity), mol/dm3 of phenol, 2,4-dinitro-	uncertainty
0	140	9.5

System: 2,6-dinitrophenol + water + 1-butyl-3-methylimidazolium hexafluorophosphate; phases: Liquid mixture 1, Liquid
Fixed: Pressure, kPa = 101
Fixed: Temperature, K = 298.2
Property: Amount concentration (molarity), mol/dm3 of 2,6-dinitrophenol (Liquid mixture 1); method: chromatography
Amount concentration (molarity), mol/dm3 of 2,6-dinitrophenol	Amount concentration (molarity), mol/dm3 of 2,6-dinitrophenol	uncertainty
0	190	13

System: phenol, 2,4,6-trinitro- + water + 1-butyl-3-methylimidazolium hexafluorophosphate; phases: Liquid mixture 1, Liquid
Fixed: Pressure, kPa = 101
Fixed: Temperature, K = 298.2
Property: Amount concentration (molarity), mol/dm3 of phenol, 2,4,6-trinitro- (Liquid mixture 1); method: chromatography
Amount concentration (molarity), mol/dm3 of phenol, 2,4,6-trinitro-	Amount concentration (molarity), mol/dm3 of phenol, 2,4,6-trinitro-	uncertainty
0	280	235

System: o-nitrophenol + water + 1-octyl-3-methylimidazolium bis[(trifluoromethyl)sulfonyl]imide; phases: Liquid mixture 1, Liquid
Fixed: Pressure, kPa = 101
Fixed: Temperature, K = 298.2
Property: Amount concentration (molarity), mol/dm3 of 1-octyl-3-methylimidazolium bis[(trifluoromethyl)sulfonyl]imide (Liquid mixture 1); method: chromatography
Amount concentration (molarity), mol/dm3 of o-nitrophenol	Amount concentration (molarity), mol/dm3 of 1-octyl-3-methylimidazolium bis[(trifluoromethyl)sulfonyl]imide	uncertainty
0	95.5	15

System: phenol, 2,4-dinitro- + water + 1-octyl-3-methylimidazolium bis[(trifluoromethyl)sulfonyl]imide; phases: Liquid mixture 1, Liquid
Fixed: Pressure, kPa = 101
Fixed: Temperature, K = 298.2
Property: Amount concentration (molarity), mol/dm3 of 1-octyl-3-methylimidazolium bis[(trifluoromethyl)sulfonyl]imide (Liquid mixture 1); method: chromatography
Amount concentration (molarity), mol/dm3 of phenol, 2,4-dinitro-	Amount concentration (molarity), mol/dm3 of 1-octyl-3-methylimidazolium bis[(trifluoromethyl)sulfonyl]imide	uncertainty
0	135	31

System: phenol + water + 1-octyl-3-methylimidazolium tetrafluoroborate; phases: Liquid mixture 1, Liquid
Fixed: Pressure, kPa = 101
Fixed: Temperature, K = 298.2
Property: Amount concentration (molarity), mol/dm3 of phenol (Liquid mixture 1); method: chromatography
Amount concentration (molarity), mol/dm3 of phenol	Amount concentration (molarity), mol/dm3 of phenol	uncertainty
0	48	1.1

System: 2-chlorophenol + water + 1-octyl-3-methylimidazolium tetrafluoroborate; phases: Liquid mixture 1, Liquid
Fixed: Pressure, kPa = 101
Fixed: Temperature, K = 298.2
Property: Amount concentration (molarity), mol/dm3 of 2-chlorophenol (Liquid mixture 1); method: chromatography
Amount concentration (molarity), mol/dm3 of 2-chlorophenol	Amount concentration (molarity), mol/dm3 of 2-chlorophenol	uncertainty
0	150	6.8

System: phenol, 4-chloro- + water + 1-octyl-3-methylimidazolium tetrafluoroborate; phases: Liquid mixture 1, Liquid
Fixed: Pressure, kPa = 101
Fixed: Temperature, K = 298.2
Property: Amount concentration (molarity), mol/dm3 of phenol, 4-chloro- (Liquid mixture 1); method: chromatography
Amount concentration (molarity), mol/dm3 of phenol, 4-chloro-	Amount concentration (molarity), mol/dm3 of phenol, 4-chloro-	uncertainty
0	210	14

System: phenol, 2,3-dichloro- + water + 1-octyl-3-methylimidazolium tetrafluoroborate; phases: Liquid mixture 1, Liquid
Fixed: Pressure, kPa = 101
Fixed: Temperature, K = 298.2
Property: Amount concentration (molarity), mol/dm3 of phenol, 2,3-dichloro- (Liquid mixture 1); method: chromatography
Amount concentration (molarity), mol/dm3 of phenol, 2,3-dichloro-	Amount concentration (molarity), mol/dm3 of phenol, 2,3-dichloro-	uncertainty
0	910	84

System: 3,5-dichlorophenol + water + 1-octyl-3-methylimidazolium tetrafluoroborate; phases: Liquid mixture 1, Liquid
Fixed: Pressure, kPa = 101
Fixed: Temperature, K = 298.2
Property: Amount concentration (molarity), mol/dm3 of 3,5-dichlorophenol (Liquid mixture 1); method: chromatography
Amount concentration (molarity), mol/dm3 of 3,5-dichlorophenol	Amount concentration (molarity), mol/dm3 of 3,5-dichlorophenol	uncertainty
0	810	56

System: o-nitrophenol + water + 1-octyl-3-methylimidazolium tetrafluoroborate; phases: Liquid mixture 1, Liquid
Fixed: Pressure, kPa = 101
Fixed: Temperature, K = 298.2
Property: Amount concentration (molarity), mol/dm3 of o-nitrophenol (Liquid mixture 1); method: chromatography
Amount concentration (molarity), mol/dm3 of o-nitrophenol	Amount concentration (molarity), mol/dm3 of o-nitrophenol	uncertainty
0	145	6.6

System: 3-hydroxynitrobenzene + water + 1-octyl-3-methylimidazolium tetrafluoroborate; phases: Liquid mixture 1, Liquid
Fixed: Pressure, kPa = 101
Fixed: Temperature, K = 298.2
Property: Amount concentration (molarity), mol/dm3 of 3-hydroxynitrobenzene (Liquid mixture 1); method: chromatography
Amount concentration (molarity), mol/dm3 of 3-hydroxynitrobenzene	Amount concentration (molarity), mol/dm3 of 3-hydroxynitrobenzene	uncertainty
0	150	7

System: phenol, 2,4-dinitro- + water + 1-octyl-3-methylimidazolium tetrafluoroborate; phases: Liquid mixture 1, Liquid
Fixed: Pressure, kPa = 101
Fixed: Temperature, K = 298.2
Property: Amount concentration (molarity), mol/dm3 of phenol, 2,4-dinitro- (Liquid mixture 1); method: chromatography
Amount concentration (molarity), mol/dm3 of phenol, 2,4-dinitro-	Amount concentration (molarity), mol/dm3 of phenol, 2,4-dinitro-	uncertainty
0	230	26

System: water + 1-octyl-3-methylimidazolium tetrafluoroborate; phases: Liquid mixture 1, Liquid
Fixed: Temperature, K = 298.2
Property: Mass density, kg/m3 (Liquid mixture 1); method: Vibrating tube method
Pressure, kPa	Mass density, kg/m3	uncertainty
101	1083.2	.2
