Measured thermophysical data. Osmotic and Activity Coefficients of Dilute Aqueous Solutions of Unsymmetrical Tetraalkylammonium Iodides at 298.15 K
Source: J. Chem. Eng. Data, 2012, 10.1021/je2009413
Compound 1: N,N,N-triethyl-2-methyl-2-propanaminium, C10H24IN, purity 99.6%
Compound 2: N,N,N-triethyl-2-butanaminium iodide, C10H24IN, purity 99.2%
Compound 3: N,N,N-triethyl-2-methyl-1-propanaminium iodide, C10H24IN, purity 99.3%
Compound 4: N-butyl-N,N-diethyl-1-butanaminium iodide, C12H28IN, purity 99.3%
Compound 5: N,N-dibutyl-N-ethyl-1-butanaminium iodide, C14H32IN, purity 99.3%
Compound 6: water, H2O, purity 99.9%

System: water + N,N-dibutyl-N-ethyl-1-butanaminium iodide; phases: Liquid, Gas
Fixed: Temperature, K = 298.15
Property: Osmotic coefficient (Liquid); method: Isopiestic method
Molality, mol/kg of N,N-dibutyl-N-ethyl-1-butanaminium iodide	Osmotic coefficient	uncertainty
.0378	.8141	.0040705
.0449	.7988	.003994
.0501	.7894	.003947
.0653	.7607	.0038035
.0727	.7492	.003746
.0776	.7413	.0037065
.0868	.7307	.0036535
.1035	.7071	.0035355
.1121	.6976	.003488
.1191	.688	.00344
.1288	.6787	.0033935
.2082	.614	.00307
.2083	.609	.003045
.2503	.5842	.002921
.292	.5649	.0028245
.3027	.5512	.002756
.3652	.524	.00262
.4254	.4933	.0024665
.4783	.4783	.0023915
.498	.4715	.0023575
.547	.4555	.0022775
.6197	.4362	.002181
.6878	.4189	.0020945
.7684	.405	.002025
.8453	.3875	.0019375
.908	.3808	.001904
.9478	.3712	.001856
1.128	.3475	.0017375
1.2309	.3346	.001673
1.3369	.3295	.0016475
1.4046	.326	.00163
1.548	.3211	.0016055
1.6521	.3207	.0016035
1.7514	.3231	.0016155
1.8245	.3295	.0016475
1.9097	.3342	.001671
2.0418	.3455	.0017275
2.1727	.3545	.0017725
2.2158	.3587	.0017935
2.239	.3618	.001809
2.2758	.3622	.001811
2.3389	.3724	.001862
2.38	.377	.001885
2.5825	.4018	.002009

System: water + N,N-dibutyl-N-ethyl-1-butanaminium iodide; phases: Liquid, Gas
Fixed: Temperature, K = 298.15
Property: Activity coefficient of N,N-dibutyl-N-ethyl-1-butanaminium iodide (Liquid); method: Isopiestic method
Molality, mol/kg of N,N-dibutyl-N-ethyl-1-butanaminium iodide	Activity coefficient of N,N-dibutyl-N-ethyl-1-butanaminium iodide	uncertainty
.0378	.6891	
.0449	.6605	
.0501	.6414	
.0653	.5922	
.0727	.5712	
.0776	.5582	
.0868	.5355	
.1035	.499	
.1121	.4824	
.1191	.4695	
.1288	.4528	
.2082	.3515	
.2083	.3515	
.2503	.3142	
.292	.2842	
.3027	.2774	
.3652	.2431	
.4254	.217	
.4783	.1981	
.498	.1919	
.547	.1778	
.6197	.1601	
.6878	.1461	
.7684	.1322	
.8453	.1209	
.908	.1127	
.9478	.108	
1.128	.09	
1.2309	.0816	
1.3369	.0739	
1.4046	.0695	
1.548	.0611	
1.6521	.0557	
1.7514	.051	
1.8245	.0478	
1.9097	.0443	
2.0418	.0393	
2.1727	.0349	
2.2158	.0335	
2.239	.0328	
2.2758	.0317	
2.3389	.0299	
2.38	.0288	
2.5825	.0236	

System: water + N,N,N-triethyl-2-butanaminium iodide; phases: Liquid, Gas
Fixed: Temperature, K = 298.15
Property: Osmotic coefficient (Liquid); method: Isopiestic method
Molality, mol/kg of N,N,N-triethyl-2-butanaminium iodide	Osmotic coefficient	uncertainty
.0355	.8676	.004338
.0419	.8569	.0042845
.0466	.8491	.0042455
.0596	.8332	.004166
.0659	.8267	.0041335
.0701	.8202	.004101
.078	.8137	.0040685
.0914	.8013	.0040065
.0985	.7939	.0039695
.1038	.7896	.003948
.1115	.7841	.0039205
.1756	.7278	.003639
.1743	.7277	.0036385
.2078	.7036	.003518
.2438	.6765	.0033825
.248	.6729	.0033645
.2939	.6512	.003256
.338	.6208	.003104
.3717	.6155	.0030775
.3901	.602	.00301
.431	.5782	.002891
.4744	.5697	.0028485
.5204	.5536	.002768
.5785	.538	.00269
.624	.5249	.0026245
.665	.5199	.0025995
.6928	.5079	.0025395
.8	.49	.00245
.847	.4863	.0024315
.9185	.4796	.002398
.978	.4682	.002341
1.0907	.4557	.0022785
1.19	.4452	.002226
1.3062	.4332	.002166
1.4072	.4272	.002136
1.545	.4131	.0020655
1.7151	.4113	.0020565
1.891	.4073	.0020365
1.9278	.4123	.0020615
1.9877	.4075	.0020375
2.0195	.4081	.0020405
2.09	.4168	.002084
2.172	.413	.002065
2.4128	.4301	.0021505

System: water + N,N,N-triethyl-2-butanaminium iodide; phases: Liquid, Gas
Fixed: Temperature, K = 298.15
Property: Activity coefficient of N,N,N-triethyl-2-butanaminium iodide (Liquid); method: Isopiestic method
Molality, mol/kg of N,N,N-triethyl-2-butanaminium iodide	Activity coefficient of N,N,N-triethyl-2-butanaminium iodide	uncertainty
.0355	.7342	
.0419	.7111	
.0466	.6955	
.0596	.6571	
.0659	.6405	
.0701	.6301	
.078	.6116	
.0914	.5833	
.0985	.5696	
.1038	.5599	
.1115	.5465	
.1756	.459	
.1743	.4605	
.2078	.4262	
.2438	.3955	
.248	.3922	
.2939	.3602	
.338	.3347	
.3717	.3178	
.3901	.3094	
.431	.2924	
.4744	.2766	
.5204	.2619	
.5785	.2458	
.624	.2347	
.665	.2257	
.6928	.22	
.8	.2011	
.847	.194	
.9185	.1842	
.978	.177	
1.0907	.1651	
1.19	.1562	
1.3062	.1471	
1.4072	.1402	
1.545	.132	
1.7151	.1234	
1.891	.1159	
1.9278	.1144	
1.9877	.1122	
2.0195	.111	
2.09	.1086	
2.172	.1059	
2.4128	.0987	

System: water + N,N,N-triethyl-2-methyl-2-propanaminium; phases: Liquid, Gas
Fixed: Temperature, K = 298.15
Property: Osmotic coefficient (Liquid); method: Isopiestic method
Molality, mol/kg of N,N,N-triethyl-2-methyl-2-propanaminium	Osmotic coefficient	uncertainty
.0342	.8993	.0044965
.0403	.8907	.0044535
.0449	.8804	.004402
.0576	.862	.00431
.0639	.8525	.0042625
.0679	.8472	.004236
.0754	.8413	.0042065
.088	.8317	.0041585
.0953	.8204	.004102
.0994	.8244	.004122
.1082	.8081	.0040405
.1658	.771	.003855
.1645	.7708	.003854
.195	.7498	.003749
.2257	.7308	.003654
.2308	.723	.003615
.271	.7061	.0035305
.3095	.678	.00339
.3407	.6715	.0033575
.3517	.6677	.0033385
.383	.6506	.003253
.4265	.6337	.0031685
.4648	.6198	.003099
.5151	.6042	.003021
.553	.5922	.002961
.5917	.5843	.0029215
.61	.5768	.002884
.7078	.5538	.002769
.7607	.5414	.002707
.8399	.5244	.002622
.8805	.52	.0026
.9759	.5093	.0025465
1.08	.4905	.0024525
1.162	.487	.002435
1.272	.4726	.002363
1.3915	.4587	.0022935
1.5598	.4523	.0022615
1.693	.4549	.0022745
1.771	.4488	.002244
1.786	.4535	.0022675
1.83	.4504	.002252
1.9238	.4528	.002264
1.99	.4508	.002254
2.231	.4651	.0023255

System: water + N,N,N-triethyl-2-methyl-2-propanaminium; phases: Liquid, Gas
Fixed: Temperature, K = 298.15
Property: Activity coefficient of N,N,N-triethyl-2-methyl-2-propanaminium (Liquid); method: Isopiestic method
Molality, mol/kg of N,N,N-triethyl-2-methyl-2-propanaminium	Activity coefficient of N,N,N-triethyl-2-methyl-2-propanaminium	uncertainty
.0342	.7642	
.0403	.7444	
.0449	.7306	
.0576	.6966	
.0639	.6816	
.0679	.6725	
.0754	.6564	
.088	.6318	
.0953	.6187	
.0994	.6116	
.1082	.5972	
.1658	.5208	
.1645	.5222	
.195	.4905	
.2257	.4629	
.2308	.4586	
.271	.4282	
.3095	.4031	
.3407	.3851	
.3517	.3792	
.383	.3635	
.4265	.3439	
.4648	.3286	
.5151	.3106	
.553	.2985	
.5917	.2871	
.61	.2821	
.7078	.2583	
.7607	.2473	
.8399	.2327	
.8805	.2259	
.9759	.2118	
1.08	.1986	
1.162	.1896	
1.272	.1791	
1.3915	.1693	
1.5598	.1579	
1.693	.1504	
1.771	.1466	
1.786	.1459	
1.83	.144	
1.9238	.1401	
1.99	.1377	
2.231	.1303	

System: water + N,N,N-triethyl-2-methyl-1-propanaminium iodide; phases: Liquid, Gas
Fixed: Temperature, K = 298.15
Property: Osmotic coefficient (Liquid); method: Isopiestic method
Molality, mol/kg of N,N,N-triethyl-2-methyl-1-propanaminium iodide	Osmotic coefficient	uncertainty
.0366	.8405	.0042025
.0433	.8279	.0041395
.0483	.8186	.004093
.0624	.7955	.0039775
.0695	.7838	.003919
.0739	.7785	.0038925
.0824	.7695	.0038475
.0975	.751	.003755
.1055	.7412	.003706
.1113	.7362	.003681
.12	.7287	.0036435
.1889	.6767	.0033835
.1872	.6777	.0033885
.2234	.6546	.003273
.2618	.6301	.0031505
.265	.6297	.0031485
.3183	.6012	.003006
.3626	.5787	.0028935
.4063	.5631	.0028155
.4229	.5553	.0027765
.4602	.5415	.0027075
.5128	.527	.002635
.5607	.5138	.002569
.6289	.4949	.0024745
.6797	.4819	.0024095
.737	.4691	.0023455
.749	.4697	.0023485
.8695	.4508	.002254
.9418	.4373	.0021865
1.0339	.426	.00213
1.1	.4162	.002081
1.2319	.4035	.0020175
1.3523	.3918	.001959
1.4651	.3863	.0019315
1.595	.3769	.0018845
1.703	.3748	.001874
1.8913	.373	.001865
2.0438	.3768	.001884
2.0958	.3793	.0018965
2.1417	.3782	.001891
2.1635	.381	.001905
2.2539	.3865	.0019325
2.3085	.3886	.001943
2.5283	.4104	.002052

System: water + N,N,N-triethyl-2-methyl-1-propanaminium iodide; phases: Liquid, Gas
Fixed: Temperature, K = 298.15
Property: Activity coefficient of N,N,N-triethyl-2-methyl-1-propanaminium iodide (Liquid); method: Isopiestic method
Molality, mol/kg of N,N,N-triethyl-2-methyl-1-propanaminium iodide	Activity coefficient of N,N,N-triethyl-2-methyl-1-propanaminium iodide	uncertainty
.0366	.7118	
.0433	.6866	
.0483	.6687	
.0624	.6257	
.0695	.6067	
.0739	.5963	
.0824	.5764	
.0975	.5439	
.1055	.5296	
.1113	.5191	
.12	.5042	
.1889	.4131	
.1872	.4149	
.2234	.3799	
.2618	.3493	
.265	.347	
.3183	.3131	
.3626	.2901	
.4063	.2708	
.4229	.2643	
.4602	.2508	
.5128	.2343	
.5607	.2214	
.6289	.2056	
.6797	.1956	
.737	.1857	
.749	.1837	
.8695	.1669	
.9418	.1587	
1.0339	.1496	
1.1	.144	
1.2319	.1343	
1.3523	.1271	
1.4651	.1213	
1.595	.1156	
1.703	.1115	
1.8913	.1055	
2.0438	.1013	
2.0958	.0994	
2.1417	.0984	
2.1635	.0981	
2.2539	.0955	
2.3085	.0941	
2.5283	.0917	

System: water + N-butyl-N,N-diethyl-1-butanaminium iodide; phases: Liquid, Gas
Fixed: Temperature, K = 298.15
Property: Osmotic coefficient (Liquid); method: Isopiestic method
Molality, mol/kg of N-butyl-N,N-diethyl-1-butanaminium iodide	Osmotic coefficient	uncertainty
.0372	.8278	.004139
.0441	.8134	.004067
.0491	.8055	.0040275
.0634	.7825	.0039125
.0706	.7716	.003858
.0749	.7681	.0038405
.0839	.7563	.0037815
.0992	.7382	.003691
.1069	.7314	.003657
.1133	.7231	.0036155
.1221	.7158	.003579
.1969	.6492	.003246
.1938	.6544	.003272
.2338	.6254	.003127
.2705	.6098	.003049
.2758	.605	.003025
.3292	.5813	.0029065
.3751	.5594	.002797
.4189	.5462	.002731
.4343	.5407	.0027035
.4687	.5317	.0026585
.5317	.5083	.0025415
.58	.4967	.0024835
.6463	.4815	.0024075
.7082	.4625	.0023125
.758	.4561	.0022805
.7808	.4506	.002253
.9199	.4261	.0021305
.9899	.4161	.0020805
1.0998	.4005	.0020025
1.178	.3887	.0019435
1.324	.3754	.001877
1.4262	.3715	.0018575
1.5479	.3656	.001828
1.6604	.362	.00181
1.7596	.3628	.001814
1.9259	.3663	.0018315
2.042	.3772	.001886
2.0778	.3825	.0019125
2.108	.3842	.001921
2.136	.3859	.0019295
2.179	.3997	.0019985
2.218	.4045	.0020225
2.3885	.4345	.0021725

System: water + N-butyl-N,N-diethyl-1-butanaminium iodide; phases: Liquid, Gas
Fixed: Temperature, K = 298.15
Property: Activity coefficient of N-butyl-N,N-diethyl-1-butanaminium iodide (Liquid); method: Isopiestic method
Molality, mol/kg of N-butyl-N,N-diethyl-1-butanaminium iodide	Activity coefficient of N-butyl-N,N-diethyl-1-butanaminium iodide	uncertainty
.0372	.7064	
.0441	.6798	
.0491	.6621	
.0634	.6174	
.0706	.5976	
.0749	.5865	
.0839	.5647	
.0992	.5317	
.1069	.5166	
.1133	.5048	
.1221	.4896	
.1969	.3912	
.1938	.3939	
.2338	.3566	
.2705	.3248	
.2758	.3213	
.3292	.2868	
.3751	.2634	
.4189	.2415	
.4343	.2351	
.4687	.2213	
.5317	.2037	
.58	.1904	
.6463	.1748	
.7082	.166	
.758	.1556	
.7808	.1521	
.9199	.1348	
.9899	.1266	
1.0998	.1171	
1.178	.1131	
1.324	.1042	
1.4262	.0988	
1.5479	.0944	
1.6604	.0909	
1.7596	.0885	
1.9259	.0852	
2.042	.0821	
2.0778	.0809	
2.108	.0807	
2.136	.0802	
2.179	.0789	
2.218	.0782	
2.3885	.0748	
