Measured thermophysical data. Influence of an Oxygen Functionalization on the Physicochemical Properties of Ionic Liquids: Density, Viscosity, and Carbon Dioxide Solubility as a Function of Temperature
Source: J. Chem. Eng. Data, 2011, 10.1021/je2006743
Compound 1: 1-hexyl-3-methylpyridinium bis(trifluoromethylsulfonyl)imide, C14H20F6N2O4S2
Compound 2: 1-(3-hydroxypropyl)pyridinium bis(trifluoromethylsulfonyl)amide, C10H12F6N2O5S2
Compound 3: 1-(2-ethoxy-2-oxoethyl)-pyridinium 1,1,1-trifluoro-N-[(trifluoromethyl)sulfonyl]methanesulfonamide, C11H12F6N2O6S2
Compound 4: butyltrimethylammonium bis(trifluoromethylsulfonyl)imide, C9H18F6N2O4S2
Compound 5: N-(2-hydroxyethyl)-N,N-dimethyl-1-propanaminium 1,1,1-trifluoro-N-[(trifluoromethyl)sulfonyl]methanesulfonamide, C9H18F6N2O5S2
Compound 6: 2-(acetyloxy)-N,N,N-trimethylethanaminium 1,1,1-trifluoro-N-[(trifluoromethyl)sulfonyl]methanesulfonamide, C9H16F6N2O6S2
Compound 7: 1-butyl-1-methylpyrrolidinium bis[(trifluoromethyl)sulfonyl]imide, C11H20F6N2O4S2
Compound 8: carbon dioxide, CO2

System: 1-hexyl-3-methylpyridinium bis(trifluoromethylsulfonyl)imide; phases: Liquid
Fixed: Pressure, kPa = 101.325
Property: Mass density, kg/m3 (Liquid); method: Vibrating tube method
Temperature, K	Mass density, kg/m3	uncertainty
293.14	1356.1	
303.17	1347.1	
313.14	1338.4	
323.13	1329.7	
333.22	1321	
343	1312.9	

System: 1-hexyl-3-methylpyridinium bis(trifluoromethylsulfonyl)imide; phases: Liquid
Fixed: Pressure, kPa = 101.325
Property: Viscosity, Pa*s (Liquid); method: Falling or rolling sphere viscometry
Temperature, K	Viscosity, Pa*s	uncertainty
293.15	.105	.0021
303.15	.0642	.001284
313.15	.0412	.000824
323.15	.0283	.000566
333.15	.0225	.00045
343.15	.0175	.00035

System: 1-(3-hydroxypropyl)pyridinium bis(trifluoromethylsulfonyl)amide; phases: Liquid
Fixed: Pressure, kPa = 101.325
Property: Mass density, kg/m3 (Liquid); method: Vibrating tube method
Temperature, K	Mass density, kg/m3	uncertainty
293.15	1551	
303.24	1541.7	
313.14	1532.1	
323.15	1522.9	
333.16	1513.8	
343.13	1504.7	

System: 1-(3-hydroxypropyl)pyridinium bis(trifluoromethylsulfonyl)amide; phases: Liquid
Fixed: Pressure, kPa = 101.325
Property: Viscosity, Pa*s (Liquid); method: Falling or rolling sphere viscometry
Temperature, K	Viscosity, Pa*s	uncertainty
293.15	.16	.0032
303.15	.0922	.001844
313.15	.0577	.001154
323.15	.0382	.000764
333.15	.0294	.000588
343.15	.0228	.000456

System: 1-(2-ethoxy-2-oxoethyl)-pyridinium 1,1,1-trifluoro-N-[(trifluoromethyl)sulfonyl]methanesulfonamide; phases: Liquid
Fixed: Pressure, kPa = 101.325
Property: Mass density, kg/m3 (Liquid); method: Vibrating tube method
Temperature, K	Mass density, kg/m3	uncertainty
293.2	1532.2	
302.68	1522.5	
313.17	1512.1	
323.04	1501.9	
333.25	1492.2	
343.19	1482.1	

System: 1-(2-ethoxy-2-oxoethyl)-pyridinium 1,1,1-trifluoro-N-[(trifluoromethyl)sulfonyl]methanesulfonamide; phases: Liquid
Fixed: Pressure, kPa = 101.325
Property: Viscosity, Pa*s (Liquid); method: Falling or rolling sphere viscometry
Temperature, K	Viscosity, Pa*s	uncertainty
293.15	.786	.01572
303.15	.338	.00676
313.15	.167	.00334
323.15	.093	.00186
333.15	.0568	.001136
343.15	.0376	.000752

System: butyltrimethylammonium bis(trifluoromethylsulfonyl)imide; phases: Liquid
Fixed: Pressure, kPa = 101.325
Property: Mass density, kg/m3 (Liquid); method: Vibrating tube method
Temperature, K	Mass density, kg/m3	uncertainty
293.26	1396.5	
303.22	1387.6	
313.03	1379	
323.13	1370	
333.17	1361.3	
343.18	1352.8	

System: butyltrimethylammonium bis(trifluoromethylsulfonyl)imide; phases: Liquid
Fixed: Pressure, kPa = 101.325
Property: Viscosity, Pa*s (Liquid); method: Falling or rolling sphere viscometry
Temperature, K	Viscosity, Pa*s	uncertainty
293.15	.138	.00276
303.15	.0823	.001646
313.15	.0522	.001044
323.15	.0355	.00071
333.15	.0279	.000558
343.15	.0215	.00043

System: N-(2-hydroxyethyl)-N,N-dimethyl-1-propanaminium 1,1,1-trifluoro-N-[(trifluoromethyl)sulfonyl]methanesulfonamide; phases: Liquid
Fixed: Pressure, kPa = 101.325
Property: Mass density, kg/m3 (Liquid); method: Vibrating tube method
Temperature, K	Mass density, kg/m3	uncertainty
293.16	1453.6	
303.16	1444.5	
313.11	1435.7	
323.14	1426.8	
333.16	1418.1	
343.14	1408.7	

System: N-(2-hydroxyethyl)-N,N-dimethyl-1-propanaminium 1,1,1-trifluoro-N-[(trifluoromethyl)sulfonyl]methanesulfonamide; phases: Liquid
Fixed: Pressure, kPa = 101.325
Property: Viscosity, Pa*s (Liquid); method: Falling or rolling sphere viscometry
Temperature, K	Viscosity, Pa*s	uncertainty
293.15	.16	.0032
303.15	.0927	.001854
313.15	.0581	.001162
323.15	.0387	.000774
333.15	.0303	.000606
343.15	.0229	.000458

System: 2-(acetyloxy)-N,N,N-trimethylethanaminium 1,1,1-trifluoro-N-[(trifluoromethyl)sulfonyl]methanesulfonamide; phases: Liquid
Fixed: Pressure, kPa = 101.325
Property: Mass density, kg/m3 (Liquid); method: Vibrating tube method
Temperature, K	Mass density, kg/m3	uncertainty
293.18	1486.9	
303.19	1477.3	
313.21	1468	
323.16	1458.8	
333.19	1449.7	
343.21	1440.5	

System: 2-(acetyloxy)-N,N,N-trimethylethanaminium 1,1,1-trifluoro-N-[(trifluoromethyl)sulfonyl]methanesulfonamide; phases: Liquid
Fixed: Pressure, kPa = 101.325
Property: Viscosity, Pa*s (Liquid); method: Falling or rolling sphere viscometry
Temperature, K	Viscosity, Pa*s	uncertainty
293.15	.309	.00618
303.15	.162	.00324
313.15	.0907	.001814
323.15	.0568	.001136
333.15	.0385	.00077
343.15	.0275	.00055

System: 1-butyl-1-methylpyrrolidinium bis[(trifluoromethyl)sulfonyl]imide; phases: Liquid
Fixed: Pressure, kPa = 101.325
Property: Mass density, kg/m3 (Liquid); method: Vibrating tube method
Temperature, K	Mass density, kg/m3	uncertainty
293.09	1398	
302.89	1389.2	
313.59	1379.8	
323.38	1371.3	
332.57	1363.1	
342.84	1354.6	

System: 1-butyl-1-methylpyrrolidinium bis[(trifluoromethyl)sulfonyl]imide; phases: Liquid
Fixed: Pressure, kPa = 101.325
Property: Viscosity, Pa*s (Liquid); method: Falling or rolling sphere viscometry
Temperature, K	Viscosity, Pa*s	uncertainty
293.15	.101	.00202
303.15	.0638	.001276
313.15	.0418	.000836
323.15	.0289	.000578
333.15	.0235	.00047
343.15	.0186	.000372

System: carbon dioxide + 1-(3-hydroxypropyl)pyridinium bis(trifluoromethylsulfonyl)amide; phases: Liquid, Gas
Property: Mole fraction of carbon dioxide (Liquid); method: isochoric saturation technique
Temperature, K	Pressure, kPa	Mole fraction of carbon dioxide	uncertainty
303.58	64.32	.01175	.0003525
303.59	59.7	.01171	.0003513
313.55	62.25	.008649	.00025947
313.55	61.61	.008559	.00025677
323.47	69.96	.005784	.00017352
323.5	64.8	.005969	.00017907
333.42	72.63	.003775	.00011325
333.45	67.27	.003851	.00011553
333.46	66.57	.003797	.00011391
343.4	75.23	.002172	.00006516
343.45	68.94	.002219	.00006657

System: carbon dioxide + 1-(2-ethoxy-2-oxoethyl)-pyridinium 1,1,1-trifluoro-N-[(trifluoromethyl)sulfonyl]methanesulfonamide; phases: Liquid, Gas
Property: Mole fraction of carbon dioxide (Liquid); method: isochoric saturation technique
Temperature, K	Pressure, kPa	Mole fraction of carbon dioxide	uncertainty
303.59	66.83	.01352	.0004056
303.6	66.66	.01356	.0004068
313.54	69.55	.009801	.00029403
313.55	69.33	.009842	.00029526
323.48	72.19	.00688	.0002064
323.5	71.92	.006991	.00020973
333.44	74.76	.004634	.00013902
333.48	74.46	.00473	.0001419
343.44	77.3	.002807	.00008421
343.5	76.97	.002851	.00008553

System: carbon dioxide + butyltrimethylammonium bis(trifluoromethylsulfonyl)imide; phases: Liquid, Gas
Property: Mole fraction of carbon dioxide (Liquid); method: isochoric saturation technique
Temperature, K	Pressure, kPa	Mole fraction of carbon dioxide	uncertainty
303.55	63.75	.02749	.0008247
303.57	64.21	.02729	.0008187
303.59	66.6	.02741	.0008223
313.53	66.92	.02269	.0006807
313.54	43.41	.02303	.0006909
323.47	69.37	.01916	.0005748
323.52	69.54	.01912	.0005736
333.43	74.56	.01639	.0004917
333.48	72.07	.01652	.0004956
343.41	77.05	.01428	.0004284
343.48	74.55	.01423	.0004269

System: carbon dioxide + 2-(acetyloxy)-N,N,N-trimethylethanaminium 1,1,1-trifluoro-N-[(trifluoromethyl)sulfonyl]methanesulfonamide; phases: Liquid, Gas
Property: Mole fraction of carbon dioxide (Liquid); method: isochoric saturation technique
Temperature, K	Pressure, kPa	Mole fraction of carbon dioxide	uncertainty
303.58	59.8	.02638	.0007914
303.68	63.52	.02611	.0007833
313.43	66.11	.02197	.0006591
313.45	62.6	.02226	.0006678
323.44	68.7	.01857	.0005571
323.46	65.34	.01895	.0005685
333.39	71.24	.0157	.000471
333.39	67.98	.01627	.0004881
343.29	73.63	.01376	.0004128
343.35	70.56	.01405	.0004215
