Measured thermophysical data. Isochoric PVTx Measurements for the Carbon Dioxide + 1,1,1,2-Tetrafluoroethane Binary System
Source: J. Chem. Eng. Data, 2011, 10.1021/je201068e
Compound 1: carbon dioxide, CO2, purity 99.99%
Compound 2: freon 134a, C2H2F4, purity 99.98%

System: carbon dioxide + freon 134a; phases: Gas
Property: Molar volume, m3/mol (Gas); method: Isochoric PVT measurement
Temperature, K	Pressure, kPa	Mole fraction of carbon dioxide	Molar volume, m3/mol	uncertainty
292.44	5.999	.146	.00287	.00000287
303.11	7.588	.146	.002871	.000002871
313.12	7.94	.146	.002872	.000002872
323.08	8.284	.146	.002874	.000002874
333.05	8.621	.146	.002875	.000002875
343.01	8.954	.146	.002876	.000002876
352.96	9.283	.146	.002878	.000002878
362.91	9.608	.146	.002879	.000002879
293.1	6.259	.163	.003417	.000003417
298.1	6.406	.163	.003418	.000003418
303.08	6.551	.163	.003419	.000003419
308.08	6.696	.163	.00342	.00000342
313.05	6.836	.163	.00342	.00000342
318.03	6.976	.163	.003421	.000003421
323.03	7.116	.163	.003422	.000003422
328.01	7.255	.163	.003423	.000003423
333.01	7.393	.163	.003423	.000003423
337.98	7.529	.163	.003424	.000003424
342.97	7.664	.163	.003425	.000003425
292.6	7.392	.268	.002458	.000002458
303.11	8.853	.268	.002459	.000002459
313.11	9.268	.268	.00246	.00000246
323.09	9.669	.268	.002461	.000002461
333.05	10.064	.268	.002462	.000002462
343.01	10.451	.268	.002463	.000002463
352.98	10.844	.268	.002464	.000002464
362.94	11.226	.268	.002465	.000002465
372.88	11.601	.268	.002466	.000002466
288.11	7.613	.373	.002753	.000002753
293.11	7.79	.373	.002753	.000002753
298.1	7.971	.373	.002754	.000002754
303.09	8.149	.373	.002755	.000002755
308.07	8.324	.373	.002755	.000002755
313.06	8.499	.373	.002756	.000002756
318.04	8.675	.373	.002756	.000002756
323.07	8.848	.373	.002757	.000002757
328.02	9.016	.373	.002758	.000002758
333	9.185	.373	.002758	.000002758
337.99	9.353	.373	.002759	.000002759
342.97	9.519	.373	.002759	.000002759
292.94	9.639	.456	.002069	.000002069
302.89	10.598	.456	.00207	.00000207
312.77	11.068	.456	.002071	.000002071
323.09	11.55	.456	.002072	.000002072
333.06	12.01	.456	.002073	.000002073
343.02	12.464	.456	.002074	.000002074
352.96	12.913	.456	.002075	.000002075
362.92	13.358	.456	.002075	.000002075
372.86	13.798	.456	.002076	.000002076
288.02	8.422	.466	.002502	.000002502
293.11	8.621	.466	.002503	.000002503
298.1	8.817	.466	.002503	.000002503
303.08	9.01	.466	.002504	.000002504
308.08	9.201	.466	.002504	.000002504
313.07	9.391	.466	.002505	.000002505
318.04	9.58	.466	.002505	.000002505
323.02	9.767	.466	.002506	.000002506
328.01	9.953	.466	.002507	.000002507
333	10.138	.466	.002507	.000002507
337.98	10.32	.466	.002508	.000002508
342.98	10.508	.466	.002508	.000002508
292.6	13.254	.646	.001524	.000001524
302.51	14.358	.646	.001524	.000001524
312.82	14.876	.646	.001525	.000001525
322.64	15.652	.646	.001526	.000001526
333.86	16.361	.646	.001526	.000001526
343.82	16.981	.646	.001527	.000001527
353	17.547	.646	.001528	.000001528
362.96	18.156	.646	.001528	.000001528
372.9	18.758	.646	.001529	.000001529
288.1	14.133	.729	.001458	.000001458
293.11	14.494	.729	.001458	.000001458
298.1	14.832	.729	.001458	.000001458
303.09	15.165	.729	.001459	.000001459
308.07	15.497	.729	.001459	.000001459
313.06	15.826	.729	.001459	.000001459
318.04	16.15	.729	.00146	.00000146
323.03	16.474	.729	.00146	.00000146
328.01	16.793	.729	.00146	.00000146
332.99	17.112	.729	.001461	.000001461
337.99	17.428	.729	.001461	.000001461
342.96	17.74	.729	.001461	.000001461
282.73	12.07	.747	.001634	.000001634
292.74	13.115	.747	.001634	.000001634
302.93	13.712	.747	.001635	.000001635
312.88	14.285	.747	.001636	.000001636
323.09	14.867	.747	.001636	.000001636
333.06	15.429	.747	.001637	.000001637
343.02	15.985	.747	.001638	.000001638
352.98	16.538	.747	.001639	.000001639
362.9	17.083	.747	.001639	.000001639
372.88	17.631	.747	.00164	.00000164
288.11	19.637	.807	.001006	.000001006
293.11	20.15	.807	.001006	.000001006
298.09	20.655	.807	.001007	.000001007
303.08	21.157	.807	.001007	.000001007
308.06	21.652	.807	.001007	.000001007
313.05	22.146	.807	.001007	.000001007
318.04	22.637	.807	.001007	.000001007
323.02	23.123	.807	.001008	.000001008
328.01	23.606	.807	.001008	.000001008
333	24.087	.807	.001008	.000001008
337.98	24.563	.807	.001008	.000001008
342.97	25.04	.807	.001009	.000001009
278.12	21.627	.899	.000857	.000000857
283.11	22.238	.899	.000857	.000000857
288.09	22.833	.899	.000858	.000000858
293.11	23.628	.899	.000858	.000000858
298.1	24.217	.899	.000858	.000000858
303.08	24.801	.899	.000858	.000000858
308.06	25.379	.899	.000858	.000000858
313.04	25.934	.899	.000858	.000000858
318.04	26.502	.899	.000859	.000000859
323	27.068	.899	.000859	.000000859
328.01	27.622	.899	.000859	.000000859
333	28.145	.899	.000859	.000000859
338	28.666	.899	.000859	.000000859
342.98	29.148	.899	.00086	.00000086
