Measured thermophysical data. Measurement and Correlation of Phase Diagram Data for Aqueous Two-Phase Systems Containing 1-Ethyl-3-methylimidazolium Dimethyl Phosphate + K3PO4/K2HPO4/K2CO3 + H2O Ionic Liquids at (298.15, 308.15, and 318.15) K
Source: J. Chem. Eng. Data, 2012, 10.1021/je2004758
Compound 1: 1-ethyl-3-methylimidazolium dimethylphosphate, C8H17N2O4P, purity 99%
Compound 2: potassium carbonate, CK2O3, purity 99%
Compound 3: dipotassium monohydrogen phosphate, HK2O4P, purity 99%
Compound 4: potassium tribasic phosphate, K3O4P, purity 99%
Compound 5: water, H2O

System: water + potassium tribasic phosphate + 1-ethyl-3-methylimidazolium dimethylphosphate; phases: Liquid mixture 1, Liquid mixture 2
Fixed: Pressure, kPa = 101
Property: Mass fraction of 1-ethyl-3-methylimidazolium dimethylphosphate (Liquid mixture 1); method: Titration method
Temperature, K	Mass fraction of potassium tribasic phosphate	Mass fraction of 1-ethyl-3-methylimidazolium dimethylphosphate	uncertainty
298.15	.0115	.5703	.001
298.15	.0151	.5426	.001
298.15	.0184	.5214	.001
298.15	.0215	.5097	.001
298.15	.0282	.4746	.001
298.15	.0352	.4499	.001
298.15	.0555	.3897	.001
298.15	.0448	.4158	.001
298.15	.0616	.3703	.001
298.15	.0714	.3474	.001
298.15	.0829	.3257	.001
298.15	.0931	.3065	.001
298.15	.1029	.2901	.001
298.15	.1138	.2728	.001
298.15	.1238	.253	.001
298.15	.1345	.2351	.001
298.15	.1432	.2258	.001
298.15	.1541	.2089	.001
298.15	.1659	.1912	.001
298.15	.1764	.1765	.001
298.15	.1869	.1642	.001
298.15	.1956	.1521	.001
298.15	.2073	.1416	.001
298.15	.216	.1306	.001
298.15	.2248	.1216	.001
298.15	.2379	.1053	.001
298.15	.2481	.0966	.001
298.15	.2676	.0772	.001
298.15	.285	.0622	.001
298.15	.2964	.0553	.001
298.15	.3084	.0445	.001
298.15	.3294	.0335	.001
298.15	.3489	.022	.001
308.15	.0452	.4627	.001
308.15	.057	.4203	.001
308.15	.066	.3934	.001
308.15	.0735	.379	.001
308.15	.0876	.3472	.001
308.15	.1017	.3185	.001
308.15	.1221	.2846	.001
308.15	.1335	.2669	.001
308.15	.1512	.2427	.001
308.15	.1653	.2256	.001
308.15	.1794	.2075	.001
308.15	.1935	.1915	.001
308.15	.2077	.1753	.001
308.15	.2218	.1618	.001
308.15	.2359	.1481	.001
308.15	.2501	.1351	.001
308.15	.2642	.1217	.001
308.15	.2783	.111	.001
308.15	.2924	.0999	.001
308.15	.3066	.0895	.001
308.15	.3207	.0797	.001
308.15	.3348	.0705	.001
308.15	.3489	.062	.001
308.15	.3631	.0542	.001
308.15	.3772	.0481	.001
308.15	.3948	.039	.001
318.15	.0488	.4734	.001
318.15	.0594	.4356	.001
318.15	.07	.4114	.001
318.15	.077	.3968	.001
318.15	.0841	.3831	.001
318.15	.0947	.3641	.001
318.15	.1053	.3466	.001
318.15	.1159	.3302	.001
318.15	.1265	.3148	.001
318.15	.137	.3002	.001
318.15	.1476	.2863	.001
318.15	.1582	.273	.001
318.15	.1688	.2603	.001
318.15	.1759	.2521	.001
318.15	.1865	.2401	.001
318.15	.1971	.2236	.001
318.15	.2133	.207	.001
318.15	.2289	.1968	.001
318.15	.2395	.1872	.001
318.15	.2465	.181	.001
318.15	.2627	.1637	.001
318.15	.2748	.1584	.001
318.15	.2889	.1485	.001
318.15	.3101	.1353	.001
318.15	.3278	.1259	.001
318.15	.3383	.121	.001
318.15	.356	.1138	.001
318.15	.3736	.1079	.001
318.15	.3913	.1032	.001

System: water + potassium tribasic phosphate + 1-ethyl-3-methylimidazolium dimethylphosphate; phases: Liquid mixture 2, Liquid mixture 1
Fixed: Pressure, kPa = 101
Property: Mass fraction of 1-ethyl-3-methylimidazolium dimethylphosphate (Liquid mixture 2); method: Titration method
Property: Mass fraction of potassium tribasic phosphate (Liquid mixture 1); method: Titration method
Property: Mass fraction of 1-ethyl-3-methylimidazolium dimethylphosphate (Liquid mixture 1); method: Titration method
Temperature, K	Mass fraction of potassium tribasic phosphate	Mass fraction of 1-ethyl-3-methylimidazolium dimethylphosphate	uncertainty	Mass fraction of potassium tribasic phosphate	uncertainty	Mass fraction of 1-ethyl-3-methylimidazolium dimethylphosphate	uncertainty
298.15	.4061	.0123	.001	.0682	.001	.3495	.001
298.15	.3733	.0157	.001	.0781	.001	.335	.001
298.15	.4513	.008	.001	.0608	.001	.3654	.001
308.15	.4561	.0283	.001	.0848	.001	.3543	.001
308.15	.4222	.0352	.001	.0905	.001	.3372	.001
308.15	.4957	.027	.001	.0781	.001	.3674	.001
318.15	.463	.0982	.001	.0885	.001	.3731	.001
318.15	.4386	.0991	.001	.0983	.001	.3581	.001
318.15	.4897	.096	.001	.0835	.001	.3864	.001

System: water + dipotassium monohydrogen phosphate + 1-ethyl-3-methylimidazolium dimethylphosphate; phases: Liquid mixture 1, Liquid mixture 2
Fixed: Pressure, kPa = 101
Property: Mass fraction of 1-ethyl-3-methylimidazolium dimethylphosphate (Liquid mixture 1); method: Titration method
Temperature, K	Mass fraction of dipotassium monohydrogen phosphate	Mass fraction of 1-ethyl-3-methylimidazolium dimethylphosphate	uncertainty
298.15	.0176	.6277	.001
298.15	.0275	.5417	.001
298.15	.0379	.4883	.001
298.15	.047	.4495	.001
298.15	.0564	.4174	.001
298.15	.0656	.3921	.001
298.15	.0759	.364	.001
298.15	.0861	.3421	.001
298.15	.0954	.3245	.001
298.15	.1058	.3054	.001
298.15	.1164	.2895	.001
298.15	.1268	.2724	.001
298.15	.1346	.2611	.001
298.15	.149	.2406	.001
298.15	.1541	.2349	.001
298.15	.1668	.2195	.001
298.15	.1757	.2093	.001
298.15	.1856	.1992	.001
298.15	.1971	.1863	.001
298.15	.2029	.1801	.001
298.15	.2192	.1634	.001
298.15	.2273	.1563	.001
298.15	.236	.1491	.001
298.15	.2497	.1396	.001
298.15	.259	.1308	.001
298.15	.2699	.1226	.001
298.15	.2815	.1147	.001
298.15	.2933	.1059	.001
298.15	.3167	.0908	.001
298.15	.3341	.0798	.001
298.15	.3504	.0703	.001
298.15	.3704	.0608	.001
298.15	.3914	.0509	.001
308.15	.0233	.6421	.001
308.15	.0327	.5653	.001
308.15	.0402	.528	.001
308.15	.0515	.4835	.001
308.15	.0646	.4481	.001
308.15	.0704	.4279	.001
308.15	.0817	.4013	.001
308.15	.0931	.378	.001
308.15	.1006	.364	.001
308.15	.1119	.3447	.001
308.15	.1233	.327	.001
308.15	.1308	.316	.001
308.15	.1422	.3005	.001
308.15	.1526	.2812	.001
308.15	.1724	.2634	.001
308.15	.1912	.2429	.001
308.15	.2063	.2275	.001
308.15	.2214	.2111	.001
308.15	.2403	.1963	.001
308.15	.2517	.1867	.001
308.15	.263	.1777	.001
308.15	.2743	.1689	.001
308.15	.2856	.1606	.001
308.15	.297	.1527	.001
308.15	.3121	.1428	.001
308.15	.3234	.1379	.001
308.15	.3423	.1249	.001
308.15	.3537	.1189	.001
308.15	.3612	.1151	.001
308.15	.3763	.1079	.001
308.15	.3838	.1045	.001
308.15	.4033	.1006	.001
318.15	.0213	.6911	.001
318.15	.0251	.6622	.001
318.15	.0343	.5965	.001
318.15	.044	.5619	.001
318.15	.0591	.5091	.001
318.15	.078	.4597	.001
318.15	.0893	.4355	.001
318.15	.0985	.4209	.001
318.15	.1082	.4009	.001
318.15	.1195	.3827	.001
318.15	.1271	.3714	.001
318.15	.1384	.3555	.001
318.15	.1493	.3431	.001
318.15	.1573	.3312	.001
318.15	.1686	.3177	.001
318.15	.1799	.305	.001
318.15	.198	.2851	.001
318.15	.2101	.2738	.001
318.15	.229	.2562	.001
318.15	.2488	.2399	.001
318.15	.2668	.2247	.001
318.15	.2781	.2161	.001
318.15	.2894	.208	.001
318.15	.3083	.1952	.001
318.15	.3272	.1854	.001
318.15	.3385	.1771	.001
318.15	.3574	.167	.001
318.15	.3687	.1614	.001
318.15	.3859	.1529	.001
318.15	.4047	.1516	.001

System: water + dipotassium monohydrogen phosphate + 1-ethyl-3-methylimidazolium dimethylphosphate; phases: Liquid mixture 2, Liquid mixture 1
Fixed: Pressure, kPa = 101
Property: Mass fraction of dipotassium monohydrogen phosphate (Liquid mixture 2); method: Titration method
Property: Mass fraction of 1-ethyl-3-methylimidazolium dimethylphosphate (Liquid mixture 1); method: Titration method
Property: Mass fraction of dipotassium monohydrogen phosphate (Liquid mixture 1); method: Titration method
Temperature, K	Mass fraction of 1-ethyl-3-methylimidazolium dimethylphosphate	Mass fraction of dipotassium monohydrogen phosphate	uncertainty	Mass fraction of 1-ethyl-3-methylimidazolium dimethylphosphate	uncertainty	Mass fraction of dipotassium monohydrogen phosphate	uncertainty
298.15	.0043	.5704	.001	.4487	.001	.0422	.001
298.15	.0222	.4966	.001	.3999	.001	.06	.001
298.15	.0124	.5388	.001	.4257	.001	.0511	.001
308.15	.0803	.5604	.001	.5087	.001	.0442	.001
308.15	.0862	.5066	.001	.46	.001	.058	.001
308.15	.0931	.4588	.001	.41	.001	.0761	.001
318.15	.1293	.5604	.001	.5469	.001	.0482	.001
318.15	.1362	.5016	.001	.49	.001	.0664	.001
318.15	.1326	.5858	.001	.5732	.001	.0402	.001

System: potassium carbonate + water + 1-ethyl-3-methylimidazolium dimethylphosphate; phases: Liquid mixture 1, Liquid mixture 2
Fixed: Pressure, kPa = 101
Property: Mass fraction of 1-ethyl-3-methylimidazolium dimethylphosphate (Liquid mixture 1); method: Titration method
Temperature, K	Mass fraction of potassium carbonate	Mass fraction of 1-ethyl-3-methylimidazolium dimethylphosphate	uncertainty
298.15	.012	.7712	.001
298.15	.0153	.7321	.001
298.15	.0186	.7036	.001
298.15	.0224	.6829	.001
298.15	.0261	.6597	.001
298.15	.0301	.6318	.001
298.15	.0351	.6095	.001
298.15	.0432	.5674	.001
298.15	.0507	.5407	.001
298.15	.0568	.5157	.001
298.15	.0681	.4809	.001
298.15	.0779	.4529	.001
298.15	.0881	.4294	.001
298.15	.0981	.4058	.001
298.15	.1062	.3898	.001
298.15	.1183	.3676	.001
298.15	.1304	.347	.001
298.15	.1386	.3323	.001
298.15	.1499	.3169	.001
298.15	.1628	.2981	.001
298.15	.1694	.2849	.001
298.15	.176	.2746	.001
298.15	.1807	.267	.001
298.15	.1936	.251	.001
298.15	.2049	.2338	.001
298.15	.2151	.2223	.001
298.15	.2216	.2138	.001
298.15	.2374	.1924	.001
298.15	.2472	.1834	.001
298.15	.256	.1718	.001
298.15	.2705	.1528	.001
298.15	.2811	.144	.001
298.15	.2937	.1299	.001
298.15	.3088	.1153	.001
298.15	.331	.0968	.001
298.15	.3597	.072	.001
298.15	.3806	.0595	.001
308.15	.0298	.8016	.001
308.15	.0372	.7443	.001
308.15	.0484	.6701	.001
308.15	.0595	.6112	.001
308.15	.0669	.578	.001
308.15	.078	.5427	.001
308.15	.0864	.5183	.001
308.15	.0966	.4888	.001
308.15	.1077	.4581	.001
308.15	.118	.4297	.001
308.15	.1292	.4073	.001
308.15	.1373	.3951	.001
308.15	.1485	.378	.001
308.15	.1596	.358	.001
308.15	.1711	.3362	.001
308.15	.1892	.3137	.001
308.15	.2078	.288	.001
308.15	.2189	.2765	.001
308.15	.2343	.2563	.001
308.15	.2455	.249	.001
308.15	.2597	.2362	.001
308.15	.2782	.2116	.001
308.15	.2893	.2036	.001
308.15	.3086	.1854	.001
308.15	.3264	.1709	.001
308.15	.3464	.1575	.001
308.15	.3598	.1502	.001
308.15	.3783	.1405	.001
308.15	.3894	.1381	.001
318.15	.0261	.9496	.001
318.15	.0356	.8543	.001
318.15	.0437	.8022	.001
318.15	.0511	.7506	.001
318.15	.0603	.7008	.001
318.15	.0726	.6443	.001
318.15	.0896	.585	.001
318.15	.1001	.5534	.001
318.15	.1163	.512	.001
318.15	.1419	.4634	.001
318.15	.1628	.427	.001
318.15	.1839	.3963	.001
318.15	.2037	.3681	.001
318.15	.2224	.3459	.001
318.15	.2438	.3208	.001
318.15	.2713	.3007	.001
318.15	.2951	.2808	.001
318.15	.3179	.2656	.001
318.15	.3374	.2575	.001
318.15	.3566	.2454	.001
318.15	.3701	.2389	.001
318.15	.3931	.2266	.001

System: potassium carbonate + water + 1-ethyl-3-methylimidazolium dimethylphosphate; phases: Liquid mixture 2, Liquid mixture 1
Fixed: Pressure, kPa = 101
Property: Mass fraction of potassium carbonate (Liquid mixture 2); method: Titration method
Property: Mass fraction of 1-ethyl-3-methylimidazolium dimethylphosphate (Liquid mixture 1); method: Titration method
Property: Mass fraction of potassium carbonate (Liquid mixture 1); method: Titration method
Temperature, K	Mass fraction of 1-ethyl-3-methylimidazolium dimethylphosphate	Mass fraction of potassium carbonate	uncertainty	Mass fraction of 1-ethyl-3-methylimidazolium dimethylphosphate	uncertainty	Mass fraction of potassium carbonate	uncertainty
298.15	.0345	.4857	.001	.5335	.001	.0498	.001
298.15	.0292	.5235	.001	.5748	.001	.0388	.001
298.15	.0233	.5574	.001	.6245	.001	.0277	.001
308.15	.1205	.4772	.001	.5605	.001	.0708	.001
308.15	.1152	.516	.001	.5948	.001	.0619	.001
308.15	.1103	.5654	.001	.6385	.001	.0547	.001
318.15	.2055	.5287	.001	.6715	.001	.0648	.001
318.15	.2002	.571	.001	.7238	.001	.0559	.001
318.15	.1953	.6154	.001	.7735	.001	.0467	.001
