Measured thermophysical data. Thermophysical Study of Several alpha- and beta-Amino Acid Derivatives by Differential Scanning Calorimetry (DSC)
Source: J. Chem. Eng. Data, 2011, 10.1021/je200292z
Compound 1: sarcosine, C3H7NO2
Compound 2: DL-alanine, C3H7NO2
Compound 3: propanoic acid, 3-amino-, C3H7NO2
Compound 4: N-benzyl-.alpha.-alanine (DL), C10H13NO2
Compound 5: N-benzyl-.beta.-alanine, C10H13NO2

System: sarcosine; phases: Crystal, Liquid, Air at 1 atmosphere
Property: Normal melting temperature, K (Crystal); method: DSC/DTA
Normal melting temperature, K	uncertainty
481.6	1.4

System: sarcosine; phases: Crystal, Liquid, Air at 1 atmosphere
Property: Molar enthalpy of transition or fusion, kJ/mol (Crystal); method: DSC/DTA
Molar enthalpy of transition or fusion, kJ/mol	uncertainty
20.6	.7

System: sarcosine; phases: Crystal
Fixed: Pressure, kPa = 101.325
Property: Molar heat capacity at constant pressure, J/K/mol (Crystal); method: Small sample (50 mg) DSC
Temperature, K	Molar heat capacity at constant pressure, J/K/mol	uncertainty
263.15	107.3	2.146
265.15	108.3	2.166
270.15	109.9	2.198
273.51	110.8	2.216
275.15	111.5	2.23
280.15	112.8	2.256
285.15	114.2	2.284
290.15	116	2.32
295.15	117.4	2.348
298.15	118.2	2.364
300.15	119	2.38
305.15	120.5	2.41
310.15	122.1	2.442
315.15	123.5	2.47
320.15	125.1	2.502
325.15	126.4	2.528
330.15	128.1	2.562
335.15	129.8	2.596
340.15	131.4	2.628
345.15	133.2	2.664
350.15	134.9	2.698
355.15	136.4	2.728
360.15	138.5	2.77
365.15	140.6	2.812
370.15	142.3	2.846
375.15	143.9	2.878
380.15	145.4	2.908
385.15	147	2.94
390.15	148.8	2.976
395.15	150.5	3.01
400.15	152.2	3.044
405.15	154	3.08
410.15	155.6	3.112

System: DL-alanine; phases: Crystal, Liquid, Air at 1 atmosphere
Property: Normal melting temperature, K (Crystal); method: DSC/DTA
Normal melting temperature, K	uncertainty
563.5	2

System: DL-alanine; phases: Crystal
Fixed: Pressure, kPa = 101.325
Property: Molar heat capacity at constant pressure, J/K/mol (Crystal); method: Small sample (50 mg) DSC
Temperature, K	Molar heat capacity at constant pressure, J/K/mol	uncertainty
263.15	107.6	2.152
265.15	108.4	2.168
270.15	110.2	2.204
273.51	111.3	2.226
275.15	111.9	2.238
280.15	113.4	2.268
285.15	115	2.3
290.15	116.9	2.338
295.15	118.9	2.378
298.15	119.9	2.398
300.15	120.8	2.416
305.15	122.7	2.454
310.15	124.7	2.494
315.15	126.2	2.524
320.15	127.9	2.558
325.15	128.4	2.568
330.15	130.6	2.612
335.15	132.2	2.644
340.15	134.3	2.686
345.15	136.1	2.722
350.15	138.2	2.764
355.15	140.3	2.806
360.15	142.4	2.848
365.15	144.1	2.882
370.15	145.9	2.918
375.15	146.8	2.936
380.15	148.3	2.966
385.15	149.8	2.996
390.15	151.3	3.026
395.15	153	3.06
400.15	154.6	3.092
405.15	156.3	3.126
410.15	158.1	3.162
415.15	159.7	3.194
420.15	161.5	3.23
425.15	163	3.26
430.15	164.9	3.298
435.15	167	3.34
440.15	168	3.36
445.15	170.1	3.402
450.15	172	3.44
455.15	173.8	3.476
460.15	175.4	3.508
465.15	177	3.54
470.15	178.7	3.574
475.15	178.8	3.576
480.15	180.7	3.614
485.15	183.4	3.668
490.15	184.9	3.698
495.15	187.5	3.75
500.15	190.1	3.802

System: propanoic acid, 3-amino-; phases: Crystal, Liquid, Air at 1 atmosphere
Property: Normal melting temperature, K (Crystal); method: DSC/DTA
Normal melting temperature, K	uncertainty
477.5	2

System: propanoic acid, 3-amino-; phases: Crystal
Fixed: Pressure, kPa = 101.325
Property: Molar heat capacity at constant pressure, J/K/mol (Crystal); method: Small sample (50 mg) DSC
Temperature, K	Molar heat capacity at constant pressure, J/K/mol	uncertainty
263.15	105.2	2.104
265.15	105.8	2.116
270.15	107.3	2.146
273.51	108.2	2.164
275.15	108.8	2.176
280.15	110.3	2.206
285.15	111.7	2.234
290.15	113.1	2.262
295.15	114.5	2.29
298.15	115.2	2.304
300.15	115.9	2.318
305.15	117.3	2.346
310.15	118.8	2.376
315.15	119.8	2.396
320.15	121.3	2.426
325.15	122.2	2.444
330.15	123.8	2.476
335.15	125.4	2.508
340.15	126.9	2.538
345.15	128.4	2.568
350.15	130	2.6
355.15	131.7	2.634
360.15	133.5	2.67
365.15	135	2.7
370.15	136.6	2.732
375.15	137.7	2.754
380.15	139.1	2.782
385.15	140.7	2.814
390.15	142.4	2.848
395.15	144	2.88
400.15	145.7	2.914
405.15	147.4	2.948
410.15	148.9	2.978
415.15	150	3
420.15	152	3.04
425.15	152.7	3.054
430.15	154.4	3.088
435.15	156.2	3.124
440.15	158	3.16
445.15	159.6	3.192
450.15	161.4	3.228

System: N-benzyl-.alpha.-alanine (DL); phases: Crystal, Liquid, Air at 1 atmosphere
Property: Normal melting temperature, K (Crystal); method: DSC/DTA
Normal melting temperature, K	uncertainty
528.5	2

System: N-benzyl-.alpha.-alanine (DL); phases: Crystal
Fixed: Pressure, kPa = 101.325
Property: Molar heat capacity at constant pressure, J/K/mol (Crystal); method: Small sample (50 mg) DSC
Temperature, K	Molar heat capacity at constant pressure, J/K/mol	uncertainty
263.15	199.3	3.986
265.15	200.7	4.014
270.15	204.2	4.084
273.51	206.2	4.124
275.15	207.8	4.156
280.15	211.1	4.222
285.15	213.9	4.278
290.15	217.2	4.344
295.15	220.4	4.408
298.15	222.4	4.448
300.15	224	4.48
305.15	227.2	4.544
310.15	233.2	4.664
315.15	232.3	4.646
320.15	235.6	4.712
325.15	237.2	4.744
330.15	240.5	4.81
335.15	244.6	4.892
340.15	248.2	4.964
345.15	250.9	5.018
350.15	253.6	5.072
355.15	256.3	5.126
360.15	258.4	5.168
365.15	257.7	5.154
370.15	261.6	5.232
375.15	261	5.22
380.15	263.6	5.272
385.15	266.4	5.328
390.15	269.8	5.396
395.15	273	5.46
400.15	276.8	5.536
405.15	280.6	5.612
410.15	283.5	5.67
415.15	285.5	5.71
420.15	288.7	5.774
425.15	293.1	5.862
430.15	295.7	5.914

System: N-benzyl-.beta.-alanine; phases: Crystal, Liquid, Air at 1 atmosphere
Property: Normal melting temperature, K (Crystal); method: DSC/DTA
Normal melting temperature, K	uncertainty
457	.5

System: N-benzyl-.beta.-alanine; phases: Crystal, Liquid, Air at 1 atmosphere
Property: Molar enthalpy of transition or fusion, kJ/mol (Crystal); method: DSC/DTA
Molar enthalpy of transition or fusion, kJ/mol	uncertainty
42.7	.7

System: N-benzyl-.beta.-alanine; phases: Crystal
Fixed: Pressure, kPa = 101.325
Property: Molar heat capacity at constant pressure, J/K/mol (Crystal); method: Small sample (50 mg) DSC
Temperature, K	Molar heat capacity at constant pressure, J/K/mol	uncertainty
263.15	193.4	3.868
265.15	194.4	3.888
270.15	196.9	3.938
273.51	198.2	3.964
275.15	199	3.98
280.15	201.4	4.028
285.15	204.2	4.084
290.15	207.1	4.142
295.15	210.5	4.21
298.15	221.7	4.434
300.15	214.3	4.286
305.15	217.8	4.356
310.15	221.7	4.434
315.15	227	4.54
320.15	230.7	4.614
325.15	234.4	4.688
330.15	237.6	4.752
335.15	241.6	4.832
340.15	245.2	4.904
345.15	248.3	4.966
350.15	251	5.02
355.15	254.3	5.086
360.15	257.8	5.156
365.15	262.7	5.254
370.15	266.3	5.326
375.15	270.9	5.418
380.15	274.1	5.482
385.15	277.6	5.552
390.15	281.6	5.632
395.15	285.3	5.706
400.15	289.2	5.784
405.15	292.9	5.858
410.15	296.6	5.932
415.15	300.7	6.014
420.15	305.1	6.102
