Measured thermophysical data. Electrical Conductivities, Viscosities, and Densities of N-Methoxymethyl- and N-Butyl-N-methylpyrrolidinium Ionic Liquids with the Bis(fluorosulfonyl)amide Anion
Source: J. Chem. Eng. Data, 2012, 10.1021/je200864h
Compound 1: N-butyl-N-methylpyrrolidinium bis(fluorosulfonyl)amide, C9H20F2N2O4S2, purity 99%
Compound 2: N-methoxymethyl-N-methylpyrrolidinium bis(fluorosulfonyl)amide, C7H16F2N2O4S2, purity 99%

System: N-butyl-N-methylpyrrolidinium bis(fluorosulfonyl)amide; phases: Liquid
Property: Mass density, kg/m3 (Liquid); method: Vibrating tube method
Pressure, kPa	Temperature, K	Mass density, kg/m3	uncertainty
101.325	273.15	1326.81	.05
101.325	278.15	1322.77	.05
101.325	283.15	1318.75	.05
101.325	288.15	1314.76	.05
101.325	293.15	1310.79	.05
101.325	298.15	1306.86	.05
101.325	303.15	1302.94	.05
101.325	313.15	1295.18	.05
101.325	323.15	1287.5	.05
101.325	333.15	1279.89	.05
101.325	343.15	1272.35	.05
101.325	353.15	1264.88	.05
101.325	363.15	1257.47	.05

System: N-butyl-N-methylpyrrolidinium bis(fluorosulfonyl)amide; phases: Liquid
Property: Viscosity, Pa*s (Liquid); method: rotating cylinder viscometer
Pressure, kPa	Temperature, K	Viscosity, Pa*s	uncertainty
101.325	273.15	.15323	.0030646
101.325	278.15	.12049	.0024098
101.325	283.15	.09624	.0019248
101.325	288.15	.07805	.001561
101.325	293.15	.06413	.0012826
101.325	298.15	.05324	.0010648
101.325	303.15	.04476	.0008952
101.325	313.15	.03272	.0006544
101.325	323.15	.02472	.0004944
101.325	333.15	.01919	.0003838
101.325	343.15	.0153	.000306
101.325	353.15	.01243	.0002486
101.325	363.15	.01028	.0002056

System: N-butyl-N-methylpyrrolidinium bis(fluorosulfonyl)amide; phases: Liquid
Property: Electrical conductivity, S/m (Liquid); method: Alternating current cell with electrodes
Pressure, kPa	Temperature, K	Electrical conductivity, S/m	uncertainty
101.325	273.15	.236	.00472
101.325	278.15	.295	.0059
101.325	283.15	.363	.00726
101.325	288.15	.439	.00878
101.325	293.15	.525	.0105
101.325	298.15	.619	.01238
101.325	303.15	.722	.01444
101.325	313.15	.959	.01918
101.325	323.15	1.231	.02462
101.325	333.15	1.538	.03076
101.325	343.15	1.865	.0373
101.325	353.15	2.23	.0446

System: N-methoxymethyl-N-methylpyrrolidinium bis(fluorosulfonyl)amide; phases: Liquid
Property: Mass density, kg/m3 (Liquid); method: Vibrating tube method
Pressure, kPa	Temperature, K	Mass density, kg/m3	uncertainty
101.325	273.15	1427.09	.05
101.325	278.15	1422.56	.05
101.325	283.15	1418.07	.05
101.325	288.15	1413.61	.05
101.325	293.15	1409.17	.05
101.325	298.15	1404.75	.05
101.325	303.15	1400.37	.05
101.325	313.15	1391.69	.05
101.325	323.15	1383.09	.05
101.325	333.15	1374.59	.05
101.325	343.15	1366.16	.05
101.325	353.15	1357.81	.05
101.325	363.15	1349.52	.05

System: N-methoxymethyl-N-methylpyrrolidinium bis(fluorosulfonyl)amide; phases: Liquid
Property: Viscosity, Pa*s (Liquid); method: rotating cylinder viscometer
Pressure, kPa	Temperature, K	Viscosity, Pa*s	uncertainty
101.325	273.15	.06787	.0013574
101.325	278.15	.05569	.0011138
101.325	283.15	.04631	.0009262
101.325	288.15	.039	.00078
101.325	293.15	.0332	.000664
101.325	298.15	.0285	.00057
101.325	303.15	.02471	.0004942
101.325	313.15	.01907	.0003814
101.325	323.15	.01514	.0003028
101.325	333.15	.01224	.0002448
101.325	343.15	.01011	.0002022
101.325	353.15	.00848	.0001696
101.325	363.15	.00722	.0001444

System: N-methoxymethyl-N-methylpyrrolidinium bis(fluorosulfonyl)amide; phases: Liquid
Property: Electrical conductivity, S/m (Liquid); method: Alternating current cell with electrodes
Pressure, kPa	Temperature, K	Electrical conductivity, S/m	uncertainty
101.325	273.15	.46	.0092
101.325	278.15	.554	.01108
101.325	283.15	.659	.01318
101.325	288.15	.772	.01544
101.325	293.15	.898	.01796
101.325	298.15	1.033	.02066
101.325	303.15	1.178	.02356
101.325	313.15	1.492	.02984
101.325	323.15	1.841	.03682
101.325	333.15	2.222	.04444
101.325	343.15	2.636	.05272
101.325	353.15	3.068	.06136
