Measured thermophysical data. Comparison between Dicationic and Monocationic Ionic Liquids: Liquid Density, Thermal Properties, Surface Tension, and Shear Viscosity
Source: J. Chem. Eng. Data, 2011, 10.1021/je2000183
Compound 1: [C2mim][NTf2], C8H11F6N3O4S2
Compound 2: 1-ethyl-3-methylimidazolium bis(perfluoroethylsulfonyl)imide, C10H11F10N3O4S2
Compound 3: 1-ethyl-3-methylimidazolium tetrafluoroborate, C6H11BF4N2
Compound 4: 1-ethyl-3-methylimidazolium nitrate, C6H11N3O3
Compound 5: 1-propyl-3-methylimidazolium tetrafluoroborate, C7H13BF4N2
Compound 6: [C4mim] [NTf2], C10H15F6N3O4S2
Compound 7: 1-butyl-3-methylimidazolium tetrafluoroborate, C8H15BF4N2
Compound 8: 1-butyl-3-methylimidazolium nitrate, C8H15N3O3
Compound 9: 1-methyl-3-propylimidazolium bis[(trifluoromethyl)sulfonyl]imide, C9H13F6N3O4S2
Compound 10: 1-methyl-3-propylimidazolium 1,1,2,2,2-pentafluoro-N-[(1,1,2,2,2-pentafluoroethyl)sulfonyl]ethanesulfonamide, C11H13F10N3O4S2
Compound 11: 1-methyl-3-propylimidazolium nitrate, C7H13N3O3
Compound 12: 1-butyl-3-methylimidazolium bis(perfluoroethylsulfonyl)imide, C12H15F10N3O4S2
Compound 13: 1-pentyl-3-methylimidazolium bis(trifluoromethylsulfonyl)imide, C10H15F6N3O4S2
Compound 14: 1-methyl-3-pentylimidazolium 1,1,2,2,2-pentafluoro-N-[(1,1,2,2,2-pentafluoroethyl)sulfonyl]ethanesulfonamide, C13H17F10N3O4S2
Compound 15: [pmim][BF4], C9H17N2BF4
Compound 16: 1-methyl-3-pentylimidazolium nitrate, C9H17N3O3
Compound 17: 1-hexyl-3-methylimidazolium bis[(trifluoromethyl)sulfonyl]imide, C12H19F6N3O4S2
Compound 18: 1-hexyl-3-methylimidazolium bis(perfluoroethylsulfonyl)imide, C5F10NO4S2
Compound 19: 1-hexyl-3-methylimidazolium tetrafluoroborate, C10H19BF4N2
Compound 20: 1-hexyl-3-methylimidazolium nitrate, C10H19N3O3
Compound 21: 3,3'-(1,4-butanediyl)bis[1-methylimidazolium] 1,1,1-trifluoro-N-[(trifluoromethyl)sulfonyl]methanesulfonamide, C16H20F12N6O8S4
Compound 22: 3,3'-(1,4-butanediyl)bis[1-methylimidazolium] 1,1,2,2,2-pentafluoro-N-[(1,1,2,2,2-pentafluoroethyl)sulfonyl]ethanesulfonamide, C20H20F20N6O8S4
Compound 23: 3,3'-(1,4-butanediyl)bis[1-methylimidazolium] tetrafluoroborate, C12H20B2F8N4
Compound 24: 3,3'-(1,4-butanediyl)bis[1-methylimidazolium] nitrate, C12H20N6O6
Compound 25: 3,3'-(1,5-pentanediyl)bis[1-methylimidazolium] 1,1,1-trifluoro-N-[(trifluoromethyl)sulfonyl]methanesulfonamide, C17H22F12N6O8S4
Compound 26: 3,3'-(1,5-pentanediyl)bis[1-methylimidazolium] 1,1,2,2,2-pentafluoro-N-[(1,1,2,2,2-pentafluoroethyl)sulfonyl]ethanesulfonamide, C21H22F20N6O8S4
Compound 27: 3,3'-(1,5-pentanediyl)bis[1-methylimidazolium] tetrafluoroborate, C13H22B2F8N4
Compound 28: 3,3'-(1,5-pentanediyl)bis[1-methylimidazolium] nitrate, C13H22N6O6
Compound 29: 3,3'-(1,6-hexanediyl)bis[1-methylimidazolium] 1,1,1-trifluoro-N-[(trifluoromethyl)sulfonyl]methanesulfonamide, C18H24F12N6O8S4
Compound 30: 3,3'-(1,6-hexanediyl)bis[1-methylimidazolium] 1,1,2,2,2-pentafluoro-N-[(1,1,2,2,2-pentafluoroethyl)sulfonyl]ethanesulfonamide, C22H24F20N6O8S4
Compound 31: 3,3'-(1,6-hexanediyl)bis[1-methylimidazolium] tetrafluoroborate, C14H24B2F8N4
Compound 32: 3,3'-(1,6-hexanediyl)bis[1-methylimidazolium] nitrate, C14H24N6O6
Compound 33: 3,3'-(1,8-octanediyl)bis[1-methylimidazolium] 1,1,1-trifluoro-N-[(trifluoromethyl)sulfonyl]methanesulfonamide, C20H28F12N6O8S4
Compound 34: 3,3'-(1,8-octanediyl)bis[1-methylimidazolium] 1,1,2,2,2-pentafluoro-N-[(1,1,2,2,2-pentafluoroethyl)sulfonyl]ethanesulfonamide, C24H28F20N6O8S4
Compound 35: 3,3'-(1,8-octanediyl)bis[1-methylimidazolium] tetrafluoroborate, C16H28B2F8N4
Compound 36: 3,3'-(1,8-octanediyl)bis[1-methylimidazolium] nitrate, C16H28N6O6
Compound 37: 3,3'-(1,9-nonanediyl)bis[1-methylimidazolium] 1,1,1-trifluoro-N-[(trifluoromethyl)sulfonyl]methanesulfonamide, C21H30F12N6O8S4
Compound 38: 3,3'-(1,9-nonanediyl)bis[1-methylimidazolium] 1,1,2,2,2-pentafluoro-N-[(1,1,2,2,2-pentafluoroethyl)sulfonyl]ethanesulfonamide, C25H30F20N6O8S4
Compound 39: 3,3'-(1,9-nonanediyl)bis[1-methylimidazolium] tetrafluoroborate, C17H30B2F8N4
Compound 40: 3,3'-(1,9-nonanediyl)bis[1-methylimidazolium] nitrate, C17H30N6O6
Compound 41: 3,3'-(1,10-decanediyl)bis[1-methylimidazolium] 1,1,1-trifluoro-N-[(trifluoromethyl)sulfonyl]methanesulfonamide, C22H32F12N6O8S4
Compound 42: 3,3'-(1,10-decanediyl)bis[1-methylimidazolium] 1,1,2,2,2-pentafluoro-N-[(1,1,2,2,2-pentafluoroethyl)sulfonyl]ethanesulfonamide, C26H32F20N6O8S4
Compound 43: 3,3'-(1,10-decanediyl)bis[1-methylimidazolium] tetrafluoroborate, C18H32B2F8N4
Compound 44: 3,3'-(1,10-decanediyl)bis[1-methylimidazolium] nitrate, C18H32N6O6
Compound 45: 3,3'-(1,12-dodecanediyl)bis[1-methylimidazolium] 1,1,1-trifluoro-N-[(trifluoromethyl)sulfonyl]methanesulfonamide, C24H36F12N6O8S4
Compound 46: 3,3'-(1,12-dodecanediyl)bis[1-methylimidazolium] 1,1,2,2,2-pentafluoro-N-[(1,1,2,2,2-pentafluoroethyl)sulfonyl]ethanesulfonamide, C28H36N6O8S4
Compound 47: 3,3'-(1,12-dodecanediyl)bis[1-methylimidazolium] tetrafluoroborate, C20H36B2F8N4
Compound 48: 3,3'-(1,12-dodecanediyl)bis[1-methylimidazolium] nitrate, C20H36N6O6

System: [C2mim][NTf2]; phases: Glass, Liquid, Air at 1 atmosphere
Property: Triple point temperature, K (Glass); method: DSC/DTA
Triple point temperature, K	uncertainty
183.7	.7

System: [C2mim][NTf2]; phases: Crystal, Liquid, Air at 1 atmosphere
Property: Triple point temperature, K (Crystal); method: DSC/DTA
Triple point temperature, K	uncertainty
269.9	.7

System: [C2mim][NTf2]; phases: Liquid
Fixed: Pressure, kPa = 101.325
Property: Mass density, kg/m3 (Liquid); method: Vibrating tube method
Temperature, K	Mass density, kg/m3	uncertainty
297	1520	

System: [C2mim][NTf2]; phases: Liquid, Gas
Property: Surface tension liquid-gas, N/m (Liquid); method: Ring tensiometer
Temperature, K	Surface tension liquid-gas, N/m	uncertainty
297	.038	.0019

System: 1-ethyl-3-methylimidazolium bis(perfluoroethylsulfonyl)imide; phases: Crystal, Liquid, Air at 1 atmosphere
Property: Triple point temperature, K (Crystal); method: DSC/DTA
Triple point temperature, K	uncertainty
288.2	.7

System: 1-ethyl-3-methylimidazolium bis(perfluoroethylsulfonyl)imide; phases: Liquid
Fixed: Pressure, kPa = 101.325
Property: Mass density, kg/m3 (Liquid); method: Vibrating tube method
Temperature, K	Mass density, kg/m3	uncertainty
297	1594	

System: 1-ethyl-3-methylimidazolium bis(perfluoroethylsulfonyl)imide; phases: Liquid, Gas
Property: Surface tension liquid-gas, N/m (Liquid); method: Ring tensiometer
Temperature, K	Surface tension liquid-gas, N/m	uncertainty
297	.0339	.001695

System: 1-ethyl-3-methylimidazolium tetrafluoroborate; phases: Glass, Liquid, Air at 1 atmosphere
Property: Triple point temperature, K (Glass); method: DSC/DTA
Triple point temperature, K	uncertainty
182.4	.7

System: 1-ethyl-3-methylimidazolium tetrafluoroborate; phases: Crystal, Liquid, Air at 1 atmosphere
Property: Triple point temperature, K (Crystal); method: DSC/DTA
Triple point temperature, K	uncertainty
287.8	.7

System: 1-ethyl-3-methylimidazolium tetrafluoroborate; phases: Liquid
Fixed: Pressure, kPa = 101.325
Property: Mass density, kg/m3 (Liquid); method: Vibrating tube method
Temperature, K	Mass density, kg/m3	uncertainty
297	1279	

System: 1-ethyl-3-methylimidazolium tetrafluoroborate; phases: Liquid, Gas
Property: Surface tension liquid-gas, N/m (Liquid); method: Ring tensiometer
Temperature, K	Surface tension liquid-gas, N/m	uncertainty
297	.0544	.00272

System: 1-ethyl-3-methylimidazolium nitrate; phases: Crystal, Liquid, Air at 1 atmosphere
Property: Triple point temperature, K (Crystal); method: DSC/DTA
Triple point temperature, K	uncertainty
303.9	.7

System: 1-propyl-3-methylimidazolium tetrafluoroborate; phases: Glass, Liquid, Air at 1 atmosphere
Property: Triple point temperature, K (Glass); method: DSC/DTA
Triple point temperature, K	uncertainty
182.9	.7

System: 1-propyl-3-methylimidazolium tetrafluoroborate; phases: Crystal, Liquid, Air at 1 atmosphere
Property: Triple point temperature, K (Crystal); method: DSC/DTA
Triple point temperature, K	uncertainty
274.6	.7

System: 1-propyl-3-methylimidazolium tetrafluoroborate; phases: Liquid
Fixed: Pressure, kPa = 101.325
Property: Mass density, kg/m3 (Liquid); method: Vibrating tube method
Temperature, K	Mass density, kg/m3	uncertainty
297	1237	

System: 1-propyl-3-methylimidazolium tetrafluoroborate; phases: Liquid, Gas
Property: Surface tension liquid-gas, N/m (Liquid); method: Ring tensiometer
Temperature, K	Surface tension liquid-gas, N/m	uncertainty
297	.0511	.002555

System: [C4mim] [NTf2]; phases: Glass, Liquid, Air at 1 atmosphere
Property: Triple point temperature, K (Glass); method: DSC/DTA
Triple point temperature, K	uncertainty
188.1	.7

System: [C4mim] [NTf2]; phases: Crystal, Liquid, Air at 1 atmosphere
Property: Triple point temperature, K (Crystal); method: DSC/DTA
Triple point temperature, K	uncertainty
269.2	.7

System: [C4mim] [NTf2]; phases: Liquid
Fixed: Pressure, kPa = 101.325
Property: Mass density, kg/m3 (Liquid); method: Vibrating tube method
Temperature, K	Mass density, kg/m3	uncertainty
297	1438	

System: [C4mim] [NTf2]; phases: Liquid, Gas
Property: Surface tension liquid-gas, N/m (Liquid); method: Ring tensiometer
Temperature, K	Surface tension liquid-gas, N/m	uncertainty
297	.0349	.001745

System: 1-butyl-3-methylimidazolium tetrafluoroborate; phases: Glass, Liquid, Air at 1 atmosphere
Property: Triple point temperature, K (Glass); method: DSC/DTA
Triple point temperature, K	uncertainty
186.3	.7

System: 1-butyl-3-methylimidazolium tetrafluoroborate; phases: Liquid
Fixed: Pressure, kPa = 101.325
Property: Mass density, kg/m3 (Liquid); method: Vibrating tube method
Temperature, K	Mass density, kg/m3	uncertainty
297	1201	

System: 1-butyl-3-methylimidazolium tetrafluoroborate; phases: Liquid, Gas
Property: Surface tension liquid-gas, N/m (Liquid); method: Ring tensiometer
Temperature, K	Surface tension liquid-gas, N/m	uncertainty
297	.0469	.002345

System: 1-butyl-3-methylimidazolium nitrate; phases: Glass, Liquid, Air at 1 atmosphere
Property: Triple point temperature, K (Glass); method: DSC/DTA
Triple point temperature, K	uncertainty
187.6	.7

System: 1-butyl-3-methylimidazolium nitrate; phases: Crystal, Liquid, Air at 1 atmosphere
Property: Triple point temperature, K (Crystal); method: DSC/DTA
Triple point temperature, K	uncertainty
296.3	.7

System: 1-butyl-3-methylimidazolium nitrate; phases: Liquid
Fixed: Pressure, kPa = 101.325
Property: Mass density, kg/m3 (Liquid); method: Vibrating tube method
Temperature, K	Mass density, kg/m3	uncertainty
297	1153	

System: 1-butyl-3-methylimidazolium nitrate; phases: Liquid, Gas
Property: Surface tension liquid-gas, N/m (Liquid); method: Ring tensiometer
Temperature, K	Surface tension liquid-gas, N/m	uncertainty
297	.0505	.002525

System: 1-methyl-3-propylimidazolium bis[(trifluoromethyl)sulfonyl]imide; phases: Glass, Liquid, Air at 1 atmosphere
Property: Triple point temperature, K (Glass); method: DSC/DTA
Triple point temperature, K	uncertainty
185.8	.7

System: 1-methyl-3-propylimidazolium bis[(trifluoromethyl)sulfonyl]imide; phases: Liquid
Fixed: Pressure, kPa = 101.325
Property: Mass density, kg/m3 (Liquid); method: Vibrating tube method
Temperature, K	Mass density, kg/m3	uncertainty
297	1476	

System: 1-methyl-3-propylimidazolium bis[(trifluoromethyl)sulfonyl]imide; phases: Liquid, Gas
Property: Surface tension liquid-gas, N/m (Liquid); method: Ring tensiometer
Temperature, K	Surface tension liquid-gas, N/m	uncertainty
297	.0359	.001795

System: 1-methyl-3-propylimidazolium 1,1,2,2,2-pentafluoro-N-[(1,1,2,2,2-pentafluoroethyl)sulfonyl]ethanesulfonamide; phases: Glass, Liquid, Air at 1 atmosphere
Property: Triple point temperature, K (Glass); method: DSC/DTA
Triple point temperature, K	uncertainty
190.3	.7

System: 1-methyl-3-propylimidazolium 1,1,2,2,2-pentafluoro-N-[(1,1,2,2,2-pentafluoroethyl)sulfonyl]ethanesulfonamide; phases: Liquid
Fixed: Pressure, kPa = 101.325
Property: Mass density, kg/m3 (Liquid); method: Vibrating tube method
Temperature, K	Mass density, kg/m3	uncertainty
297	1552	

System: 1-methyl-3-propylimidazolium 1,1,2,2,2-pentafluoro-N-[(1,1,2,2,2-pentafluoroethyl)sulfonyl]ethanesulfonamide; phases: Liquid, Gas
Property: Surface tension liquid-gas, N/m (Liquid); method: Ring tensiometer
Temperature, K	Surface tension liquid-gas, N/m	uncertainty
297	.0329	.001645

System: 1-methyl-3-propylimidazolium nitrate; phases: Glass, Liquid, Air at 1 atmosphere
Property: Triple point temperature, K (Glass); method: DSC/DTA
Triple point temperature, K	uncertainty
190	.7

System: 1-methyl-3-propylimidazolium nitrate; phases: Liquid
Fixed: Pressure, kPa = 101.325
Property: Mass density, kg/m3 (Liquid); method: Vibrating tube method
Temperature, K	Mass density, kg/m3	uncertainty
297	1184	

System: 1-methyl-3-propylimidazolium nitrate; phases: Liquid, Gas
Property: Surface tension liquid-gas, N/m (Liquid); method: Ring tensiometer
Temperature, K	Surface tension liquid-gas, N/m	uncertainty
297	.0545	.002725

System: 1-butyl-3-methylimidazolium bis(perfluoroethylsulfonyl)imide; phases: Glass, Liquid, Air at 1 atmosphere
Property: Triple point temperature, K (Glass); method: DSC/DTA
Triple point temperature, K	uncertainty
191.1	.7

System: 1-butyl-3-methylimidazolium bis(perfluoroethylsulfonyl)imide; phases: Liquid
Fixed: Pressure, kPa = 101.325
Property: Mass density, kg/m3 (Liquid); method: Vibrating tube method
Temperature, K	Mass density, kg/m3	uncertainty
297	1514	

System: 1-butyl-3-methylimidazolium bis(perfluoroethylsulfonyl)imide; phases: Liquid, Gas
Property: Surface tension liquid-gas, N/m (Liquid); method: Ring tensiometer
Temperature, K	Surface tension liquid-gas, N/m	uncertainty
297	.0317	.001585

System: 1-pentyl-3-methylimidazolium bis(trifluoromethylsulfonyl)imide; phases: Glass, Liquid, Air at 1 atmosphere
Property: Triple point temperature, K (Glass); method: DSC/DTA
Triple point temperature, K	uncertainty
189.6	.7

System: 1-pentyl-3-methylimidazolium bis(trifluoromethylsulfonyl)imide; phases: Crystal, Liquid, Air at 1 atmosphere
Property: Triple point temperature, K (Crystal); method: DSC/DTA
Triple point temperature, K	uncertainty
267.1	.7

System: 1-pentyl-3-methylimidazolium bis(trifluoromethylsulfonyl)imide; phases: Liquid
Fixed: Pressure, kPa = 101.325
Property: Mass density, kg/m3 (Liquid); method: Vibrating tube method
Temperature, K	Mass density, kg/m3	uncertainty
297	1403	

System: 1-pentyl-3-methylimidazolium bis(trifluoromethylsulfonyl)imide; phases: Liquid, Gas
Property: Surface tension liquid-gas, N/m (Liquid); method: Ring tensiometer
Temperature, K	Surface tension liquid-gas, N/m	uncertainty
297	.034	.0017

System: 1-methyl-3-pentylimidazolium 1,1,2,2,2-pentafluoro-N-[(1,1,2,2,2-pentafluoroethyl)sulfonyl]ethanesulfonamide; phases: Glass, Liquid, Air at 1 atmosphere
Property: Triple point temperature, K (Glass); method: DSC/DTA
Triple point temperature, K	uncertainty
192.5	.7

System: 1-methyl-3-pentylimidazolium 1,1,2,2,2-pentafluoro-N-[(1,1,2,2,2-pentafluoroethyl)sulfonyl]ethanesulfonamide; phases: Liquid
Fixed: Pressure, kPa = 101.325
Property: Mass density, kg/m3 (Liquid); method: Vibrating tube method
Temperature, K	Mass density, kg/m3	uncertainty
297	1480	

System: 1-methyl-3-pentylimidazolium 1,1,2,2,2-pentafluoro-N-[(1,1,2,2,2-pentafluoroethyl)sulfonyl]ethanesulfonamide; phases: Liquid, Gas
Property: Surface tension liquid-gas, N/m (Liquid); method: Ring tensiometer
Temperature, K	Surface tension liquid-gas, N/m	uncertainty
297	.0311	.001555

System: [pmim][BF4]; phases: Glass, Liquid, Air at 1 atmosphere
Property: Triple point temperature, K (Glass); method: DSC/DTA
Triple point temperature, K	uncertainty
185.9	.7

System: [pmim][BF4]; phases: Liquid
Fixed: Pressure, kPa = 101.325
Property: Mass density, kg/m3 (Liquid); method: Vibrating tube method
Temperature, K	Mass density, kg/m3	uncertainty
297	1173	

System: [pmim][BF4]; phases: Liquid, Gas
Property: Surface tension liquid-gas, N/m (Liquid); method: Ring tensiometer
Temperature, K	Surface tension liquid-gas, N/m	uncertainty
297	.0428	.00214

System: 1-methyl-3-pentylimidazolium nitrate; phases: Glass, Liquid, Air at 1 atmosphere
Property: Triple point temperature, K (Glass); method: DSC/DTA
Triple point temperature, K	uncertainty
197	.7

System: 1-methyl-3-pentylimidazolium nitrate; phases: Liquid
Fixed: Pressure, kPa = 101.325
Property: Mass density, kg/m3 (Liquid); method: Vibrating tube method
Temperature, K	Mass density, kg/m3	uncertainty
297	1127	

System: 1-methyl-3-pentylimidazolium nitrate; phases: Liquid, Gas
Property: Surface tension liquid-gas, N/m (Liquid); method: Ring tensiometer
Temperature, K	Surface tension liquid-gas, N/m	uncertainty
297	.0428	.00214

System: 1-hexyl-3-methylimidazolium bis[(trifluoromethyl)sulfonyl]imide; phases: Glass, Liquid, Air at 1 atmosphere
Property: Triple point temperature, K (Glass); method: DSC/DTA
Triple point temperature, K	uncertainty
190.4	.7

System: 1-hexyl-3-methylimidazolium bis[(trifluoromethyl)sulfonyl]imide; phases: Crystal, Liquid, Air at 1 atmosphere
Property: Triple point temperature, K (Crystal); method: DSC/DTA
Triple point temperature, K	uncertainty
265.9	.7

System: 1-hexyl-3-methylimidazolium bis[(trifluoromethyl)sulfonyl]imide; phases: Liquid
Fixed: Pressure, kPa = 101.325
Property: Mass density, kg/m3 (Liquid); method: Vibrating tube method
Temperature, K	Mass density, kg/m3	uncertainty
297	1373	

System: 1-hexyl-3-methylimidazolium bis[(trifluoromethyl)sulfonyl]imide; phases: Liquid, Gas
Property: Surface tension liquid-gas, N/m (Liquid); method: Ring tensiometer
Temperature, K	Surface tension liquid-gas, N/m	uncertainty
297	.0338	.00169

System: 1-hexyl-3-methylimidazolium bis(perfluoroethylsulfonyl)imide; phases: Glass, Liquid, Air at 1 atmosphere
Property: Triple point temperature, K (Glass); method: DSC/DTA
Triple point temperature, K	uncertainty
193.4	.7

System: 1-hexyl-3-methylimidazolium bis(perfluoroethylsulfonyl)imide; phases: Liquid
Fixed: Pressure, kPa = 101.325
Property: Mass density, kg/m3 (Liquid); method: Vibrating tube method
Temperature, K	Mass density, kg/m3	uncertainty
297	1450	

System: 1-hexyl-3-methylimidazolium bis(perfluoroethylsulfonyl)imide; phases: Liquid, Gas
Property: Surface tension liquid-gas, N/m (Liquid); method: Ring tensiometer
Temperature, K	Surface tension liquid-gas, N/m	uncertainty
297	.0303	.001515

System: 1-hexyl-3-methylimidazolium tetrafluoroborate; phases: Glass, Liquid, Air at 1 atmosphere
Property: Triple point temperature, K (Glass); method: DSC/DTA
Triple point temperature, K	uncertainty
190	.7

System: 1-hexyl-3-methylimidazolium tetrafluoroborate; phases: Liquid
Fixed: Pressure, kPa = 101.325
Property: Mass density, kg/m3 (Liquid); method: Vibrating tube method
Temperature, K	Mass density, kg/m3	uncertainty
297	1155	

System: 1-hexyl-3-methylimidazolium tetrafluoroborate; phases: Liquid, Gas
Property: Surface tension liquid-gas, N/m (Liquid); method: Ring tensiometer
Temperature, K	Surface tension liquid-gas, N/m	uncertainty
297	.0395	.001975

System: 1-hexyl-3-methylimidazolium nitrate; phases: Glass, Liquid, Air at 1 atmosphere
Property: Triple point temperature, K (Glass); method: DSC/DTA
Triple point temperature, K	uncertainty
198.6	.7

System: 1-hexyl-3-methylimidazolium nitrate; phases: Liquid
Fixed: Pressure, kPa = 101.325
Property: Mass density, kg/m3 (Liquid); method: Vibrating tube method
Temperature, K	Mass density, kg/m3	uncertainty
297	1103	

System: 1-hexyl-3-methylimidazolium nitrate; phases: Liquid, Gas
Property: Surface tension liquid-gas, N/m (Liquid); method: Ring tensiometer
Temperature, K	Surface tension liquid-gas, N/m	uncertainty
297	.0399	.001995

System: 3,3'-(1,4-butanediyl)bis[1-methylimidazolium] 1,1,1-trifluoro-N-[(trifluoromethyl)sulfonyl]methanesulfonamide; phases: Crystal, Liquid, Air at 1 atmosphere
Property: Triple point temperature, K (Crystal); method: DSC/DTA
Triple point temperature, K	uncertainty
332.5	.7

System: 3,3'-(1,4-butanediyl)bis[1-methylimidazolium] 1,1,2,2,2-pentafluoro-N-[(1,1,2,2,2-pentafluoroethyl)sulfonyl]ethanesulfonamide; phases: Crystal, Liquid, Air at 1 atmosphere
Property: Triple point temperature, K (Crystal); method: DSC/DTA
Triple point temperature, K	uncertainty
320.4	.7

System: 3,3'-(1,4-butanediyl)bis[1-methylimidazolium] tetrafluoroborate; phases: Crystal, Liquid, Air at 1 atmosphere
Property: Triple point temperature, K (Crystal); method: DSC/DTA
Triple point temperature, K	uncertainty
372.3	.7

System: 3,3'-(1,4-butanediyl)bis[1-methylimidazolium] nitrate; phases: Crystal, Liquid, Air at 1 atmosphere
Property: Triple point temperature, K (Crystal); method: DSC/DTA
Triple point temperature, K	uncertainty
411	.7

System: 3,3'-(1,5-pentanediyl)bis[1-methylimidazolium] 1,1,1-trifluoro-N-[(trifluoromethyl)sulfonyl]methanesulfonamide; phases: Glass, Liquid, Air at 1 atmosphere
Property: Triple point temperature, K (Glass); method: DSC/DTA
Triple point temperature, K	uncertainty
209.9	.7

System: 3,3'-(1,5-pentanediyl)bis[1-methylimidazolium] 1,1,1-trifluoro-N-[(trifluoromethyl)sulfonyl]methanesulfonamide; phases: Liquid
Fixed: Pressure, kPa = 101.325
Property: Mass density, kg/m3 (Liquid); method: Vibrating tube method
Temperature, K	Mass density, kg/m3	uncertainty
297	1570	

System: 3,3'-(1,5-pentanediyl)bis[1-methylimidazolium] 1,1,1-trifluoro-N-[(trifluoromethyl)sulfonyl]methanesulfonamide; phases: Liquid, Gas
Property: Surface tension liquid-gas, N/m (Liquid); method: Ring tensiometer
Temperature, K	Surface tension liquid-gas, N/m	uncertainty
297	.0417	.002085

System: 3,3'-(1,5-pentanediyl)bis[1-methylimidazolium] 1,1,2,2,2-pentafluoro-N-[(1,1,2,2,2-pentafluoroethyl)sulfonyl]ethanesulfonamide; phases: Crystal, Liquid, Air at 1 atmosphere
Property: Triple point temperature, K (Crystal); method: DSC/DTA
Triple point temperature, K	uncertainty
287.6	.7

System: 3,3'-(1,5-pentanediyl)bis[1-methylimidazolium] 1,1,2,2,2-pentafluoro-N-[(1,1,2,2,2-pentafluoroethyl)sulfonyl]ethanesulfonamide; phases: Liquid
Fixed: Pressure, kPa = 101.325
Property: Mass density, kg/m3 (Liquid); method: Vibrating tube method
Temperature, K	Mass density, kg/m3	uncertainty
297	1639	

System: 3,3'-(1,5-pentanediyl)bis[1-methylimidazolium] 1,1,2,2,2-pentafluoro-N-[(1,1,2,2,2-pentafluoroethyl)sulfonyl]ethanesulfonamide; phases: Liquid, Gas
Property: Surface tension liquid-gas, N/m (Liquid); method: Ring tensiometer
Temperature, K	Surface tension liquid-gas, N/m	uncertainty
297	.0378	.00189

System: 3,3'-(1,5-pentanediyl)bis[1-methylimidazolium] tetrafluoroborate; phases: Crystal, Liquid, Air at 1 atmosphere
Property: Triple point temperature, K (Crystal); method: DSC/DTA
Triple point temperature, K	uncertainty
390.9	.7

System: 3,3'-(1,5-pentanediyl)bis[1-methylimidazolium] nitrate; phases: Crystal, Liquid, Air at 1 atmosphere
Property: Triple point temperature, K (Crystal); method: DSC/DTA
Triple point temperature, K	uncertainty
421.3	.7

System: 3,3'-(1,6-hexanediyl)bis[1-methylimidazolium] 1,1,1-trifluoro-N-[(trifluoromethyl)sulfonyl]methanesulfonamide; phases: Glass, Liquid, Air at 1 atmosphere
Property: Triple point temperature, K (Glass); method: DSC/DTA
Triple point temperature, K	uncertainty
209.9	.7

System: 3,3'-(1,6-hexanediyl)bis[1-methylimidazolium] 1,1,1-trifluoro-N-[(trifluoromethyl)sulfonyl]methanesulfonamide; phases: Liquid
Fixed: Pressure, kPa = 101.325
Property: Mass density, kg/m3 (Liquid); method: Vibrating tube method
Temperature, K	Mass density, kg/m3	uncertainty
297	1546	

System: 3,3'-(1,6-hexanediyl)bis[1-methylimidazolium] 1,1,1-trifluoro-N-[(trifluoromethyl)sulfonyl]methanesulfonamide; phases: Liquid, Gas
Property: Surface tension liquid-gas, N/m (Liquid); method: Ring tensiometer
Temperature, K	Surface tension liquid-gas, N/m	uncertainty
297	.0411	.002055

System: 3,3'-(1,6-hexanediyl)bis[1-methylimidazolium] 1,1,2,2,2-pentafluoro-N-[(1,1,2,2,2-pentafluoroethyl)sulfonyl]ethanesulfonamide; phases: Glass, Liquid, Air at 1 atmosphere
Property: Triple point temperature, K (Glass); method: DSC/DTA
Triple point temperature, K	uncertainty
220.4	.7

System: 3,3'-(1,6-hexanediyl)bis[1-methylimidazolium] 1,1,2,2,2-pentafluoro-N-[(1,1,2,2,2-pentafluoroethyl)sulfonyl]ethanesulfonamide; phases: Crystal, Liquid, Air at 1 atmosphere
Property: Triple point temperature, K (Crystal); method: DSC/DTA
Triple point temperature, K	uncertainty
278.3	.7

System: 3,3'-(1,6-hexanediyl)bis[1-methylimidazolium] 1,1,2,2,2-pentafluoro-N-[(1,1,2,2,2-pentafluoroethyl)sulfonyl]ethanesulfonamide; phases: Liquid
Fixed: Pressure, kPa = 101.325
Property: Mass density, kg/m3 (Liquid); method: Vibrating tube method
Temperature, K	Mass density, kg/m3	uncertainty
297	1615	

System: 3,3'-(1,6-hexanediyl)bis[1-methylimidazolium] 1,1,2,2,2-pentafluoro-N-[(1,1,2,2,2-pentafluoroethyl)sulfonyl]ethanesulfonamide; phases: Liquid, Gas
Property: Surface tension liquid-gas, N/m (Liquid); method: Ring tensiometer
Temperature, K	Surface tension liquid-gas, N/m	uncertainty
297	.0374	.00187

System: 3,3'-(1,6-hexanediyl)bis[1-methylimidazolium] tetrafluoroborate; phases: Crystal, Liquid, Air at 1 atmosphere
Property: Triple point temperature, K (Crystal); method: DSC/DTA
Triple point temperature, K	uncertainty
403.9	.7

System: 3,3'-(1,6-hexanediyl)bis[1-methylimidazolium] nitrate; phases: Crystal, Liquid, Air at 1 atmosphere
Property: Triple point temperature, K (Crystal); method: DSC/DTA
Triple point temperature, K	uncertainty
444.1	.7

System: 3,3'-(1,8-octanediyl)bis[1-methylimidazolium] 1,1,1-trifluoro-N-[(trifluoromethyl)sulfonyl]methanesulfonamide; phases: Glass, Liquid, Air at 1 atmosphere
Property: Triple point temperature, K (Glass); method: DSC/DTA
Triple point temperature, K	uncertainty
212	.7

System: 3,3'-(1,8-octanediyl)bis[1-methylimidazolium] 1,1,1-trifluoro-N-[(trifluoromethyl)sulfonyl]methanesulfonamide; phases: Liquid
Fixed: Pressure, kPa = 101.325
Property: Mass density, kg/m3 (Liquid); method: Vibrating tube method
Temperature, K	Mass density, kg/m3	uncertainty
297	1500	

System: 3,3'-(1,8-octanediyl)bis[1-methylimidazolium] 1,1,1-trifluoro-N-[(trifluoromethyl)sulfonyl]methanesulfonamide; phases: Liquid, Gas
Property: Surface tension liquid-gas, N/m (Liquid); method: Ring tensiometer
Temperature, K	Surface tension liquid-gas, N/m	uncertainty
297	.0403	.002015

System: 3,3'-(1,8-octanediyl)bis[1-methylimidazolium] 1,1,2,2,2-pentafluoro-N-[(1,1,2,2,2-pentafluoroethyl)sulfonyl]ethanesulfonamide; phases: Glass, Liquid, Air at 1 atmosphere
Property: Triple point temperature, K (Glass); method: DSC/DTA
Triple point temperature, K	uncertainty
220	.7

System: 3,3'-(1,8-octanediyl)bis[1-methylimidazolium] 1,1,2,2,2-pentafluoro-N-[(1,1,2,2,2-pentafluoroethyl)sulfonyl]ethanesulfonamide; phases: Crystal, Liquid, Air at 1 atmosphere
Property: Triple point temperature, K (Crystal); method: DSC/DTA
Triple point temperature, K	uncertainty
307.6	.7

System: 3,3'-(1,8-octanediyl)bis[1-methylimidazolium] tetrafluoroborate; phases: Crystal, Liquid, Air at 1 atmosphere
Property: Triple point temperature, K (Crystal); method: DSC/DTA
Triple point temperature, K	uncertainty
340.3	.7

System: 3,3'-(1,8-octanediyl)bis[1-methylimidazolium] nitrate; phases: Crystal, Liquid, Air at 1 atmosphere
Property: Triple point temperature, K (Crystal); method: DSC/DTA
Triple point temperature, K	uncertainty
375.9	.7

System: 3,3'-(1,9-nonanediyl)bis[1-methylimidazolium] 1,1,1-trifluoro-N-[(trifluoromethyl)sulfonyl]methanesulfonamide; phases: Glass, Liquid, Air at 1 atmosphere
Property: Triple point temperature, K (Glass); method: DSC/DTA
Triple point temperature, K	uncertainty
210.8	.7

System: 3,3'-(1,9-nonanediyl)bis[1-methylimidazolium] 1,1,1-trifluoro-N-[(trifluoromethyl)sulfonyl]methanesulfonamide; phases: Liquid
Fixed: Pressure, kPa = 101.325
Property: Mass density, kg/m3 (Liquid); method: Vibrating tube method
Temperature, K	Mass density, kg/m3	uncertainty
297	1479	

System: 3,3'-(1,9-nonanediyl)bis[1-methylimidazolium] 1,1,1-trifluoro-N-[(trifluoromethyl)sulfonyl]methanesulfonamide; phases: Liquid, Gas
Property: Surface tension liquid-gas, N/m (Liquid); method: Ring tensiometer
Temperature, K	Surface tension liquid-gas, N/m	uncertainty
297	.0399	.001995

System: 3,3'-(1,9-nonanediyl)bis[1-methylimidazolium] 1,1,2,2,2-pentafluoro-N-[(1,1,2,2,2-pentafluoroethyl)sulfonyl]ethanesulfonamide; phases: Glass, Liquid, Air at 1 atmosphere
Property: Triple point temperature, K (Glass); method: DSC/DTA
Triple point temperature, K	uncertainty
219.4	.7

System: 3,3'-(1,9-nonanediyl)bis[1-methylimidazolium] 1,1,2,2,2-pentafluoro-N-[(1,1,2,2,2-pentafluoroethyl)sulfonyl]ethanesulfonamide; phases: Liquid
Fixed: Pressure, kPa = 101.325
Property: Mass density, kg/m3 (Liquid); method: Vibrating tube method
Temperature, K	Mass density, kg/m3	uncertainty
297	1553	

System: 3,3'-(1,9-nonanediyl)bis[1-methylimidazolium] 1,1,2,2,2-pentafluoro-N-[(1,1,2,2,2-pentafluoroethyl)sulfonyl]ethanesulfonamide; phases: Liquid, Gas
Property: Surface tension liquid-gas, N/m (Liquid); method: Ring tensiometer
Temperature, K	Surface tension liquid-gas, N/m	uncertainty
297	.0367	.001835

System: 3,3'-(1,9-nonanediyl)bis[1-methylimidazolium] tetrafluoroborate; phases: Glass, Liquid, Air at 1 atmosphere
Property: Triple point temperature, K (Glass); method: DSC/DTA
Triple point temperature, K	uncertainty
221	.7

System: 3,3'-(1,9-nonanediyl)bis[1-methylimidazolium] tetrafluoroborate; phases: Liquid
Fixed: Pressure, kPa = 101.325
Property: Mass density, kg/m3 (Liquid); method: Vibrating tube method
Temperature, K	Mass density, kg/m3	uncertainty
297	1255	

System: 3,3'-(1,9-nonanediyl)bis[1-methylimidazolium] tetrafluoroborate; phases: Liquid, Gas
Property: Surface tension liquid-gas, N/m (Liquid); method: Ring tensiometer
Temperature, K	Surface tension liquid-gas, N/m	uncertainty
297	.0456	.00228

System: 3,3'-(1,9-nonanediyl)bis[1-methylimidazolium] nitrate; phases: Crystal, Liquid, Air at 1 atmosphere
Property: Triple point temperature, K (Crystal); method: DSC/DTA
Triple point temperature, K	uncertainty
338.5	.7

System: 3,3'-(1,10-decanediyl)bis[1-methylimidazolium] 1,1,1-trifluoro-N-[(trifluoromethyl)sulfonyl]methanesulfonamide; phases: Glass, Liquid, Air at 1 atmosphere
Property: Triple point temperature, K (Glass); method: DSC/DTA
Triple point temperature, K	uncertainty
215.8	.7

System: 3,3'-(1,10-decanediyl)bis[1-methylimidazolium] 1,1,1-trifluoro-N-[(trifluoromethyl)sulfonyl]methanesulfonamide; phases: Liquid
Fixed: Pressure, kPa = 101.325
Property: Mass density, kg/m3 (Liquid); method: Vibrating tube method
Temperature, K	Mass density, kg/m3	uncertainty
297	1462	

System: 3,3'-(1,10-decanediyl)bis[1-methylimidazolium] 1,1,1-trifluoro-N-[(trifluoromethyl)sulfonyl]methanesulfonamide; phases: Liquid, Gas
Property: Surface tension liquid-gas, N/m (Liquid); method: Ring tensiometer
Temperature, K	Surface tension liquid-gas, N/m	uncertainty
297	.0394	.00197

System: 3,3'-(1,10-decanediyl)bis[1-methylimidazolium] 1,1,2,2,2-pentafluoro-N-[(1,1,2,2,2-pentafluoroethyl)sulfonyl]ethanesulfonamide; phases: Glass, Liquid, Air at 1 atmosphere
Property: Triple point temperature, K (Glass); method: DSC/DTA
Triple point temperature, K	uncertainty
219.5	.7

System: 3,3'-(1,10-decanediyl)bis[1-methylimidazolium] 1,1,2,2,2-pentafluoro-N-[(1,1,2,2,2-pentafluoroethyl)sulfonyl]ethanesulfonamide; phases: Liquid
Fixed: Pressure, kPa = 101.325
Property: Mass density, kg/m3 (Liquid); method: Vibrating tube method
Temperature, K	Mass density, kg/m3	uncertainty
297	1536	

System: 3,3'-(1,10-decanediyl)bis[1-methylimidazolium] 1,1,2,2,2-pentafluoro-N-[(1,1,2,2,2-pentafluoroethyl)sulfonyl]ethanesulfonamide; phases: Liquid, Gas
Property: Surface tension liquid-gas, N/m (Liquid); method: Ring tensiometer
Temperature, K	Surface tension liquid-gas, N/m	uncertainty
297	.0363	.001815

System: 3,3'-(1,10-decanediyl)bis[1-methylimidazolium] tetrafluoroborate; phases: Glass, Liquid, Air at 1 atmosphere
Property: Triple point temperature, K (Glass); method: DSC/DTA
Triple point temperature, K	uncertainty
228.6	.7

System: 3,3'-(1,10-decanediyl)bis[1-methylimidazolium] tetrafluoroborate; phases: Liquid
Fixed: Pressure, kPa = 101.325
Property: Mass density, kg/m3 (Liquid); method: Vibrating tube method
Temperature, K	Mass density, kg/m3	uncertainty
297	1240	

System: 3,3'-(1,10-decanediyl)bis[1-methylimidazolium] tetrafluoroborate; phases: Liquid, Gas
Property: Surface tension liquid-gas, N/m (Liquid); method: Ring tensiometer
Temperature, K	Surface tension liquid-gas, N/m	uncertainty
297	.0441	.002205

System: 3,3'-(1,10-decanediyl)bis[1-methylimidazolium] nitrate; phases: Crystal, Liquid, Air at 1 atmosphere
Property: Triple point temperature, K (Crystal); method: DSC/DTA
Triple point temperature, K	uncertainty
326.6	.7

System: 3,3'-(1,12-dodecanediyl)bis[1-methylimidazolium] 1,1,1-trifluoro-N-[(trifluoromethyl)sulfonyl]methanesulfonamide; phases: Glass, Liquid, Air at 1 atmosphere
Property: Triple point temperature, K (Glass); method: DSC/DTA
Triple point temperature, K	uncertainty
212	.7

System: 3,3'-(1,12-dodecanediyl)bis[1-methylimidazolium] 1,1,1-trifluoro-N-[(trifluoromethyl)sulfonyl]methanesulfonamide; phases: Liquid
Fixed: Pressure, kPa = 101.325
Property: Mass density, kg/m3 (Liquid); method: Vibrating tube method
Temperature, K	Mass density, kg/m3	uncertainty
297	1428	

System: 3,3'-(1,12-dodecanediyl)bis[1-methylimidazolium] 1,1,1-trifluoro-N-[(trifluoromethyl)sulfonyl]methanesulfonamide; phases: Liquid, Gas
Property: Surface tension liquid-gas, N/m (Liquid); method: Ring tensiometer
Temperature, K	Surface tension liquid-gas, N/m	uncertainty
297	.0386	.00193

System: 3,3'-(1,12-dodecanediyl)bis[1-methylimidazolium] 1,1,2,2,2-pentafluoro-N-[(1,1,2,2,2-pentafluoroethyl)sulfonyl]ethanesulfonamide; phases: Glass, Liquid, Air at 1 atmosphere
Property: Triple point temperature, K (Glass); method: DSC/DTA
Triple point temperature, K	uncertainty
221.1	.7

System: 3,3'-(1,12-dodecanediyl)bis[1-methylimidazolium] 1,1,2,2,2-pentafluoro-N-[(1,1,2,2,2-pentafluoroethyl)sulfonyl]ethanesulfonamide; phases: Liquid
Fixed: Pressure, kPa = 101.325
Property: Mass density, kg/m3 (Liquid); method: Vibrating tube method
Temperature, K	Mass density, kg/m3	uncertainty
297	1503	

System: 3,3'-(1,12-dodecanediyl)bis[1-methylimidazolium] 1,1,2,2,2-pentafluoro-N-[(1,1,2,2,2-pentafluoroethyl)sulfonyl]ethanesulfonamide; phases: Liquid, Gas
Property: Surface tension liquid-gas, N/m (Liquid); method: Ring tensiometer
Temperature, K	Surface tension liquid-gas, N/m	uncertainty
297	.0356	.00178

System: 3,3'-(1,12-dodecanediyl)bis[1-methylimidazolium] tetrafluoroborate; phases: Glass, Liquid, Air at 1 atmosphere
Property: Triple point temperature, K (Glass); method: DSC/DTA
Triple point temperature, K	uncertainty
227.7	.7

System: 3,3'-(1,12-dodecanediyl)bis[1-methylimidazolium] tetrafluoroborate; phases: Liquid
Fixed: Pressure, kPa = 101.325
Property: Mass density, kg/m3 (Liquid); method: Vibrating tube method
Temperature, K	Mass density, kg/m3	uncertainty
297	1209	

System: 3,3'-(1,12-dodecanediyl)bis[1-methylimidazolium] tetrafluoroborate; phases: Liquid, Gas
Property: Surface tension liquid-gas, N/m (Liquid); method: Ring tensiometer
Temperature, K	Surface tension liquid-gas, N/m	uncertainty
297	.0421	.002105

System: 3,3'-(1,12-dodecanediyl)bis[1-methylimidazolium] nitrate; phases: Crystal, Liquid, Air at 1 atmosphere
Property: Triple point temperature, K (Crystal); method: DSC/DTA
Triple point temperature, K	uncertainty
346.3	.7
