Measured thermophysical data. Solubilities of Tris(o-phenylenedioxy)cyclotriphosphazene in Selected Solvents
Source: J. Chem. Eng. Data, 2011, 10.1021/je200252c
Compound 1: tris(o-phenylenedioxy)cyclotriphosphazene, C18H12N3O6P3
Compound 2: ethanol, C2H6O, purity 99%
Compound 3: ethyl ethanoate, C4H8O2, purity 99%
Compound 4: propanone, C3H6O, purity 99%
Compound 5: methylene chloride, CH2Cl2, purity 99%
Compound 6: tetramethylene oxide, C4H8O, purity 99%
Compound 7: methylnitrile, C2H3N, purity 99%
Compound 8: toluene, C7H8, purity 99%
Compound 9: chloroform, CHCl3, purity 99%
Compound 10: ethylene chloride, C2H4Cl2, purity 99%

System: tris(o-phenylenedioxy)cyclotriphosphazene; phases: Crystal, Liquid, Air at 1 atmosphere
Property: Normal melting temperature, K (Crystal); method: DSC/DTA
Normal melting temperature, K	uncertainty
522.2	.26

System: tris(o-phenylenedioxy)cyclotriphosphazene; phases: Crystal, Liquid
Property: Molar enthalpy of transition or fusion, kJ/mol (Crystal); method: DSC/DTA
Temperature, K	Molar enthalpy of transition or fusion, kJ/mol	uncertainty
522.2	19544.64932448	181.765238717664

System: ethanol + tris(o-phenylenedioxy)cyclotriphosphazene; phases: Liquid, Crystal
Fixed: Pressure, kPa = 101
Property: Mass ratio of solute to solvent of tris(o-phenylenedioxy)cyclotriphosphazene (Liquid); method: gravimetric method
Temperature, K	Mass ratio of solute to solvent of tris(o-phenylenedioxy)cyclotriphosphazene	uncertainty
293.95	.000997	.00001994
298.05	.001196	.00002392
303.25	.001495	.0000299
308.35	.001894	.00003788
313.35	.002493	.00004986
318.15	.003091	.00006182
322.95	.003789	.00007578
328.15	.004687	.00009374
332.45	.005585	.0001117

System: ethyl ethanoate + tris(o-phenylenedioxy)cyclotriphosphazene; phases: Liquid, Crystal
Fixed: Pressure, kPa = 101
Property: Mass ratio of solute to solvent of tris(o-phenylenedioxy)cyclotriphosphazene (Liquid); method: gravimetric method
Temperature, K	Mass ratio of solute to solvent of tris(o-phenylenedioxy)cyclotriphosphazene	uncertainty
298.15	.219	.00438
303.35	.2816	.005632
308.25	.3547	.007094
313.45	.4487	.008974
318.25	.5583	.011166
323.15	.6942	.013884
328.15	.8667	.017334
332.45	1.0341	.020682

System: propanone + tris(o-phenylenedioxy)cyclotriphosphazene; phases: Liquid, Crystal
Fixed: Pressure, kPa = 101
Property: Mass ratio of solute to solvent of tris(o-phenylenedioxy)cyclotriphosphazene (Liquid); method: gravimetric method
Temperature, K	Mass ratio of solute to solvent of tris(o-phenylenedioxy)cyclotriphosphazene	uncertainty
294.35	.001977	.00003954
298.35	.002531	.00005062
303.45	.003401	.00006802
308.65	.004668	.00009336
313.35	.006014	.00012028
318.15	.007756	.00015512
323.25	.009975	.0001995

System: methylene chloride + tris(o-phenylenedioxy)cyclotriphosphazene; phases: Liquid, Crystal
Fixed: Pressure, kPa = 101
Property: Mass ratio of solute to solvent of tris(o-phenylenedioxy)cyclotriphosphazene (Liquid); method: gravimetric method
Temperature, K	Mass ratio of solute to solvent of tris(o-phenylenedioxy)cyclotriphosphazene	uncertainty
288.15	.005845	.0001169
291.55	.006875	.0001375
294.45	.007851	.00015702
298.35	.009478	.00018956
303.45	.011866	.00023732
308.65	.014963	.00029926

System: tetramethylene oxide + tris(o-phenylenedioxy)cyclotriphosphazene; phases: Liquid, Crystal
Fixed: Pressure, kPa = 101
Property: Mass ratio of solute to solvent of tris(o-phenylenedioxy)cyclotriphosphazene (Liquid); method: gravimetric method
Temperature, K	Mass ratio of solute to solvent of tris(o-phenylenedioxy)cyclotriphosphazene	uncertainty
291.95	.005865	.0001173
298.25	.007333	.00014666
303.65	.008738	.00017476
307.95	.010079	.00020158
313.25	.011932	.00023864
318.35	.013916	.00027832
323.15	.015963	.00031926
328.25	.018525	.0003705

System: methylnitrile + tris(o-phenylenedioxy)cyclotriphosphazene; phases: Liquid, Crystal
Fixed: Pressure, kPa = 101
Property: Mass ratio of solute to solvent of tris(o-phenylenedioxy)cyclotriphosphazene (Liquid); method: gravimetric method
Temperature, K	Mass ratio of solute to solvent of tris(o-phenylenedioxy)cyclotriphosphazene	uncertainty
293.25	.00179	.0000358
298.15	.002462	.00004924
303.25	.003245	.0000649
308.15	.004141	.00008282
313.55	.00526	.0001052
318.25	.006604	.00013208
323.15	.008285	.0001657
328.35	.010302	.00020604
333.15	.01288	.0002576

System: toluene + tris(o-phenylenedioxy)cyclotriphosphazene; phases: Liquid, Crystal
Fixed: Pressure, kPa = 101
Property: Mass ratio of solute to solvent of tris(o-phenylenedioxy)cyclotriphosphazene (Liquid); method: gravimetric method
Temperature, K	Mass ratio of solute to solvent of tris(o-phenylenedioxy)cyclotriphosphazene	uncertainty
293.15	.003342	.00006684
298.25	.00434	.0000868
303.15	.005389	.00010778
308.35	.006838	.00013676
313.55	.008487	.00016974
318.25	.010238	.00020476
323.15	.012441	.00024882
328.35	.015248	.00030496
333.15	.018359	.00036718
338.25	.022127	.00044254

System: chloroform + tris(o-phenylenedioxy)cyclotriphosphazene; phases: Liquid, Crystal
Fixed: Pressure, kPa = 101
Property: Mass ratio of solute to solvent of tris(o-phenylenedioxy)cyclotriphosphazene (Liquid); method: gravimetric method
Temperature, K	Mass ratio of solute to solvent of tris(o-phenylenedioxy)cyclotriphosphazene	uncertainty
293.25	.006627	.00013254
298.15	.008249	.00016498
303.05	.010414	.00020828
308.05	.01289	.0002578
313.65	.016495	.0003299
318.55	.020067	.00040134
323.05	.024308	.00048616
328.75	.029848	.00059696

System: ethylene chloride + tris(o-phenylenedioxy)cyclotriphosphazene; phases: Liquid, Crystal
Fixed: Pressure, kPa = 101
Property: Mass ratio of solute to solvent of tris(o-phenylenedioxy)cyclotriphosphazene (Liquid); method: gravimetric method
Temperature, K	Mass ratio of solute to solvent of tris(o-phenylenedioxy)cyclotriphosphazene	uncertainty
293.25	.001903	.00003806
298.35	.002693	.00005386
303.15	.00353	.0000706
308.15	.004971	.00009942
313.25	.006971	.00013942
318.55	.009067	.00018134
323.15	.011724	.00023448
328.55	.015084	.00030168
333.15	.019526	.00039052
338.25	.027166	.00054332
