Measured thermophysical data. Vapor Liquid Equilibrium Measurements of the Binary Mixtures Nitrogen + Acetone and Oxygen + Acetone
Source: J. Chem. Eng. Data, 2012, 10.1021/je201058j
Compound 1: nitrogen, diatomic, N2, purity 99.999%
Compound 2: oxygen, O2, purity 99.998%
Compound 3: acetone, C3H6O, purity 99.9%

System: acetone + nitrogen, diatomic; phases: Liquid, Gas
Property: Vapor or sublimation pressure, kPa (Liquid); method: Closed cell (Static) method
Temperature, K	Mole fraction of nitrogen, diatomic	Vapor or sublimation pressure, kPa	uncertainty
223.2	.032	9680	10
223.2	.011	2970	10
223.2	.014	3790	10
243.1	.026	7130	10
273.1	.033	7700	10
303.2	.011	2090	10
303.1	.012	2440	10
303.2	.024	4640	10
303.2	.035	6950	10
303.2	.044	8700	10
303.1	.051	10350	10
303.2	.054	11070	10
303.2	.058	11990	10
323.2	.011	2000	10
323.2	.013	2350	10
323.2	.025	4380	10
323.2	.037	6650	10
323.2	.045	8150	10
323.2	.053	9730	10
323.2	.056	10220	10
323.2	.06	11140	10
343.2	.011	1980	10
343.2	.025	4190	10
343.1	.037	6220	10
343.1	.047	7710	10
343.2	.056	9070	10
343.2	.063	10380	10
363.2	.012	2000	10
363.1	.015	2430	10
363.2	.026	4080	10
363.2	.058	8630	10
400	.016	2650	10
400	.024	3620	10

System: acetone + nitrogen, diatomic; phases: Gas, Liquid
Property: Vapor or sublimation pressure, kPa (Gas); method: Closed cell (Static) method
Temperature, K	Mole fraction of nitrogen, diatomic	Vapor or sublimation pressure, kPa	uncertainty
303.2	.887	390	10
303.2	.902	430	10
303.2	.904	450	10
303.2	.925	560	10
303.2	.929	610	10
303.2	.931	610	10
303.2	.943	760	10
303.2	.96	1200	10
323.2	.897	900	10
323	.909	1030	10
323.2	.916	1100	10
323	.926	1250	10
323.2	.93	1340	10
343	.869	1580	10
343	.879	1680	10
343	.882	1780	10

System: acetone + oxygen; phases: Liquid, Gas
Property: Vapor or sublimation pressure, kPa (Liquid); method: Closed cell (Static) method
Temperature, K	Mole fraction of oxygen	Vapor or sublimation pressure, kPa	uncertainty
253.1	.0007	108	.6
253.1	.0026	380	.6
253.1	.004	562	.6
253.1	.0053	731	.6
283.1	.0007	121	.6
283.2	.0028	395	.6
283.2	.0042	582	.6
283.1	.0056	753	.6
