Measured thermophysical data. Thermal Conductivity and Density of (NH4)2SO4 + H2O, NH4NO3 + H2O, and (NH4)2SO4 + NH4NO3 + H2O Solutions at T = (278.15 to 333.15) K
Source: J. Chem. Eng. Data, 2012, 10.1021/je201390r
Compound 1: ammonium sulfate, H8N2O4S, purity 99%
Compound 2: ammonium nitrate (AN), H4N2O3, purity 99.5%
Compound 3: water, H2O, purity 99.99%

System: water + ammonium sulfate; phases: Liquid
Fixed: Pressure, kPa = 101
Property: Thermal conductivity, W/m/K (Liquid); method: Hot wire method
Molality, mol/kg of ammonium sulfate	Temperature, K	Thermal conductivity, W/m/K	uncertainty
.3983	280.78	.5646	.011292
.3983	285.94	.5743	.011486
.3983	291.15	.5861	.011722
.3983	296.52	.5974	.011948
.3983	301.77	.6078	.012156
.3983	306.78	.6184	.012368
.3983	316.98	.6345	.01269
.3983	327.13	.6431	.012862
.3983	337.25	.6534	.013068
.8409	280.76	.5624	.011248
.8409	285.92	.5723	.011446
.8409	290.98	.581	.01162
.8409	296.32	.5917	.011834
.8409	301.62	.6037	.012074
.8409	306.85	.6131	.012262
.8409	317.2	.6265	.01253
.8409	327.33	.6389	.012778
.8409	337.42	.6479	.012958
1.3355	280.54	.556	.01112
1.3355	285.77	.565	.0113
1.3355	291.03	.5764	.011528
1.3355	296.31	.5859	.011718
1.3355	301.55	.5957	.011914
1.3355	306.89	.6049	.012098
1.3355	317.16	.6185	.01237
1.3355	327.17	.6289	.012578
1.3355	337.53	.6382	.012764
1.8919	280.56	.5505	.01101
1.8919	285.76	.5603	.011206
1.8919	290.93	.5701	.011402
1.8919	296.24	.5797	.011594
1.8919	301.38	.5883	.011766
1.8919	307.13	.5965	.01193
1.8919	317.15	.6108	.012216
1.8919	327.19	.6229	.012458
1.8919	337.51	.6321	.012642
2.5226	280.12	.545	.0109
2.5226	285.2	.5527	.011054
2.5226	290.07	.5598	.011196
2.5226	296.03	.5703	.011406
2.5226	300.88	.5811	.011622
2.5226	306.38	.5902	.011804
2.5226	316.85	.6019	.012038
2.5226	326.6	.6147	.012294
2.5226	336.88	.6254	.012508
3.2433	280.06	.5371	.010742
3.2433	285.25	.5462	.010924
3.2433	290.46	.5563	.011126
3.2433	295.88	.5661	.011322
3.2433	301.14	.5748	.011496
3.2433	306.43	.5826	.011652
3.2433	316.59	.5931	.011862
3.2433	326.74	.6051	.012102
3.2433	337.13	.6177	.012354
4.0749	279.83	.5254	.010508
4.0749	285.32	.5358	.010716
4.0749	290.55	.5468	.010936
4.0749	296.06	.5575	.01115
4.0749	301.22	.5652	.011304
4.0749	306.3	.5731	.011462
4.0749	316.52	.5884	.011768
4.0749	326.73	.5973	.011946
4.0749	337.18	.6087	.012174
5.0452	280.09	.5181	.010362
5.0452	285.7	.5309	.010618
5.0452	290.79	.5383	.010766
5.0452	296.14	.5477	.010954
5.0452	301.34	.5567	.011134
5.0452	306.57	.5654	.011308
5.0452	316.8	.5794	.011588
5.0452	326.94	.5914	.011828
5.0452	337.07	.6002	.012004

System: ammonium nitrate (AN) + water; phases: Liquid
Fixed: Pressure, kPa = 101
Property: Thermal conductivity, W/m/K (Liquid); method: Hot wire method
Molality, mol/kg of ammonium nitrate (AN)	Temperature, K	Thermal conductivity, W/m/K	uncertainty
.6576	280.24	.5706	.011412
.6576	285.51	.5803	.011606
.6576	290.3	.5915	.01183
.6576	296.2	.6029	.012058
.6576	301.45	.6108	.012216
.6576	306.7	.6221	.012442
.6576	316.96	.6317	.012634
.6576	327.13	.6432	.012864
.6576	337.25	.6542	.013084
1.3882	280.23	.5682	.011364
1.3882	285.66	.5786	.011572
1.3882	290.95	.5905	.01181
1.3882	296.26	.5996	.011992
1.3882	301.61	.608	.01216
1.3882	306.7	.6181	.012362
1.3882	317.02	.6295	.01259
1.3882	327.03	.6415	.01283
1.3882	337.21	.652	.01304
2.2048	280.28	.5616	.011232
2.2048	285.69	.5726	.011452
2.2048	290.72	.5829	.011658
2.2048	295.88	.5892	.011784
2.2048	301.53	.598	.01196
2.2048	306.74	.6071	.012142
2.2048	316.91	.6219	.012438
2.2048	327.14	.6353	.012706
2.2048	337.19	.6473	.012946
3.1234	280.32	.5589	.011178
3.1234	285.63	.5696	.011392
3.1234	290.93	.5782	.011564
3.1234	296.35	.5874	.011748
3.1234	301.73	.5973	.011946
3.1234	306.88	.6058	.012116
3.1234	317.23	.6199	.012398
3.1234	327.42	.633	.01266
3.1234	337.45	.6451	.012902
4.1646	280.2	.5552	.011104
4.1646	285.81	.5669	.011338
4.1646	290.96	.5768	.011536
4.1646	296.41	.584	.01168
4.1646	301.67	.5936	.011872
4.1646	306.88	.6026	.012052
4.1646	317.08	.6175	.01235
4.1646	327.45	.6297	.012594
4.1646	337.59	.6415	.01283
5.3545	280.2	.5517	.011034
5.3545	285.75	.5629	.011258
5.3545	290.98	.5742	.011484
5.3545	296.38	.5819	.011638
5.3545	301.75	.5924	.011848
5.3545	306.8	.5998	.011996
5.3545	317.18	.612	.01224
5.3545	327.48	.6256	.012512
5.3545	337.55	.6381	.012762
6.7274	280.27	.5489	.010978
6.7274	285.87	.5598	.011196
6.7274	291.15	.5723	.011446
6.7274	296.55	.5802	.011604
6.7274	301.85	.589	.01178
6.7274	307.01	.5956	.011912
6.7274	317.3	.6087	.012174
6.7274	327.67	.6228	.012456
6.7274	337.51	.634	.01268
8.3292	280.52	.5455	.01091
8.3292	285.19	.5559	.011118
8.3292	290.63	.5671	.011342
8.3292	296.3	.5765	.01153
8.3292	301.85	.5852	.011704
8.3292	307.14	.5937	.011874
8.3292	317.25	.6051	.012102
8.3292	327.49	.6172	.012344
8.3292	337.55	.6284	.012568

System: ammonium nitrate (AN) + water + ammonium sulfate; phases: Liquid
Fixed: Pressure, kPa = 101
Property: Thermal conductivity, W/m/K (Liquid); method: Hot wire method
Mass fraction of ammonium sulfate	Mass fraction of ammonium nitrate (AN)	Temperature, K	Thermal conductivity, W/m/K	uncertainty
.05	.05	280.14	.5654	.011308
.05	.05	285.48	.5752	.011504
.05	.05	290.81	.5878	.011756
.05	.05	296.1	.5946	.011892
.05	.05	301.56	.6032	.012064
.05	.05	306.75	.614	.01228
.05	.05	316.95	.6243	.012486
.05	.05	327.23	.6343	.012686
.05	.05	337.19	.6428	.012856
.05	.1	279.96	.5593	.011186
.05	.1	285.39	.5708	.011416
.05	.1	290.56	.5811	.011622
.05	.1	296.09	.5925	.01185
.05	.1	301.41	.6015	.01203
.05	.1	306.63	.6111	.012222
.05	.1	316.79	.6203	.012406
.05	.1	327.21	.6292	.012584
.05	.1	337.27	.6394	.012788
.05	.15	280.07	.5531	.011062
.05	.15	285.4	.5634	.011268
.05	.15	290.68	.5739	.011478
.05	.15	295.98	.5845	.01169
.05	.15	301.32	.5941	.011882
.05	.15	306.41	.6026	.012052
.05	.15	316.89	.6149	.012298
.05	.15	326.92	.6256	.012512
.05	.15	337.15	.6358	.012716
.05	.2	279.87	.5498	.010996
.05	.2	285.45	.5619	.011238
.05	.2	290.7	.5726	.011452
.05	.2	295.93	.5802	.011604
.05	.2	301.53	.591	.01182
.05	.2	306.59	.6004	.012008
.05	.2	316.69	.6121	.012242
.05	.2	326.92	.6214	.012428
.05	.2	337.14	.6311	.012622
.1	.05	279.9	.5519	.011038
.1	.05	285.2	.5614	.011228
.1	.05	290.55	.5735	.01147
.1	.05	295.97	.5838	.011676
.1	.05	301.1	.5933	.011866
.1	.05	306.35	.6021	.012042
.1	.05	316.44	.6147	.012294
.1	.05	327.04	.6253	.012506
.1	.05	337.03	.6353	.012706
.15	.05	279.82	.5447	.010894
.15	.05	285.56	.5571	.011142
.15	.05	290.42	.5672	.011344
.15	.05	296.07	.5795	.01159
.15	.05	301.41	.5895	.01179
.15	.05	306.46	.5975	.01195
.15	.05	316.77	.6106	.012212
.15	.05	327.21	.6198	.012396
.15	.05	337.11	.6286	.012572
.2	.05	280.13	.5432	.010864
.2	.05	285.2	.5512	.011024
.2	.05	290.68	.5629	.011258
.2	.05	296.02	.5729	.011458
.2	.05	301.25	.5809	.011618
.2	.05	306.42	.59	.0118
.2	.05	316.83	.6028	.012056
.2	.05	327.1	.6138	.012276
.2	.05	337.05	.6232	.012464
.1	.1	280.26	.5479	.010958
.1	.1	285.44	.5594	.011188
.1	.1	290.59	.5702	.011404
.1	.1	296.17	.5812	.011624
.1	.1	301.29	.5909	.011818
.1	.1	306.36	.5989	.011978
.1	.1	316.77	.6121	.012242
.1	.1	327	.6227	.012454
.1	.1	337.41	.6312	.012624
.2	.2	280.52	.533	.01066
.2	.2	285.92	.5432	.010864
.2	.2	291.09	.554	.01108
.2	.2	296.43	.5662	.011324
.2	.2	301.79	.5754	.011508
.2	.2	307.1	.5821	.011642
.2	.2	317.39	.5946	.011892
.2	.2	327.5	.6052	.012104
.2	.2	337.36	.614	.01228

System: ammonium nitrate (AN) + water + ammonium sulfate; phases: Liquid
Fixed: Pressure, kPa = 101
Property: Mass density, kg/m3 (Liquid); method: Vibrating tube method
Temperature, K	Mass fraction of ammonium sulfate	Mass fraction of ammonium nitrate (AN)	Mass density, kg/m3	uncertainty
278.15	.05	.05	1052.06	.05
278.15	.05	.1	1073.94	.05
278.15	.05	.15	1095.89	.05
278.15	.05	.2	1119.14	.05
278.15	.1	.05	1081.74	.05
278.15	.15	.05	1111.33	.05
278.15	.2	.05	1140.81	.05
278.15	.1	.1	1103.7	.05
278.15	.2	.2	1209.61	.05
283.15	.05	.05	1050.9	.05
283.15	.05	.1	1072.41	.05
283.15	.05	.15	1093.75	.05
283.15	.05	.2	1117.02	.05
283.15	.1	.05	1080.3	.05
283.15	.15	.05	1109.69	.05
283.15	.2	.05	1139.02	.05
283.15	.1	.1	1101.99	.05
283.15	.2	.2	1207.22	.05
288.15	.05	.05	1049.56	.05
288.15	.05	.1	1070.73	.05
288.15	.05	.15	1091.33	.05
288.15	.05	.2	1114.8	.05
288.15	.1	.05	1078.73	.05
288.15	.15	.05	1107.95	.05
288.15	.2	.05	1137.14	.05
288.15	.1	.1	1100.14	.05
288.15	.2	.2	1204.8	.05
293.15	.05	.05	1048.03	.05
293.15	.05	.1	1068.91	.05
293.15	.05	.15	1088.88	.05
293.15	.05	.2	1112.5	.05
293.15	.1	.05	1077.02	.05
293.15	.15	.05	1106.1	.05
293.15	.2	.05	1135.19	.05
293.15	.1	.1	1098.17	.05
293.15	.2	.2	1202.34	.05
298.15	.05	.05	1046.35	.05
298.15	.05	.1	1066.97	.05
298.15	.05	.15	1086.3	.05
298.15	.05	.2	1110.12	.05
298.15	.1	.05	1075.19	.05
298.15	.15	.05	1104.16	.05
298.15	.2	.05	1133.17	.05
298.15	.1	.1	1096.11	.05
298.15	.2	.2	1199.83	.05
303.15	.05	.05	1044.49	.05
303.15	.05	.1	1064.91	.05
303.15	.05	.15	1083.7	.05
303.15	.05	.2	1107.67	.05
303.15	.1	.05	1073.24	.05
303.15	.15	.05	1102.14	.05
303.15	.2	.05	1131.06	.05
303.15	.1	.1	1093.95	.05
303.15	.2	.2	1197.29	.05
313.15	.05	.05	1040.43	.05
313.15	.05	.1	1060.44	.05
313.15	.05	.15	1080.08	.05
313.15	.05	.2	1102.55	.05
313.15	.1	.05	1069.01	.05
313.15	.15	.05	1097.81	.05
313.15	.2	.05	1126.67	.05
313.15	.1	.1	1089.35	.05
313.15	.2	.2	1192.1	.05
323.15	.05	.05	1035.44	.05
323.15	.05	.1	1055.52	.05
323.15	.05	.15	1074.71	.05
323.15	.05	.2	1097.15	.05
323.15	.1	.05	1064.3	.05
323.15	.15	.05	1093.14	.05
323.15	.2	.05	1122.06	.05
323.15	.1	.1	1084.34	.05
323.15	.2	.2	1186.79	.05
333.15	.05	.05	1029.92	.05
333.15	.05	.1	1049.77	.05
333.15	.05	.15	1070.05	.05
333.15	.05	.2	1091.31	.05
333.15	.1	.05	1058.16	.05
333.15	.15	.05	1087.9	.05
333.15	.2	.05	1117.18	.05
333.15	.1	.1	1078.84	.05
333.15	.2	.2	1181.37	.05
