Measured thermophysical data. Thermodynamic Properties of Salophen Schiff Base + Ionic Liquid  ([CnmIm][Br]) + Dimethylformamide Ternary Mixtures at 298.15 K
Source: J. Chem. Eng. Data, 2012, 10.1021/je200872n
Compound 1: N,N-dimethylformamide, C3H7NO, purity 99.5%
Compound 2: 2,2'-[1,2-phenylenebis(nitrilomethylidyne)]bis-phenol, C20H16N2O2, purity 98%
Compound 3: 1-n-butyl-3-methylimidazolium bromide, C8H15BrN2, purity 98%
Compound 4: 1-methyl-3-propylimidazolium bromide, C7H13BrN2, purity 98%
Compound 5: 1-pentyl-3-methylimidazolium bromide, C9H17BrN2, purity 98%
Compound 6: 1-hexyl-3-methylimidazolium bromide, C10H19BrN2, purity 98%

System: N,N-dimethylformamide; phases: Liquid
Fixed: Pressure, kPa = 101.325
Property: Viscosity, Pa*s (Liquid); method: Capillary tube (Ostwald; Ubbelohde) method
Temperature, K	Viscosity, Pa*s	uncertainty
298.15	.000805	.000003

System: N,N-dimethylformamide; phases: Liquid
Fixed: Pressure, kPa = 101.325
Property: Refractive index (Na D-line) (Liquid); method: Standard Abbe refractometry
Temperature, K	Refractive index (Na D-line)	uncertainty
298.15	1.4281	

System: N,N-dimethylformamide; phases: Liquid
Property: Mass density, kg/m3 (Liquid); method: Vibrating tube method
Pressure, kPa	Temperature, K	Mass density, kg/m3	uncertainty
101	298.15	944	.05

System: N,N-dimethylformamide + 2,2'-[1,2-phenylenebis(nitrilomethylidyne)]bis-phenol + 1-n-butyl-3-methylimidazolium bromide; phases: Liquid
Fixed: Pressure, kPa = 101
Fixed: Temperature, K = 298.15
Property: Mass density, kg/m3 (Liquid); method: Vibrating tube method
Molality, mol/kg of 1-n-butyl-3-methylimidazolium bromide	Solvent: Molality, mol/kg of 2,2'-[1,2-phenylenebis(nitrilomethylidyne)]bis-phenol	Mass density, kg/m3	uncertainty
.1012	0	951.01	.05
.1012	.0099	951.69	.05
.1012	.0296	953.03	.05
.1012	.0502	954.43	.05
.1012	.0698	955.76	.05
.1012	.0908	957.17	.05
.1012	.1106	958.49	.05
.1012	.13	959.78	.05
.1012	.1509	961.17	.05
.1012	.1697	962.4	.05
.1527	0	954.4	.05
.1527	.0097	955.06	.05
.1527	.0292	956.39	.05
.1527	.0495	957.76	.05
.1527	.0689	959.06	.05
.1527	.0865	960.23	.05
.1527	.1092	961.74	.05
.1527	.1298	963.09	.05
.1527	.1504	964.43	.05
.1527	.1702	965.72	.05
.197	0	957.2	.05
.197	.0111	957.96	.05
.197	.0293	959.2	.05
.197	.0497	960.57	.05
.197	.0705	961.96	.05
.197	.0935	963.49	.05
.197	.109	964.51	.05
.197	.1285	965.78	.05
.197	.1533	967.38	.05
.197	.1714	968.55	.05

System: N,N-dimethylformamide + 2,2'-[1,2-phenylenebis(nitrilomethylidyne)]bis-phenol + 1-n-butyl-3-methylimidazolium bromide; phases: Liquid
Fixed: Pressure, kPa = 101
Fixed: Temperature, K = 298.15
Property: Viscosity, Pa*s (Liquid); method: Capillary tube (Ostwald; Ubbelohde) method
Molality, mol/kg of 1-n-butyl-3-methylimidazolium bromide	Solvent: Molality, mol/kg of 2,2'-[1,2-phenylenebis(nitrilomethylidyne)]bis-phenol	Viscosity, Pa*s	uncertainty
.1012	.01	.000872	.000003
.1012	.0296	.000887	.000003
.1012	.0502	.000903	.000003
.1012	.0698	.000919	.000003
.1012	.0908	.000932	.000003
.1012	.1106	.000947	.000003
.1012	.13	.000958	.000003
.1012	.1509	.00097	.000003
.1012	.1697	.000983	.000003
.152	.0097	.000886	.000003
.152	.0292	.000897	.000003
.152	.0495	.000911	.000003
.152	.0689	.000927	.000003
.152	.0865	.00094	.000003
.152	.1092	.000954	.000003
.152	.1298	.000967	.000003
.152	.1504	.000981	.000003
.152	.1702	.000993	.000003
.197	.0111	.000918	.000003
.197	.0293	.000927	.000003
.197	.0497	.000939	.000003
.197	.0705	.00095	.000003
.197	.0935	.000968	.000003
.197	.109	.000978	.000003
.197	.1285	.00099	.000003
.197	.1533	.001001	.000003
.197	.1714	.00101	.000003

System: N,N-dimethylformamide + 2,2'-[1,2-phenylenebis(nitrilomethylidyne)]bis-phenol + 1-methyl-3-propylimidazolium bromide; phases: Liquid
Fixed: Pressure, kPa = 101
Fixed: Temperature, K = 298.15
Property: Mass density, kg/m3 (Liquid); method: Vibrating tube method
Molality, mol/kg of 1-methyl-3-propylimidazolium bromide	Solvent: Molality, mol/kg of 2,2'-[1,2-phenylenebis(nitrilomethylidyne)]bis-phenol	Mass density, kg/m3	uncertainty
0	0	944	.05
0	.0295	946.01	.05
0	.051	947.47	.05
0	.0697	948.75	.05
0	.0894	950.08	.05
0	.1106	951.51	.05
0	.1299	952.82	.05
0	.1465	953.94	.05
0	.1701	955.51	.05
0	.1898	956.83	.05
.03	0	946.19	.05
.03	.0506	949.65	.05
.03	.0697	950.94	.05
.03	.0894	952.28	.05
.03	.1103	953.68	.05
.03	.1299	954.99	.05
.03	.1499	956.31	.05
.03	.1693	957.58	.05
.03	.1856	958.64	.05
.03	.2095	960.19	.05
.0789	0	949.63	.05
.0789	.0507	953.08	.05
.0789	.0697	954.36	.05
.0789	.0901	955.73	.05
.0789	.1087	956.96	.05
.0789	.1293	958.32	.05
.0789	.1515	959.78	.05
.0789	.17	960.98	.05
.0789	.1921	962.41	.05
.0789	.2132	963.77	.05
.122	0	952.52	.05
.122	.0491	955.85	.05
.122	.0691	957.19	.05
.122	.0897	958.56	.05
.122	.1089	959.83	.05
.122	.1296	961.19	.05
.122	.1501	962.52	.05
.122	.1685	963.72	.05
.122	.1895	965.06	.05
.122	.211	966.42	.05

System: N,N-dimethylformamide + 2,2'-[1,2-phenylenebis(nitrilomethylidyne)]bis-phenol + 1-methyl-3-propylimidazolium bromide; phases: Liquid
Fixed: Pressure, kPa = 101
Fixed: Temperature, K = 298.15
Property: Viscosity, Pa*s (Liquid); method: Capillary tube (Ostwald; Ubbelohde) method
Molality, mol/kg of 1-methyl-3-propylimidazolium bromide	Solvent: Molality, mol/kg of 2,2'-[1,2-phenylenebis(nitrilomethylidyne)]bis-phenol	Viscosity, Pa*s	uncertainty
0	.01	.000802	.000003
0	.0302	.000818	.000003
0	.0505	.000833	.000003
0	.0698	.000847	.000003
0	.0851	.000859	.000003
0	.1098	.000878	.000003
0	.1268	.00089	.000003
0	.1507	.000905	.000003
0	.1705	.000919	.000003
.03	.0506	.000829	.000003
.03	.0697	.000841	.000003
.03	.0894	.000852	.000003
.03	.1103	.000866	.000003
.03	.1299	.000882	.000003
.03	.1499	.000897	.000003
.03	.1693	.000912	.000003
.03	.1856	.000923	.000003
.03	.2095	.00094	.000003
.0789	.0507	.000854	.000003
.0789	.0697	.000871	.000003
.0789	.0901	.000883	.000003
.0789	.1087	.0009	.000003
.0789	.1293	.000912	.000003
.0789	.1515	.000929	.000003
.0789	.17	.000943	.000003
.0789	.1921	.000958	.000003
.0789	.2132	.00097	.000003
.122	.0491	.000877	.000003
.122	.0691	.000892	.000003
.122	.0897	.000908	.000003
.122	.1089	.000922	.000003
.122	.1296	.000939	.000003
.122	.1501	.000951	.000003
.122	.1685	.000964	.000003
.122	.1895	.000977	.000003
.122	.211	.000993	.000003

System: N,N-dimethylformamide + 2,2'-[1,2-phenylenebis(nitrilomethylidyne)]bis-phenol + 1-pentyl-3-methylimidazolium bromide; phases: Liquid
Fixed: Pressure, kPa = 101
Fixed: Temperature, K = 298.15
Property: Mass density, kg/m3 (Liquid); method: Vibrating tube method
Molality, mol/kg of 1-pentyl-3-methylimidazolium bromide	Solvent: Molality, mol/kg of 2,2'-[1,2-phenylenebis(nitrilomethylidyne)]bis-phenol	Mass density, kg/m3	uncertainty
.026	0	947.47	.05
.026	.0292	949.47	.05
.026	.0496	950.86	.05
.026	.0698	952.24	.05
.026	.0916	953.72	.05
.026	.109	954.88	.05
.026	.1301	956.31	.05
.026	.1499	957.64	.05
.026	.1712	959.06	.05
.026	.1912	960.39	.05
.0508	0	949.26	.05
.0508	.0282	951.19	.05
.0508	.0498	952.67	.05
.0508	.0693	953.99	.05
.0508	.0895	955.36	.05
.0508	.1094	956.69	.05
.0508	.1279	957.93	.05
.0508	.1486	959.32	.05
.0508	.1682	960.61	.05
.0508	.1917	962.16	.05
.0747	0	950.79	.05
.0747	.0287	952.77	.05
.0747	.0496	954.19	.05
.0747	.0702	955.59	.05
.0747	.0905	956.95	.05
.0747	.1093	958.21	.05
.0747	.1295	959.55	.05
.0747	.1516	961.01	.05
.0747	.1696	962.2	.05
.0747	.1915	963.63	.05

System: N,N-dimethylformamide + 2,2'-[1,2-phenylenebis(nitrilomethylidyne)]bis-phenol + 1-pentyl-3-methylimidazolium bromide; phases: Liquid
Fixed: Pressure, kPa = 101
Fixed: Temperature, K = 298.15
Property: Viscosity, Pa*s (Liquid); method: Capillary tube (Ostwald; Ubbelohde) method
Molality, mol/kg of 1-pentyl-3-methylimidazolium bromide	Solvent: Molality, mol/kg of 2,2'-[1,2-phenylenebis(nitrilomethylidyne)]bis-phenol	Viscosity, Pa*s	uncertainty
.026	.0489	.000827	.000003
.026	.0672	.000843	.000003
.026	.1009	.00086	.000003
.026	.1081	.000876	.000003
.026	.1265	.00089	.000003
.026	.1473	.000903	.000003
.026	.1675	.000917	.000003
.026	.1923	.000931	.000003
.026	.2085	.000944	.000003
.0508	.0282	.000836	.000003
.0508	.0498	.000855	.000003
.0508	.0693	.000871	.000003
.0508	.0895	.000885	.000003
.0508	.1094	.000898	.000003
.0508	.1279	.00091	.000003
.0508	.1486	.000924	.000003
.0508	.1682	.000938	.000003
.0508	.1917	.000953	.000003
.0747	.0287	.000852	.000003
.0747	.0496	.000864	.000003
.0747	.0702	.000876	.000003
.0747	.0905	.000888	.000003
.0747	.1093	.000901	.000003
.0747	.1295	.000917	.000003
.0747	.1516	.000934	.000003
.0747	.1696	.000947	.000003
.0747	.1915	.000962	.000003

System: N,N-dimethylformamide + 2,2'-[1,2-phenylenebis(nitrilomethylidyne)]bis-phenol + 1-hexyl-3-methylimidazolium bromide; phases: Liquid
Fixed: Pressure, kPa = 101
Fixed: Temperature, K = 298.15
Property: Mass density, kg/m3 (Liquid); method: Vibrating tube method
Molality, mol/kg of 1-hexyl-3-methylimidazolium bromide	Solvent: Molality, mol/kg of 2,2'-[1,2-phenylenebis(nitrilomethylidyne)]bis-phenol	Mass density, kg/m3	uncertainty
.0245	0	945.76	.05
.0245	.049	949.11	.05
.0245	.069	950.47	.05
.0245	.0924	952.06	.05
.0245	.1122	953.4	.05
.0245	.1292	954.54	.05
.0245	.1466	955.7	.05
.0245	.1716	957.35	.05
.0245	.1906	958.63	.05
.0245	.21	959.88	.05
.0738	0	948.9	.05
.0738	.0523	952.51	.05
.0738	.0709	953.78	.05
.0738	.0907	955.12	.05
.0738	.111	956.49	.05
.0738	.1285	957.65	.05
.0738	.1498	959.07	.05
.0738	.1656	960.11	.05
.0738	.1901	961.71	.05
.0738	.2122	963.13	.05
.1205	0	951.72	.05
.1205	.0492	955.12	.05
.1205	.0685	956.43	.05
.1205	.0903	957.9	.05
.1205	.111	959.29	.05
.1205	.1279	960.41	.05
.1205	.1523	962.02	.05
.1205	.1714	963.25	.05
.1205	.19	964.46	.05
.1205	.2181	966.25	.05

System: N,N-dimethylformamide + 2,2'-[1,2-phenylenebis(nitrilomethylidyne)]bis-phenol + 1-hexyl-3-methylimidazolium bromide; phases: Liquid
Fixed: Pressure, kPa = 101
Fixed: Temperature, K = 298.15
Property: Viscosity, Pa*s (Liquid); method: Capillary tube (Ostwald; Ubbelohde) method
Molality, mol/kg of 1-hexyl-3-methylimidazolium bromide	Solvent: Molality, mol/kg of 2,2'-[1,2-phenylenebis(nitrilomethylidyne)]bis-phenol	Viscosity, Pa*s	uncertainty
.0205	.049	.000852	.000003
.0205	.069	.000864	.000003
.0205	.0924	.000876	.000003
.0205	.1122	.000888	.000003
.0205	.1292	.000901	.000003
.0205	.1466	.000917	.000003
.0205	.1716	.000934	.000003
.0205	.1906	.000947	.000003
.0205	.21	.000962	.000003
.0738	.0523	.00088	.000003
.0738	.0709	.000889	.000003
.0738	.0907	.000902	.000003
.0738	.111	.000914	.000003
.0738	.1285	.000924	.000003
.0738	.1498	.000941	.000003
.0738	.1656	.000953	.000003
.0738	.1901	.000966	.000003
.0738	.2122	.000983	.000003
.1205	.0492	.000939	.000003
.1205	.0685	.00095	.000003
.1205	.0903	.000964	.000003
.1205	.111	.000977	.000003
.1205	.1279	.000989	.000003
.1205	.1523	.001001	.000003
.1205	.1714	.001018	.000003
.1205	.19	.001031	.000003
.1205	.2181	.001042	.000003

System: N,N-dimethylformamide + 1-n-butyl-3-methylimidazolium bromide; phases: Liquid
Property: Mass density, kg/m3 (Liquid); method: Vibrating tube method
Molality, mol/kg of 1-n-butyl-3-methylimidazolium bromide	Pressure, kPa	Temperature, K	Mass density, kg/m3	uncertainty
.1012	101	298.15	951.01	.05
.1527	101	298.15	954.4	.05
.197	101	298.15	957.2	.05

System: N,N-dimethylformamide + 2,2'-[1,2-phenylenebis(nitrilomethylidyne)]bis-phenol; phases: Liquid
Property: Mass density, kg/m3 (Liquid); method: Vibrating tube method
Molality, mol/kg of 2,2'-[1,2-phenylenebis(nitrilomethylidyne)]bis-phenol	Pressure, kPa	Temperature, K	Mass density, kg/m3	uncertainty
.0295	101	298.15	946.01	.05
.051	101	298.15	947.47	.05
.0697	101	298.15	948.75	.05
.0894	101	298.15	950.08	.05
.1106	101	298.15	951.51	.05
.1299	101	298.15	952.82	.05
.1465	101	298.15	953.94	.05
.1701	101	298.15	955.51	.05
.1898	101	298.15	956.83	.05

System: N,N-dimethylformamide + 2,2'-[1,2-phenylenebis(nitrilomethylidyne)]bis-phenol; phases: Liquid
Property: Viscosity, Pa*s (Liquid); method: Capillary tube (Ostwald; Ubbelohde) method
Molality, mol/kg of 2,2'-[1,2-phenylenebis(nitrilomethylidyne)]bis-phenol	Pressure, kPa	Temperature, K	Viscosity, Pa*s	uncertainty
.01	101	298.15	.000802	.000003
.0302	101	298.15	.000818	.000003
.0505	101	298.15	.000833	.000003
.0698	101	298.15	.000847	.000003
.0851	101	298.15	.000859	.000003
.1098	101	298.15	.000878	.000003
.1268	101	298.15	.00089	.000003
.1507	101	298.15	.000905	.000003
.1705	101	298.15	.000919	.000003

System: N,N-dimethylformamide + 1-methyl-3-propylimidazolium bromide; phases: Liquid
Property: Mass density, kg/m3 (Liquid); method: Vibrating tube method
Molality, mol/kg of 1-methyl-3-propylimidazolium bromide	Pressure, kPa	Temperature, K	Mass density, kg/m3	uncertainty
.03	101	298.15	946.19	.05
.0789	101	298.15	949.63	.05
.122	101	298.15	952.52	.05

System: N,N-dimethylformamide + 1-pentyl-3-methylimidazolium bromide; phases: Liquid
Property: Mass density, kg/m3 (Liquid); method: Vibrating tube method
Molality, mol/kg of 1-pentyl-3-methylimidazolium bromide	Pressure, kPa	Temperature, K	Mass density, kg/m3	uncertainty
.026	101	298.15	947.47	.05
.0508	101	298.15	949.26	.05
.0747	101	298.15	950.79	.05

System: N,N-dimethylformamide + 1-hexyl-3-methylimidazolium bromide; phases: Liquid
Property: Mass density, kg/m3 (Liquid); method: Vibrating tube method
Molality, mol/kg of 1-hexyl-3-methylimidazolium bromide	Pressure, kPa	Temperature, K	Mass density, kg/m3	uncertainty
.0245	101	298.15	945.76	.05
.0738	101	298.15	948.9	.05
.1205	101	298.15	951.72	.05
