Measured thermophysical data. Refractive index of liquid D2O for visible wavelengths
Source: J. Chem. Eng. Data, 2012, 10.1021/je200969r
Compound 1: deuterium oxide (18O), D2O, purity 99.98%

System: deuterium oxide (18O); phases: Liquid
Property: Refractive index (Na D-line) (Liquid); method: Minimum Deviation technique
Wavelength, nm	Temperature, K	Refractive index (Na D-line)	uncertainty
632.8	288.351	1.3272	.0002
632.8	293.293	1.327	.0002
632.8	298.122	1.3267	.0002
632.8	303.147	1.326	.0002
632.8	308.093	1.3254	.0002
632.8	313.114	1.3249	.0002
632.8	318.129	1.3243	.0002
632.8	323.138	1.3237	.0002
632.8	328.119	1.3225	.0002
632.8	333.064	1.3219	.0002
632.8	337.982	1.3211	.0002
594.1	288.351	1.3283	.0002
594.1	293.293	1.3281	.0002
594.1	298.122	1.3278	.0002
594.1	303.147	1.3271	.0002
594.1	308.093	1.3266	.0002
594.1	313.114	1.3259	.0002
594.1	318.129	1.3254	.0002
594.1	323.138	1.3248	.0002
594.1	328.119	1.3236	.0002
594.1	333.064	1.3229	.0002
594.1	337.982	1.3221	.0002
543.5	288.351	1.33	.0002
543.5	293.293	1.3298	.0002
543.5	298.122	1.3293	.0002
543.5	303.147	1.3285	.0002
543.5	308.093	1.328	.0002
543.5	313.114	1.3275	.0002
543.5	318.129	1.3269	.0002
543.5	323.138	1.3263	.0002
543.5	328.119	1.3251	.0002
543.5	333.064	1.3244	.0002
543.5	337.982	1.3237	.0002
