Measured thermophysical data. Isobaric Vapor Liquid Equilibrium for the Ethanol + Water + 1,3-Dimethylimidazolium Dimethylphosphate System at 101.3 kPa
Source: J. Chem. Eng. Data, 2012, 10.1021/je2005209
Compound 1: ethanol, C2H6O
Compound 2: water, H2O
Compound 3: 1,3-dimethylimidazolium dimethylphosphate, C7H15N2O4P, purity 98%

System: ethanol; phases: Liquid, Gas
Property: Vapor or sublimation pressure, kPa (Liquid); method: Ebulliometric method (Recirculating still)
Temperature, K	Vapor or sublimation pressure, kPa	uncertainty
351.55	101.32	.1

System: ethanol + water; phases: Liquid, Gas
Property: Boiling temperature at pressure P, K (Liquid); method: Ebulliometric method (Recirculating still)
Mole fraction of ethanol	Pressure, kPa	Boiling temperature at pressure P, K	uncertainty
0	101.32	373.15	.1
.079	101.32	360.51	.1
.143	101.32	357.49	.1
.195	101.32	356.59	.1
.292	101.32	354.79	.1
.378	101.32	354.23	.1
.45	101.32	353.44	.1
.495	101.32	353.09	.1
.581	101.32	352.32	.1
.648	101.32	351.96	.1
.696	101.32	351.77	.1
.794	101.32	351.46	.1
.84	101.32	351.4	.1
.89	101.32	351.21	.1
1	101.32	351.55	.1

System: ethanol + water; phases: Gas, Liquid
Property: Mole fraction of ethanol (Gas); method: Chromatography
Mole fraction of ethanol	Pressure, kPa	Mole fraction of ethanol	uncertainty
0	101.32	0	.002
.079	101.32	.407	.002
.143	101.32	.493	.002
.195	101.32	.53	.002
.292	101.32	.57	.002
.378	101.32	.602	.002
.45	101.32	.626	.002
.495	101.32	.657	.002
.581	101.32	.691	.002
.648	101.32	.721	.002
.696	101.32	.742	.002
.794	101.32	.807	.002
.84	101.32	.844	.002
.89	101.32	.893	.002
1	101.32	1	.002

System: ethanol + water + 1,3-dimethylimidazolium dimethylphosphate; phases: Liquid, Gas
Fixed: Pressure, kPa = 101.32
Property: Boiling temperature at pressure P, K (Liquid); method: Ebulliometric method (Recirculating still)
Mole fraction of 1,3-dimethylimidazolium dimethylphosphate	Solvent: Mole fraction of ethanol	Boiling temperature at pressure P, K	uncertainty
.05321	.05	363.98	.1
.05289	.105	360.18	.1
.05311	.153	358.48	.1
.05276	.248	356.3	.1
.05321	.347	355.34	.1
.05213	.446	354.5	.1
.05277	.474	354.34	.1
.05314	.535	354.13	.1
.05229	.624	353.94	.1
.05289	.74	353.68	.1
.05274	.87	353.56	.1
.09878	.064	366.56	.1
.09823	.131	364.12	.1
.0991	.201	361.4	.1
.09874	.317	359.64	.1
.09856	.405	358.52	.1
.09823	.468	358.14	.1
.09846	.51	357.99	.1
.09901	.6	357.52	.1
.09875	.725	357.29	.1
.09876	.851	357	.1
.15214	.058	374.12	.1
.15222	.115	370.69	.1
.15199	.181	367.28	.1
.15243	.277	365.12	.1
.15237	.407	364.13	.1
.15246	.447	363.69	.1
.15232	.5	363.45	.1
.15201	.58	362.82	.1
.15267	.706	362.08	.1
.15213	.824	361.41	.1

System: ethanol + water + 1,3-dimethylimidazolium dimethylphosphate; phases: Gas, Liquid
Fixed: Pressure, kPa = 101.32
Property: Mole fraction of ethanol (Gas); method: Chromatography
Mole fraction of 1,3-dimethylimidazolium dimethylphosphate	Solvent: Mole fraction of ethanol	Mole fraction of ethanol	uncertainty
.05321	.05	.397	.002
.05289	.105	.483	.002
.05311	.153	.521	.002
.05276	.248	.601	.002
.05321	.347	.635	.002
.05213	.446	.676	.002
.05277	.474	.685	.002
.05314	.535	.713	.002
.05229	.624	.745	.002
.05289	.74	.825	.002
.05274	.87	.897	.002
.09878	.064	.481	.002
.09823	.131	.534	.002
.0991	.201	.615	.002
.09874	.317	.662	.002
.09856	.405	.701	.002
.09823	.468	.724	.002
.09846	.51	.741	.002
.09901	.6	.789	.002
.09875	.725	.848	.002
.09876	.851	.914	.002
.15214	.058	.504	.002
.15222	.115	.567	.002
.15199	.181	.643	.002
.15243	.277	.691	.002
.15237	.407	.734	.002
.15246	.447	.752	.002
.15232	.5	.768	.002
.15201	.58	.82	.002
.15267	.706	.857	.002
.15213	.824	.908	.002
