Measured thermophysical data. Isothermal Vapor Liquid Equilibria for Nitromethane and Nitroethane + 1,3-Dichloropropane Binary Systems at Temperatures between (343.15 and 363.15) K
Source: J. Chem. Eng. Data, 2011, 10.1021/je200651r
Compound 1: NM(nitromethane), CH3NO2, purity 97%
Compound 2: nitroethane, C2H5NO2, purity 97%
Compound 3: R 270fa, C3H6Cl2, purity 98%

System: NM(nitromethane); phases: Liquid
Fixed: Pressure, kPa = 101.325
Property: Refractive index (Na D-line) (Liquid); method: Standard Abbe refractometry
Temperature, K	Refractive index (Na D-line)	uncertainty
298.15	1.3794	

System: NM(nitromethane); phases: Liquid, Gas
Property: Vapor or sublimation pressure, kPa (Liquid); method: Manometric method
Temperature, K	Vapor or sublimation pressure, kPa	uncertainty
343.15	34.93	.05
353.15	50.14	.05
363.15	70.81	.05

System: nitroethane; phases: Liquid
Fixed: Pressure, kPa = 101.325
Property: Refractive index (Na D-line) (Liquid); method: Standard Abbe refractometry
Temperature, K	Refractive index (Na D-line)	uncertainty
298.15	1.3898	

System: nitroethane; phases: Liquid, Gas
Property: Vapor or sublimation pressure, kPa (Liquid); method: Manometric method
Temperature, K	Vapor or sublimation pressure, kPa	uncertainty
343.15	22.46	.05
353.15	32.84	.05
363.15	47.13	.05

System: R 270fa; phases: Liquid
Fixed: Pressure, kPa = 101.325
Property: Refractive index (Na D-line) (Liquid); method: Standard Abbe refractometry
Temperature, K	Refractive index (Na D-line)	uncertainty
298.15	1.4462	

System: R 270fa; phases: Liquid, Gas
Property: Vapor or sublimation pressure, kPa (Liquid); method: Manometric method
Temperature, K	Vapor or sublimation pressure, kPa	uncertainty
343.15	18.31	.05
353.15	26.84	.05
363.15	38.65	.05

System: NM(nitromethane) + R 270fa; phases: Gas, Liquid
Property: Mole fraction of NM(nitromethane) (Gas); method: Index of refraction calibration data
Mole fraction of NM(nitromethane)	Temperature, K	Mole fraction of NM(nitromethane)	uncertainty
0	343.15	0	.002
.069	343.15	.2018	.002
.1235	343.15	.3198	.002
.2098	343.15	.4359	.002
.2848	343.15	.5128	.002
.3609	343.15	.5732	.002
.4409	343.15	.6264	.002
.5159	343.15	.6758	.002
.5849	343.15	.7127	.002
.6569	343.15	.7509	.002
.7282	343.15	.7889	.002
.7901	343.15	.8255	.002
.8529	343.15	.8686	.002
.9152	343.15	.9152	.002
.9636	343.15	.9586	.002
1	343.15	1	.002
0	353.15	0	.002
.069	353.15	.1958	.002
.1214	353.15	.3107	.002
.2078	353.15	.4226	.002
.2848	353.15	.5034	.002
.3574	353.15	.5673	.002
.4392	353.15	.6194	.002
.5159	353.15	.6677	.002
.5835	353.15	.7088	.002
.6541	353.15	.7484	.002
.7256	353.15	.7889	.002
.7901	353.15	.8255	.002
.8518	353.15	.8675	.002
.9152	353.15	.9152	.002
.9636	353.15	.9606	.002
1	353.15	1	.002
0	363.15	0	.002
.069	363.15	.1857	.002
.1256	363.15	.2996	.002
.2038	363.15	.4176	.002
.281	363.15	.4988	.002
.3556	363.15	.5614	.002
.4441	363.15	.6165	.002
.5143	363.15	.665	.002
.5864	363.15	.7049	.002
.6528	363.15	.7446	.002
.7256	363.15	.7877	.002
.7901	363.15	.8255	.002
.8529	363.15	.8675	.002
.9152	363.15	.9152	.002
.9636	363.15	.9606	.002
1	363.15	1	.002

System: NM(nitromethane) + R 270fa; phases: Liquid, Gas
Property: Vapor or sublimation pressure, kPa (Liquid); method: Manometric method
Mole fraction of NM(nitromethane)	Temperature, K	Vapor or sublimation pressure, kPa	uncertainty
0	343.15	18.31	.05
.069	343.15	21.46	.05
.1235	343.15	23.81	.05
.2098	343.15	26.37	.05
.2848	343.15	28.36	.05
.3609	343.15	30	.05
.4409	343.15	31.32	.05
.5159	343.15	32.33	.05
.5849	343.15	33.17	.05
.6569	343.15	33.85	.05
.7282	343.15	34.38	.05
.7901	343.15	34.84	.05
.8529	343.15	35.12	.05
.9152	343.15	35.17	.05
.9636	343.15	35	.05
1	343.15	34.93	.05
0	353.15	26.84	.05
.069	353.15	31.18	.05
.1214	353.15	34.34	.05
.2078	353.15	38	.05
.2848	353.15	40.74	.05
.3574	353.15	43.06	.05
.4392	353.15	44.94	.05
.5159	353.15	46.44	.05
.5835	353.15	47.68	.05
.6541	353.15	48.6	.05
.7256	353.15	49.46	.05
.7901	353.15	50.1	.05
.8518	353.15	50.46	.05
.9152	353.15	50.57	.05
.9636	353.15	50.36	.05
1	353.15	50.14	.05
0	363.15	38.65	.05
.069	363.15	44.48	.05
.1256	363.15	48.61	.05
.2038	363.15	53.68	.05
.281	363.15	57.5	.05
.3556	363.15	60.53	.05
.4441	363.15	63.25	.05
.5143	363.15	65.46	.05
.5864	363.15	67.21	.05
.6528	363.15	68.54	.05
.7256	363.15	69.66	.05
.7901	363.15	70.59	.05
.8529	363.15	71.07	.05
.9152	363.15	71.21	.05
.9636	363.15	71.07	.05
1	363.15	70.81	.05

System: nitroethane + R 270fa; phases: Gas, Liquid
Property: Mole fraction of nitroethane (Gas); method: Index of refraction calibration data
Mole fraction of nitroethane	Temperature, K	Mole fraction of nitroethane	uncertainty
0	343.15	0	.002
.0869	343.15	.1309	.002
.1496	343.15	.2131	.002
.2111	343.15	.283	.002
.2732	343.15	.349	.002
.3375	343.15	.4093	.002
.3963	343.15	.4643	.002
.4661	343.15	.5214	.002
.5337	343.15	.5805	.002
.6077	343.15	.6396	.002
.6859	343.15	.7054	.002
.7616	343.15	.768	.002
.8246	343.15	.8246	.002
.8909	343.15	.8879	.002
.9488	343.15	.9427	.002
1	343.15	1	.002
0	353.15	0	.002
.0869	353.15	.1309	.002
.1496	353.15	.2131	.002
.2111	353.15	.2791	.002
.2732	353.15	.349	.002
.3356	353.15	.4075	.002
.3982	353.15	.4643	.002
.4643	353.15	.5214	.002
.5337	353.15	.577	.002
.6094	353.15	.6396	.002
.6859	353.15	.7038	.002
.7616	353.15	.7696	.002
.8246	353.15	.8261	.002
.8909	353.15	.8894	.002
.9488	353.15	.9442	.002
1	353.15	1	.002
0	363.15	0	.002
.089	363.15	.1288	.002
.1517	363.15	.2111	.002
.2111	363.15	.2791	.002
.2732	363.15	.3471	.002
.3356	363.15	.4075	.002
.3963	363.15	.4625	.002
.4679	363.15	.5197	.002
.5337	363.15	.5753	.002
.6128	363.15	.6429	.002
.6859	363.15	.7054	.002
.7632	363.15	.7696	.002
.8246	363.15	.8277	.002
.8925	363.15	.8894	.002
.9488	363.15	.9472	.002
1	363.15	1	.002

System: nitroethane + R 270fa; phases: Liquid, Gas
Property: Vapor or sublimation pressure, kPa (Liquid); method: Manometric method
Mole fraction of nitroethane	Temperature, K	Vapor or sublimation pressure, kPa	uncertainty
0	343.15	18.31	.05
.0869	343.15	19.29	.05
.1496	343.15	19.96	.05
.2111	343.15	20.44	.05
.2732	343.15	20.9	.05
.3375	343.15	21.32	.05
.3963	343.15	21.61	.05
.4661	343.15	21.93	.05
.5337	343.15	22.17	.05
.6077	343.15	22.48	.05
.6859	343.15	22.61	.05
.7616	343.15	22.77	.05
.8246	343.15	22.85	.05
.8909	343.15	22.7	.05
.9488	343.15	22.6	.05
1	343.15	22.46	.05
0	353.15	26.84	.05
.0869	353.15	28.26	.05
.1496	353.15	29.09	.05
.2111	353.15	29.84	.05
.2732	353.15	30.45	.05
.3356	353.15	31.08	.05
.3982	353.15	31.57	.05
.4643	353.15	32.01	.05
.5337	353.15	32.34	.05
.6094	353.15	32.73	.05
.6859	353.15	32.96	.05
.7616	353.15	33.14	.05
.8246	353.15	33.32	.05
.8909	353.15	33.21	.05
.9488	353.15	33.05	.05
1	353.15	32.84	.05
0	363.15	38.65	.05
.089	363.15	40.53	.05
.1517	363.15	41.81	.05
.2111	363.15	42.84	.05
.2732	363.15	43.8	.05
.3356	363.15	44.58	.05
.3963	363.15	45.26	.05
.4679	363.15	45.88	.05
.5337	363.15	46.32	.05
.6128	363.15	46.94	.05
.6859	363.15	47.29	.05
.7632	363.15	47.56	.05
.8246	363.15	47.69	.05
.8925	363.15	47.52	.05
.9488	363.15	47.37	.05
1	363.15	47.13	.05
