Measured thermophysical data. Transport Properties of N-Butyl-N-methylpyrrolidinium Bis(trifluoromethylsulfonyl)amide
Source: J. Chem. Eng. Data, 2011, 10.1021/je2006049
Compound 1: 1-butyl-1-methylpyrrolidinium bis[(trifluoromethyl)sulfonyl]imide, C11H20F6N2O4S2
Compound 2: N-methyl-N-propyl-3-azabicyclo[3.2.2]nonaneium bis(trifluoromethylsulfonyl)amide, C14H24F6N2O4S2

System: 1-butyl-1-methylpyrrolidinium bis[(trifluoromethyl)sulfonyl]imide; phases: Liquid
Property: Viscosity, Pa*s (Liquid); method: Falling or rolling sphere viscometry
Temperature, K	Pressure, kPa	Viscosity, Pa*s	uncertainty
273.15	100	.31928	.0063856
273.15	100	.31872	.0063744
273.15	100	.32044	.0064088
273.15	820	.31829	.0063658
273.15	10850	.37812	.0075624
273.15	20760	.44179	.0088358
273.15	32190	.54204	.0108408
273.15	40240	.62151	.0124302
273.15	45000	.67725	.013545
273.15	50310	.72934	.0145868
273.15	59200	.8377	.016754
273.15	60550	.85599	.0171198
273.15	69280	.98367	.0196734
273.15	70310	1.00874	.0201748
273.15	80520	1.18476	.0236952
278.15	100	.22484	.0044968
278.15	100	.22485	.004497
283.15	100	.16657	.0033314
283.15	100	.16715	.003343
283.15	100	.16715	.003343
283.15	100	.16709	.0033418
283.15	100	.16709	.0033418
283.15	100	.16656	.0033312
283.15	10140	.19243	.0038486
283.15	19970	.22297	.0044594
283.15	29990	.25918	.0051836
283.15	40620	.3033	.006066
283.15	50520	.35045	.007009
283.15	59770	.39894	.0079788
283.15	70190	.46339	.0092678
283.15	78710	.51726	.0103452
283.15	89720	.6207	.012414
283.15	89960	.60422	.0120844
283.15	100390	.70887	.0141774
283.15	100390	.70253	.0140506
293.15	100	.09981	.0019962
293.15	100	.09992	.0019984
298.15	100	.07654	.0015308
298.15	100	.07855	.001571
298.15	100	.07848	.0015696
298.15	100	.07653	.0015306
298.15	100	.07663	.0015326
298.15	860	.07722	.0015444
298.15	10370	.08796	.0017592
298.15	20760	.10093	.0020186
298.15	30700	.11496	.0022992
298.15	40660	.13058	.0026116
298.15	50630	.14826	.0029652
298.15	60600	.16795	.003359
298.15	70390	.18946	.0037892
298.15	80180	.21375	.004275
298.15	90600	.24218	.0048436
298.15	100230	.27162	.0054324
303.15	100	.06282	.0012564
303.15	100	.06263	.0012526
313.15	100	.04127	.0008254
313.15	100	.04124	.0008248
323.15	100	.02906	.0005812
323.15	100	.02904	.0005808
323.15	100	.02863	.0005726
323.15	100	.02905	.000581
323.15	100	.02903	.0005806
323.15	100	.02863	.0005726
323.15	10520	.03231	.0006462
323.15	20600	.03621	.0007242
323.15	29970	.04016	.0008032
323.15	39910	.04472	.0008944
323.15	50590	.05006	.0010012
323.15	60550	.05573	.0011146
323.15	70490	.06177	.0012354
323.15	80450	.06824	.0013648
323.15	90470	.07536	.0015072
323.15	100400	.08299	.0016598
333.15	100	.02131	.0004262
333.15	100	.0213	.000426
343.15	100	.01614	.0003228
343.15	100	.01613	.0003226
348.15	100	.01407	.0002814
348.15	100	.01406	.0002812
348.15	10850	.01568	.0003136
348.15	11990	.01582	.0003164
348.15	21760	.01754	.0003508
348.15	29210	.0188	.000376
348.15	38020	.02038	.0004076
348.15	49600	.0229	.000458
348.15	64630	.02645	.000529
348.15	73060	.02844	.0005688
348.15	85040	.03153	.0006306
348.15	102920	.0368	.000736
353.15	100	.01273	.0002546
353.15	100	.01267	.0002534

System: 1-butyl-1-methylpyrrolidinium bis[(trifluoromethyl)sulfonyl]imide; phases: Liquid
Property: Viscosity, Pa*s (Liquid); method: Concentric cylinders viscometry
Temperature, K	Pressure, kPa	Viscosity, Pa*s	uncertainty
273.15	101.325	.3224	.006448
278.15	101.325	.2309	.004618
283.15	101.325	.1701	.003402
288.15	101.325	.1284	.002568
293.15	101.325	.09895	.001979
293.15	101.325	.099	.00198
298.15	101.325	.07783	.0015566
303.15	101.325	.06226	.0012452
313.15	101.325	.04172	.0008344
323.15	101.325	.02942	.0005884
333.15	101.325	.02164	.0004328
343.15	101.325	.01646	.0003292
353.15	101.325	.01291	.0002582
363.15	101.325	.01035	.000207

System: 1-butyl-1-methylpyrrolidinium bis[(trifluoromethyl)sulfonyl]imide; phases: Liquid
Fixed: Pressure, kPa = 101.325
Property: Electrical conductivity, S/m (Liquid); method: Alternating current cell with electrodes
Temperature, K	Electrical conductivity, S/m	uncertainty
273.15	.07415	.001483
278.15	.1012	.002024
283.15	.1343	.002686
288.15	.1745	.00349
293.14	.2212	.004424
298.14	.2755	.00551
298.15	.2754	.005508
303.15	.3379	.006758
313.15	.4864	.009728
323.14	.6674	.013348
333.15	.8788	.017576
343.14	1.122	.02244
353.15	1.392	.02784

System: 1-butyl-1-methylpyrrolidinium bis[(trifluoromethyl)sulfonyl]imide; phases: Liquid
Fixed: Pressure, kPa = 101.325
Property: Mass density, kg/m3 (Liquid); method: Vibrating tube method
Temperature, K	Mass density, kg/m3	uncertainty
273.15	1416.89	.1
283.15	1407.76	.1
293.15	1398.92	.1
298.15	1394.51	.1
303.15	1390.1	.1
313.15	1381.31	.1
323.15	1372.58	.1
333.15	1363.89	.1
343.15	1355.26	.1
353.15	1346.69	.1
363.15	1338.16	.1

System: 1-butyl-1-methylpyrrolidinium bis[(trifluoromethyl)sulfonyl]imide; phases: Liquid
Fixed: Pressure, kPa = 101.325
Property: Mass density, kg/m3 (Liquid); method: Vibrating tube method
Temperature, K	Mass density, kg/m3	uncertainty
273.15	1416.94	.1
283.15	1407.82	.1
288.15	1403.39	.1
293.15	1398.96	.1
303.15	1390.17	.1
313.15	1381.38	.1
323.15	1372.67	.1
333.15	1363.97	.1
343.15	1355.36	.1
353.15	1346.78	.1
363.15	1338.25	.1

System: 1-butyl-1-methylpyrrolidinium bis[(trifluoromethyl)sulfonyl]imide; phases: Liquid
Fixed: Pressure, kPa = 101.325
Property: Mass density, kg/m3 (Liquid); method: Vibrating tube method
Temperature, K	Mass density, kg/m3	uncertainty
273.15	1416.7	.1
278.15	1412.1	.1
283.15	1407.6	.1
288.15	1403.2	.1
293.15	1398.7	.1
293.15	1398.8	.1
298.15	1394.4	.1
303.15	1390	.1
313.15	1381.2	.1
323.15	1372.5	.1
333.15	1363.9	.1
343.15	1355.3	.1
353.15	1346.8	.1
363.15	1338.4	.1

System: N-methyl-N-propyl-3-azabicyclo[3.2.2]nonaneium bis(trifluoromethylsulfonyl)amide; phases: Liquid
Fixed: Pressure, kPa = 101.325
Property: Mass density, kg/m3 (Liquid); method: Vibrating tube method
Temperature, K	Mass density, kg/m3	uncertainty
273.15	1425.91	.1
283.15	1417.2	.1
293.15	1408.55	.1
298.15	1404.34	.1
298.15	1404.23	.1
298.15	1404.3	.1
303.15	1399.93	.1
313.15	1391.31	.1
323.15	1382.85	.1
333.15	1374.84	.1
333.15	1374.6	.1
333.15	1374.53	.1
343.15	1366.29	.1
343.15	1366.65	.1
343.15	1366.57	.1
343.15	1366.65	.1
353.15	1358.43	.1
353.15	1358.35	.1
363.15	1350.25	.1
363.15	1350.26	.1
