Measured thermophysical data. Physical Properties of Binary and Ternary Mixtures of 2-Propanol, Water, and 1-Butyl-3-methylimidazolium Tetrafluoroborate Ionic Liquid
Source: J. Chem. Eng. Data, 2012, 10.1021/je201010s
Compound 1: 2-propanol, C3H8O, purity 99.9%
Compound 2: [BMIM][BF4], C8H15BF4N2, purity 99%
Compound 3: water, H2O, purity 99.99%

System: 2-propanol; phases: Liquid
Fixed: Pressure, kPa = 101.325
Property: Refractive index (Na D-line) (Liquid); method: Standard Abbe refractometry
Temperature, K	Refractive index (Na D-line)	uncertainty
298.15	1.3751	.0006
323.15	1.3604	.0006

System: 2-propanol; phases: Liquid
Property: Mass density, kg/m3 (Liquid); method: Vibrating tube method
Pressure, kPa	Temperature, K	Mass density, kg/m3	uncertainty
101	298.15	780.82	.5
101	323.15	758.67	.5

System: [BMIM][BF4]; phases: Liquid
Fixed: Pressure, kPa = 101.325
Property: Refractive index (Na D-line) (Liquid); method: Standard Abbe refractometry
Temperature, K	Refractive index (Na D-line)	uncertainty
298.15	1.422	.0006
323.15	1.4155	.0006

System: [BMIM][BF4]; phases: Liquid
Property: Mass density, kg/m3 (Liquid); method: Vibrating tube method
Pressure, kPa	Temperature, K	Mass density, kg/m3	uncertainty
101	298.15	1202.87	.9
101	323.15	1185.11	.9

System: water; phases: Liquid
Fixed: Pressure, kPa = 101.325
Property: Refractive index (Na D-line) (Liquid); method: Standard Abbe refractometry
Temperature, K	Refractive index (Na D-line)	uncertainty
298.15	1.3325	.0006

System: water; phases: Liquid
Property: Mass density, kg/m3 (Liquid); method: Vibrating tube method
Pressure, kPa	Temperature, K	Mass density, kg/m3	uncertainty
101	298.15	997.02	.5

System: 2-propanol + water; phases: Liquid
Fixed: Pressure, kPa = 101
Fixed: Temperature, K = 298.15
Property: Refractive index (Na D-line) (Liquid); method: Standard Abbe refractometry
Mass fraction of 2-propanol	Refractive index (Na D-line)	uncertainty
0	1.3325	.0006
.048	1.3365	.0006
.0987	1.3412	.0006
.1446	1.3458	.0006
.2009	1.3502	.0006
.241	1.3536	.0006
.2951	1.3569	.0006
.3387	1.3597	.0006
.3921	1.3622	.0006
.4412	1.3645	.0006
.4805	1.366	.0006
.5386	1.3681	.0006
.6205	1.3707	.0006
.6337	1.3711	.0006
.6782	1.3722	.0006
.7452	1.3737	.0006
.7861	1.3744	.0006
.8541	1.3752	.0006
.8959	1.3756	.0006
.9492	1.3756	.0006
1	1.3751	.0006

System: 2-propanol + water; phases: Liquid
Fixed: Pressure, kPa = 101
Fixed: Temperature, K = 298.15
Property: Mass density, kg/m3 (Liquid); method: Vibrating tube method
Mass fraction of 2-propanol	Mass density, kg/m3	uncertainty
0	997.02	.5
.0915	982.05	.5
.2131	960.29	.5
.3299	936.93	.5
.4795	906.69	.5
.5009	901.31	.5
.618	874.45	.5
.684	858.73	.5
.7874	834.01	.5
.8788	811.99	.5
.8976	807.44	.5
.9154	803.01	.5
.9311	799.05	.5
.9502	794.22	.5
.9752	787.71	.5
.9895	783.8	.5
1	780.82	.5

System: water + [BMIM][BF4]; phases: Liquid
Fixed: Pressure, kPa = 101
Fixed: Temperature, K = 298.15
Property: Refractive index (Na D-line) (Liquid); method: Standard Abbe refractometry
Mass fraction of water	Refractive index (Na D-line)	uncertainty
0	1.422	.0006
.0098	1.4206	.0006
.0167	1.4194	.0006
.0205	1.4191	.0006
.029	1.418	.0006
.0396	1.4169	.0006
.0585	1.4141	.0006
.0982	1.4094	.0006
.154	1.4033	.0006
.2046	1.398	.0006
.2517	1.3934	.0006
.3043	1.3883	.0006
.3966	1.3801	.0006
.5061	1.3705	.0006
.6986	1.3549	.0006
.8897	1.3406	.0006
1	1.3325	.0006

System: water + [BMIM][BF4]; phases: Liquid
Fixed: Pressure, kPa = 101
Fixed: Temperature, K = 298.15
Property: Mass density, kg/m3 (Liquid); method: Vibrating tube method
Mass fraction of water	Mass density, kg/m3	uncertainty
0	1202.87	.9
.0098	1199.53	.9
.0167	1196.97	.9
.0205	1195.79	.9
.029	1193.14	.9
.0396	1189.89	.9
.0585	1184.23	.9
.0982	1173.48	.9
.154	1159.29	.9
.2046	1147.24	.9
.2517	1136.64	.9
.3043	1125.12	.9
.3966	1106.01	.9
.5061	1084.29	.9
.6986	1048.69	.9
.8897	1015.75	.9
1	997.02	.9

System: 2-propanol + [BMIM][BF4]; phases: Liquid
Fixed: Pressure, kPa = 101
Fixed: Temperature, K = 323.15
Property: Refractive index (Na D-line) (Liquid); method: Standard Abbe refractometry
Mass fraction of 2-propanol	Refractive index (Na D-line)	uncertainty
0	1.4155	.001
.0089	1.4152	.001
.0287	1.4143	.001
.0624	1.4122	.001
.1053	1.4106	.001
.1649	1.4077	.001
.2183	1.4071	.001
.2719	1.406	.001
.324	1.403	.001
.4108	1.3989	.001
.5167	1.3948	.001
.5965	1.391	.001
.6194	1.3904	.001
.7697	1.3817	.001
.8372	1.3749	.001
.9344	1.3668	.001
1	1.3604	.001

System: 2-propanol + [BMIM][BF4]; phases: Liquid
Fixed: Pressure, kPa = 101
Fixed: Temperature, K = 323.15
Property: Mass density, kg/m3 (Liquid); method: Vibrating tube method
Mass fraction of 2-propanol	Mass density, kg/m3	uncertainty
0	1185.11	3
.0089	1180.38	3
.0287	1170.07	3
.0624	1147.36	3
.1053	1122.14	3
.1649	1091.32	3
.2183	1061.8	3
.2719	1031.58	3
.324	1012	3
.4108	973.34	3
.5167	927.14	3
.5965	901.85	3
.6194	888.84	3
.7697	835.46	3
.8372	809.26	3
.9344	778.75	3
1	758.67	3

System: 2-propanol + water + [BMIM][BF4]; phases: Liquid
Fixed: Pressure, kPa = 101
Fixed: Temperature, K = 298.15
Property: Refractive index (Na D-line) (Liquid); method: Standard Abbe refractometry
Mass fraction of 2-propanol	Mass fraction of water	Refractive index (Na D-line)	uncertainty
.021	.3882	1.3816	.0008
.0225	.4948	1.3726	.0008
.0228	.6827	1.3577	.0008
.0254	.8671	1.3437	.0008
.0315	.1981	1.3986	.0008
.0324	.2944	1.3898	.0008
.0334	.2433	1.3941	.0008
.0341	.0161	1.4183	.0008
.0341	.0565	1.4134	.0008
.0341	.0949	1.4093	.0008
.0348	.0382	1.4154	.0008
.0375	.0094	1.4187	.0008
.039	.0197	1.4177	.0008
.0418	.1476	1.4033	.0008
.0788	.1282	1.4037	.0008
.0957	.0647	1.4095	.0008
.1023	.356	1.3837	.0008
.1047	.0244	1.4135	.0008
.1049	.453	1.376	.0008
.1088	.0433	1.4112	.0008
.1089	.0258	1.416	.0008
.1089	.6225	1.363	.0008
.1124	.7897	1.3507	.0008
.1906	.1495	1.3996	.0008
.1926	.3202	1.3852	.0008
.1946	.4077	1.3788	.0008
.1971	.0795	1.404	.0008
.199	.5595	1.3679	.0008
.1999	.2354	1.3906	.0008
.2027	.7093	1.3577	.0008
.2039	.021	1.4088	.0008
.2074	.0459	1.4132	.0008
.2082	.0398	1.4067	.0008
.2117	.2289	1.3913	.0008
.2144	.3227	1.3798	.0008
.2176	.2535	1.3899	.0008
.2487	.1734	1.394	.0008
.2551	.1609	1.3952	.0008
.2598	.1397	1.3987	.0008
.2649	.0996	1.4024	.0008
.2711	.2956	1.3849	.0008
.2887	.0254	1.4044	.0008
.3152	.2716	1.3858	.0008
.3236	.3424	1.3809	.0008
.3265	.202	1.39	.0008
.3303	.4678	1.3726	.0008
.3376	.5893	1.3643	.0008
.3542	.2071	1.3888	.0008
.3759	.2674	1.3845	.0008
.3876	.0592	1.3974	.0008
.3969	.1302	1.3924	.0008
.3982	.035	1.3983	.0008
.4105	.2126	1.3869	.0008
.4318	.2727	1.3831	.0008
.4423	.1492	1.3898	.0008
.4588	.2598	1.3826	.0008
.5058	.0288	1.3941	.0008
.5144	.0249	1.3888	.0008
.5577	.1042	1.3883	.0008
.5826	.3418	1.3744	.0008
.5974	.0689	1.3884	.0008
.6124	.0472	1.389	.0008
.6275	.2504	1.3773	.0008
.6863	.2655	1.3751	.0008
.6909	.1747	1.3796	.0008
.697	.1675	1.3793	.0008
.7588	.0936	1.381	.0008
.7641	.1822	1.3768	.0008
.797	.0479	1.3816	.0008
.8316	.11	1.3778	.0008
.8831	.0549	1.3781	.0008
.9079	.0283	1.378	.0008

System: 2-propanol + water + [BMIM][BF4]; phases: Liquid
Fixed: Pressure, kPa = 101
Fixed: Temperature, K = 298.15
Property: Mass density, kg/m3 (Liquid); method: Vibrating tube method
Mass fraction of 2-propanol	Mass fraction of water	Mass density, kg/m3	uncertainty
.021	.3882	1101.98	1
.0225	.4948	1081.71	1
.0228	.6827	1048.33	1
.0254	.8671	1010.18	1
.0315	.1981	1134.2	1
.0324	.2944	1115.37	1
.0334	.2433	1124.56	1
.0341	.0161	1176.75	1
.0341	.0565	1165.17	1
.0341	.0949	1155.35	1
.0348	.0382	1168.73	1
.0375	.0094	1176.67	1
.039	.0197	1162.63	1
.0418	.1476	1140.2	1
.0788	.1282	1125.54	1
.0957	.0647	1131.51	1
.1023	.356	1073.51	1
.1047	.0244	1136.24	1
.1049	.453	1056.14	1
.1088	.0433	1129.22	1
.1089	.0258	1139.74	1
.1089	.6225	1027.33	1
.1124	.7897	999.77	1
.1906	.1495	1068.24	1
.1926	.3202	1041.51	1
.1946	.4077	1027.92	1
.1971	.0795	1077.04	1
.199	.5595	1003.08	1
.1999	.2354	1048.74	1
.2027	.7093	977.89	1
.2039	.021	1084.55	1
.2074	.0459	1062.42	1
.2082	.0398	1075.39	1
.2117	.2289	1045.06	1
.2144	.3227	1021.28	1
.2176	.2535	1041.1	1
.2487	.1734	1030.15	1
.2551	.1609	1035.47	1
.2598	.1397	1032.24	1
.2649	.0996	1036.97	1
.2711	.2956	1010.62	1
.2887	.0254	1045.23	1
.3152	.2716	992.06	1
.3236	.3424	985.82	1
.3265	.202	1000.92	1
.3303	.4678	967.14	1
.3376	.5893	948.16	1
.3542	.2071	987.92	1
.3759	.2674	971.4	1
.3876	.0592	992.48	1
.3969	.1302	980.66	1
.3982	.035	990.49	1
.4105	.2126	964.69	1
.4318	.2727	949.79	1
.4423	.1492	959.72	1
.4588	.2598	941.12	1
.5058	.0288	948.3	1
.5144	.0249	945.36	1
.5577	.1042	920.16	1
.5826	.3418	892	1
.5974	.0689	908.7	1
.6124	.0472	905.01	1
.6275	.2504	880.04	1
.6863	.2655	862.98	1
.6909	.1747	869.35	1
.697	.1675	866.75	1
.7588	.0936	851	1
.7641	.1822	844.27	1
.797	.0479	842.51	1
.8316	.11	827.89	1
.8831	.0549	814.81	1
.9079	.0283	807.7	1
