Measured thermophysical data. Extraction of Nitrofurantoin Using Ionic Liquids
Source: J. Chem. Eng. Data, 2012, 10.1021/je201301b
Compound 1: 1-hexyloxymethyl-3-methylimidazolium tetrafluoroborate, C11H21N2OBF4
Compound 2: 1,3-dihexyloxymethylimidazolium (bis(trifluoromethyl)sulfonyl)imide, C19H33F6N3O6S2

System: 1-hexyloxymethyl-3-methylimidazolium tetrafluoroborate; phases: Liquid
Fixed: Pressure, kPa = 101.325
Property: Mass density, kg/m3 (Liquid); method: Vibrating tube method
Temperature, K	Mass density, kg/m3	uncertainty
298.15	1153.1	
308.15	1145.76	
318.15	1138.71	
328.15	1131.65	
338.15	1124.63	
348.15	1117.63	

System: 1,3-dihexyloxymethylimidazolium (bis(trifluoromethyl)sulfonyl)imide; phases: Liquid
Fixed: Pressure, kPa = 101.325
Property: Mass density, kg/m3 (Liquid); method: Vibrating tube method
Temperature, K	Mass density, kg/m3	uncertainty
298.15	1254.89	
308.15	1246.07	
318.15	1237.28	
328.15	1228.51	
338.15	1219.66	
348.15	1210.87	
