Measured thermophysical data. Solubility of Sodium 4-Nitrobenzenesulfonate in Binary Sodium  Chloride + Water, Sodium Sulfate + Water, and Ethanol + Water  Solvent Mixtures at Elevated Temperatures
Source: J. Chem. Eng. Data, 2012, 10.1021/je2010165
Compound 1: sodium 4-nitrobenzenesulphonate, C6H4NNaO5S, purity 99.5%
Compound 2: sodium chloride, ClNa, purity 99.6%
Compound 3: sodium sulfate, Na2O4S, purity 99.8%
Compound 4: ethanol, C2H6O, purity 99.9%
Compound 5: water, H2O

System: sodium 4-nitrobenzenesulphonate + sodium chloride + water; phases: Liquid, Crystal
Fixed: Pressure, kPa = 101.3
Property: Mole fraction of sodium 4-nitrobenzenesulphonate (Liquid); method: Chromatography
Solvent: Mass fraction of sodium chloride	Temperature, K	Mole fraction of sodium 4-nitrobenzenesulphonate	uncertainty
0	273.15	.1006	.002012
0	278.15	.1194	.002388
0	283.15	.1417	.002834
0	288.15	.1722	.003444
0	293.15	.199	.00398
0	298.15	.2332	.004664
0	303.15	.2662	.005324
0	308.15	.3003	.006006
0	313.15	.3389	.006778
0	318.15	.3755	.00751
0	323.15	.4137	.008274
.04	273.15	.0433	.000866
.04	278.15	.0538	.001076
.04	283.15	.0672	.001344
.04	288.15	.0825	.00165
.04	293.15	.0998	.001996
.04	298.15	.1226	.002452
.04	303.15	.1453	.002906
.04	308.15	.1731	.003462
.04	313.15	.2054	.004108
.04	318.15	.2426	.004852
.04	323.15	.2829	.005658
.08	273.15	.0298	.000596
.08	278.15	.0357	.000714
.08	283.15	.0435	.00087
.08	288.15	.0526	.001052
.08	293.15	.0663	.001326
.08	298.15	.0777	.001554
.08	303.15	.0958	.001916
.08	308.15	.1158	.002316
.08	313.15	.1332	.002664
.08	318.15	.1575	.00315
.08	323.15	.187	.00374
.15	273.15	.0154	.000308
.15	278.15	.0193	.000386
.15	283.15	.0239	.000478
.15	288.15	.029	.00058
.15	293.15	.0368	.000736
.15	298.15	.0449	.000898
.15	303.15	.0557	.001114
.15	308.15	.0695	.00139
.15	313.15	.0842	.001684
.15	318.15	.1012	.002024
.15	323.15	.1227	.002454
.2	273.15	.0041	.000082
.2	278.15	.0052	.000104
.2	283.15	.0066	.000132
.2	288.15	.0087	.000174
.2	293.15	.0117	.000234
.2	298.15	.0162	.000324
.2	303.15	.021	.00042
.2	308.15	.0301	.000602
.2	313.15	.0411	.000822
.2	318.15	.0545	.00109
.2	323.15	.0756	.001512

System: sodium 4-nitrobenzenesulphonate + water + sodium sulfate; phases: Liquid, Crystal
Fixed: Pressure, kPa = 101.3
Property: Mole fraction of sodium 4-nitrobenzenesulphonate (Liquid); method: Chromatography
Solvent: Mass fraction of sodium sulfate	Temperature, K	Mole fraction of sodium 4-nitrobenzenesulphonate	uncertainty
.04	273.15	.043	.00086
.04	278.15	.0515	.00103
.04	283.15	.0599	.001198
.04	288.15	.0731	.001462
.04	293.15	.0917	.001834
.04	298.15	.1152	.002304
.04	303.15	.14	.0028
.04	308.15	.17	.0034
.04	313.15	.2051	.004102
.04	318.15	.2545	.00509
.04	323.15	.3151	.006302
.08	273.15	.0244	.000488
.08	278.15	.0312	.000624
.08	283.15	.0399	.000798
.08	288.15	.0517	.001034
.08	293.15	.0637	.001274
.08	298.15	.0785	.00157
.08	303.15	.0948	.001896
.08	308.15	.1174	.002348
.08	313.15	.1403	.002806
.08	318.15	.1717	.003434
.08	323.15	.2036	.004072
.15	273.15	.0127	.000254
.15	278.15	.017	.00034
.15	283.15	.0222	.000444
.15	288.15	.0286	.000572
.15	293.15	.0385	.00077
.15	298.15	.0493	.000986
.15	303.15	.0612	.001224
.15	308.15	.0788	.001576
.15	313.15	.0988	.001976
.15	318.15	.1189	.002378
.15	323.15	.1498	.002996
.2	273.15	.0049	.000098
.2	278.15	.0069	.000138
.2	283.15	.0101	.000202
.2	288.15	.0134	.000268
.2	293.15	.0191	.000382
.2	298.15	.0252	.000504
.2	303.15	.0341	.000682
.2	308.15	.0445	.00089
.2	313.15	.0585	.00117
.2	318.15	.0745	.00149
.2	323.15	.0919	.001838

System: ethanol + sodium 4-nitrobenzenesulphonate + water; phases: Liquid, Crystal
Fixed: Pressure, kPa = 101.3
Property: Mole fraction of sodium 4-nitrobenzenesulphonate (Liquid); method: Chromatography
Solvent: Mass fraction of ethanol	Temperature, K	Mole fraction of sodium 4-nitrobenzenesulphonate	uncertainty
.08	273.15	.0619	.001238
.08	278.15	.0799	.001598
.08	283.15	.1012	.002024
.08	288.15	.1236	.002472
.08	293.15	.1477	.002954
.08	298.15	.176	.00352
.08	303.15	.2054	.004108
.08	308.15	.2383	.004766
.08	313.15	.2764	.005528
.08	318.15	.3152	.006304
.17	273.15	.0514	.001028
.17	278.15	.0655	.00131
.17	283.15	.0841	.001682
.17	288.15	.1055	.00211
.17	293.15	.1261	.002522
.17	298.15	.1513	.003026
.17	303.15	.1789	.003578
.17	308.15	.2083	.004166
.17	313.15	.2408	.004816
.17	318.15	.2803	.005606
.35	273.15	.0478	.000956
.35	278.15	.0591	.001182
.35	283.15	.0724	.001448
.35	288.15	.0915	.00183
.35	293.15	.1097	.002194
.35	298.15	.1335	.00267
.35	303.15	.1562	.003124
.35	308.15	.1874	.003748
.35	313.15	.2152	.004304
.35	318.15	.2474	.004948
.54	273.15	.0411	.000822
.54	278.15	.0523	.001046
.54	283.15	.0654	.001308
.54	288.15	.0802	.001604
.54	293.15	.0975	.00195
.54	298.15	.1132	.002264
.54	303.15	.1369	.002738
.54	308.15	.1591	.003182
.54	313.15	.1821	.003642
.54	318.15	.2133	.004266
.7	273.15	.0394	.000788
.7	278.15	.0485	.00097
.7	283.15	.0581	.001162
.7	288.15	.0704	.001408
.7	293.15	.0849	.001698
.7	298.15	.0985	.00197
.7	303.15	.1149	.002298
.7	308.15	.1354	.002708
.7	313.15	.1552	.003104
.7	318.15	.1745	.00349
