Measured thermophysical data. Partial Molar Heat Capacities at Chosen Temperatures in the Range (298.15 to 328.15) K and Partial Molar Volumes at 298.15 K of N-Acetyl-N'-methyl-L-.alpha.-amino Acid Amides in Aqueous Solution
Source: J. Chem. Eng. Data, 2012, 10.1021/je2012555
Compound 1: N-acetylglycine methylamide, C5H10N2O2, purity 99%
Compound 2: N-acetyl-N'-methylalaninamide, C6H12N2O2, purity 99%
Compound 3: N-acetyl-N'-methylvalinamide, C8H16N2O2, purity 99%
Compound 4: N-acetyl-N'-methyl-l-alpha-leucinamide, C9H18N2O2, purity 99%
Compound 5: N-acetyl-N'-methyl-l-alpha-serinamide, C10H20N2O2, purity 99%
Compound 6: N-acetyl-N'-methyl-L-alpha-threoninamide, C7H13N2O3, purity 99%
Compound 7: N-acetyl-N'-methyl-L-alpha-histidinamide, C9H14N4O2, purity 99%
Compound 8: water, H2O, purity 99.9%

System: N-acetylglycine methylamide + water; phases: Liquid
Fixed: Pressure, kPa = 101
Property: Apparent molar heat capacity, J/K/mol (Liquid); method: Extra sensitive DSC
Temperature, K	Molality, mol/kg of N-acetylglycine methylamide	Apparent molar heat capacity, J/K/mol	uncertainty
298.15	.0479	328.9	.49335
298.15	.0715	328.6	.4929
298.15	.0958	327.8	.4917
298.15	.1439	326	.489
298.15	.1912	324	.486
303.15	.0479	334.9	.50235
303.15	.0715	336.1	.50415
303.15	.0958	334.3	.50145
303.15	.1439	333.6	.5004
303.15	.1912	330.6	.4959
308.15	.0479	343	.5145
308.15	.0715	343.3	.51495
308.15	.0958	342.7	.51405
308.15	.1439	343.1	.51465
308.15	.1912	342.7	.51405
313.15	.0479	349.6	.5244
313.15	.0715	350	.525
313.15	.0958	349.6	.5244
313.15	.1439	350.6	.5259
313.15	.1912	350.9	.52635
318.15	.0479	357	.5355
318.15	.0715	358.4	.5376
318.15	.0958	359.1	.53865
318.15	.1439	358.2	.5373
318.15	.1912	360	.54
323.15	.0479	360.1	.54015
323.15	.0715	361.7	.54255
323.15	.0958	361.6	.5424
323.15	.1439	361.4	.5421
323.15	.1912	363	.5445
328.15	.0479	365.8	.5487
328.15	.0715	366.7	.55005
328.15	.0958	367.2	.5508
328.15	.1439	369.7	.55455
328.15	.1912	369.1	.55365

System: N-acetylglycine methylamide + water; phases: Liquid
Fixed: Pressure, kPa = 101
Fixed: Temperature, K = 298.15
Property: Mass density, kg/m3 (Liquid); method: Vibrating tube method
Molality, mol/kg of N-acetylglycine methylamide	Mass density, kg/m3	uncertainty
.04565	998.056	.005
.05924	998.352	.005
.07804	998.754	.005
.09293	999.062	.005
.0987	999.177	.005
.15303	1000.32	.005
.16149	1000.495	.005
.17655	1000.791	.005
.18888	1001.043	.005

System: water + N-acetyl-N'-methylalaninamide; phases: Liquid
Fixed: Pressure, kPa = 101
Property: Apparent molar heat capacity, J/K/mol (Liquid); method: Extra sensitive DSC
Temperature, K	Molality, mol/kg of N-acetyl-N'-methylalaninamide	Apparent molar heat capacity, J/K/mol	uncertainty
298.15	.0448	431	.6465
298.15	.0545	429.7	.64455
298.15	.0683	431.5	.64725
298.15	.0909	429.6	.6444
298.15	.1376	427.5	.64125
303.15	.0448	436.8	.6552
303.15	.0545	437.5	.65625
303.15	.0683	437.5	.65625
303.15	.0909	437	.6555
303.15	.1376	434.7	.65205
308.15	.0448	444	.666
308.15	.0545	444.1	.66615
308.15	.0683	442.3	.66345
308.15	.0909	442.9	.66435
308.15	.1376	442.4	.6636
313.15	.0448	448	.672
313.15	.0545	447.7	.67155
313.15	.0683	450.6	.6759
313.15	.0909	450.6	.6759
313.15	.1376	448.4	.6726
318.15	.0448	453.6	.6804
318.15	.0545	453.6	.6804
318.15	.0683	453.3	.67995
318.15	.0909	453.9	.68085
318.15	.1376	453.5	.68025
323.15	.0448	457.5	.68625
323.15	.0545	458.3	.68745
323.15	.0683	457.3	.68595
323.15	.0909	458.2	.6873
323.15	.1376	458	.687
328.15	.0448	459.8	.6897
328.15	.0545	462.9	.69435
328.15	.0683	462.4	.6936
328.15	.0909	461.2	.6918
328.15	.1376	461.5	.69225

System: water + N-acetyl-N'-methylalaninamide; phases: Liquid
Fixed: Pressure, kPa = 101
Fixed: Temperature, K = 298.15
Property: Mass density, kg/m3 (Liquid); method: Vibrating tube method
Molality, mol/kg of N-acetyl-N'-methylalaninamide	Mass density, kg/m3	uncertainty
.02067	997.447	.005
.04272	997.844	.005
.0751	998.437	.005
.10312	998.944	.005
.12255	999.278	.005
.1431	999.644	.005
.18164	1000.362	.005

System: water + N-acetyl-N'-methylvalinamide; phases: Liquid
Fixed: Pressure, kPa = 101
Property: Apparent molar heat capacity, J/K/mol (Liquid); method: Extra sensitive DSC
Temperature, K	Molality, mol/kg of N-acetyl-N'-methylvalinamide	Apparent molar heat capacity, J/K/mol	uncertainty
298.15	.0671	581.7	.87255
298.15	.0761	583.9	.87585
298.15	.0712	581.6	.8724
298.15	.0787	582	.873
298.15	.085	583.9	.87585
298.15	.0904	582.8	.8742
298.15	.1065	579.9	.86985
298.15	.1088	580.5	.87075
303.15	.0671	586.3	.87945
303.15	.0761	588.3	.88245
303.15	.0712	590.7	.88605
303.15	.0787	590.5	.88575
303.15	.085	591	.8865
303.15	.0904	585.8	.8787
303.15	.1065	589.3	.88395
303.15	.1088	585.3	.87795
308.15	.0671	592.9	.88935
308.15	.0761	595.9	.89385
308.15	.0712	597	.8955
308.15	.0787	597.2	.8958
308.15	.085	597.1	.89565
308.15	.0904	594.1	.89115
308.15	.1065	596.7	.89505
308.15	.1088	593.4	.8901
313.15	.0671	598.7	.89805
313.15	.0761	599	.8985
313.15	.0712	600.2	.9003
313.15	.0787	601.1	.90165
313.15	.085	600.4	.9006
313.15	.0904	599.5	.89925
313.15	.1065	599.4	.8991
313.15	.1088	599.4	.8991
318.15	.0671	603.9	.90585
318.15	.0761	600.5	.90075
318.15	.0712	602	.903
318.15	.0787	603.7	.90555
318.15	.085	602	.903
318.15	.0904	601.4	.9021
318.15	.1065	601.9	.90285
318.15	.1088	602.7	.90405
323.15	.0671	605.2	.9078
323.15	.0761	604.7	.90705
323.15	.0712	605.5	.90825
323.15	.0787	604.7	.90705
323.15	.085	604.8	.9072
323.15	.0904	604.1	.90615
323.15	.1065	604.6	.9069
323.15	.1088	605.1	.90765
328.15	.0671	606.5	.90975
328.15	.0761	608	.912
328.15	.0712	608.1	.91215
328.15	.0787	608.2	.9123
328.15	.085	608.7	.91305
328.15	.0904	606.5	.90975
328.15	.1065	608.1	.91215
328.15	.1088	607	.9105

System: water + N-acetyl-N'-methylvalinamide; phases: Liquid
Fixed: Pressure, kPa = 101
Fixed: Temperature, K = 298.15
Property: Mass density, kg/m3 (Liquid); method: Vibrating tube method
Molality, mol/kg of N-acetyl-N'-methylvalinamide	Mass density, kg/m3	uncertainty
.01068	997.221	.005
.02402	997.425	.005
.03619	997.609	.005
.05311	997.865	.005
.06442	998.038	.005
.07609	998.216	.005

System: water + N-acetyl-N'-methyl-l-alpha-leucinamide; phases: Liquid
Fixed: Pressure, kPa = 101
Property: Apparent molar heat capacity, J/K/mol (Liquid); method: Extra sensitive DSC
Temperature, K	Molality, mol/kg of N-acetyl-N'-methyl-l-alpha-leucinamide	Apparent molar heat capacity, J/K/mol	uncertainty
298.15	.0463	681	1.0215
298.15	.0559	682.8	1.0242
298.15	.07	682.5	1.02375
298.15	.0936	680.2	1.0203
298.15	.1129	680	1.02
298.15	.1423	681.9	1.02285
303.15	.0463	683.5	1.02525
303.15	.0559	684.7	1.02705
303.15	.07	684.3	1.02645
303.15	.0936	682.6	1.0239
303.15	.1129	682.2	1.0233
303.15	.1423	684.4	1.0266
308.15	.0463	687.5	1.03125
308.15	.0559	688.6	1.0329
308.15	.07	687.3	1.03095
308.15	.0936	688.3	1.03245
308.15	.1129	686.7	1.03005
308.15	.1423	687.4	1.0311
313.15	.0463	690.1	1.03515
313.15	.0559	691.3	1.03695
313.15	.07	690.9	1.03635
313.15	.0936	690.3	1.03545
313.15	.1129	689.6	1.0344
313.15	.1423	691.1	1.03665
318.15	.0463	691.6	1.0374
318.15	.0559	692.3	1.03845
318.15	.07	692.3	1.03845
318.15	.0936	691.5	1.03725
318.15	.1129	691.7	1.03755
318.15	.1423	692.4	1.0386
323.15	.0463	693.1	1.03965
323.15	.0559	694.7	1.04205
323.15	.07	694.8	1.0422
323.15	.0936	693.4	1.0401
323.15	.1129	693.6	1.0404
323.15	.1423	694.8	1.0422
328.15	.0463	695.9	1.04385
328.15	.0559	696.8	1.0452
328.15	.07	696.9	1.04535
328.15	.0936	695.8	1.0437
328.15	.1129	697.5	1.04625
328.15	.1423	696.4	1.0446

System: water + N-acetyl-N'-methyl-l-alpha-leucinamide; phases: Liquid
Fixed: Pressure, kPa = 101
Fixed: Temperature, K = 298.15
Property: Mass density, kg/m3 (Liquid); method: Vibrating tube method
Molality, mol/kg of N-acetyl-N'-methyl-l-alpha-leucinamide	Mass density, kg/m3	uncertainty
.04684	997.65	.005
.08312	998.122	.005
.09402	998.23	.005
.10067	998.343	.005
.10798	998.407	.005
.11565	998.565	.005
.12996	998.75	.005
.14144	998.921	.005
.16128	999.112	.005

System: water + N-acetyl-N'-methyl-l-alpha-serinamide; phases: Liquid
Fixed: Pressure, kPa = 101
Property: Apparent molar heat capacity, J/K/mol (Liquid); method: Extra sensitive DSC
Temperature, K	Molality, mol/kg of N-acetyl-N'-methyl-l-alpha-serinamide	Apparent molar heat capacity, J/K/mol	uncertainty
298.15	.0525	383.1	.57465
298.15	.0633	392.7	.58905
298.15	.0796	392.7	.58905
298.15	.1278	377.2	.5658
298.15	.2844	370.9	.55635
298.15	.3658	386.3	.57945
303.15	.0525	401.7	.60255
303.15	.0633	409.7	.61455
303.15	.0796	399	.5985
303.15	.1278	395.3	.59295
303.15	.2844	398.5	.59775
303.15	.3658	396.9	.59535
308.15	.0525	412.3	.61845
308.15	.0633	424	.636
308.15	.0796	420	.63
308.15	.1278	416.6	.6249
308.15	.2844	415.5	.62325
308.15	.3658	413.4	.6201
313.15	.0525	427.2	.6408
313.15	.0633	435.2	.6528
313.15	.0796	435.7	.65355
313.15	.1278	429.4	.6441
313.15	.2844	433.6	.6504
313.15	.3658	425.6	.6384
318.15	.0525	440.5	.66075
318.15	.0633	444.3	.66645
318.15	.0796	442.1	.66315
318.15	.1278	445.9	.66885
318.15	.2844	441.6	.6624
318.15	.3658	436.3	.65445
323.15	.0525	448.5	.67275
323.15	.0633	460	.69
323.15	.0796	447.4	.6711
323.15	.1278	458.6	.6879
323.15	.2844	446.4	.6696
323.15	.3658	454.9	.68235
328.15	.0525	458.1	.68715
328.15	.0633	474.6	.7119
328.15	.0796	453.8	.6807
328.15	.1278	466.6	.6999
328.15	.2844	460	.69
328.15	.3658	470.3	.70545

System: water + N-acetyl-N'-methyl-l-alpha-serinamide; phases: Liquid
Fixed: Pressure, kPa = 101
Fixed: Temperature, K = 298.15
Property: Mass density, kg/m3 (Liquid); method: Vibrating tube method
Molality, mol/kg of N-acetyl-N'-methyl-l-alpha-serinamide	Mass density, kg/m3	uncertainty
.14009	1001.848	.005
.16553	1002.67	.005
.18573	1003.355	.005
.21538	1004.317	.005
.23063	1004.92	.005
.24848	1005.462	.005
.26722	1006.09	.005
.28365	1006.642	.005
.3158	1007.686	.005
.33292	1008.224	.005
.37123	1009.314	.005

System: water + N-acetyl-N'-methyl-L-alpha-threoninamide; phases: Liquid
Fixed: Pressure, kPa = 101
Property: Apparent molar heat capacity, J/K/mol (Liquid); method: Extra sensitive DSC
Temperature, K	Molality, mol/kg of N-acetyl-N'-methyl-L-alpha-threoninamide	Apparent molar heat capacity, J/K/mol	uncertainty
298.15	.0884	472	.708
298.15	.1172	471	.7065
298.15	.1918	468.5	.70275
298.15	.2384	469.4	.7041
298.15	.3118	467.5	.70125
298.15	.386	467	.7005
298.15	.4063	464	.696
303.15	.0884	484.4	.7266
303.15	.1172	488	.732
303.15	.1918	481	.7215
303.15	.2384	484.8	.7272
303.15	.3118	476.8	.7152
303.15	.386	476.6	.7149
303.15	.4063	482	.723
308.15	.0884	501.6	.7524
308.15	.1172	500.7	.75105
308.15	.1918	496.9	.74535
308.15	.2384	499.1	.74865
308.15	.3118	496.1	.74415
308.15	.386	493.9	.74085
308.15	.4063	493.3	.73995
313.15	.0884	515.9	.77385
313.15	.1172	515.4	.7731
313.15	.1918	513.8	.7707
313.15	.2384	515.5	.77325
313.15	.3118	513.7	.77055
313.15	.386	513.2	.7698
313.15	.4063	512.9	.76935
318.15	.0884	526.2	.7893
318.15	.1172	525.7	.78855
318.15	.1918	524.3	.78645
318.15	.2384	524.2	.7863
318.15	.3118	523.6	.7854
318.15	.386	522.6	.7839
318.15	.4063	522.5	.78375
323.15	.0884	534.9	.80235
323.15	.1172	531.3	.79695
323.15	.1918	534.1	.80115
323.15	.2384	530.9	.79635
323.15	.3118	531.5	.79725
323.15	.386	530.1	.79515
323.15	.4063	532.2	.7983
328.15	.0884	540.4	.8106
328.15	.1172	543	.8145
328.15	.1918	541.5	.81225
328.15	.2384	542.4	.8136
328.15	.3118	540.5	.81075
328.15	.386	542.8	.8142
328.15	.4063	539	.8085

System: water + N-acetyl-N'-methyl-L-alpha-threoninamide; phases: Liquid
Fixed: Pressure, kPa = 101
Fixed: Temperature, K = 298.15
Property: Mass density, kg/m3 (Liquid); method: Vibrating tube method
Molality, mol/kg of N-acetyl-N'-methyl-L-alpha-threoninamide	Mass density, kg/m3	uncertainty
.0109	997.424	.005
.01491	997.55	.005
.02341	997.823	.005
.03554	998.224	.005
.04981	998.675	.005
.06044	999.039	.005
.07489	999.482	.005
.08032	999.667	.005
.08444	999.799	.005
.09798	1000.197	.005
.10498	1000.41	.005
.12043	1000.879	.005
.13453	1001.359	.005
.14157	1001.557	.005
.15386	1001.957	.005

System: N-acetyl-N'-methyl-L-alpha-histidinamide + water; phases: Liquid
Fixed: Pressure, kPa = 101
Property: Apparent molar heat capacity, J/K/mol (Liquid); method: Extra sensitive DSC
Temperature, K	Molality, mol/kg of N-acetyl-N'-methyl-L-alpha-histidinamide	Apparent molar heat capacity, J/K/mol	uncertainty
298.15	.0546	595.6	.8934
298.15	.0551	594.5	.89175
298.15	.0616	600.5	.90075
298.15	.0777	595.1	.89265
298.15	.091	596.7	.89505
298.15	.109	598.8	.8982
298.15	.1358	598.5	.89775
298.15	.137	597.9	.89685
303.15	.0546	606.8	.9102
303.15	.0551	610.2	.9153
303.15	.0616	612	.918
303.15	.0777	609.8	.9147
303.15	.091	608.7	.91305
303.15	.109	610.9	.91635
303.15	.1358	612.6	.9189
303.15	.137	608	.912
308.15	.0546	621.8	.9327
308.15	.0551	618.1	.92715
308.15	.0616	620.9	.93135
308.15	.0777	621.4	.9321
308.15	.091	619.4	.9291
308.15	.109	622.5	.93375
308.15	.1358	621	.9315
308.15	.137	624.6	.9369
313.15	.0546	634	.951
313.15	.0551	628.9	.94335
313.15	.0616	631.6	.9474
313.15	.0777	629.5	.94425
313.15	.091	635.5	.95325
313.15	.109	630.5	.94575
313.15	.1358	637.1	.95565
313.15	.137	631.6	.9474
318.15	.0546	640.4	.9606
318.15	.0551	637	.9555
318.15	.0616	642.3	.96345
318.15	.0777	638	.957
318.15	.091	640.8	.9612
318.15	.109	637.5	.95625
318.15	.1358	638.9	.95835
318.15	.137	643.6	.9654
323.15	.0546	648.2	.9723
323.15	.0551	652	.978
323.15	.0616	651.7	.97755
323.15	.0777	648.2	.9723
323.15	.091	646.7	.97005
323.15	.109	654	.981
323.15	.1358	650.6	.9759
323.15	.137	650.9	.97635
328.15	.0546	657.3	.98595
328.15	.0551	659.5	.98925
328.15	.0616	657	.9855
328.15	.0777	656.4	.9846
328.15	.091	656.4	.9846
328.15	.109	660.5	.99075
328.15	.1358	660	.99
328.15	.137	656	.984

System: N-acetyl-N'-methyl-L-alpha-histidinamide + water; phases: Liquid
Fixed: Pressure, kPa = 101
Fixed: Temperature, K = 298.15
Property: Mass density, kg/m3 (Liquid); method: Vibrating tube method
Amount concentration (molarity), mol/dm3 of N-acetyl-N'-methyl-L-alpha-histidinamide	Mass density, kg/m3	uncertainty
.03827	998.76	.005
.04755	999.201	.005
.04924	999.284	.005
.05453	999.47	.005
.05796	999.649	.005
.06518	999.989	.005
.0682	1000.138	.005
.07517	1000.413	.005
.07826	1000.586	.005
.09152	1001.157	.005
.0919	1001.164	.005
.09948	1001.492	.005
.11257	1002.024	.005
.11878	1002.276	.005
