Measured thermophysical data. Heat Capacity and Standard Thermodynamic Functions of Bis(mu6-mesitylene)vanadium Fulleride [(mu6-sim-Me3H3C6)2V] +[C60]   over the Range from T = (0 to 345) K
Source: J. Chem. Eng. Data, 2011, 10.1021/je200187d
Compound 1: bis-(.eta.6-mesitylene)vanadium fulleride, C78H24V

System: bis-(.eta.6-mesitylene)vanadium fulleride; phases: Crystal
Fixed: Pressure, kPa = 101.325
Property: Molar heat capacity at constant pressure, J/K/mol (Crystal); method: Vacuum adiabatic calorimetry
Temperature, K	Molar heat capacity at constant pressure, J/K/mol	uncertainty
6.75	6.58	2
6.83	7.09	2
6.91	7.48	2
6.99	8	2
7.09	8.52	2
7.19	8.98	2
7.28	9.5	2
7.36	9.9	2
7.45	10.3	2
7.57	10.7	2
7.64	11.1	2
7.7	11.5	2
7.83	12	2
7.96	12.5	2
8.11	13	2
8.24	13.5	2
8.37	14.1	2
8.45	14.4	2
8.56	14.9	2
8.71	15.4	.5
8.91	16	.5
9.02	16.5	.5
9.13	16.9	.5
9.32	17.6	.5
9.5	18.3	.5
9.71	19	.5
9.81	19.4	.5
10.07	20.4	.5
10.3	21	.5
10.43	21.7	.5
10.67	22.2	.5
10.94	23.3	.5
11.14	23.9	.5
11.39	24.6	.5
11.79	25.9	.5
11.94	26.3	.5
12.23	27.4	.5
12.74	29	.5
13.03	30.3	.5
13.71	33	.5
14.41	35.2	.5
14.72	36.4	.5
15.55	39.1	.5
16.08	41	.2
17.62	46	.2
19.03	50.31	.2
20.81	56.17	.2
22.64	61.5	.2
24.46	67.6	.2
26.6	73.88	.2
28.66	79.74	.2
30.66	85.01	.2
32.4	89.7	.2
34.27	93.9	.2
36	97.6	.2
38.03	102	.2
39.92	106	.2
41.82	110.3	.2
43.64	114.6	.2
45.62	118.7	.2
47.52	122.1	.2
49.42	125.7	.2
51.31	128.8	.2
53.19	131.5	.2
55.08	135	.2
56.96	138.7	.2
58.86	142.3	.2
60.75	146.3	.2
62.65	151.1	.2
64.54	155.8	.2
66.43	160.6	.2
67.38	163.1	.2
68.33	165.9	.2
70.23	171	.2
72.11	176.1	.2
74.2	181.3	.2
75.85	186.2	.2
77.5	190.6	.2
79.58	196.4	.2
81	200	.2
82.14	203.6	.2
83.7	208.7	.2
84.29	210	.2
85.18	213.1	.2
86.53	217.4	.2
87.91	222.5	.2
89	226.1	.2
90.3	230.9	.2
91.6	235.5	.2
93.5	243.5	.2
95.1	249.3	.2
97.08	256.5	.2
99.73	265.9	.2
102.37	274.6	.2
105.02	284.2	.2
107.66	293.4	.2
110.3	302.9	.2
112.94	312.2	.2
115.58	321.9	.2
118.21	332	.2
120.84	342.8	.2
123.44	353.3	.2
126.07	365.1	.2
128.7	377	.2
129.91	381.9	.2
131.32	388.3	.2
132.47	393.2	.2
133.93	398.7	.2
135.08	404.7	.2
137.7	414.9	.2
140	425.8	.2
142.2	435	.2
145.52	449.3	.2
148.12	459	.2
150.72	469.2	.2
153.97	481.8	.2
157.4	493.9	.2
161.89	511.7	.2
165.78	526.2	.2
170.65	544	.2
175	559.7	.2
176.08	563.8	.2
181.12	583.9	.2
183	587	.2
187	603	.2
192.8	626.4	.2
195.92	640.6	.2
198.65	651.2	.2
201.5	662.8	.2
202.44	666.1	.2
206.22	682.7	.2
210	697.4	.2
215.5	720.6	.2
217.51	728.6	.2
221.24	744.8	.2
224.96	759.7	.2
228.65	775.5	.2
232.33	789.4	.2
235.97	807.6	.2
239.61	821.6	.2
243.24	837.9	.2
244.89	843.6	.2
248.42	858.2	.2
251.97	874.4	.2
255.52	888.5	.2
259.3	904.8	.2
262.55	918.2	.2
265.99	933.6	.2
269.7	950.3	.2
272.88	966.5	.2
276.26	980.6	.2
279.6	996.8	.2
282.96	1012	.2
286.29	1029	.2
289.59	1045	.2
292.87	1062	.2
296	1078	.2
298.76	1093	.2
299.93	1100	.2
301.94	1111	.2
305.2	1129	.2
309.1	1150	.2
310.9	1162	.2
313.6	1178	.2
316.2	1193	.2
318.3	1206	.2
321.6	1227	.2
324.3	1243	.2
324.9	1245	.2
326.4	1255	.2
328.8	1269	.2
331.7	1283	.2
332.87	1291	.2
335.61	1310	.2
338.33	1327	.2
341.01	1341	.2
345.8	1371	.2

System: bis-(.eta.6-mesitylene)vanadium fulleride; phases: Crystal
Fixed: Pressure, kPa = 101.325
Property: Molar heat capacity at constant pressure, J/K/mol (Crystal); method: Vacuum adiabatic calorimetry
Temperature, K	Molar heat capacity at constant pressure, J/K/mol	uncertainty
5	3.6	2
10	20	2
15	37.4	2
20	53	.5
30	83.46	.5
40	106.3	.5
50	126.5	.2
60	144.8	.2
70	170.3	.2
80	197.5	.2
90	229.8	.2
100	266.8	.2
110	301.4	.2
120	339.6	.2
130	382.1	.2
140	425.6	.2
150	466.5	.2
160	504.5	.2
170	541.4	.2
180	579	.2
190	617	.2
200	656.5	.2
210	697.7	.2
220	739.1	.2
230	781.1	.2
240	823.3	.2
250	865.5	.2
260	908.1	.2
270	951.8	.2
280	997.9	.2
290	1047	.2
298.15	1090	.2
300	1100	.2
310	1157	.2
320	1216	.2
330	1276	.2
340	1336	.2
345	1366	.2

System: bis-(.eta.6-mesitylene)vanadium fulleride; phases: Crystal
Fixed: Pressure, kPa = 101.325
Property: Molar enthalpy, kJ/mol (Crystal); method: Vacuum adiabatic calorimetry
Temperature, K	Molar enthalpy, kJ/mol	uncertainty
5	.0045	2
10	.0599	2
15	.203	2
20	.4298	.5
30	1.116	.5
40	2.068	.5
50	3.238	.2
60	4.59	.2
70	6.161	.2
80	7.999	.2
90	10.13	.2
100	12.61	.2
110	15.45	.2
120	18.65	.2
130	22.26	.2
140	26.3	.2
150	30.76	.2
160	35.62	.2
170	40.85	.2
180	46.45	.2
190	52.43	.2
200	58.79	.2
210	65.57	.2
220	72.75	.2
230	80.35	.2
240	88.37	.2
250	96.82	.2
260	105.7	.2
270	115	.2
280	124.7	.2
290	134.9	.2
298.15	143.7	.2
300	145.7	.2
310	157	.2
320	168.8	.2
330	181.3	.2
340	194.3	.2
345	201.1	.2

System: bis-(.eta.6-mesitylene)vanadium fulleride; phases: Crystal
Fixed: Pressure, kPa = 101.325
Property: Molar entropy, J/K/mol (Crystal); method: Vacuum adiabatic calorimetry
Temperature, K	Molar entropy, J/K/mol	uncertainty
5	1.21	2
10	8.2	2
15	19.6	2
20	32.53	.5
30	59.9	.5
40	87.15	.5
50	113.2	.2
60	137.8	.2
70	161.9	.2
80	186.4	.2
90	211.5	.2
100	237.6	.2
110	264.7	.2
120	292.5	.2
130	321.3	.2
140	351.3	.2
150	382	.2
160	413.4	.2
170	445.1	.2
180	477.1	.2
190	509.4	.2
200	542	.2
210	575	.2
220	608.5	.2
230	642.2	.2
240	676.4	.2
250	710.8	.2
260	745.6	.2
270	780.7	.2
280	816.1	.2
290	852	.2
298.15	881.6	.2
300	888.4	.2
310	925.4	.2
320	963	.2
330	1001	.2
340	1040	.2
345	1060	.2
