Measured thermophysical data. Extraction of n-Alcohols from n-Heptane Using Ionic Liquids.
Source: J. Chem. Eng. Data, 2011, 10.1021/je200481u
Compound 1: heptane, C7H16
Compound 2: propan-1-ol, C3H8O
Compound 3: butan-1-ol, C4H10O
Compound 4: pentan-1-ol, C5H12O
Compound 5: 1-butyl-3-methylimidazolium tetrafluoroborate, C8H15BF4N2
Compound 6: 1,3-dimethylimidazolium P-methylphosphonate, C6H13N2O3P
Compound 7: 1-butyl-3-methylimidazolium thiocyanate, C9H15N3S

System: propan-1-ol + heptane + 1-butyl-3-methylimidazolium tetrafluoroborate; phases: Liquid mixture 1, Liquid mixture 2
Property: Mole fraction of heptane (Liquid mixture 1); method: Chromatography
Property: Mole fraction of propan-1-ol (Liquid mixture 2); method: Chromatography
Property: Mole fraction of heptane (Liquid mixture 2); method: Chromatography
Temperature, K	Pressure, kPa	Mole fraction of propan-1-ol	Mole fraction of heptane	uncertainty	Mole fraction of propan-1-ol	uncertainty	Mole fraction of heptane	uncertainty
298.15	1	.0019	.9981	.001	.2433	.001	.0171	.001
298.15	1	.0102	.9898	.001	.3468	.001	.0199	.001
298.15	1	.0259	.9741	.001	.4008	.001	.0218	.001
298.15	1	.0392	.9608	.001	.4372	.001	.0223	.001
298.15	1	.0473	.9527	.001	.4517	.001	.0224	.001
298.15	1	.0526	.9474	.001	.4742	.001	.0234	.001
298.15	1	.0578	.9422	.001	.6075	.001	.0241	.001
298.15	1	.0649	.9351	.001	.7253	.001	.0235	.001

System: propan-1-ol + heptane + 1-butyl-3-methylimidazolium thiocyanate; phases: Liquid mixture 2, Liquid mixture 1
Property: Mole fraction of heptane (Liquid mixture 2); method: Chromatography
Property: Mole fraction of propan-1-ol (Liquid mixture 1); method: Chromatography
Property: Mole fraction of heptane (Liquid mixture 1); method: Chromatography
Temperature, K	Pressure, kPa	Mole fraction of propan-1-ol	Mole fraction of heptane	uncertainty	Mole fraction of propan-1-ol	uncertainty	Mole fraction of heptane	uncertainty
298.15	1	.188	.0332	.001	.001	.001	.999	.001
298.15	1	.326	.0331	.001	.013	.001	.987	.001
298.15	1	.4336	.0494	.001	.0147	.001	.9853	.001
298.15	1	.5289	.0701	.001	.0297	.001	.9703	.001
298.15	1	.6425	.108	.001	.0807	.001	.9193	.001
298.15	1	.6325	.1214	.001	.1175	.001	.8825	.001
298.15	1	.6852	.1903	.001	.1192	.001	.8808	.001
298.15	1	.677	.2558	.001	.1296	.001	.8704	.001

System: propan-1-ol + heptane + 1,3-dimethylimidazolium P-methylphosphonate; phases: Liquid mixture 1, Liquid mixture 2
Property: Mole fraction of heptane (Liquid mixture 1); method: Chromatography
Property: Mole fraction of propan-1-ol (Liquid mixture 2); method: Chromatography
Property: Mole fraction of heptane (Liquid mixture 2); method: Chromatography
Temperature, K	Pressure, kPa	Mole fraction of propan-1-ol	Mole fraction of heptane	uncertainty	Mole fraction of propan-1-ol	uncertainty	Mole fraction of heptane	uncertainty
298.15	1	.0015	.9985	.001	.173	.001	.0053	.001
298.15	1	.0158	.9842	.001	.3108	.001	.0113	.001
298.15	1	.0216	.9784	.001	.4443	.001	.0222	.001
298.15	1	.0309	.9691	.001	.5582	.001	.0335	.001
298.15	1	.0363	.9637	.001	.6398	.001	.0628	.001
298.15	1	.0381	.9619	.001	.6831	.001	.0745	.001
298.15	1	.0544	.9456	.001	.7087	.001	.1211	.001
298.15	1	.0796	.9204	.001	.6982	.001	.1645	.001

System: butan-1-ol + heptane + 1-butyl-3-methylimidazolium tetrafluoroborate; phases: Liquid mixture 2, Liquid mixture 1
Property: Mole fraction of heptane (Liquid mixture 2); method: Chromatography
Property: Mole fraction of butan-1-ol (Liquid mixture 1); method: Chromatography
Property: Mole fraction of heptane (Liquid mixture 1); method: Chromatography
Temperature, K	Pressure, kPa	Mole fraction of butan-1-ol	Mole fraction of heptane	uncertainty	Mole fraction of butan-1-ol	uncertainty	Mole fraction of heptane	uncertainty
298.15	1	.2361	.0208	.001	.0266	.001	.9734	.001
298.15	1	.3428	.0268	.001	.0761	.001	.9239	.001
298.15	1	.4249	.0436	.001	.1144	.001	.8856	.001
298.15	1	.4526	.0717	.001	.1701	.001	.8299	.001
298.15	1	.5221	.1012	.001	.2417	.001	.7583	.001
298.15	1	.6098	.1583	.001	.2834	.001	.7166	.001
298.15	1	.6302	.1842	.001	.3285	.001	.6715	.001

System: butan-1-ol + heptane + 1-butyl-3-methylimidazolium thiocyanate; phases: Liquid mixture 2, Liquid mixture 1
Property: Mole fraction of heptane (Liquid mixture 2); method: Chromatography
Property: Mole fraction of butan-1-ol (Liquid mixture 1); method: Chromatography
Property: Mole fraction of heptane (Liquid mixture 1); method: Chromatography
Temperature, K	Pressure, kPa	Mole fraction of butan-1-ol	Mole fraction of heptane	uncertainty	Mole fraction of butan-1-ol	uncertainty	Mole fraction of heptane	uncertainty
298.15	1	.1437	.0081	.001	.0099	.001	.9901	.001
298.15	1	.2745	.0212	.001	.0426	.001	.9574	.001
298.15	1	.3924	.0377	.001	.0933	.001	.9067	.001
298.15	1	.4931	.065	.001	.1531	.001	.8469	.001
298.15	1	.5285	.0904	.001	.1694	.001	.8306	.001
298.15	1	.5944	.1455	.001	.2669	.001	.7331	.001
298.15	1	.5976	.172	.001	.2838	.001	.7162	.001

System: butan-1-ol + heptane + 1,3-dimethylimidazolium P-methylphosphonate; phases: Liquid mixture 1, Liquid mixture 2
Property: Mole fraction of heptane (Liquid mixture 1); method: Chromatography
Property: Mole fraction of butan-1-ol (Liquid mixture 2); method: Chromatography
Property: Mole fraction of heptane (Liquid mixture 2); method: Chromatography
Temperature, K	Pressure, kPa	Mole fraction of butan-1-ol	Mole fraction of heptane	uncertainty	Mole fraction of butan-1-ol	uncertainty	Mole fraction of heptane	uncertainty
298.15	1	.0035	.9965	.001	.1774	.001	.0057	.001
298.15	1	.0108	.9892	.001	.3749	.001	.0184	.001
298.15	1	.0205	.9795	.001	.5466	.001	.0422	.001
298.15	1	.0296	.9704	.001	.6883	.001	.0754	.001
298.15	1	.0341	.9659	.001	.6946	.001	.1224	.001
298.15	1	.0508	.9492	.001	.7266	.001	.2403	.001
298.15	1	.0811	.9189	.001	.6836	.001	.3011	.001
298.15	1	.0964	.9036	.001	.7016	.001	.2758	.001

System: pentan-1-ol + heptane + 1-butyl-3-methylimidazolium tetrafluoroborate; phases: Liquid mixture 1, Liquid mixture 2
Property: Mole fraction of heptane (Liquid mixture 1); method: Chromatography
Property: Mole fraction of pentan-1-ol (Liquid mixture 2); method: Chromatography
Property: Mole fraction of heptane (Liquid mixture 2); method: Chromatography
Temperature, K	Pressure, kPa	Mole fraction of pentan-1-ol	Mole fraction of heptane	uncertainty	Mole fraction of pentan-1-ol	uncertainty	Mole fraction of heptane	uncertainty
298.15	1	.0228	.9772	.001	.2994	.001	.0361	.001
298.15	1	.0381	.9619	.001	.4293	.001	.0739	.001
298.15	1	.0602	.9398	.001	.5962	.001	.1087	.001
298.15	1	.1075	.8925	.001	.6415	.001	.2072	.001
298.15	1	.1301	.8699	.001	.6606	.001	.2439	.001
298.15	1	.1807	.8193	.001	.6736	.001	.2734	.001

System: pentan-1-ol + heptane + 1-butyl-3-methylimidazolium thiocyanate; phases: Liquid mixture 2, Liquid mixture 1
Property: Mole fraction of heptane (Liquid mixture 2); method: Chromatography
Property: Mole fraction of pentan-1-ol (Liquid mixture 1); method: Chromatography
Property: Mole fraction of heptane (Liquid mixture 1); method: Chromatography
Temperature, K	Pressure, kPa	Mole fraction of pentan-1-ol	Mole fraction of heptane	uncertainty	Mole fraction of pentan-1-ol	uncertainty	Mole fraction of heptane	uncertainty
298.15	1	.3008	.0293	.001	.0063	.001	.9937	.001
298.15	1	.5234	.0591	.001	.0267	.001	.9733	.001
298.15	1	.6263	.1018	.001	.0514	.001	.9486	.001
298.15	1	.7139	.1919	.001	.1026	.001	.8974	.001
298.15	1	.7333	.2282	.001	.1181	.001	.8819	.001
298.15	1	.7395	.2544	.001	.1656	.001	.8344	.001

System: pentan-1-ol + heptane + 1,3-dimethylimidazolium P-methylphosphonate; phases: Liquid mixture 1, Liquid mixture 2
Property: Mole fraction of heptane (Liquid mixture 1); method: Chromatography
Property: Mole fraction of pentan-1-ol (Liquid mixture 2); method: Chromatography
Property: Mole fraction of heptane (Liquid mixture 2); method: Chromatography
Temperature, K	Pressure, kPa	Mole fraction of pentan-1-ol	Mole fraction of heptane	uncertainty	Mole fraction of pentan-1-ol	uncertainty	Mole fraction of heptane	uncertainty
298.15	1	.0017	.9983	.001	.2945	.001	.0121	.001
298.15	1	.0038	.9962	.001	.5187	.001	.046	.001
298.15	1	.0055	.9945	.001	.5871	.001	.1021	.001
298.15	1	.0101	.9899	.001	.6121	.001	.1663	.001
298.15	1	.0223	.9777	.001	.554	.001	.3381	.001
