Measured thermophysical data. Physical Properties of 1-Butyl-3-methylimidazolium Tetrafluoroborate/N-Methyl-2-pyrrolidone Mixtures and the Solubility of CO2 in the System at Elevated Pressures
Source: J. Chem. Eng. Data, 2012, 10.1021/je200886j
Compound 1: carbon dioxide, CO2, purity 99.995%
Compound 2: [BMIM][BF4], C8H15BF4N2, purity 99%
Compound 3: N-methyl-2-pyrrolidone, C5H9NO, purity 99%

System: [BMIM][BF4]; phases: Liquid
Property: Mass density, kg/m3 (Liquid); method: Pycnometric method
Temperature, K	Pressure, kPa	Mass density, kg/m3	uncertainty
298.15	101	1200.6	.2
303.15	101	1197.7	.2
308.15	101	1194.8	.2
313.1	101	1191.5	.2
318.15	101	1188.4	.2

System: [BMIM][BF4]; phases: Liquid
Property: Viscosity, Pa*s (Liquid); method: Capillary tube (Ostwald; Ubbelohde) method
Temperature, K	Pressure, kPa	Viscosity, Pa*s	uncertainty
298.15	101	.093814	.00046907
303.15	101	.071763	.000358815
308.15	101	.056407	.000282035
313.1	101	.045602	.00022801
318.15	101	.037322	.00018661

System: N-methyl-2-pyrrolidone; phases: Liquid
Property: Mass density, kg/m3 (Liquid); method: Pycnometric method
Temperature, K	Pressure, kPa	Mass density, kg/m3	uncertainty
298.15	101	1028.3	.2
303.15	101	1024.5	.2
308.15	101	1020.1	.2
313.1	101	1015.8	.2
318.15	101	1011.7	.2

System: N-methyl-2-pyrrolidone; phases: Liquid
Property: Viscosity, Pa*s (Liquid); method: Capillary tube (Ostwald; Ubbelohde) method
Temperature, K	Pressure, kPa	Viscosity, Pa*s	uncertainty
298.15	101	.001683	.000008415
303.15	101	.001558	.00000779
308.15	101	.00147	.00000735
313.1	101	.001337	.000006685
318.15	101	.001248	.00000624

System: N-methyl-2-pyrrolidone + [BMIM][BF4]; phases: Liquid
Fixed: Pressure, kPa = 101
Property: Mass density, kg/m3 (Liquid); method: Pycnometric method
Temperature, K	Mass fraction of [BMIM][BF4]	Mass density, kg/m3	uncertainty
298.15	0	1028.3	.2
298.15	.5	1115.6	.2
298.15	.6999	1148.8	.2
298.15	.8981	1182	.2
298.15	1	1200.6	.2
303.15	0	1024.5	.2
303.15	.5	1111.8	.2
303.15	.6999	1145.6	.2
303.15	.8981	1179.4	.2
303.15	1	1197.7	.2
308.15	0	1020.1	.2
308.15	.5	1107.9	.2
308.15	.6999	1142	.2
308.15	.8981	1176.2	.2
308.15	1	1194.8	.2
313.1	0	1015.8	.2
313.1	.5	1104.1	.2
313.1	.6999	1138.3	.2
313.1	.8981	1173.1	.2
313.1	1	1191.5	.2
318.15	0	1011.7	.2
318.15	.5	1100.3	.2
318.15	.6999	1135	.2
318.15	.8981	1170.1	.2
318.15	1	1188.4	.2

System: N-methyl-2-pyrrolidone + [BMIM][BF4]; phases: Liquid
Fixed: Pressure, kPa = 101
Property: Viscosity, Pa*s (Liquid); method: Capillary tube (Ostwald; Ubbelohde) method
Temperature, K	Mass fraction of [BMIM][BF4]	Viscosity, Pa*s	uncertainty
298.15	0	.001683	.000008415
298.15	.5	.008196	.00004098
298.15	.6999	.019327	.000096635
298.15	.8981	.04946	.0002473
298.15	1	.093814	.00046907
303.15	0	.001558	.00000779
303.15	.5	.007291	.000036455
303.15	.6999	.016027	.000080135
303.15	.8981	.039748	.00019874
303.15	1	.071763	.000358815
308.15	0	.00147	.00000735
308.15	.5	.006382	.00003191
308.15	.6999	.013515	.000067575
308.15	.8981	.032429	.000162145
308.15	1	.056407	.000282035
313.1	0	.001337	.000006685
313.1	.5	.00563	.00002815
313.1	.6999	.011632	.00005816
313.1	.8981	.026927	.000134635
313.1	1	.045602	.00022801
318.15	0	.001248	.00000624
318.15	.5	.005045	.000025225
318.15	.6999	.010072	.00005036
318.15	.8981	.022474	.00011237
318.15	1	.037322	.00018661

System: carbon dioxide + N-methyl-2-pyrrolidone + [BMIM][BF4]; phases: Liquid, Gas
Fixed: Temperature, K = 298.15
Property: Mass fraction of carbon dioxide (Liquid); method: gravimetric method
Solvent: Mass fraction of [BMIM][BF4]	Pressure, kPa	Mass fraction of carbon dioxide	uncertainty
0	620	.0403	.001209
0	1190	.0823	.002469
0	1660	.1198	.003594
0	2460	.1802	.005406
0	3520	.2772	.008316
0	4530	.3878	.011634
0	5070	.4923	.014769
.5	690	.0232	.000696
.5	1260	.0484	.001452
.5	2000	.0855	.002565
.5	2880	.127	.00381
.5	3520	.1613	.004839
.5	5170	.2534	.007602
.5	6060	.3034	.009102
.6999	630	.0229	.000687
.6999	1240	.0442	.001326
.6999	1960	.0643	.001929
.6999	2730	.0975	.002925
.6999	3710	.1326	.003978
.6999	4700	.1703	.005109
.6999	5630	.2116	.006348
.8981	500	.0187	.000561
.8981	1330	.043	.00129
.8981	2230	.07	.0021
.8981	3060	.0916	.002748
.8981	3820	.1188	.003564
.8981	4930	.146	.00438
.8981	6010	.1717	.005151
1	650	.0223	.000669
1	1300	.0399	.001197
1	2130	.0672	.002016
1	3140	.0994	.002982
1	4060	.1271	.003813
1	5170	.1591	.004773
1	6070	.1789	.005367

System: carbon dioxide + N-methyl-2-pyrrolidone + [BMIM][BF4]; phases: Liquid, Gas
Fixed: Solvent: Mass fraction of [BMIM][BF4] = .6999
Property: Mass fraction of carbon dioxide (Liquid); method: gravimetric method
Temperature, K	Pressure, kPa	Mass fraction of carbon dioxide	uncertainty
298.15	630	.0229	.000687
298.15	1240	.0442	.001326
298.15	1960	.0643	.001929
298.15	2730	.0975	.002925
298.15	3710	.1326	.003978
298.15	4700	.1703	.005109
298.15	5630	.2116	.006348
308.15	660	.0199	.000597
308.15	1350	.0402	.001206
308.15	2180	.0657	.001971
308.15	3030	.0868	.002604
308.15	4130	.1189	.003567
308.15	5050	.1481	.004443
308.15	6040	.1722	.005166
318.15	670	.0195	.000585
318.15	1250	.036	.00108
318.15	2040	.0522	.001566
318.15	3020	.0763	.002289
318.15	3920	.0994	.002982
318.15	5070	.126	.00378
318.15	5990	.1496	.004488

System: carbon dioxide + N-methyl-2-pyrrolidone; phases: Liquid, Gas
Property: Vapor or sublimation pressure, kPa (Liquid); method: gravimetric method
Mass fraction of carbon dioxide	Temperature, K	Vapor or sublimation pressure, kPa	uncertainty
.0403	298.15	620	
.0823	298.15	1190	
.1198	298.15	1660	
.1802	298.15	2460	
.2772	298.15	3520	
.3878	298.15	4530	
.4923	298.15	5070	

System: carbon dioxide + [BMIM][BF4]; phases: Liquid, Gas
Property: Vapor or sublimation pressure, kPa (Liquid); method: gravimetric method
Mass fraction of carbon dioxide	Temperature, K	Vapor or sublimation pressure, kPa	uncertainty
.0223	298.15	650	
.0399	298.15	1300	
.0672	298.15	2130	
.0994	298.15	3140	
.1271	298.15	4060	
.1591	298.15	5170	
.1789	298.15	6070	
