Measured thermophysical data. Solid Liquid Phase Equilibrium and Solubility of Dibenzo[b,d]furan and 9H-Fluoren-9-one in Organic Solvents
Source: J. Chem. Eng. Data, 2012, 10.1021/je201282d
Compound 1: acenaphthene, C12H10
Compound 2: dibenzo[bd]furan, C12H8O
Compound 3: fluorene, C13H10
Compound 4: 9(9H)-fluorenone, C13H8O
Compound 5: ethanol, C2H6O, purity 99.5%
Compound 6: n-butyl alcohol, C4H10O, purity 99.5%
Compound 7: toluene, C7H8, purity 99.5%
Compound 8: cyclohexane, C6H12, purity 99.5%
Compound 9: ethyl ethanoate, C4H8O2, purity 99.5%
Compound 10: isopropyl ether, C6H14O, purity 99.5%
Compound 11: carbon tetrachloride, CCl4, purity 99.5%
Compound 12: water, H2O

System: ethanol + dibenzo[bd]furan; phases: Liquid, Crystal
Fixed: Pressure, kPa = 101
Property: Mole fraction of dibenzo[bd]furan (Liquid); method: Chromatography
Temperature, K	Mole fraction of dibenzo[bd]furan	uncertainty
283.15	.0211	.001266
288.15	.0271	.001626
293.15	.0322	.001932
298.15	.0414	.002484
303.15	.0489	.002934
308.15	.0707	.004242
313.15	.1023	.006138
318.15	.1341	.008046
323.15	.1971	.011826
328.15	.2831	.016986
333.15	.3341	.020046

System: ethanol + dibenzo[bd]furan; phases: Liquid, Crystal
Property: Mass fraction of dibenzo[bd]furan (Liquid); method: Chromatography
Pressure, kPa	Temperature, K	Mass fraction of dibenzo[bd]furan	uncertainty
101	303.15	.158	.00948

System: n-butyl alcohol + dibenzo[bd]furan; phases: Liquid, Crystal
Fixed: Pressure, kPa = 101
Property: Mole fraction of dibenzo[bd]furan (Liquid); method: Chromatography
Temperature, K	Mole fraction of dibenzo[bd]furan	uncertainty
283.15	.0281	.001686
288.15	.0326	.001956
293.15	.0421	.002526
298.15	.0531	.003186
303.15	.0671	.004026
308.15	.0877	.005262
313.15	.1068	.006408
318.15	.1664	.009984
323.15	.2301	.013806
328.15	.3638	.021828
333.15	.5141	.030846

System: dibenzo[bd]furan + ethyl ethanoate; phases: Liquid, Crystal
Fixed: Pressure, kPa = 101
Property: Mole fraction of dibenzo[bd]furan (Liquid); method: Chromatography
Temperature, K	Mole fraction of dibenzo[bd]furan	uncertainty
283.15	.1455	.004365
288.15	.1679	.005037
293.15	.1989	.005967
298.15	.2315	.006945
303.15	.2685	.008055
308.15	.3277	.009831
313.15	.3872	.011616
318.15	.4411	.013233
323.15	.5017	.015051
328.15	.5651	.016953
333.15	.6249	.018747

System: toluene + dibenzo[bd]furan; phases: Liquid, Crystal
Fixed: Pressure, kPa = 101
Property: Mole fraction of dibenzo[bd]furan (Liquid); method: Chromatography
Temperature, K	Mole fraction of dibenzo[bd]furan	uncertainty
283.15	.1577	.004731
288.15	.1855	.005565
293.15	.2231	.006693
298.15	.2656	.007968
303.15	.3013	.009039
308.15	.3437	.010311
313.15	.3991	.011973
318.15	.4547	.013641
323.15	.5145	.015435
328.15	.5817	.017451
333.15	.6238	.018714

System: isopropyl ether + dibenzo[bd]furan; phases: Liquid, Crystal
Fixed: Pressure, kPa = 101
Property: Mole fraction of dibenzo[bd]furan (Liquid); method: Chromatography
Temperature, K	Mole fraction of dibenzo[bd]furan	uncertainty
283.15	.0838	.002514
288.15	.1042	.003126
293.15	.1302	.003906
298.15	.1548	.004644
303.15	.1832	.005496
308.15	.2366	.007098
313.15	.2845	.008535
318.15	.3411	.010233
323.15	.4119	.012357
328.15	.5081	.015243
333.15	.5798	.017394

System: carbon tetrachloride + dibenzo[bd]furan; phases: Liquid, Crystal
Fixed: Pressure, kPa = 101
Property: Mole fraction of dibenzo[bd]furan (Liquid); method: Chromatography
Temperature, K	Mole fraction of dibenzo[bd]furan	uncertainty
283.15	.1339	.004017
288.15	.1614	.004842
293.15	.1913	.005739
298.15	.2158	.006474
303.15	.2639	.007917
308.15	.3066	.009198
313.15	.3542	.010626
318.15	.4119	.012357
323.15	.4914	.014742
328.15	.5479	.016437
333.15	.6348	.019044

System: ethanol + 9(9H)-fluorenone; phases: Liquid, Crystal
Fixed: Pressure, kPa = 101
Property: Mole fraction of 9(9H)-fluorenone (Liquid); method: Chromatography
Temperature, K	Mole fraction of 9(9H)-fluorenone	uncertainty
283.15	.0209	.001254
288.15	.0241	.001446
293.15	.0301	.001806
298.15	.043	.00258
303.15	.0562	.003372
308.15	.0976	.005856
313.15	.1445	.00867
318.15	.2074	.012444
323.15	.2923	.017538
328.15	.4087	.024522
333.15	.5479	.032874

System: ethanol + 9(9H)-fluorenone; phases: Liquid, Crystal
Property: Mass fraction of 9(9H)-fluorenone (Liquid); method: Chromatography
Pressure, kPa	Temperature, K	Mass fraction of 9(9H)-fluorenone	uncertainty
101	303.15	.1889	.011334

System: n-butyl alcohol + 9(9H)-fluorenone; phases: Liquid, Crystal
Fixed: Pressure, kPa = 101
Property: Mole fraction of 9(9H)-fluorenone (Liquid); method: Chromatography
Temperature, K	Mole fraction of 9(9H)-fluorenone	uncertainty
283.15	.0267	.001602
288.15	.0321	.001926
293.15	.0402	.002412
298.15	.0498	.002988
303.15	.0685	.00411
308.15	.0848	.005088
313.15	.126	.00756
318.15	.1622	.009732
323.15	.2362	.014172
328.15	.3108	.018648
333.15	.3998	.023988

System: ethyl ethanoate + 9(9H)-fluorenone; phases: Liquid, Crystal
Fixed: Pressure, kPa = 101
Property: Mole fraction of 9(9H)-fluorenone (Liquid); method: Chromatography
Temperature, K	Mole fraction of 9(9H)-fluorenone	uncertainty
283.15	.1235	.003705
288.15	.1418	.004254
293.15	.1731	.005193
298.15	.2214	.006642
303.15	.2436	.007308
308.15	.2843	.008529
313.15	.3351	.010053
318.15	.3951	.011853
323.15	.4652	.013956
328.15	.5479	.016437
333.15	.6301	.018903

System: toluene + 9(9H)-fluorenone; phases: Liquid, Crystal
Fixed: Pressure, kPa = 101
Property: Mole fraction of 9(9H)-fluorenone (Liquid); method: Chromatography
Temperature, K	Mole fraction of 9(9H)-fluorenone	uncertainty
283.15	.1202	.003606
288.15	.1422	.004266
293.15	.1636	.004908
298.15	.1974	.005922
303.15	.2281	.006843
308.15	.2639	.007917
313.15	.3153	.009459
318.15	.3707	.011121
323.15	.4101	.012303
328.15	.4855	.014565
333.15	.5498	.016494

System: isopropyl ether + 9(9H)-fluorenone; phases: Liquid, Crystal
Fixed: Pressure, kPa = 101
Property: Mole fraction of 9(9H)-fluorenone (Liquid); method: Chromatography
Temperature, K	Mole fraction of 9(9H)-fluorenone	uncertainty
283.15	.0297	.000891
288.15	.0356	.001068
293.15	.0426	.001278
298.15	.0541	.001623
303.15	.0642	.001926
308.15	.0815	.002445
313.15	.1081	.003243
318.15	.1374	.004122
323.15	.1801	.005403
328.15	.2277	.006831
333.15	.3091	.009273

System: carbon tetrachloride + 9(9H)-fluorenone; phases: Liquid, Crystal
Fixed: Pressure, kPa = 101
Property: Mole fraction of 9(9H)-fluorenone (Liquid); method: Chromatography
Temperature, K	Mole fraction of 9(9H)-fluorenone	uncertainty
283.15	.1141	.003423
288.15	.1418	.004254
293.15	.1583	.004749
298.15	.1924	.005772
303.15	.2411	.007233
308.15	.2912	.008736
313.15	.3472	.010416
318.15	.403	.01209
323.15	.4624	.013872
328.15	.5191	.015573
333.15	.5821	.017463

System: ethanol + dibenzo[bd]furan + 9(9H)-fluorenone; phases: Liquid, Crystal
Fixed: Temperature, K = 303.15
Fixed: Pressure, kPa = 101
Property: Mass fraction of dibenzo[bd]furan (Liquid); method: Chromatography
Mass fraction of 9(9H)-fluorenone	Mass fraction of dibenzo[bd]furan	uncertainty
.1889	0	0
.1703	.0373	.002238
.161	.0736	.004416
.1701	.0981	.005886
.1815	.1347	.008082
.1955	.1584	.009504
.2032	.1842	.011052
.2131	.2095	.01257
.2231	.2261	.013566
.2314	.2413	.014478
.2429	.2593	.015558
.2567	.2779	.016674
.2751	.2953	.017718
.2914	.314	.01884
.3028	.3358	.020148
.3065	.3597	.021582

System: ethanol + dibenzo[bd]furan + 9(9H)-fluorenone; phases: Liquid, Crystal
Fixed: Temperature, K = 303.15
Fixed: Pressure, kPa = 101
Property: Mass fraction of dibenzo[bd]furan (Liquid); method: Chromatography
Mass fraction of 9(9H)-fluorenone	Mass fraction of dibenzo[bd]furan	uncertainty
0	.158	.00948
.034	.1664	.009984
.0573	.1829	.010974
.0878	.2134	.012804
.1213	.2418	.014508
.1555	.2706	.016236
.1792	.2861	.017166
.1938	.3001	.018006
.208	.307	.01842
.2271	.3249	.019494
.2511	.3365	.02019
.2691	.3473	.020838
.2896	.3584	.021504
.3065	.3597	.021582

System: ethanol + fluorene + 9(9H)-fluorenone; phases: Liquid, Crystal
Fixed: Temperature, K = 303.15
Fixed: Pressure, kPa = 101
Property: Mass fraction of fluorene (Liquid); method: Chromatography
Mass fraction of 9(9H)-fluorenone	Mass fraction of fluorene	uncertainty
.1889	0	0
.1812	.0145	.00087
.1817	.0256	.001536
.1855	.0335	.00201
.1853	.0472	.002832
.1879	.0556	.003336
.1966	.0601	.003606
.2051	.0644	.003864
.2124	.0651	.003906
.2213	.0702	.004212
.2248	.0763	.004578
.2261	.0886	.005316

System: ethanol + fluorene + 9(9H)-fluorenone; phases: Liquid, Crystal
Fixed: Temperature, K = 303.15
Fixed: Pressure, kPa = 101
Property: Mass fraction of fluorene (Liquid); method: Chromatography
Mass fraction of 9(9H)-fluorenone	Mass fraction of fluorene	uncertainty
0	.1123	.006738
.0217	.1054	.006324
.0399	.091	.00546
.0612	.0838	.005028
.0853	.0834	.005004
.1121	.0848	.005088
.1317	.0894	.005364
.1473	.0918	.005508
.1629	.0944	.005664
.1766	.0917	.005502
.1868	.0914	.005484
.2027	.0915	.00549
.2155	.0897	.005382
.2261	.0886	.005316

System: ethanol + acenaphthene + 9(9H)-fluorenone; phases: Liquid, Crystal
Fixed: Temperature, K = 303.15
Fixed: Pressure, kPa = 101
Property: Mass fraction of acenaphthene (Liquid); method: Chromatography
Mass fraction of 9(9H)-fluorenone	Mass fraction of acenaphthene	uncertainty
.1889	0	0
.1831	.0176	.001056
.1825	.0286	.001716
.1798	.0414	.002484
.1855	.0545	.00327
.1996	.0803	.004818
.2141	.1007	.006042
.2201	.1145	.00687
.2325	.1255	.00753
.2399	.135	.0081
.2466	.1464	.008784

System: ethanol + acenaphthene + 9(9H)-fluorenone; phases: Liquid, Crystal
Fixed: Temperature, K = 303.15
Fixed: Pressure, kPa = 101
Property: Mass fraction of acenaphthene (Liquid); method: Chromatography
Mass fraction of 9(9H)-fluorenone	Mass fraction of acenaphthene	uncertainty
0	.0609	.003654
.0455	.0807	.004842
.0834	.0954	.005724
.1109	.1073	.006438
.1284	.1164	.006984
.1505	.1266	.007596
.1726	.1313	.007878
.1912	.1366	.008196
.2052	.1421	.008526
.2213	.1438	.008628
.2466	.1464	.008784

System: ethanol + fluorene; phases: Liquid, Crystal
Property: Mass fraction of fluorene (Liquid); method: Chromatography
Pressure, kPa	Temperature, K	Mass fraction of fluorene	uncertainty
101	303.15	.1123	.006738

System: ethanol + acenaphthene; phases: Liquid, Crystal
Property: Mass fraction of acenaphthene (Liquid); method: Chromatography
Pressure, kPa	Temperature, K	Mass fraction of acenaphthene	uncertainty
101	303.15	.0609	.003654
