Measured thermophysical data. Vapor-Liquid Equilibrium for the Mixture Nitrogen (N2) + Methane (CH4) in the Temperature Range of (110 to 125) K
Source: J. Chem. Eng. Data, 2012, 10.1021/je201299u
Compound 1: nitrogen, diatomic, N2, purity 99.999%
Compound 2: carbane, CH4, purity 99.99%

System: nitrogen, diatomic; phases: Liquid, Gas
Property: Vapor or sublimation pressure, kPa (Liquid); method: Ebulliometric method (Recirculating still)
Temperature, K	Vapor or sublimation pressure, kPa	uncertainty
110.01	1466.7	.65
118.99	2385.7	.65
112.98	1735.2	.65
120.96	2633.9	.65
114.99	1936	.65
117	2153.3	.65
123.01	2913	.65

System: carbane; phases: Liquid, Gas
Property: Vapor or sublimation pressure, kPa (Liquid); method: Ebulliometric method (Recirculating still)
Temperature, K	Vapor or sublimation pressure, kPa	uncertainty
115.07	134.08	.65
120.11	194.65	.65
130.15	374.77	.65
135.09	496.11	.65
110.01	88.205	.65
118.99	178.11	.65
112.98	112.74	.65
120.96	204.78	.65
114.99	132.11	.65
117	153.92	.65
123.01	235.61	.65

System: carbane + nitrogen, diatomic; phases: Liquid, Gas
Property: Vapor or sublimation pressure, kPa (Liquid); method: Ebulliometric method (Recirculating still)
Mole fraction of nitrogen, diatomic	Temperature, K	Vapor or sublimation pressure, kPa	uncertainty
.8588	100	678.89	.65
.7489	100	609.83	.65
.5333	100	485.97	.65
.4052	100	397.26	.65
.2675	100	300.14	.65
.1098	100	147.56	.65
.0041	100	39.93	.65
0	110.01	88.205	.65
.0284	110.01	154.244	.65
.0515	110.01	202.782	.65
.1334	110.01	345.091	.65
.1509	110.01	375.132	.65
.1689	110.01	402.465	.65
.2622	110.01	536.627	.65
.3338	110.01	628.458	.65
.4956	110.01	803.962	.65
.5482	110.01	865.055	.65
.7131	110.01	1058.49	.65
1	110.01	1466.7	.65
0	118.99	178.11	.65
.0192	118.99	234.866	.65
.0303	118.99	266.955	.65
.073	118.99	389.056	.65
.092	118.99	445.366	.65
.1152	118.99	497.194	.65
.1939	118.99	694.255	.65
.2486	118.99	821.521	.65
.2939	118.99	916.143	.65
.4826	118.99	1286.735	.65
1	118.99	2385.7	.65
0	112.98	112.74	.65
.0305	112.98	183.017	.65
.0425	112.98	214.816	.65
.1247	112.98	381.048	.65
.1578	112.98	440.249	.65
.2275	112.98	556.93	.65
.3021	112.98	673.002	.65
.451	112.98	882.24	.65
.647	112.98	1158	.65
1	112.98	1735.2	.65
0	120.96	204.78	.65
.0208	120.96	269.319	.65
.0281	120.96	290.887	.65
.0763	120.96	433.567	.65
.089	120.96	465.492	.65
.1102	120.96	525.645	.65
.1819	120.96	722.825	.65
.2159	120.96	810.491	.65
.2613	120.96	935.427	.65
.4143	120.96	1296.881	.65
1	120.96	2633.9	.65
0	114.99	132.11	.65
.0296	114.99	205.092	.65
.0395	114.99	230.256	.65
.1102	114.99	390.586	.65
.1532	114.99	472.721	.65
.1932	114.99	553.649	.65
.2838	114.99	711.856	.65
.3619	114.99	853.174	.65
.3932	114.99	904.213	.65
.59	114.99	1205.436	.65
1	114.99	1936	.65
0	117	153.92	.65
.0212	117	209.606	.65
.0363	117	253.697	.65
.092	117	393.285	.65
.1302	117	483.085	.65
.1645	117	555.426	.65
.2658	117	755.756	.65
.3189	117	860.776	.65
.3497	117	920	.65
.5415	117	1268.712	.65
1	117	2153.3	.65
0	123.01	235.61	.65
.0157	123.01	288.583	.65
.0275	123.01	327.139	.65
.0493	123.01	400.725	.65
.076	123.01	490.13	.65
.0863	123.01	528.443	.65
.1489	123.01	722.4	.65
.1759	123.01	798.3	.65
.2208	123.01	926.76	.65
.3618	123.01	1320.231	.65
1	123.01	2913	.65

System: carbane + nitrogen, diatomic; phases: Gas, Liquid
Property: Mole fraction of nitrogen, diatomic (Gas); method: Chromatography
Mole fraction of nitrogen, diatomic	Temperature, K	Mole fraction of nitrogen, diatomic	uncertainty
.8588	100	.9881	.004
.7489	100	.9752	.004
.5333	100	.9522	.004
.4052	100	.9312	.004
.2675	100	.9	.004
.1098	100	.7911	.004
.0041	100	.1345	.004
0	110.01	0	.004
.0284	110.01	.42	.004
.0515	110.01	.5689	.004
.1334	110.01	.7582	.004
.1509	110.01	.7816	.004
.1689	110.01	.7987	.004
.2622	110.01	.8522	.004
.3338	110.01	.8815	.004
.4956	110.01	.9127	.004
.5482	110.01	.9204	.004
.7131	110.01	.9446	.004
1	110.01	1	.004
0	118.99	0	.004
.0192	118.99	.2439	.004
.0303	118.99	.3369	.004
.073	118.99	.5432	.004
.092	118.99	.5991	.004
.1152	118.99	.6493	.004
.1939	118.99	.7595	.004
.2486	118.99	.809	.004
.2939	118.99	.8292	.004
.4826	118.99	.8893	.004
1	118.99	1	.004
0	112.98	0	.004
.0305	112.98	.394	.004
.0425	112.98	.4872	.004
.1247	112.98	.7168	.004
.1578	112.98	.7588	.004
.2275	112.98	.8192	.004
.3021	112.98	.8542	.004
.451	112.98	.8969	.004
.647	112.98	.9331	.004
1	112.98	1	.004
0	120.96	0	.004
.0208	120.96	.2454	.004
.0281	120.96	.3024	.004
.0763	120.96	.5439	.004
.089	120.96	.5879	.004
.1102	120.96	.6213	.004
.1819	120.96	.7342	.004
.2159	120.96	.7773	.004
.2613	120.96	.8079	.004
.4143	120.96	.8589	.004
1	120.96	1	.004
0	114.99	0	.004
.0296	114.99	.3571	.004
.0395	114.99	.4424	.004
.1102	114.99	.6796	.004
.1532	114.99	.7456	.004
.1932	114.99	.7882	.004
.2838	114.99	.8405	.004
.3619	114.99	.874	.004
.3932	114.99	.8836	.004
.59	114.99	.9262	.004
1	114.99	1	.004
0	117	0	.004
.0212	117	.2805	.004
.0363	117	.3934	.004
.092	117	.6297	.004
.1302	117	.7019	.004
.1645	117	.7489	.004
.2658	117	.8263	.004
.3189	117	.8455	.004
.3497	117	.856	.004
.5415	117	.8929	.004
1	117	1	.004
0	123.01	0	.004
.0157	123.01	.1772	.004
.0275	123.01	.2729	.004
.0493	123.01	.4297	.004
.076	123.01	.53	.004
.0863	123.01	.5516	.004
.1489	123.01	.6885	.004
.1759	123.01	.7247	.004
.2208	123.01	.7667	.004
.3618	123.01	.8421	.004
1	123.01	1	.004
