Measured thermophysical data. Extraction of Benzene from Aliphatic Compounds Using Commercial Ionic Liquids as Solvents: Study of the Liquid Liquid Equilibrium at T = 298.15 K
Source: J. Chem. Eng. Data, 2011, 10.1021/je200334e
Compound 1: benzene, C6H6, purity 99.9%
Compound 2: heptane, C7H16, purity 99.5%
Compound 3: octane, C8H18, purity 99.5%
Compound 4: cyclooctane, C8H16, purity 99.9%
Compound 5: methylcyclohexane, C7H14, purity 99%
Compound 6: 1-methyl-3-propylimidazolium bis[(trifluoromethyl)sulfonyl]imide, C9H13F6N3O4S2, purity 99%
Compound 7: [C4mim] [NTf2], C10H15F6N3O4S2, purity 99%

System: benzene; phases: Liquid
Fixed: Pressure, kPa = 101.325
Property: Mass density, kg/m3 (Liquid); method: Vibrating tube method
Temperature, K	Mass density, kg/m3	uncertainty
298.15	873.57	.05

System: benzene; phases: Liquid
Fixed: Pressure, kPa = 101.325
Property: Refractive index (Na D-line) (Liquid); method: Standard Abbe refractometry
Temperature, K	Refractive index (Na D-line)	uncertainty
298.15	1.49774	.00008

System: heptane; phases: Liquid
Fixed: Pressure, kPa = 101.325
Property: Mass density, kg/m3 (Liquid); method: Vibrating tube method
Temperature, K	Mass density, kg/m3	uncertainty
298.15	679.56	.05

System: heptane; phases: Liquid
Fixed: Pressure, kPa = 101.325
Property: Refractive index (Na D-line) (Liquid); method: Standard Abbe refractometry
Temperature, K	Refractive index (Na D-line)	uncertainty
298.15	1.38515	.00008

System: octane; phases: Liquid
Fixed: Pressure, kPa = 101.325
Property: Mass density, kg/m3 (Liquid); method: Vibrating tube method
Temperature, K	Mass density, kg/m3	uncertainty
298.15	698.6	

System: octane; phases: Liquid
Fixed: Pressure, kPa = 101.325
Property: Refractive index (Na D-line) (Liquid); method: Standard Abbe refractometry
Temperature, K	Refractive index (Na D-line)	uncertainty
298.15	1.39519	.00008

System: cyclooctane; phases: Liquid
Fixed: Pressure, kPa = 101.325
Property: Mass density, kg/m3 (Liquid); method: Vibrating tube method
Temperature, K	Mass density, kg/m3	uncertainty
298.15	831.47	.05

System: cyclooctane; phases: Liquid
Fixed: Pressure, kPa = 101.325
Property: Refractive index (Na D-line) (Liquid); method: Standard Abbe refractometry
Temperature, K	Refractive index (Na D-line)	uncertainty
298.15	1.45598	.00008

System: methylcyclohexane; phases: Liquid
Fixed: Pressure, kPa = 101.325
Property: Mass density, kg/m3 (Liquid); method: Vibrating tube method
Temperature, K	Mass density, kg/m3	uncertainty
298.15	765.02	.05

System: methylcyclohexane; phases: Liquid
Fixed: Pressure, kPa = 101.325
Property: Refractive index (Na D-line) (Liquid); method: Standard Abbe refractometry
Temperature, K	Refractive index (Na D-line)	uncertainty
298.15	1.42062	.00008

System: 1-methyl-3-propylimidazolium bis[(trifluoromethyl)sulfonyl]imide; phases: Liquid
Fixed: Pressure, kPa = 101.325
Property: Mass density, kg/m3 (Liquid); method: Vibrating tube method
Temperature, K	Mass density, kg/m3	uncertainty
298.15	1474.44	.05

System: 1-methyl-3-propylimidazolium bis[(trifluoromethyl)sulfonyl]imide; phases: Liquid
Fixed: Pressure, kPa = 101.325
Property: Refractive index (Na D-line) (Liquid); method: Standard Abbe refractometry
Temperature, K	Refractive index (Na D-line)	uncertainty
298.15	1.42525	.00008

System: [C4mim] [NTf2]; phases: Liquid
Fixed: Pressure, kPa = 101.325
Property: Mass density, kg/m3 (Liquid); method: Vibrating tube method
Temperature, K	Mass density, kg/m3	uncertainty
298.15	1436.35	.05

System: [C4mim] [NTf2]; phases: Liquid
Fixed: Pressure, kPa = 101.325
Property: Refractive index (Na D-line) (Liquid); method: Standard Abbe refractometry
Temperature, K	Refractive index (Na D-line)	uncertainty
298.15	1.42706	.00008

System: benzene + heptane + [C4mim] [NTf2]; phases: Liquid mixture 1, Liquid mixture 2
Fixed: Pressure, kPa = 101
Property: Mole fraction of heptane (Liquid mixture 1); method: Density calibration data
Property: Mole fraction of benzene (Liquid mixture 2); method: Density calibration data
Property: Mole fraction of heptane (Liquid mixture 2); method: Density calibration data
Temperature, K	Mole fraction of benzene	Mole fraction of heptane	uncertainty	Mole fraction of benzene	uncertainty	Mole fraction of heptane	uncertainty
298.15	.043	.957	.008	.074	.008	.059	.008
298.15	.084	.916	.008	.143	.008	.059	.008
298.15	.134	.866	.008	.214	.008	.058	.008
298.15	.175	.825	.008	.263	.008	.056	.008
298.15	.223	.777	.008	.321	.008	.055	.008
298.15	.268	.732	.008	.367	.008	.054	.008
298.15	.367	.633	.008	.453	.008	.052	.008
298.15	.474	.526	.008	.53	.008	.052	.008
298.15	.596	.404	.008	.592	.008	.054	.008
298.15	.73	.27	.008	.665	.008	.047	.008
298.15	.835	.165	.008	.719	.008	.036	.008

System: benzene + octane + [C4mim] [NTf2]; phases: Liquid mixture 1, Liquid mixture 2
Fixed: Pressure, kPa = 101
Property: Mole fraction of octane (Liquid mixture 1); method: Density calibration data
Property: Mole fraction of benzene (Liquid mixture 2); method: Density calibration data
Property: Mole fraction of octane (Liquid mixture 2); method: Density calibration data
Temperature, K	Mole fraction of benzene	Mole fraction of octane	uncertainty	Mole fraction of benzene	uncertainty	Mole fraction of octane	uncertainty
298.15	.045	.955	.008	.073	.008	.04	.008
298.15	.136	.864	.008	.208	.008	.038	.008
298.15	.178	.822	.008	.267	.008	.039	.008
298.15	.225	.775	.008	.313	.008	.039	.008
298.15	.269	.731	.008	.36	.008	.04	.008
298.15	.415	.585	.008	.485	.008	.041	.008
298.15	.532	.468	.008	.557	.008	.04	.008
298.15	.663	.337	.008	.632	.008	.035	.008
298.15	.797	.203	.008	.72	.008	.022	.008

System: benzene + cyclooctane + [C4mim] [NTf2]; phases: Liquid mixture 1, Liquid mixture 2
Fixed: Pressure, kPa = 101
Property: Mole fraction of cyclooctane (Liquid mixture 1); method: Density calibration data
Property: Mole fraction of benzene (Liquid mixture 2); method: Density calibration data
Property: Mole fraction of cyclooctane (Liquid mixture 2); method: Density calibration data
Temperature, K	Mole fraction of benzene	Mole fraction of cyclooctane	uncertainty	Mole fraction of benzene	uncertainty	Mole fraction of cyclooctane	uncertainty
298.15	.127	.873	.008	.211	.008	.065	.008
298.15	.168	.832	.008	.262	.008	.065	.008
298.15	.213	.787	.008	.312	.008	.065	.008
298.15	.265	.735	.008	.361	.008	.064	.008
298.15	.341	.659	.008	.43	.008	.062	.008
298.15	.434	.566	.008	.494	.008	.058	.008
298.15	.524	.476	.008	.552	.008	.052	.008
298.15	.622	.378	.008	.613	.008	.045	.008
298.15	.804	.196	.008	.707	.008	.03	.008

System: benzene + methylcyclohexane + [C4mim] [NTf2]; phases: Liquid mixture 1, Liquid mixture 2
Fixed: Pressure, kPa = 101
Property: Mole fraction of methylcyclohexane (Liquid mixture 1); method: Density calibration data
Property: Mole fraction of benzene (Liquid mixture 2); method: Density calibration data
Property: Mole fraction of methylcyclohexane (Liquid mixture 2); method: Density calibration data
Temperature, K	Mole fraction of benzene	Mole fraction of methylcyclohexane	uncertainty	Mole fraction of benzene	uncertainty	Mole fraction of methylcyclohexane	uncertainty
298.15	.039	.961	.008	.078	.008	.115	.008
298.15	.092	.908	.008	.155	.008	.106	.008
298.15	.134	.866	.008	.21	.008	.107	.008
298.15	.175	.825	.008	.249	.008	.11	.008
298.15	.223	.777	.008	.302	.008	.112	.008
298.15	.272	.728	.008	.348	.008	.112	.008
298.15	.375	.625	.008	.428	.008	.109	.008
298.15	.427	.573	.008	.465	.008	.106	.008
298.15	.543	.457	.008	.546	.008	.094	.008
298.15	.68	.32	.008	.625	.008	.077	.008
298.15	.817	.183	.008	.686	.008	.049	.008

System: benzene + methylcyclohexane + 1-methyl-3-propylimidazolium bis[(trifluoromethyl)sulfonyl]imide; phases: Liquid mixture 1, Liquid mixture 2
Fixed: Pressure, kPa = 101
Property: Mole fraction of methylcyclohexane (Liquid mixture 1); method: Density calibration data
Property: Mole fraction of benzene (Liquid mixture 2); method: Density calibration data
Property: Mole fraction of methylcyclohexane (Liquid mixture 2); method: Density calibration data
Temperature, K	Mole fraction of benzene	Mole fraction of methylcyclohexane	uncertainty	Mole fraction of benzene	uncertainty	Mole fraction of methylcyclohexane	uncertainty
298.15	.05	.95	.008	.083	.008	.094	.008
298.15	.101	.899	.008	.152	.008	.091	.008
298.15	.142	.858	.008	.2	.008	.09	.008
298.15	.189	.811	.008	.268	.008	.089	.008
298.15	.234	.766	.008	.301	.008	.086	.008
298.15	.282	.718	.008	.342	.008	.084	.008
298.15	.385	.615	.008	.426	.008	.077	.008
298.15	.494	.506	.008	.494	.008	.07	.008
298.15	.618	.382	.008	.577	.008	.058	.008
298.15	.749	.251	.008	.651	.008	.044	.008
298.15	.822	.178	.008	.687	.008	.036	.008
