Measured thermophysical data. An IUPAC Task Group Study: The Solubility of Carbon Monoxide in [hmim][Tf2N] at High Pressures
Source: J. Chem. Eng. Data, 2011, 10.1021/je200764g
Compound 1: carbon monoxide, CO
Compound 2: 1-hexyl-3-methylimidazolium bis[(trifluoromethyl)sulfonyl]imide, C12H19F6N3O4S2, purity 99.76%

System: carbon monoxide + 1-hexyl-3-methylimidazolium bis[(trifluoromethyl)sulfonyl]imide; phases: Liquid, Gas
Property: Vapor or sublimation pressure, kPa (Liquid); method: Closed cell (Static) method
Mole fraction of carbon monoxide	Temperature, K	Vapor or sublimation pressure, kPa	uncertainty
.0518	300.7	4049	1.2147
.0518	315.8	4099	1.2297
.0518	330.72	4139	1.2417
.0518	353.26	4199	1.2597
.0518	308.21	4069	1.2207
.0518	323.25	4119	1.2357
.0518	338.21	4169	1.2507
.0518	360.77	4199	1.2597
.0518	315.78	4089	1.2267
.0518	323.25	4099	1.2297
.0518	345.7	4189	1.2567
.0518	368.22	4209	1.2627
.075	308.28	6195	1.8585
.075	330.7	6315	1.8945
.075	353.25	6405	1.9215
.075	315.77	6245	1.8735
.075	338.29	6355	1.9065
.075	360.83	6405	1.9215
.075	323.18	6285	1.8855
.075	345.71	6375	1.9125
.075	368.35	6405	1.9215
.1001	300.87	8597	2.5791
.1001	315.94	8707	2.6121
.1001	330.86	8817	2.6451
.1001	353.39	8877	2.6631
.1001	308.38	8647	2.5941
.1001	323.2	8782	2.6346
.1001	338.42	8837	2.6511
.1001	360.91	8877	2.6631
.1001	315.93	8707	2.6121
.1001	323.39	8767	2.6301
.1001	345.87	8867	2.6601
.1001	368.39	8877	2.6631
.1253	310.15	11452	3.4356
.1253	345.48	11642	3.4926
.1253	381.36	11612	3.4836
.1253	413.06	11422	3.4266
.1253	321.24	11532	3.4596
.1253	357.31	11672	3.5016
.1253	393.51	11542	3.4626
.1253	425.14	11322	3.3966
.1253	332.81	11592	3.4776
.1253	369.33	11652	3.4956
.1253	400.92	11492	3.4476
.1253	437.29	11222	3.3666
