Measured thermophysical data. Physicochemical Characterization of 1-Butyl-3-methylimidazolium and 1-Butyl-1-methylpyrrolidinium Bis(trifluoromethylsulfonyl)imide
Source: J. Chem. Eng. Data, 2012, 10.1021/je2010837
Compound 1: 1-butyl-3-methylimidazolium bis[(trifluoromethyl)sulfonyl]amide, C10H15F6N3O4S2, purity 99%
Compound 2: 1-butyl-1-methylpyrrolidinium bis[(trifluoromethyl)sulfonyl]imide, C11H20F6N2O4S2, purity 99%

System: 1-butyl-3-methylimidazolium bis[(trifluoromethyl)sulfonyl]amide; phases: Liquid
Fixed: Pressure, kPa = 101.325
Property: Electrical conductivity, S/m (Liquid); method: Direct current cell with electrodes
Temperature, K	Electrical conductivity, S/m	uncertainty
353.15	1.977	.009885
352.15	1.937	.009685
351.15	1.899	.009495
350.15	1.86	.0093
349.15	1.819	.009095
348.15	1.784	.00892
347.15	1.744	.00872
346.15	1.705	.008525
345.15	1.667	.008335
344.15	1.63	.00815
343.15	1.592	.00796
342.15	1.555	.007775
341.15	1.52	.0076
340.15	1.484	.00742
339.15	1.448	.00724
338.15	1.413	.007065
337.15	1.379	.006895
336.15	1.344	.00672
335.15	1.31	.00655
334.15	1.275	.006375
333.15	1.242	.00621
332.15	1.21	.00605
331.15	1.173	.005865
330.15	1.135	.005675
329.15	1.105	.005525
328.15	1.075	.005375
327.15	1.04	.0052
326.15	1.008	.00504
325.15	.9833	.0049165
324.15	.9492	.004746
323.15	.9213	.0046065
322.15	.8909	.0044545
321.15	.8659	.0043295
320.15	.842	.00421
319.15	.8196	.004098
318.15	.7955	.0039775
317.15	.7727	.0038635
316.15	.7515	.0037575
315.15	.729	.003645
314.15	.7056	.003528
313.15	.6839	.0034195
312.15	.6637	.0033185
311.15	.6429	.0032145
310.15	.6219	.0031095
309.15	.6015	.0030075
308.15	.5812	.002906
307.15	.562	.00281
306.15	.5431	.0027155
305.15	.5244	.002622
304.15	.5058	.002529
303.15	.4876	.002438
302.15	.4696	.002348
301.15	.4525	.0022625
300.15	.4346	.002173
299.15	.4175	.0020875
298.15	.4017	.0020085

System: 1-butyl-3-methylimidazolium bis[(trifluoromethyl)sulfonyl]amide; phases: Liquid
Fixed: Pressure, kPa = 101.325
Property: Mass density, kg/m3 (Liquid); method: Vibrating tube method
Temperature, K	Mass density, kg/m3	uncertainty
293.15	1439.27	.01
298.15	1434.3	.01
303.15	1429.4	.01
308.15	1424.57	.01
313.15	1419.61	.01
318.15	1414.67	.01
323.15	1409.65	.01
328.15	1404.64	.01
333.15	1399.6	.01
338.15	1394.43	.01
343.15	1389.16	.01
348.15	1383.85	.01
353.15	1378.53	.01

System: 1-butyl-3-methylimidazolium bis[(trifluoromethyl)sulfonyl]amide; phases: Liquid
Fixed: Pressure, kPa = 101.325
Property: Viscosity, Pa*s (Liquid); method: Concentric cylinders viscometry
Temperature, K	Viscosity, Pa*s	uncertainty
298.15	.05005	.001001
303.15	.04124	.0008248
308.15	.03365	.000673
313.15	.02828	.0005656
318.15	.02391	.0004782
323.15	.02064	.0004128
328.15	.0179	.000358
333.15	.01551	.0003102
338.15	.01371	.0002742
343.15	.01209	.0002418
348.15	.01078	.0002156
353.15	.00969	.0001938

System: 1-butyl-1-methylpyrrolidinium bis[(trifluoromethyl)sulfonyl]imide; phases: Liquid
Fixed: Pressure, kPa = 101.325
Property: Viscosity, Pa*s (Liquid); method: Concentric cylinders viscometry
Temperature, K	Viscosity, Pa*s	uncertainty
298.15	.07673	.0015346
303.15	.06167	.0012334
308.15	.05049	.0010098
313.15	.04173	.0008346
318.15	.03467	.0006934
323.15	.02948	.0005896
328.15	.02543	.0005086
333.15	.0219	.000438
338.15	.01916	.0003832
343.15	.01682	.0003364
348.15	.0148	.000296
353.15	.01324	.0002648

System: 1-butyl-1-methylpyrrolidinium bis[(trifluoromethyl)sulfonyl]imide; phases: Liquid
Fixed: Pressure, kPa = 101.325
Property: Mass density, kg/m3 (Liquid); method: Vibrating tube method
Temperature, K	Mass density, kg/m3	uncertainty
293.15	1399	.01
298.15	1394.57	.01
303.15	1390.02	.01
308.15	1385.48	.01
313.15	1380.93	.01
318.15	1376.28	.01
323.15	1371.64	.01
328.15	1366.9	.01
333.15	1362.2	.01
338.15	1357.35	.01
343.15	1352.44	.01
348.15	1347.48	.01
353.15	1342.48	.01

System: 1-butyl-1-methylpyrrolidinium bis[(trifluoromethyl)sulfonyl]imide; phases: Liquid
Fixed: Pressure, kPa = 101.325
Property: Electrical conductivity, S/m (Liquid); method: Direct current cell with electrodes
Temperature, K	Electrical conductivity, S/m	uncertainty
353.15	1.492	.00746
352.15	1.463	.007315
351.15	1.429	.007145
350.15	1.395	.006975
349.15	1.356	.00678
348.15	1.323	.006615
347.15	1.292	.00646
346.15	1.258	.00629
345.15	1.226	.00613
344.15	1.198	.00599
343.15	1.165	.005825
342.15	1.133	.005665
341.15	1.106	.00553
340.15	1.077	.005385
339.15	1.049	.005245
338.15	1.02	.0051
337.15	.9932	.004966
336.15	.9652	.004826
335.15	.9381	.0046905
334.15	.9114	.004557
333.15	.8839	.0044195
332.15	.8595	.0042975
331.15	.839	.004195
330.15	.8164	.004082
329.15	.795	.003975
328.15	.7748	.003874
327.15	.7541	.0037705
326.15	.7329	.0036645
325.15	.7134	.003567
324.15	.6939	.0034695
323.15	.6735	.0033675
322.15	.6551	.0032755
321.15	.6353	.0031765
320.15	.6159	.0030795
319.15	.5982	.002991
318.15	.5804	.002902
317.15	.5619	.0028095
316.15	.5443	.0027215
315.15	.5269	.0026345
314.15	.5091	.0025455
313.15	.4923	.0024615
312.15	.4754	.002377
311.15	.4586	.002293
310.15	.4427	.0022135
309.15	.4275	.0021375
308.15	.4124	.002062
307.15	.3975	.0019875
306.15	.3825	.0019125
305.15	.3682	.001841
304.15	.3538	.001769
303.15	.3396	.001698
302.15	.3265	.0016325
301.15	.313	.001565
300.15	.3003	.0015015
299.15	.2881	.0014405
298.15	.277	.001385
