Measured thermophysical data. Density and Derived Thermodynamic Properties of 1-Ethyl-3-methylimidazolium Alkyl Sulfate Ionic Liquid Binary Mixtures with Water and with Ethanol from 288 K to 318 K
Source: J. Chem. Eng. Data, 2012, 10.1021/je2012633
Compound 1: 1-ethyl-3-methylimidazolium ethyl sulfate, C8H16N2O4S, purity 98%
Compound 2: 3-ethyl-1-methylimidazolium butyl sulfate, C10H20N2O4S, purity 99%
Compound 3: 1-ethyl-3-methylimidazolium hexylsulfate, C12H24N2O4S, purity 98%
Compound 4: 1-ethyl-3-methylimidazolium octyl sulfate, C14H28N2O4S, purity 99%
Compound 5: ethanol, C2H6O, purity 99.5%
Compound 6: water, H2O, purity 99.99%

System: 1-ethyl-3-methylimidazolium ethyl sulfate; phases: Liquid
Property: Mass density, kg/m3 (Liquid); method: Vibrating tube method
Temperature, K	Pressure, kPa	Mass density, kg/m3	uncertainty
288.15	101	1245.3	.5
298.15	101	1238.3	.5
308.15	101	1231.6	.5
318.15	101	1224.9	.5

System: 3-ethyl-1-methylimidazolium butyl sulfate; phases: Liquid
Property: Mass density, kg/m3 (Liquid); method: Vibrating tube method
Temperature, K	Pressure, kPa	Mass density, kg/m3	uncertainty
288.15	101	1182.5	.5
298.15	101	1175.7	.5
308.15	101	1169	.5
318.15	101	1162.4	.5

System: 1-ethyl-3-methylimidazolium hexylsulfate; phases: Liquid
Property: Mass density, kg/m3 (Liquid); method: Vibrating tube method
Temperature, K	Pressure, kPa	Mass density, kg/m3	uncertainty
288.15	101	1136.6	.5
298.15	101	1129.6	.5
308.15	101	1123.1	.5
318.15	101	1116.6	.5

System: 1-ethyl-3-methylimidazolium octyl sulfate; phases: Liquid
Property: Mass density, kg/m3 (Liquid); method: Vibrating tube method
Temperature, K	Pressure, kPa	Mass density, kg/m3	uncertainty
298.15	101	1093.8	.5
308.15	101	1087	.5
318.15	101	1080.5	.5
288.15	101	1100.7	.5

System: ethanol; phases: Liquid
Property: Mass density, kg/m3 (Liquid); method: Vibrating tube method
Temperature, K	Pressure, kPa	Mass density, kg/m3	uncertainty
288.15	101	794.4	.5
298.15	101	785.8	.5
308.15	101	777.1	.5
318.15	101	768.3	.5

System: water + 1-ethyl-3-methylimidazolium ethyl sulfate; phases: Liquid
Fixed: Pressure, kPa = 101
Property: Mass density, kg/m3 (Liquid); method: Vibrating tube method
Temperature, K	Mole fraction of 1-ethyl-3-methylimidazolium ethyl sulfate	Mass density, kg/m3	uncertainty
288.15	1	1245.3	.5
288.15	.8726	1242.6	.5
288.15	.7975	1240.8	.5
288.15	.6798	1237.1	.5
288.15	.5829	1233.3	.5
288.15	.4939	1228.4	.5
288.15	.395	1220.4	.5
288.15	.2988	1208.5	.5
288.15	.1961	1186.1	.5
288.15	.1022	1141.9	.5
288.15	.07	1114.1	.5
288.15	.0319	1064.5	.5
288.15	0	999.1	.5
298.15	1	1238.3	.5
298.15	.8726	1235.8	.5
298.15	.7975	1233.9	.5
298.15	.6798	1230.2	.5
298.15	.5829	1226.4	.5
298.15	.4939	1221.4	.5
298.15	.395	1213.4	.5
298.15	.2988	1201.4	.5
298.15	.1961	1178.9	.5
298.15	.1022	1135.3	.5
298.15	.07	1108	.5
298.15	.0319	1059.9	.5
298.15	0	997.1	.5
308.15	1	1231.6	.5
308.15	.8726	1229	.5
308.15	.7975	1227.1	.5
308.15	.6798	1223.4	.5
308.15	.5829	1219.4	.5
308.15	.4939	1214.4	.5
308.15	.395	1206.3	.5
308.15	.2988	1194.3	.5
308.15	.1961	1171.8	.5
308.15	.1022	1128.5	.5
308.15	.07	1101.8	.5
308.15	.0319	1054.4	.5
308.15	0	994.1	.5
318.15	1	1224.9	.5
318.15	.8726	1222.3	.5
318.15	.7975	1220.3	.5
318.15	.6798	1216.6	.5
318.15	.5829	1212.5	.5
318.15	.4939	1207.4	.5
318.15	.395	1199.3	.5
318.15	.2988	1187.2	.5
318.15	.1961	1164.6	.5
318.15	.1022	1121.5	.5
318.15	.07	1095.1	.5
318.15	.0319	1048.4	.5
318.15	0	990.2	.5

System: water + 3-ethyl-1-methylimidazolium butyl sulfate; phases: Liquid
Fixed: Pressure, kPa = 101
Property: Mass density, kg/m3 (Liquid); method: Vibrating tube method
Temperature, K	Mole fraction of 3-ethyl-1-methylimidazolium butyl sulfate	Mass density, kg/m3	uncertainty
288.15	1	1182.5	.5
288.15	.9416	1181.8	.5
288.15	.8922	1181.4	.5
288.15	.7872	1179.6	.5
288.15	.6909	1177.9	.5
288.15	.5868	1175	.5
288.15	.4866	1171.7	.5
288.15	.3957	1167.2	.5
288.15	.2973	1159.3	.5
288.15	.2007	1146.1	.5
288.15	.0987	1114.3	.5
288.15	.0526	1081	.5
298.15	1	1175.7	.5
298.15	.9416	1175	.5
298.15	.8922	1174.5	.5
298.15	.7872	1172.9	.5
298.15	.6909	1171.1	.5
298.15	.5868	1168.4	.5
298.15	.4866	1164.8	.5
298.15	.3957	1160.2	.5
298.15	.2973	1152.3	.5
298.15	.2007	1139.1	.5
298.15	.0987	1107.5	.5
298.15	.0526	1075.8	.5
308.15	1	1169	.5
308.15	.9416	1168.3	.5
308.15	.8922	1167.9	.5
308.15	.7872	1166.2	.5
308.15	.6909	1164.3	.5
308.15	.5868	1161.5	.5
308.15	.4866	1158	.5
308.15	.3957	1153.2	.5
308.15	.2973	1145.3	.5
308.15	.2007	1131.9	.5
308.15	.0987	1100.5	.5
308.15	.0526	1069.6	.5
318.15	1	1162.4	.5
318.15	.9416	1161.7	.5
318.15	.8922	1161.2	.5
318.15	.7872	1159.5	.5
318.15	.6909	1157.6	.5
318.15	.5868	1154.7	.5
318.15	.4866	1151.1	.5
318.15	.3957	1146.3	.5
318.15	.2973	1138.3	.5
318.15	.2007	1124.7	.5
318.15	.0987	1093.4	.5
318.15	.0526	1063.2	.5

System: water + 1-ethyl-3-methylimidazolium hexylsulfate; phases: Liquid
Fixed: Pressure, kPa = 101
Property: Mass density, kg/m3 (Liquid); method: Vibrating tube method
Temperature, K	Mole fraction of 1-ethyl-3-methylimidazolium hexylsulfate	Mass density, kg/m3	uncertainty
288.15	1	1136.6	.5
288.15	.9346	1135.8	.5
288.15	.7976	1134.5	.5
288.15	.7243	1133.5	.5
288.15	.582	1131.2	.5
288.15	.3982	1125.8	.5
288.15	.2075	1111.4	.5
288.15	.0965	1086.5	.5
288.15	.0501	1061.4	.5
288.15	0	999.1	.5
298.15	1	1129.6	.5
298.15	.9346	1129	.5
298.15	.7976	1127.7	.5
298.15	.7243	1126.8	.5
298.15	.582	1124.5	.5
298.15	.3982	1119	.5
298.15	.2075	1104.8	.5
298.15	.0965	1080.2	.5
298.15	.0501	1056	.5
298.15	0	997.1	.5
308.15	1	1123.1	.5
308.15	.9346	1122.3	.5
308.15	.7976	1121.2	.5
308.15	.7243	1120.3	.5
308.15	.582	1117.8	.5
308.15	.3982	1112.2	.5
308.15	.2075	1097.8	.5
308.15	.0965	1073.7	.5
308.15	.0501	1050.2	.5
308.15	0	994.1	.5
318.15	1	1116.6	.5
318.15	.9346	1115.8	.5
318.15	.7976	1114.7	.5
318.15	.7243	1113.8	.5
318.15	.582	1111.2	.5
318.15	.3982	1105.4	.5
318.15	.2075	1090.8	.5
318.15	.0965	1066.9	.5
318.15	.0501	1044.1	.5
318.15	0	990.2	.5

System: water + 1-ethyl-3-methylimidazolium octyl sulfate; phases: Liquid
Fixed: Pressure, kPa = 101
Property: Mass density, kg/m3 (Liquid); method: Vibrating tube method
Temperature, K	Mole fraction of 1-ethyl-3-methylimidazolium octyl sulfate	Mass density, kg/m3	uncertainty
298.15	1	1093.8	.5
298.15	.9371	1093.5	.5
298.15	.8545	1093	.5
298.15	.7747	1092.4	.5
298.15	.7373	1092.1	.5
298.15	.5963	1090.5	.5
298.15	.3923	1086.3	.5
298.15	.1002	1060.6	.5
298.15	.0053	1005.3	.5
308.15	1	1087	.5
308.15	.9371	1086.9	.5
308.15	.8545	1086.4	.5
308.15	.7747	1085.7	.5
308.15	.7373	1085.5	.5
308.15	.5963	1083.8	.5
308.15	.3923	1079.6	.5
308.15	.1002	1054	.5
308.15	.0053	1001.8	.5
318.15	1	1080.5	.5
318.15	.9371	1080.4	.5
318.15	.8545	1079.9	.5
318.15	.7747	1079.2	.5
318.15	.7373	1079.1	.5
318.15	.5963	1077.2	.5
318.15	.3923	1072.9	.5
318.15	.1002	1047.4	.5
318.15	.0053	997.3	.5

System: ethanol + 1-ethyl-3-methylimidazolium ethyl sulfate; phases: Liquid
Fixed: Pressure, kPa = 101
Property: Mass density, kg/m3 (Liquid); method: Vibrating tube method
Temperature, K	Mole fraction of 1-ethyl-3-methylimidazolium ethyl sulfate	Mass density, kg/m3	uncertainty
288.15	1	1245.3	.5
288.15	.9211	1234.8	.5
288.15	.827	1220.5	.5
288.15	.7421	1205.3	.5
288.15	.6483	1185.3	.5
288.15	.5667	1164.9	.5
288.15	.4727	1136.8	.5
288.15	.3485	1088.4	.5
288.15	.2469	1035.3	.5
288.15	.1233	943.6	.5
288.15	.0494	864.9	.5
288.15	0	794.4	.5
298.15	1	1238.3	.5
298.15	.9211	1227.9	.5
298.15	.827	1213.8	.5
298.15	.7421	1198.3	.5
298.15	.6483	1178.2	.5
298.15	.5667	1157.7	.5
298.15	.4727	1129.5	.5
298.15	.3485	1080.9	.5
298.15	.2469	1027.6	.5
298.15	.1233	935.6	.5
298.15	.0494	856.6	.5
298.15	0	785.8	.5
308.15	1	1231.6	.5
308.15	.9211	1221.1	.5
308.15	.827	1206.8	.5
308.15	.7421	1191.3	.5
308.15	.6483	1171.2	.5
308.15	.5667	1150.6	.5
308.15	.4727	1122.2	.5
308.15	.3485	1073.4	.5
308.15	.2469	1019.9	.5
308.15	.1233	927.6	.5
308.15	.0494	848.1	.5
308.15	0	777.1	.5
318.15	1	1224.9	.5
318.15	.9211	1214.3	.5
318.15	.827	1200	.5
318.15	.7421	1184.4	.5
318.15	.6483	1164.2	.5
318.15	.5667	1143.5	.5
318.15	.4727	1115	.5
318.15	.3485	1066	.5
318.15	.2469	1012.3	.5
318.15	.1233	919.5	.5
318.15	.0494	839.7	.5
318.15	0	768.3	.5

System: ethanol + 3-ethyl-1-methylimidazolium butyl sulfate; phases: Liquid
Fixed: Pressure, kPa = 101
Property: Mass density, kg/m3 (Liquid); method: Vibrating tube method
Temperature, K	Mole fraction of 3-ethyl-1-methylimidazolium butyl sulfate	Mass density, kg/m3	uncertainty
288.15	1	1182.5	.5
288.15	.8794	1169.9	.5
288.15	.7858	1158.4	.5
288.15	.6866	1143.7	.5
288.15	.5699	1122	.5
288.15	.4993	1105.9	.5
288.15	.4691	1098.2	.5
288.15	.3812	1072.1	.5
288.15	.2904	1037.4	.5
288.15	.1938	987	.5
288.15	.0989	915.1	.5
288.15	.0498	864.5	.5
298.15	1	1175.7	.5
298.15	.8794	1163.1	.5
298.15	.7858	1151.6	.5
298.15	.6866	1136.7	.5
298.15	.5699	1114.9	.5
298.15	.4993	1098.8	.5
298.15	.4691	1091	.5
298.15	.3812	1064.8	.5
298.15	.2904	1030	.5
298.15	.1938	979.3	.5
298.15	.0989	907.1	.5
298.15	.0498	856.2	.5
308.15	1	1169	.5
308.15	.8794	1156.3	.5
308.15	.7858	1144.7	.5
308.15	.6866	1129.7	.5
308.15	.5699	1107.9	.5
308.15	.4993	1091.1	.5
308.15	.4691	1083.9	.5
308.15	.3812	1057.6	.5
308.15	.2904	1022.4	.5
308.15	.1938	971.6	.5
308.15	.0989	898.9	.5
308.15	.0498	847.9	.5
318.15	1	1162.4	.5
318.15	.8794	1149.6	.5
318.15	.7858	1138	.5
318.15	.6866	1122.8	.5
318.15	.5699	1101	.5
318.15	.4993	1083.7	.5
318.15	.4691	1076.9	.5
318.15	.3812	1050.4	.5
318.15	.2904	1014.8	.5
318.15	.1938	963.8	.5
318.15	.0989	890.9	.5
318.15	.0498	839.5	.5

System: ethanol + 1-ethyl-3-methylimidazolium hexylsulfate; phases: Liquid
Fixed: Pressure, kPa = 101
Property: Mass density, kg/m3 (Liquid); method: Vibrating tube method
Temperature, K	Mole fraction of 1-ethyl-3-methylimidazolium hexylsulfate	Mass density, kg/m3	uncertainty
288.15	1	1136.6	.5
288.15	.9063	1128.5	.5
288.15	.7455	1113.2	.5
288.15	.7252	1110.9	.5
288.15	.6214	1097.3	.5
288.15	.4947	1075.5	.5
288.15	.4377	1063.2	.5
288.15	.3246	1031.7	.5
288.15	.2202	990	.5
288.15	.0977	911.2	.5
298.15	1	1129.6	.5
298.15	.9063	1121.8	.5
298.15	.7455	1106.4	.5
298.15	.7252	1104.1	.5
298.15	.6214	1090.4	.5
298.15	.4947	1068.4	.5
298.15	.4377	1056	.5
298.15	.3246	1024.3	.5
298.15	.2202	982.4	.5
298.15	.0977	903.4	.5
308.15	1	1123.1	.5
308.15	.9063	1115.2	.5
308.15	.7455	1099.7	.5
308.15	.7252	1097.4	.5
308.15	.6214	1083.5	.5
308.15	.4947	1061.4	.5
308.15	.4377	1048.9	.5
308.15	.3246	1017.1	.5
308.15	.2202	974.9	.5
308.15	.0977	895.3	.5
318.15	1	1116.6	.5
318.15	.9063	1108.8	.5
318.15	.7455	1093	.5
318.15	.7252	1090.7	.5
318.15	.6214	1076.8	.5
318.15	.4947	1054.4	.5
318.15	.4377	1042	.5
318.15	.3246	1009.8	.5
318.15	.2202	967.4	.5
318.15	.0977	887.4	.5

System: ethanol + 1-ethyl-3-methylimidazolium octyl sulfate; phases: Liquid
Fixed: Pressure, kPa = 101
Property: Mass density, kg/m3 (Liquid); method: Vibrating tube method
Temperature, K	Mole fraction of 1-ethyl-3-methylimidazolium octyl sulfate	Mass density, kg/m3	uncertainty
288.15	1	1100.7	.5
288.15	.9047	1094.4	.5
288.15	.792	1085.7	.5
288.15	.6844	1075.6	.5
288.15	.5975	1065.6	.5
288.15	.4964	1050.9	.5
288.15	.3955	1031.6	.5
288.15	.2985	1006.3	.5
288.15	.1901	964.1	.5
288.15	.098	906.4	.5
298.15	1	1093.8	.5
298.15	.9047	1087.5	.5
298.15	.792	1078.9	.5
298.15	.6844	1068.8	.5
298.15	.5975	1058.7	.5
298.15	.4964	1043.9	.5
298.15	.3955	1024.4	.5
298.15	.2985	998.9	.5
298.15	.1901	956.5	.5
298.15	.098	898.5	.5
308.15	1	1087	.5
308.15	.9047	1081	.5
308.15	.792	1072.3	.5
308.15	.6844	1062.1	.5
308.15	.5975	1051.9	.5
308.15	.4964	1037	.5
308.15	.3955	1017.4	.5
308.15	.2985	991.8	.5
308.15	.1901	949	.5
308.15	.098	890.7	.5
318.15	1	1080.5	.5
318.15	.9047	1074.4	.5
318.15	.792	1065.8	.5
318.15	.6844	1055.4	.5
318.15	.5975	1045.2	.5
318.15	.4964	1030.1	.5
318.15	.3955	1010.3	.5
318.15	.2985	984.4	.5
318.15	.1901	941.4	.5
318.15	.098	882.8	.5
