Measured thermophysical data. Conductivities of the Ternary Systems Y(NO3)3 + Ce(NO3)3 + H2O, Y(NO3)3 + Nd(NO3)3 + H2O, Ce(NO3)3 + Nd(NO3)3 + H2O and Their Binary Subsystems at Different Temperatures
Source: J. Chem. Eng. Data, 2011, 10.1021/je200415u
Compound 1: water, H2O
Compound 2: yttrium nitrate, N3O9Y, purity 99.99%
Compound 3: cerium nitrate, CeN3O9, purity 99.99%
Compound 4: neodymium nitrate, NdN3O9, purity 99%

System: water + yttrium nitrate; phases: Liquid
Fixed: Pressure, kPa = 101
Property: Electrical conductivity, S/m (Liquid); method: METLER TOLEDO SevenEasy conductivity meter
Molality, mol/kg of yttrium nitrate	Temperature, K	Electrical conductivity, S/m	uncertainty
.4989	293.15	7.202	.03601
.9965	293.15	10.031	.050155
1.4972	293.15	10.355	.051775
1.982	293.15	9.433	.047165
2.9475	293.15	6.349	.031745
3.9452	293.15	3.676	.01838
4.9575	293.15	1.888	.00944
.4989	298.15	8.339	.041695
.9965	298.15	11.614	.05807
1.4972	298.15	11.996	.05998
1.982	298.15	10.904	.05452
2.9475	298.15	7.421	.037105
3.9452	298.15	4.396	.02198
4.9575	298.15	2.284	.01142
.4989	308.15	9.922	.04961
.9965	308.15	13.692	.06846
1.4972	308.15	14.172	.07086
1.982	308.15	13.031	.065155
2.9475	308.15	9.084	.04542
3.9452	308.15	5.611	.028055
4.9575	308.15	3.078	.01539

System: water + cerium nitrate; phases: Liquid
Fixed: Pressure, kPa = 101
Property: Electrical conductivity, S/m (Liquid); method: METLER TOLEDO SevenEasy conductivity meter
Molality, mol/kg of cerium nitrate	Temperature, K	Electrical conductivity, S/m	uncertainty
.5112	293.15	6.618	.03309
1.0313	293.15	8.513	.042565
1.5546	293.15	8.217	.041085
1.9969	293.15	7.244	.03622
3.1308	293.15	4.309	.021545
3.9676	293.15	2.673	.013365
4.4616	293.15	1.912	.00956
.5112	298.15	7.4	.037
1.0313	298.15	9.446	.04723
1.5546	298.15	9.149	.045745
1.9969	298.15	8.103	.040515
3.1308	298.15	4.898	.02449
3.9676	298.15	3.099	.015495
4.4616	298.15	2.244	.01122
.5112	308.15	8.775	.043875
1.0313	308.15	11.242	.05621
1.5546	308.15	10.95	.05475
1.9969	308.15	9.779	.048895
3.1308	308.15	6.136	.03068
3.9676	308.15	4.018	.02009
4.4616	308.15	2.959	.014795

System: water + neodymium nitrate; phases: Liquid
Fixed: Pressure, kPa = 101
Property: Electrical conductivity, S/m (Liquid); method: METLER TOLEDO SevenEasy conductivity meter
Molality, mol/kg of neodymium nitrate	Temperature, K	Electrical conductivity, S/m	uncertainty
.522	293.15	6.783	.033915
1.0213	293.15	8.784	.04392
1.5554	293.15	8.655	.043275
2.0934	293.15	7.44	.0372
3.0857	293.15	4.708	.02354
4.1242	293.15	2.521	.012605
4.2972	293.15	2.219	.011095
.522	298.15	7.476	.03738
1.0213	298.15	9.664	.04832
1.5554	298.15	9.545	.047725
2.0934	298.15	8.27	.04135
3.0857	298.15	5.329	.026645
4.1242	298.15	2.931	.014655
4.2972	298.15	2.623	.013115
.522	308.15	8.971	.044855
1.0213	308.15	11.543	.057715
1.5554	308.15	11.444	.05722
2.0934	308.15	10.009	.050045
3.0857	308.15	6.651	.033255
4.1242	308.15	3.821	.019105
4.2972	308.15	3.422	.01711

System: water + cerium nitrate + yttrium nitrate; phases: Liquid
Fixed: Pressure, kPa = 101
Property: Electrical conductivity, S/m (Liquid); method: METLER TOLEDO SevenEasy conductivity
Temperature, K	Molality, mol/kg of yttrium nitrate	Molality, mol/kg of cerium nitrate	Electrical conductivity, S/m	uncertainty
293.15	.2545	.7679	8.786	.04393
293.15	.5027	.5111	9.145	.045725
293.15	.7527	.2523	9.512	.04756
293.15	.4944	1.4988	7.677	.038385
293.15	.9897	.9998	8.194	.04097
293.15	1.4843	.5014	8.736	.04368
293.15	.7655	2.3177	4.724	.02362
293.15	1.4879	1.5503	5.232	.02616
293.15	2.2402	.7513	5.759	.028795
293.15	.9855	2.9766	2.874	.01437
293.15	1.9734	1.983	3.108	.01554
293.15	2.9596	.9912	3.36	.0168
298.15	.2545	.7679	9.869	.049345
298.15	.5027	.5111	10.38	.0519
298.15	.7527	.2523	10.917	.054585
298.15	.4944	1.4988	8.648	.04324
298.15	.9897	.9998	9.35	.04675
298.15	1.4843	.5014	10.042	.05021
298.15	.7655	2.3177	5.424	.02712
298.15	1.4879	1.5503	6.022	.03011
298.15	2.2402	.7513	6.684	.03342
298.15	.9855	2.9766	3.373	.016865
298.15	1.9734	1.983	3.668	.01834
298.15	2.9596	.9912	3.991	.019955
308.15	.2545	.7679	11.721	.058605
308.15	.5027	.5111	12.301	.061505
308.15	.7527	.2523	12.905	.064525
308.15	.4944	1.4988	10.425	.052125
308.15	.9897	.9998	11.215	.056075
308.15	1.4843	.5014	12.015	.060075
308.15	.7655	2.3177	6.775	.033875
308.15	1.4879	1.5503	7.45	.03725
308.15	2.2402	.7513	8.219	.041095
308.15	.9855	2.9766	4.345	.021725
308.15	1.9734	1.983	4.705	.023525
308.15	2.9596	.9912	5.105	.025525

System: water + neodymium nitrate + yttrium nitrate; phases: Liquid
Fixed: Pressure, kPa = 101
Property: Electrical conductivity, S/m (Liquid); method: METLER TOLEDO SevenEasy conductivity
Temperature, K	Molality, mol/kg of yttrium nitrate	Molality, mol/kg of neodymium nitrate	Electrical conductivity, S/m	uncertainty
293.15	.2532	.7618	8.985	.044925
293.15	.5005	.5083	9.301	.046505
293.15	.7512	.2514	9.592	.04796
293.15	.5132	1.5514	7.842	.03921
293.15	1.0147	1.0217	8.309	.041545
293.15	1.5034	.5055	8.798	.04399
293.15	.7595	2.2906	5.058	.02529
293.15	1.5011	1.5142	5.448	.02724
293.15	2.2355	.7454	5.876	.02938
293.15	1.0125	3.0658	2.745	.013725
293.15	2.0077	2.0254	2.998	.01499
293.15	2.9764	1.0127	3.293	.016465
298.15	.2532	.7618	10.022	.05011
298.15	.5005	.5083	10.517	.052585
298.15	.7512	.2514	10.988	.05494
298.15	.5132	1.5514	8.809	.044045
298.15	1.0147	1.0217	9.438	.04719
298.15	.2532	.7618	10.022	.05011
298.15	.5005	.5083	10.517	.052585
298.15	.7512	.2514	10.988	.05494
298.15	.5132	1.5514	8.809	.044045
298.15	1.0147	1.0217	9.438	.04719
308.15	.2532	.7618	11.936	.05968
308.15	.5005	.5083	12.48	.0624
308.15	.7512	.2514	13.022	.06511
308.15	.5132	1.5514	10.627	.053135
308.15	1.0147	1.0217	11.357	.056785
308.15	1.5034	.5055	12.108	.06054
308.15	.7595	2.2906	7.165	.035825
308.15	1.5011	1.5142	7.751	.038755
308.15	2.2355	.7454	8.362	.04181
308.15	1.0125	3.0658	4.178	.02089
308.15	2.0077	2.0254	4.579	.022895
308.15	2.9764	1.0127	5.04	.0252

System: water + neodymium nitrate + cerium nitrate; phases: Liquid
Fixed: Pressure, kPa = 101
Property: Electrical conductivity, S/m (Liquid); method: METLER TOLEDO SevenEasy conductivity
Temperature, K	Molality, mol/kg of cerium nitrate	Molality, mol/kg of neodymium nitrate	Electrical conductivity, S/m	uncertainty
293.15	.2565	.7673	8.645	.043225
293.15	.5097	.5165	8.614	.04307
293.15	.772	.2568	8.53	.04265
293.15	.5182	1.5501	7.335	.036675
293.15	1.0233	1.0207	7.303	.036515
293.15	1.5159	.5042	7.261	.036305
293.15	.7723	2.3246	4.575	.022875
293.15	1.5687	1.5396	4.478	.02239
293.15	2.3415	.7779	4.39	.02195
293.15	1.0189	3.0651	2.578	.01289
293.15	2.0174	2.0272	2.591	.012955
293.15	3.0001	1.0057	2.651	.013255
298.15	.2565	.7673	9.53	.04765
298.15	.5097	.5165	9.495	.047475
298.15	.772	.2568	9.456	.04728
298.15	.5182	1.5501	8.172	.04086
298.15	1.0233	1.0207	8.145	.040725
298.15	1.5159	.5042	8.095	.040475
298.15	.7723	2.3246	5.179	.025895
298.15	1.5687	1.5396	5.087	.025435
298.15	2.3415	.7779	4.97	.02485
298.15	1.0189	3.0651	2.995	.014975
298.15	2.0174	2.0272	3.028	.01514
298.15	3.0001	1.0057	3.074	.01537
308.15	.2565	.7673	11.376	.05688
308.15	.5097	.5165	11.337	.056685
308.15	.772	.2568	11.248	.05624
308.15	.5182	1.5501	9.869	.049345
308.15	1.0233	1.0207	9.839	.049195
308.15	1.5159	.5042	9.763	.048815
308.15	.7723	2.3246	6.47	.03235
308.15	1.5687	1.5396	6.367	.031835
308.15	2.3415	.7779	6.225	.031125
308.15	1.0189	3.0651	3.889	.019445
308.15	2.0174	2.0272	3.899	.019495
308.15	3.0001	1.0057	3.996	.01998
