Measured thermophysical data. Interfacial Tensions of Imidazolium-Based Ionic Liquids with N-Alkanes and Cyclohexane
Source: J. Chem. Eng. Data, 2011, 10.1021/je200349t
Compound 1: 1-propyl-3-methylimidazolium tetrafluoroborate, C7H13BF4N2, purity 99%
Compound 2: 1-butyl-3-methylimidazolium tetrafluoroborate, C8H15BF4N2, purity 99%
Compound 3: [pmim][BF4], C9H17N2BF4, purity 99%
Compound 4: 1-hexyl-3-methylimidazolium tetrafluoroborate, C10H19BF4N2, purity 99%
Compound 5: n-hexane, C6H14, purity 99%
Compound 6: heptane, C7H16, purity 99%
Compound 7: cyclohexane, C6H12, purity 99%

System: 1-propyl-3-methylimidazolium tetrafluoroborate; phases: Liquid, Air at 1 atmosphere
Property: Surface tension liquid-gas, N/m (Liquid); method: Ring tensiometer
Temperature, K	Surface tension liquid-gas, N/m	uncertainty
288.15	.05068	.0001
298.15	.05031	.0001
308.15	.04936	.0001
318.15	.04873	.0001
328.15	.04838	.0001

System: 1-butyl-3-methylimidazolium tetrafluoroborate; phases: Liquid, Air at 1 atmosphere
Property: Surface tension liquid-gas, N/m (Liquid); method: Ring tensiometer
Temperature, K	Surface tension liquid-gas, N/m	uncertainty
288.15	.04497	.0001
298.15	.04437	.0001
308.15	.04399	.0001
318.15	.04336	.0001
328.15	.04243	.0001

System: [pmim][BF4]; phases: Liquid, Air at 1 atmosphere
Property: Surface tension liquid-gas, N/m (Liquid); method: Ring tensiometer
Temperature, K	Surface tension liquid-gas, N/m	uncertainty
288.15	.04221	.0001
298.15	.04163	.0001
308.15	.04143	.0001
318.15	.0408	.0001
328.15	.04034	.0001

System: 1-hexyl-3-methylimidazolium tetrafluoroborate; phases: Liquid, Air at 1 atmosphere
Property: Surface tension liquid-gas, N/m (Liquid); method: Ring tensiometer
Temperature, K	Surface tension liquid-gas, N/m	uncertainty
288.15	.03789	.0001
298.15	.03734	.0001
308.15	.03703	.0001
318.15	.03678	.0001
328.15	.03626	.0001

System: n-hexane; phases: Liquid, Air at 1 atmosphere
Property: Surface tension liquid-gas, N/m (Liquid); method: Ring tensiometer
Temperature, K	Surface tension liquid-gas, N/m	uncertainty
288.15	.01901	.0001
298.15	.01803	.0001
308.15	.01712	.0001
318.15	.01623	.0001
328.15	.01523	.0001

System: heptane; phases: Liquid, Air at 1 atmosphere
Property: Surface tension liquid-gas, N/m (Liquid); method: Ring tensiometer
Temperature, K	Surface tension liquid-gas, N/m	uncertainty
288.15	.02043	.0001
298.15	.01968	.0001
308.15	.01889	.0001
318.15	.01795	.0001
328.15	.01702	.0001

System: cyclohexane; phases: Liquid, Air at 1 atmosphere
Property: Surface tension liquid-gas, N/m (Liquid); method: Ring tensiometer
Temperature, K	Surface tension liquid-gas, N/m	uncertainty
288.15	.02558	.0001
298.15	.02473	.0001
308.15	.02326	.0001
318.15	.02222	.0001
328.15	.02132	.0001

System: n-hexane + 1-propyl-3-methylimidazolium tetrafluoroborate; phases: Liquid mixture 1, Liquid
Fixed: Pressure, kPa = 101
Property: Mass density, kg/m3 (Liquid mixture 1); method: Vibrating tube method
Temperature, K	Mass density, kg/m3	uncertainty
288.15	1245.9	
298.15	1238.8	
308.15	1230.2	
318.15	1221.3	
328.15	1215.6	

System: n-hexane + 1-propyl-3-methylimidazolium tetrafluoroborate; phases: Liquid mixture 1, Liquid
Fixed: Pressure, kPa = 101
Property: Mass density, kg/m3 (Liquid mixture 1); method: Vibrating tube method
Temperature, K	Mass density, kg/m3	uncertainty
288.15	646.7	
298.15	641.8	
308.15	637.9	
318.15	632	
328.15	623.5	

System: n-hexane + 1-propyl-3-methylimidazolium tetrafluoroborate; phases: Liquid mixture 1, Liquid mixture 2
Fixed: Pressure, kPa = 101
Property: Surface tension liquid-gas, N/m (Liquid mixture 1); method: Ring tensiometer
Temperature, K	Surface tension liquid-gas, N/m	uncertainty
288.15	.01908	.0001
298.15	.01877	.0001
308.15	.01838	.0001
318.15	.01813	.0001
328.15	.0179	.0001

System: n-hexane + 1-butyl-3-methylimidazolium tetrafluoroborate; phases: Liquid mixture 1, Liquid
Fixed: Pressure, kPa = 101
Property: Mass density, kg/m3 (Liquid mixture 1); method: Vibrating tube method
Temperature, K	Mass density, kg/m3	uncertainty
288.15	1187.6	
298.15	1181.6	
308.15	1173.7	
318.15	1165.6	
328.15	1158.9	

System: n-hexane + 1-butyl-3-methylimidazolium tetrafluoroborate; phases: Liquid mixture 1, Liquid
Fixed: Pressure, kPa = 101
Property: Mass density, kg/m3 (Liquid mixture 1); method: Vibrating tube method
Temperature, K	Mass density, kg/m3	uncertainty
288.15	649.7	
298.15	645.5	
308.15	635.5	
318.15	630.2	
328.15	626.3	

System: n-hexane + 1-butyl-3-methylimidazolium tetrafluoroborate; phases: Liquid mixture 1, Liquid mixture 2
Fixed: Pressure, kPa = 101
Property: Surface tension liquid-gas, N/m (Liquid mixture 1); method: Ring tensiometer
Temperature, K	Surface tension liquid-gas, N/m	uncertainty
288.15	.01349	.0001
298.15	.01326	.0001
308.15	.01269	.0001
318.15	.01226	.0001
328.15	.01219	.0001

System: n-hexane + [pmim][BF4]; phases: Liquid mixture 1, Liquid
Fixed: Pressure, kPa = 101
Property: Mass density, kg/m3 (Liquid mixture 1); method: Vibrating tube method
Temperature, K	Mass density, kg/m3	uncertainty
288.15	1175.9	
298.15	1169.8	
308.15	1162.1	
318.15	1155.9	
328.15	1151	

System: n-hexane + [pmim][BF4]; phases: Liquid mixture 1, Liquid
Fixed: Pressure, kPa = 101
Property: Mass density, kg/m3 (Liquid mixture 1); method: Vibrating tube method
Temperature, K	Mass density, kg/m3	uncertainty
288.15	650.6	
298.15	645.9	
308.15	640.1	
318.15	629.8	
328.15	625.9	

System: n-hexane + [pmim][BF4]; phases: Liquid mixture 1, Liquid mixture 2
Fixed: Pressure, kPa = 101
Property: Surface tension liquid-gas, N/m (Liquid mixture 1); method: Ring tensiometer
Temperature, K	Surface tension liquid-gas, N/m	uncertainty
288.15	.012	.0001
298.15	.01199	.0001
308.15	.01168	.0001
318.15	.01162	.0001
328.15	.0116	.0001

System: n-hexane + 1-hexyl-3-methylimidazolium tetrafluoroborate; phases: Liquid mixture 1, Liquid
Fixed: Pressure, kPa = 101
Property: Mass density, kg/m3 (Liquid mixture 1); method: Vibrating tube method
Temperature, K	Mass density, kg/m3	uncertainty
288.15	1136.1	
298.15	1129	
308.15	1122.5	
318.15	1110.6	
328.15	1098.9	

System: n-hexane + 1-hexyl-3-methylimidazolium tetrafluoroborate; phases: Liquid mixture 1, Liquid
Fixed: Pressure, kPa = 101
Property: Mass density, kg/m3 (Liquid mixture 1); method: Vibrating tube method
Temperature, K	Mass density, kg/m3	uncertainty
288.15	649.7	
298.15	643.3	
308.15	640.5	
318.15	628.9	
328.15	625.1	

System: n-hexane + 1-hexyl-3-methylimidazolium tetrafluoroborate; phases: Liquid mixture 1, Liquid mixture 2
Fixed: Pressure, kPa = 101
Property: Surface tension liquid-gas, N/m (Liquid mixture 1); method: Ring tensiometer
Temperature, K	Surface tension liquid-gas, N/m	uncertainty
288.15	.00856	.0001
298.15	.00854	.0001
308.15	.00828	.0001
318.15	.00826	.0001
328.15	.00823	.0001

System: heptane + 1-propyl-3-methylimidazolium tetrafluoroborate; phases: Liquid mixture 1, Liquid
Fixed: Pressure, kPa = 101
Property: Mass density, kg/m3 (Liquid mixture 1); method: Vibrating tube method
Temperature, K	Mass density, kg/m3	uncertainty
288.15	1239.8	
298.15	1236.9	
308.15	1231.1	
318.15	1228.9	
328.15	1226.3	

System: heptane + 1-propyl-3-methylimidazolium tetrafluoroborate; phases: Liquid mixture 1, Liquid
Fixed: Pressure, kPa = 101
Property: Mass density, kg/m3 (Liquid mixture 1); method: Vibrating tube method
Temperature, K	Mass density, kg/m3	uncertainty
288.15	672.6	
298.15	667.9	
308.15	664	
318.15	657.8	
328.15	653.4	

System: heptane + 1-propyl-3-methylimidazolium tetrafluoroborate; phases: Liquid mixture 1, Liquid mixture 2
Fixed: Pressure, kPa = 101
Property: Surface tension liquid-gas, N/m (Liquid mixture 1); method: Ring tensiometer
Temperature, K	Surface tension liquid-gas, N/m	uncertainty
288.15	.01853	.0001
298.15	.01852	.0001
308.15	.01849	.0001
318.15	.01838	.0001
328.15	.0183	.0001

System: heptane + 1-butyl-3-methylimidazolium tetrafluoroborate; phases: Liquid mixture 1, Liquid
Fixed: Pressure, kPa = 101
Property: Mass density, kg/m3 (Liquid mixture 1); method: Vibrating tube method
Temperature, K	Mass density, kg/m3	uncertainty
288.15	1189.6	
298.15	1184.1	
308.15	1177.6	
318.15	1172.4	
328.15	1162.3	

System: heptane + 1-butyl-3-methylimidazolium tetrafluoroborate; phases: Liquid mixture 1, Liquid
Fixed: Pressure, kPa = 101
Property: Mass density, kg/m3 (Liquid mixture 1); method: Vibrating tube method
Temperature, K	Mass density, kg/m3	uncertainty
288.15	670.3	
298.15	667.8	
308.15	664.5	
318.15	660.6	
328.15	655.8	

System: heptane + 1-butyl-3-methylimidazolium tetrafluoroborate; phases: Liquid mixture 1, Liquid mixture 2
Fixed: Pressure, kPa = 101
Property: Surface tension liquid-gas, N/m (Liquid mixture 1); method: Ring tensiometer
Temperature, K	Surface tension liquid-gas, N/m	uncertainty
288.15	.01453	.0001
298.15	.01434	.0001
308.15	.01408	.0001
318.15	.01401	.0001
328.15	.01396	.0001

System: heptane + [pmim][BF4]; phases: Liquid mixture 1, Liquid
Fixed: Pressure, kPa = 101
Property: Mass density, kg/m3 (Liquid mixture 1); method: Vibrating tube method
Temperature, K	Mass density, kg/m3	uncertainty
288.15	1169.9	
298.15	1161.1	
308.15	1156.3	
318.15	1146.2	
328.15	1138.6	

System: heptane + [pmim][BF4]; phases: Liquid mixture 1, Liquid
Fixed: Pressure, kPa = 101
Property: Mass density, kg/m3 (Liquid mixture 1); method: Vibrating tube method
Temperature, K	Mass density, kg/m3	uncertainty
288.15	673.9	
298.15	670	
308.15	665.3	
318.15	659.1	
328.15	654.8	

System: heptane + [pmim][BF4]; phases: Liquid mixture 1, Liquid mixture 2
Fixed: Pressure, kPa = 101
Property: Surface tension liquid-gas, N/m (Liquid mixture 1); method: Ring tensiometer
Temperature, K	Surface tension liquid-gas, N/m	uncertainty
288.15	.01185	.0001
298.15	.01183	.0001
308.15	.01182	.0001
318.15	.0118	.0001
328.15	.01179	.0001

System: heptane + 1-hexyl-3-methylimidazolium tetrafluoroborate; phases: Liquid mixture 1, Liquid
Fixed: Pressure, kPa = 101
Property: Mass density, kg/m3 (Liquid mixture 1); method: Vibrating tube method
Temperature, K	Mass density, kg/m3	uncertainty
288.15	1134.9	
298.15	1131.6	
308.15	1130.8	
318.15	1125.8	
328.15	1122.1	

System: heptane + 1-hexyl-3-methylimidazolium tetrafluoroborate; phases: Liquid mixture 1, Liquid
Fixed: Pressure, kPa = 101
Property: Mass density, kg/m3 (Liquid mixture 1); method: Vibrating tube method
Temperature, K	Mass density, kg/m3	uncertainty
288.15	672.2	
298.15	668.4	
308.15	664.2	
318.15	656.9	
328.15	654.1	

System: heptane + 1-hexyl-3-methylimidazolium tetrafluoroborate; phases: Liquid mixture 1, Liquid mixture 2
Fixed: Pressure, kPa = 101
Property: Surface tension liquid-gas, N/m (Liquid mixture 1); method: Ring tensiometer
Temperature, K	Surface tension liquid-gas, N/m	uncertainty
288.15	.00863	.0001
298.15	.0086	.0001
308.15	.00855	.0001
318.15	.00845	.0001
328.15	.00834	.0001

System: cyclohexane + 1-propyl-3-methylimidazolium tetrafluoroborate; phases: Liquid mixture 1, Liquid
Fixed: Pressure, kPa = 101
Property: Mass density, kg/m3 (Liquid mixture 1); method: Vibrating tube method
Temperature, K	Mass density, kg/m3	uncertainty
288.15	1234.9	
298.15	1231.9	
308.15	1225.9	
318.15	1222.9	
328.15	1220.3	

System: cyclohexane + 1-propyl-3-methylimidazolium tetrafluoroborate; phases: Liquid mixture 1, Liquid
Fixed: Pressure, kPa = 101
Property: Mass density, kg/m3 (Liquid mixture 1); method: Vibrating tube method
Temperature, K	Mass density, kg/m3	uncertainty
288.15	770.3	
298.15	765.4	
308.15	756.6	
318.15	752.3	
328.15	750.1	

System: cyclohexane + 1-propyl-3-methylimidazolium tetrafluoroborate; phases: Liquid mixture 1, Liquid mixture 2
Fixed: Pressure, kPa = 101
Property: Surface tension liquid-gas, N/m (Liquid mixture 1); method: Ring tensiometer
Temperature, K	Surface tension liquid-gas, N/m	uncertainty
288.15	.01783	.0001
298.15	.0177	.0001
308.15	.01752	.0001
318.15	.01702	.0001
328.15	.01677	.0001

System: cyclohexane + 1-butyl-3-methylimidazolium tetrafluoroborate; phases: Liquid mixture 1, Liquid
Fixed: Pressure, kPa = 101
Property: Mass density, kg/m3 (Liquid mixture 1); method: Vibrating tube method
Temperature, K	Mass density, kg/m3	uncertainty
288.15	1185.9	
298.15	1181.2	
308.15	1178.1	
318.15	1174	
328.15	1166.5	

System: cyclohexane + 1-butyl-3-methylimidazolium tetrafluoroborate; phases: Liquid mixture 1, Liquid
Fixed: Pressure, kPa = 101
Property: Mass density, kg/m3 (Liquid mixture 1); method: Vibrating tube method
Temperature, K	Mass density, kg/m3	uncertainty
288.15	763.2	
298.15	760.1	
308.15	756.7	
318.15	754.2	
328.15	748.9	

System: cyclohexane + 1-butyl-3-methylimidazolium tetrafluoroborate; phases: Liquid mixture 1, Liquid mixture 2
Fixed: Pressure, kPa = 101
Property: Surface tension liquid-gas, N/m (Liquid mixture 1); method: Ring tensiometer
Temperature, K	Surface tension liquid-gas, N/m	uncertainty
288.15	.0136	.0001
298.15	.01339	.0001
308.15	.01328	.0001
318.15	.01322	.0001
328.15	.01303	.0001

System: cyclohexane + [pmim][BF4]; phases: Liquid mixture 1, Liquid
Fixed: Pressure, kPa = 101
Property: Mass density, kg/m3 (Liquid mixture 1); method: Vibrating tube method
Temperature, K	Mass density, kg/m3	uncertainty
288.15	1164.9	
298.15	1156.8	
308.15	1146.1	
318.15	1139	
328.15	1133.7	

System: cyclohexane + [pmim][BF4]; phases: Liquid mixture 1, Liquid
Fixed: Pressure, kPa = 101
Property: Mass density, kg/m3 (Liquid mixture 1); method: Vibrating tube method
Temperature, K	Mass density, kg/m3	uncertainty
288.15	773.3	
298.15	762.2	
308.15	756.1	
318.15	752.2	
328.15	739.8	

System: cyclohexane + [pmim][BF4]; phases: Liquid mixture 1, Liquid mixture 2
Fixed: Pressure, kPa = 101
Property: Surface tension liquid-gas, N/m (Liquid mixture 1); method: Ring tensiometer
Temperature, K	Surface tension liquid-gas, N/m	uncertainty
288.15	.01027	.0001
298.15	.01	.0001
308.15	.00946	.0001
318.15	.00898	.0001
328.15	.00881	.0001

System: cyclohexane + 1-hexyl-3-methylimidazolium tetrafluoroborate; phases: Liquid mixture 1, Liquid
Fixed: Pressure, kPa = 101
Property: Mass density, kg/m3 (Liquid mixture 1); method: Vibrating tube method
Temperature, K	Mass density, kg/m3	uncertainty
288.15	1124.9	
298.15	1120.8	
308.15	1116.1	
318.15	1114.9	
328.15	1111.7	

System: cyclohexane + 1-hexyl-3-methylimidazolium tetrafluoroborate; phases: Liquid mixture 1, Liquid
Fixed: Pressure, kPa = 101
Property: Mass density, kg/m3 (Liquid mixture 1); method: Vibrating tube method
Temperature, K	Mass density, kg/m3	uncertainty
288.15	773.3	
298.15	765	
308.15	757.9	
318.15	753.9	
328.15	749.7	

System: cyclohexane + 1-hexyl-3-methylimidazolium tetrafluoroborate; phases: Liquid mixture 1, Liquid mixture 2
Fixed: Pressure, kPa = 101
Property: Surface tension liquid-gas, N/m (Liquid mixture 1); method: Ring tensiometer
Temperature, K	Surface tension liquid-gas, N/m	uncertainty
288.15	.00704	.0001
298.15	.00702	.0001
308.15	.0067	.0001
318.15	.00669	.0001
328.15	.00659	.0001
