Measured thermophysical data. Measurement and Correlation for the Solubility of Dimethyl 1,4-Cyclohexanedione-2,5-dicarboxylate in Different Solvents at Temperatures from (278.15 to 323.15) K
Source: J. Chem. Eng. Data, 2011, 10.1021/je2000292
Compound 1: dimethyl 2,5-dioxo-1,4-cyclohexanedicarboxylate, C10H12O6, purity 99.85%
Compound 2: N,N-dimethylformamide, C3H7NO, purity 99.5%
Compound 3: methanol, CH4O, purity 99.5%
Compound 4: propan-1-ol, C3H8O, purity 99.5%
Compound 5: methylnitrile, C2H3N, purity 99.5%
Compound 6: 2-propanol, C3H8O, purity 99.5%
Compound 7: ethyl ethanoate, C4H8O2, purity 99.5%
Compound 8: propanone, C3H6O, purity 99.5%

System: dimethyl 2,5-dioxo-1,4-cyclohexanedicarboxylate; phases: Crystal, Liquid, Air at 1 atmosphere
Property: Normal melting temperature, K (Crystal); method: DSC/DTA
Normal melting temperature, K	uncertainty
427.65	

System: N,N-dimethylformamide + dimethyl 2,5-dioxo-1,4-cyclohexanedicarboxylate; phases: Liquid, Crystal
Fixed: Pressure, kPa = 101
Property: Mole fraction of dimethyl 2,5-dioxo-1,4-cyclohexanedicarboxylate (Liquid); method: Chromatography
Temperature, K	Mole fraction of dimethyl 2,5-dioxo-1,4-cyclohexanedicarboxylate	uncertainty
278.15	.002482	.000002482
283.15	.00316	.00000316
288.15	.003993	.000003993
293.15	.004924	.000004924
298.15	.006131	.000006131
303.15	.007541	.000007541
308.15	.009345	.000009345
313.15	.011424	.000011424
318.15	.013895	.000013895
323.15	.016403	.000016403

System: methanol + dimethyl 2,5-dioxo-1,4-cyclohexanedicarboxylate; phases: Liquid, Crystal
Fixed: Pressure, kPa = 101
Property: Mole fraction of dimethyl 2,5-dioxo-1,4-cyclohexanedicarboxylate (Liquid); method: Chromatography
Temperature, K	Mole fraction of dimethyl 2,5-dioxo-1,4-cyclohexanedicarboxylate	uncertainty
278.15	.000126	.000000126
283.15	.000173	.000000173
288.15	.000234	.000000234
293.15	.000308	.000000308
298.15	.000403	.000000403
303.15	.000535	.000000535
308.15	.000683	.000000683
313.15	.000871	.000000871
318.15	.001117	.000001117
323.15	.001451	.000001451

System: propan-1-ol + dimethyl 2,5-dioxo-1,4-cyclohexanedicarboxylate; phases: Liquid, Crystal
Fixed: Pressure, kPa = 101
Property: Mole fraction of dimethyl 2,5-dioxo-1,4-cyclohexanedicarboxylate (Liquid); method: Chromatography
Temperature, K	Mole fraction of dimethyl 2,5-dioxo-1,4-cyclohexanedicarboxylate	uncertainty
278.15	.000262	.000000262
283.15	.000343	.000000343
288.15	.000444	.000000444
293.15	.000586	.000000586
298.15	.000748	.000000748
303.15	.000956	.000000956
308.15	.001189	.000001189
313.15	.001502	.000001502
318.15	.001877	.000001877
323.15	.002365	.000002365

System: methylnitrile + dimethyl 2,5-dioxo-1,4-cyclohexanedicarboxylate; phases: Liquid, Crystal
Fixed: Pressure, kPa = 101
Property: Mole fraction of dimethyl 2,5-dioxo-1,4-cyclohexanedicarboxylate (Liquid); method: Chromatography
Temperature, K	Mole fraction of dimethyl 2,5-dioxo-1,4-cyclohexanedicarboxylate	uncertainty
278.15	.000885	.000000885
283.15	.001154	.000001154
288.15	.001464	.000001464
293.15	.001825	.000001825
298.15	.002302	.000002302
303.15	.002865	.000002865
308.15	.003508	.000003508
313.15	.004388	.000004388
318.15	.005314	.000005314
323.15	.006608	.000006608

System: 2-propanol + dimethyl 2,5-dioxo-1,4-cyclohexanedicarboxylate; phases: Liquid, Crystal
Fixed: Pressure, kPa = 101
Property: Mole fraction of dimethyl 2,5-dioxo-1,4-cyclohexanedicarboxylate (Liquid); method: Chromatography
Temperature, K	Mole fraction of dimethyl 2,5-dioxo-1,4-cyclohexanedicarboxylate	uncertainty
278.15	.001358	.000001358
283.15	.001803	.000001803
303.15	.004857	.000004857
308.15	.006242	.000006242
288.15	.002309	.000002309
293.15	.003017	.000003017
298.15	.003834	.000003834
313.15	.007869	.000007869
318.15	.009759	.000009759
323.15	.011894	.000011894

System: ethyl ethanoate + dimethyl 2,5-dioxo-1,4-cyclohexanedicarboxylate; phases: Liquid, Crystal
Fixed: Pressure, kPa = 101
Property: Mole fraction of dimethyl 2,5-dioxo-1,4-cyclohexanedicarboxylate (Liquid); method: Chromatography
Temperature, K	Mole fraction of dimethyl 2,5-dioxo-1,4-cyclohexanedicarboxylate	uncertainty
278.15	.003035	.000003035
283.15	.003838	.000003838
288.15	.004843	.000004843
293.15	.005999	.000005999
298.15	.007455	.000007455
303.15	.009118	.000009118
308.15	.011049	.000011049
313.15	.013559	.000013559
318.15	.016256	.000016256
323.15	.019961	.000019961

System: propanone + dimethyl 2,5-dioxo-1,4-cyclohexanedicarboxylate; phases: Liquid, Crystal
Fixed: Pressure, kPa = 101
Property: Mole fraction of dimethyl 2,5-dioxo-1,4-cyclohexanedicarboxylate (Liquid); method: Chromatography
Temperature, K	Mole fraction of dimethyl 2,5-dioxo-1,4-cyclohexanedicarboxylate	uncertainty
278.15	.001896	.000001896
283.15	.00239	.00000239
288.15	.002991	.000002991
293.15	.003705	.000003705
298.15	.004568	.000004568
303.15	.005618	.000005618
308.15	.006883	.000006883
313.15	.008336	.000008336
318.15	.010068	.000010068
323.15	.012008	.000012008
