Measured thermophysical data. Acidity and Hydrophobicity of Several New Potential Antitubercular  Drugs: Isoniazid and Benzimidazole Derivatives
Source: J. Chem. Eng. Data, 2012, 10.1021/je200827u
Compound 1: 4-pyridinecarbonylhydrazine, C6H7N3O
Compound 2: 2-hydrazinyl-4-pyridinecarboxylic acid hydrazide, C6H9N5O
Compound 3: isonicotinoylhydrazine, C8H9N3O2
Compound 4: 1-decanoyl-2-isonicotinoylhydrazine, C16H25N3O2
Compound 5: 1-cyclopentylidene-2-isonicotinoylhydrazine, C11H13N3O
Compound 6: 1-cyclohexylidene-2-isonicotinoylhydrazine, C12H15N3O
Compound 7: isonicotinic acid, (4-methylcyclohexylidene)hydrazide, C13H17N3O
Compound 8: 2-(ethylthio)-1H-benzimidazole, C9H10N2S
Compound 9: 1-ethyl-2-(ethylthio)-1H-benzimidazole, C11H14N2S
Compound 10: 2-(isopropylthio)-1H-benzimidazole, C10H12N2S
Compound 11: 2-[(2-cyclohexylethyl)thio]-1H-benzimidazole, C15H20N2S
Compound 12: 2-(benzylthio)-1H-benzimidazole, C14H12N2S
Compound 13: 2-[(diphenylmethyl)thio]-1H-benzimidazole, C20H16N2S
Compound 14: 1-benzyl-2-(benzylthio)-1H-benzimidazole, C21H18N2S
Compound 15: 2-[(3,5-dinitrobenzyl)thio]-1H-benzimidazole, C14H10N4O4S
Compound 16: 1H-benzimidazole-2-thiol, C7H6N2S
Compound 17: octyl alcohol, C8H18O
Compound 18: water, H2O

System: 4-pyridinecarbonylhydrazine + octyl alcohol + water; phases: Liquid mixture 1, Liquid
Fixed: Pressure, kPa = 101
Fixed: Temperature, K = 298.15
Property: Amount concentration (molarity), mol/dm3 of 4-pyridinecarbonylhydrazine (Liquid mixture 1); method: Pontentiometric
Mole fraction of 4-pyridinecarbonylhydrazine	Amount concentration (molarity), mol/dm3 of 4-pyridinecarbonylhydrazine	uncertainty
0	.224	

System: 4-pyridinecarbonylhydrazine + octyl alcohol + water; phases: Liquid mixture 1, Liquid
Fixed: Pressure, kPa = 101
Fixed: Temperature, K = 298.15
Property: Amount concentration (molarity), mol/dm3 of 4-pyridinecarbonylhydrazine (Liquid mixture 1); method: Shake-Flask
Mole fraction of 4-pyridinecarbonylhydrazine	Amount concentration (molarity), mol/dm3 of 4-pyridinecarbonylhydrazine	uncertainty
0	.141	

System: octyl alcohol + water + 2-hydrazinyl-4-pyridinecarboxylic acid hydrazide; phases: Liquid mixture 1, Liquid
Fixed: Pressure, kPa = 101
Fixed: Temperature, K = 298.15
Property: Amount concentration (molarity), mol/dm3 of 2-hydrazinyl-4-pyridinecarboxylic acid hydrazide (Liquid mixture 1); method: Potentiometric
Mole fraction of 2-hydrazinyl-4-pyridinecarboxylic acid hydrazide	Amount concentration (molarity), mol/dm3 of 2-hydrazinyl-4-pyridinecarboxylic acid hydrazide	uncertainty
0	.269	

System: octyl alcohol + water + 2-hydrazinyl-4-pyridinecarboxylic acid hydrazide; phases: Liquid mixture 1, Liquid
Fixed: Pressure, kPa = 101
Fixed: Temperature, K = 298.15
Property: Amount concentration (molarity), mol/dm3 of 2-hydrazinyl-4-pyridinecarboxylic acid hydrazide (Liquid mixture 1); method: Shake-Flask
Mole fraction of 2-hydrazinyl-4-pyridinecarboxylic acid hydrazide	Amount concentration (molarity), mol/dm3 of 2-hydrazinyl-4-pyridinecarboxylic acid hydrazide	uncertainty
0	.29	

System: octyl alcohol + isonicotinoylhydrazine + water; phases: Liquid mixture 1, Liquid
Fixed: Pressure, kPa = 101
Fixed: Temperature, K = 298.15
Property: Amount concentration (molarity), mol/dm3 of isonicotinoylhydrazine (Liquid mixture 1); method: Pontentiometric
Mole fraction of isonicotinoylhydrazine	Amount concentration (molarity), mol/dm3 of isonicotinoylhydrazine	uncertainty
0	.135	

System: octyl alcohol + isonicotinoylhydrazine + water; phases: Liquid mixture 1, Liquid
Fixed: Pressure, kPa = 101
Fixed: Temperature, K = 298.15
Property: Amount concentration (molarity), mol/dm3 of isonicotinoylhydrazine (Liquid mixture 1); method: Shake-Flask
Mole fraction of isonicotinoylhydrazine	Amount concentration (molarity), mol/dm3 of isonicotinoylhydrazine	uncertainty
0	.123	

System: octyl alcohol + water + 1-decanoyl-2-isonicotinoylhydrazine; phases: Liquid mixture 1, Liquid
Fixed: Pressure, kPa = 101
Fixed: Temperature, K = 298.15
Property: Amount concentration (molarity), mol/dm3 of 1-decanoyl-2-isonicotinoylhydrazine (Liquid mixture 1); method: Potentiometric
Mole fraction of 1-decanoyl-2-isonicotinoylhydrazine	Amount concentration (molarity), mol/dm3 of 1-decanoyl-2-isonicotinoylhydrazine	uncertainty
0	4572	

System: octyl alcohol + water + 1-decanoyl-2-isonicotinoylhydrazine; phases: Liquid mixture 1, Liquid
Fixed: Pressure, kPa = 101
Fixed: Temperature, K = 298.15
Property: Amount concentration (molarity), mol/dm3 of 1-decanoyl-2-isonicotinoylhydrazine (Liquid mixture 1); method: Shake-Flask
Mole fraction of 1-decanoyl-2-isonicotinoylhydrazine	Amount concentration (molarity), mol/dm3 of 1-decanoyl-2-isonicotinoylhydrazine	uncertainty
0	2977	

System: octyl alcohol + 1-cyclopentylidene-2-isonicotinoylhydrazine + water; phases: Liquid mixture 1, Liquid
Fixed: Pressure, kPa = 101
Fixed: Temperature, K = 298.15
Property: Amount concentration (molarity), mol/dm3 of 1-cyclopentylidene-2-isonicotinoylhydrazine (Liquid mixture 1); method: Pontentiometric
Mole fraction of 1-cyclopentylidene-2-isonicotinoylhydrazine	Amount concentration (molarity), mol/dm3 of 1-cyclopentylidene-2-isonicotinoylhydrazine	uncertainty
0	.24	

System: octyl alcohol + 1-cyclopentylidene-2-isonicotinoylhydrazine + water; phases: Liquid mixture 1, Liquid
Fixed: Pressure, kPa = 101
Fixed: Temperature, K = 298.15
Property: Amount concentration (molarity), mol/dm3 of 1-cyclopentylidene-2-isonicotinoylhydrazine (Liquid mixture 1); method: Shake-Flask
Mole fraction of 1-cyclopentylidene-2-isonicotinoylhydrazine	Amount concentration (molarity), mol/dm3 of 1-cyclopentylidene-2-isonicotinoylhydrazine	uncertainty
0	1.66	

System: octyl alcohol + water + 1-cyclohexylidene-2-isonicotinoylhydrazine; phases: Liquid mixture 1, Liquid
Fixed: Pressure, kPa = 101
Fixed: Temperature, K = 298.15
Property: Amount concentration (molarity), mol/dm3 of 1-cyclohexylidene-2-isonicotinoylhydrazine (Liquid mixture 1); method: Potentiometric
Mole fraction of 1-cyclohexylidene-2-isonicotinoylhydrazine	Amount concentration (molarity), mol/dm3 of 1-cyclohexylidene-2-isonicotinoylhydrazine	uncertainty
0	1.863	

System: octyl alcohol + water + 1-cyclohexylidene-2-isonicotinoylhydrazine; phases: Liquid mixture 1, Liquid
Fixed: Pressure, kPa = 101
Fixed: Temperature, K = 298.15
Property: Amount concentration (molarity), mol/dm3 of 1-cyclohexylidene-2-isonicotinoylhydrazine (Liquid mixture 1); method: Shake-Flask
Mole fraction of 1-cyclohexylidene-2-isonicotinoylhydrazine	Amount concentration (molarity), mol/dm3 of 1-cyclohexylidene-2-isonicotinoylhydrazine	uncertainty
0	1.629	

System: octyl alcohol + water + isonicotinic acid, (4-methylcyclohexylidene)hydrazide; phases: Liquid mixture 1, Liquid
Fixed: Pressure, kPa = 101
Fixed: Temperature, K = 298.15
Property: Amount concentration (molarity), mol/dm3 of isonicotinic acid, (4-methylcyclohexylidene)hydrazide (Liquid mixture 1); method: Potentiometric
Mole fraction of isonicotinic acid, (4-methylcyclohexylidene)hydrazide	Amount concentration (molarity), mol/dm3 of isonicotinic acid, (4-methylcyclohexylidene)hydrazide	uncertainty
0	4.267	

System: octyl alcohol + water + isonicotinic acid, (4-methylcyclohexylidene)hydrazide; phases: Liquid mixture 1, Liquid
Fixed: Pressure, kPa = 101
Fixed: Temperature, K = 298.15
Property: Amount concentration (molarity), mol/dm3 of isonicotinic acid, (4-methylcyclohexylidene)hydrazide (Liquid mixture 1); method: Shake-Flask
Mole fraction of isonicotinic acid, (4-methylcyclohexylidene)hydrazide	Amount concentration (molarity), mol/dm3 of isonicotinic acid, (4-methylcyclohexylidene)hydrazide	uncertainty
0	5.497	

System: octyl alcohol + water + 2-(ethylthio)-1H-benzimidazole; phases: Liquid mixture 1, Liquid
Fixed: Pressure, kPa = 101
Fixed: Temperature, K = 298.15
Property: Amount concentration (molarity), mol/dm3 of 2-(ethylthio)-1H-benzimidazole (Liquid mixture 1); method: Pontentiometric
Mole fraction of 2-(ethylthio)-1H-benzimidazole	Amount concentration (molarity), mol/dm3 of 2-(ethylthio)-1H-benzimidazole	uncertainty
0	468	

System: octyl alcohol + water + 2-(ethylthio)-1H-benzimidazole; phases: Liquid mixture 1, Liquid
Fixed: Pressure, kPa = 101
Fixed: Temperature, K = 298.15
Property: Amount concentration (molarity), mol/dm3 of 2-(ethylthio)-1H-benzimidazole (Liquid mixture 1); method: Shake-Flask
Mole fraction of 2-(ethylthio)-1H-benzimidazole	Amount concentration (molarity), mol/dm3 of 2-(ethylthio)-1H-benzimidazole	uncertainty
0	469	

System: octyl alcohol + water + 1-ethyl-2-(ethylthio)-1H-benzimidazole; phases: Liquid mixture 1, Liquid
Fixed: Pressure, kPa = 101
Fixed: Temperature, K = 298.15
Property: Amount concentration (molarity), mol/dm3 of 1-ethyl-2-(ethylthio)-1H-benzimidazole (Liquid mixture 1); method: Protentiometric
Mole fraction of 1-ethyl-2-(ethylthio)-1H-benzimidazole	Amount concentration (molarity), mol/dm3 of 1-ethyl-2-(ethylthio)-1H-benzimidazole	uncertainty
0	2291	

System: octyl alcohol + water + 1-ethyl-2-(ethylthio)-1H-benzimidazole; phases: Liquid mixture 1, Liquid
Fixed: Pressure, kPa = 101
Fixed: Temperature, K = 298.15
Property: Amount concentration (molarity), mol/dm3 of 1-ethyl-2-(ethylthio)-1H-benzimidazole (Liquid mixture 1); method: Shake-Flask
Mole fraction of 1-ethyl-2-(ethylthio)-1H-benzimidazole	Amount concentration (molarity), mol/dm3 of 1-ethyl-2-(ethylthio)-1H-benzimidazole	uncertainty
0	2833	

System: octyl alcohol + water + 2-(isopropylthio)-1H-benzimidazole; phases: Liquid mixture 1, Liquid
Fixed: Pressure, kPa = 101
Fixed: Temperature, K = 298.15
Property: Amount concentration (molarity), mol/dm3 of 2-(isopropylthio)-1H-benzimidazole (Liquid mixture 1); method: Protentiometric
Mole fraction of 2-(isopropylthio)-1H-benzimidazole	Amount concentration (molarity), mol/dm3 of 2-(isopropylthio)-1H-benzimidazole	uncertainty
0	1699	

System: octyl alcohol + water + 2-(isopropylthio)-1H-benzimidazole; phases: Liquid mixture 1, Liquid
Fixed: Pressure, kPa = 101
Fixed: Temperature, K = 298.15
Property: Amount concentration (molarity), mol/dm3 of 2-(isopropylthio)-1H-benzimidazole (Liquid mixture 1); method: Shake-Flask
Mole fraction of 2-(isopropylthio)-1H-benzimidazole	Amount concentration (molarity), mol/dm3 of 2-(isopropylthio)-1H-benzimidazole	uncertainty
0	1779	

System: octyl alcohol + water + 2-[(2-cyclohexylethyl)thio]-1H-benzimidazole; phases: Liquid mixture 1, Liquid
Fixed: Pressure, kPa = 101
Fixed: Temperature, K = 298.15
Property: Amount concentration (molarity), mol/dm3 of 2-[(2-cyclohexylethyl)thio]-1H-benzimidazole (Liquid mixture 1); method: Protentiometric
Mole fraction of 2-[(2-cyclohexylethyl)thio]-1H-benzimidazole	Amount concentration (molarity), mol/dm3 of 2-[(2-cyclohexylethyl)thio]-1H-benzimidazole	uncertainty
0	87190	

System: octyl alcohol + water + 2-(benzylthio)-1H-benzimidazole; phases: Liquid mixture 1, Liquid
Fixed: Pressure, kPa = 101
Fixed: Temperature, K = 298.15
Property: Amount concentration (molarity), mol/dm3 of 2-(benzylthio)-1H-benzimidazole (Liquid mixture 1); method: Protentiometric
Mole fraction of 2-(benzylthio)-1H-benzimidazole	Amount concentration (molarity), mol/dm3 of 2-(benzylthio)-1H-benzimidazole	uncertainty
0	8337	

System: octyl alcohol + water + 2-(benzylthio)-1H-benzimidazole; phases: Liquid mixture 1, Liquid
Fixed: Pressure, kPa = 101
Fixed: Temperature, K = 298.15
Property: Amount concentration (molarity), mol/dm3 of 2-(benzylthio)-1H-benzimidazole (Liquid mixture 1); method: Shake-Flask
Mole fraction of 2-(benzylthio)-1H-benzimidazole	Amount concentration (molarity), mol/dm3 of 2-(benzylthio)-1H-benzimidazole	uncertainty
0	12200	

System: octyl alcohol + water + 2-[(diphenylmethyl)thio]-1H-benzimidazole; phases: Liquid mixture 1, Liquid
Fixed: Pressure, kPa = 101
Fixed: Temperature, K = 298.15
Property: Amount concentration (molarity), mol/dm3 of 2-[(diphenylmethyl)thio]-1H-benzimidazole (Liquid mixture 1); method: Pontentiometric
Mole fraction of 2-[(diphenylmethyl)thio]-1H-benzimidazole	Amount concentration (molarity), mol/dm3 of 2-[(diphenylmethyl)thio]-1H-benzimidazole	uncertainty
0	97810	

System: octyl alcohol + water + 2-[(3,5-dinitrobenzyl)thio]-1H-benzimidazole; phases: Liquid mixture 1, Liquid
Fixed: Pressure, kPa = 101
Fixed: Temperature, K = 298.15
Property: Amount concentration (molarity), mol/dm3 of 2-[(3,5-dinitrobenzyl)thio]-1H-benzimidazole (Liquid mixture 1); method: Pontentiometric
Mole fraction of 2-[(3,5-dinitrobenzyl)thio]-1H-benzimidazole	Amount concentration (molarity), mol/dm3 of 2-[(3,5-dinitrobenzyl)thio]-1H-benzimidazole	uncertainty
0	365	

System: octyl alcohol + water + 2-[(3,5-dinitrobenzyl)thio]-1H-benzimidazole; phases: Liquid mixture 1, Liquid
Fixed: Pressure, kPa = 101
Fixed: Temperature, K = 298.15
Property: Amount concentration (molarity), mol/dm3 of 2-[(3,5-dinitrobenzyl)thio]-1H-benzimidazole (Liquid mixture 1); method: Shake-Flask
Mole fraction of 2-[(3,5-dinitrobenzyl)thio]-1H-benzimidazole	Amount concentration (molarity), mol/dm3 of 2-[(3,5-dinitrobenzyl)thio]-1H-benzimidazole	uncertainty
0	1417	

System: octyl alcohol + water + 1H-benzimidazole-2-thiol; phases: Liquid mixture 1, Liquid
Fixed: Pressure, kPa = 101
Fixed: Temperature, K = 298.15
Property: Amount concentration (molarity), mol/dm3 of 1H-benzimidazole-2-thiol (Liquid mixture 1); method: Pontentiometric
Mole fraction of 1H-benzimidazole-2-thiol	Amount concentration (molarity), mol/dm3 of 1H-benzimidazole-2-thiol	uncertainty
0	457	

System: octyl alcohol + water + 1H-benzimidazole-2-thiol; phases: Liquid mixture 1, Liquid
Fixed: Pressure, kPa = 101
Fixed: Temperature, K = 298.15
Property: Amount concentration (molarity), mol/dm3 of 1H-benzimidazole-2-thiol (Liquid mixture 1); method: Shake-Flask
Mole fraction of 1H-benzimidazole-2-thiol	Amount concentration (molarity), mol/dm3 of 1H-benzimidazole-2-thiol	uncertainty
0	447	
