Measured thermophysical data. Thermophysical Characterization of Ionic Liquids Able To Dissolve Biomass
Source: J. Chem. Eng. Data, 2011, 10.1021/je200790q
Compound 1: 1-ethyl-3-methylimidazolium acetate, C8H14N2O2, purity 99%
Compound 2: 1H-imidazolium, 3-ethyl-1-methyl-, P-methylphosphonate, C7H14N2O3P, purity 99%
Compound 3: 1-ethyl-3-methylimidazolium methanesulfonate, C7H14N2O3S, purity 99%
Compound 4: 1-ethyl-3-methylimidazolium triflate, C7H11F3N2O3S, purity 99%
Compound 5: 1-ethyl-3-methylimidazolium dicyanamide, C8H11N5, purity 99%
Compound 6: 1-ethyl-3-methylimidazolium thiocyanate, C7H11N3S, purity 99%
Compound 7: 1-ethyl-3-methylimidazolium tosylate, C13H18N2O3S, purity 99%
Compound 8: 1-ethyl-3-methylimidazolium dimethylphosphate, C8H17N2O4P, purity 99%

System: 1-ethyl-3-methylimidazolium acetate; phases: Liquid
Fixed: Pressure, kPa = 101.325
Property: Molar heat capacity at constant pressure, J/K/mol (Liquid); method: Drop calorimetry
Temperature, K	Molar heat capacity at constant pressure, J/K/mol	uncertainty
298.15	321.899336448	.306376272

System: 1-ethyl-3-methylimidazolium acetate; phases: Liquid
Fixed: Pressure, kPa = 101.325
Property: Mass density, kg/m3 (Liquid); method: Vibrating tube method
Temperature, K	Mass density, kg/m3	uncertainty
278.15	1112.4	.5
283.15	1108.9	.5
288.15	1105.6	.5
293.15	1102.4	.5
298.15	1099.3	.5
303.15	1096.2	.5
308.15	1093.6	.5
313.15	1090	.5
318.15	1087	.5
323.15	1084	.5
328.15	1081	.5
333.15	1078	.5
338.15	1075	.5
343.15	1072.1	.5
348.15	1069.2	.5
353.15	1066.3	.5
358.15	1063.4	.5
363.15	1060.6	.5

System: 1-ethyl-3-methylimidazolium acetate; phases: Liquid
Fixed: Pressure, kPa = 101.325
Property: Viscosity, Pa*s (Liquid); method: Concentric cylinders viscometry
Temperature, K	Viscosity, Pa*s	uncertainty
278.15	.72362	.00253267
283.15	.45135	.001579725
288.15	.2957	.00103495
293.15	.20229	.000708015
298.15	.14361	.000502635
303.15	.1053	.00036855
308.15	.079324	.000277634
313.15	.061327	.0002146445
318.15	.048415	.0001694525
323.15	.038948	.000136318
328.15	.031873	.0001115555
333.15	.02647	.000092645
338.15	.022273	.0000779555
343.15	.018961	.0000663635
348.15	.016314	.000057099
353.15	.014164	.000049574
358.15	.012407	.0000434245
363.15	.010952	.000038332

System: 1-ethyl-3-methylimidazolium acetate; phases: Liquid
Fixed: Pressure, kPa = 101.325
Property: Refractive index (Na D-line) (Liquid); method: Standard Abbe refractometry
Temperature, K	Refractive index (Na D-line)	uncertainty
288.37	1.50371	.00003
293.28	1.50233	.00003
298.19	1.50091	.00003
303.1	1.49949	.00003
308.01	1.49807	.00003
312.91	1.49666	.00003

System: 1H-imidazolium, 3-ethyl-1-methyl-, P-methylphosphonate; phases: Liquid
Fixed: Pressure, kPa = 101.325
Property: Molar heat capacity at constant pressure, J/K/mol (Liquid); method: Drop calorimetry
Temperature, K	Molar heat capacity at constant pressure, J/K/mol	uncertainty
298.15	352.89498172	.7386174036

System: 1H-imidazolium, 3-ethyl-1-methyl-, P-methylphosphonate; phases: Liquid
Fixed: Pressure, kPa = 101.325
Property: Mass density, kg/m3 (Liquid); method: Vibrating tube method
Temperature, K	Mass density, kg/m3	uncertainty
278.15	1222.2	.5
283.15	1218.6	.5
288.15	1215.1	.5
293.15	1211.7	.5
298.15	1208.3	.5
303.15	1205	.5
308.15	1201.8	.5
313.15	1198.6	.5
318.15	1195.5	.5
323.15	1192.3	.5
328.15	1189.2	.5
333.15	1186.1	.5
338.15	1183	.5
343.15	1179.9	.5
348.15	1176.9	.5
353.15	1173.9	.5
358.15	1170.9	.5
363.15	1167.9	.5

System: 1H-imidazolium, 3-ethyl-1-methyl-, P-methylphosphonate; phases: Liquid
Fixed: Pressure, kPa = 101.325
Property: Viscosity, Pa*s (Liquid); method: Concentric cylinders viscometry
Temperature, K	Viscosity, Pa*s	uncertainty
278.15	.91606	.00320621
283.15	.59879	.002095765
288.15	.40682	.00142387
293.15	.2858	.0010003
298.15	.20676	.00072366
303.15	.15363	.000537705
308.15	.11689	.000409115
313.15	.090832	.000317912
318.15	.071925	.0002517375
323.15	.057939	.0002027865
328.15	.047385	.0001658475
333.15	.039293	.0001375255
338.15	.032995	.0001154825
343.15	.02802	.00009807
348.15	.024047	.0000841645
353.15	.02083	.000072905
358.15	.018199	.0000636965
363.15	.016027	.0000560945

System: 1H-imidazolium, 3-ethyl-1-methyl-, P-methylphosphonate; phases: Liquid
Fixed: Pressure, kPa = 101.325
Property: Refractive index (Na D-line) (Liquid); method: Standard Abbe refractometry
Temperature, K	Refractive index (Na D-line)	uncertainty
288.37	1.49534	.00003
293.28	1.4939	.00003
298.19	1.49249	.00003
303.1	1.49115	.00003
308.01	1.48982	.00003
312.91	1.48854	.00003
317.82	1.48714	.00003

System: 1-ethyl-3-methylimidazolium methanesulfonate; phases: Liquid
Fixed: Pressure, kPa = 101.325
Property: Molar heat capacity at constant pressure, J/K/mol (Liquid); method: Drop calorimetry
Temperature, K	Molar heat capacity at constant pressure, J/K/mol	uncertainty
298.15	345.512390874	.495032976

System: 1-ethyl-3-methylimidazolium methanesulfonate; phases: Liquid
Fixed: Pressure, kPa = 101.325
Property: Mass density, kg/m3 (Liquid); method: Vibrating tube method
Temperature, K	Mass density, kg/m3	uncertainty
278.15	1257.1	.5
283.15	1253.3	.5
288.15	1249.5	.5
293.15	1245.9	.5
298.15	1242.4	.5
303.15	1239	.5
308.15	1235.6	.5
313.15	1232.2	.5
318.15	1228.8	.5
323.15	1225.5	.5
328.15	1222.2	.5
333.15	1218.9	.5
338.15	1215.6	.5
343.15	1212.3	.5
348.15	1209.1	.5
353.15	1205.9	.5
358.15	1202.8	.5
363.15	1199.7	.5

System: 1-ethyl-3-methylimidazolium methanesulfonate; phases: Liquid
Fixed: Pressure, kPa = 101.325
Property: Viscosity, Pa*s (Liquid); method: Concentric cylinders viscometry
Temperature, K	Viscosity, Pa*s	uncertainty
278.15	.80533	.002818655
283.15	.50592	.00177072
288.15	.33604	.00117614
293.15	.23244	.00081354
298.15	.16659	.000583065
303.15	.12314	.00043099
308.15	.093482	.000327187
313.15	.072642	.000254247
318.15	.057617	.0002016595
323.15	.046541	.0001628935
328.15	.038203	.0001337105
333.15	.031814	.000111349
338.15	.026837	.0000939295
343.15	.022901	.0000801535
348.15	.019753	.0000691355
353.15	.017187	.0000601545
358.15	.015083	.0000527905
363.15	.013333	.0000466655

System: 1-ethyl-3-methylimidazolium methanesulfonate; phases: Liquid
Fixed: Pressure, kPa = 101.325
Property: Refractive index (Na D-line) (Liquid); method: Standard Abbe refractometry
Temperature, K	Refractive index (Na D-line)	uncertainty
288.37	1.49823	.00003
293.28	1.49682	.00003
298.19	1.49542	.00003
303.1	1.49399	.00003
308.01	1.49254	.00003
312.91	1.49114	.00003

System: 1-ethyl-3-methylimidazolium triflate; phases: Liquid
Fixed: Pressure, kPa = 101.325
Property: Molar heat capacity at constant pressure, J/K/mol (Liquid); method: Drop calorimetry
Temperature, K	Molar heat capacity at constant pressure, J/K/mol	uncertainty
298.15	362.79379417536	.3903526944

System: 1-ethyl-3-methylimidazolium triflate; phases: Liquid
Fixed: Pressure, kPa = 101.325
Property: Mass density, kg/m3 (Liquid); method: Vibrating tube method
Temperature, K	Mass density, kg/m3	uncertainty
278.15	1403.3	.5
283.15	1398.9	.5
288.15	1394.5	.5
293.15	1390.2	.5
298.15	1385.9	.5
303.15	1381.6	.5
308.15	1377.3	.5
313.15	1373.1	.5
318.15	1368.9	.5
323.15	1364.8	.5
328.15	1360.6	.5
333.15	1356.5	.5
338.15	1352.5	.5
343.15	1348.4	.5
348.15	1344.4	.5
353.15	1340.4	.5
358.15	1336.4	.5
363.15	1332.5	.5

System: 1-ethyl-3-methylimidazolium triflate; phases: Liquid
Fixed: Pressure, kPa = 101.325
Property: Viscosity, Pa*s (Liquid); method: Concentric cylinders viscometry
Temperature, K	Viscosity, Pa*s	uncertainty
278.15	.099825	.0003493875
283.15	.078928	.000276248
288.15	.063507	.0002222745
293.15	.051865	.0001815275
298.15	.042936	.000150276
303.15	.03598	.00012593
308.15	.030482	.000106687
313.15	.026087	.0000913045
318.15	.022527	.0000788445
323.15	.019615	.0000686525
328.15	.017208	.000060228
333.15	.015206	.000053221
338.15	.013523	.0000473305
343.15	.012099	.0000423465
348.15	.010885	.0000380975
353.15	.0098447	.00003445645
358.15	.0089477	.00003131695
363.15	.0081695	.00002859325

System: 1-ethyl-3-methylimidazolium triflate; phases: Liquid
Fixed: Pressure, kPa = 101.325
Property: Refractive index (Na D-line) (Liquid); method: Standard Abbe refractometry
Temperature, K	Refractive index (Na D-line)	uncertainty
288.37	1.43572	.00003
293.28	1.43432	.00003
298.19	1.43296	.00003
303.1	1.43159	.00003
308.01	1.43025	.00003
312.91	1.42886	.00003

System: 1-ethyl-3-methylimidazolium dicyanamide; phases: Liquid
Fixed: Pressure, kPa = 101.325
Property: Molar heat capacity at constant pressure, J/K/mol (Liquid); method: Drop calorimetry
Temperature, K	Molar heat capacity at constant pressure, J/K/mol	uncertainty
298.15	314.63038932	.567061248

System: 1-ethyl-3-methylimidazolium dicyanamide; phases: Liquid
Fixed: Pressure, kPa = 101.325
Property: Mass density, kg/m3 (Liquid); method: Vibrating tube method
Temperature, K	Mass density, kg/m3	uncertainty
278.15	1117.9	.5
283.15	1114.3	.5
288.15	1110.9	.5
293.15	1107.4	.5
298.15	1104	.5
303.15	1100.6	.5
308.15	1097.3	.5
313.15	1094	.5
318.15	1090.7	.5
323.15	1087.4	.5
328.15	1084.2	.5
333.15	1081	.5
338.15	1077.8	.5
343.15	1074.7	.5
348.15	1071.6	.5
353.15	1068.5	.5
358.15	1065.4	.5
363.15	1062.3	.5

System: 1-ethyl-3-methylimidazolium dicyanamide; phases: Liquid
Fixed: Pressure, kPa = 101.325
Property: Viscosity, Pa*s (Liquid); method: Concentric cylinders viscometry
Temperature, K	Viscosity, Pa*s	uncertainty
278.15	.032507	.0001137745
283.15	.02667	.000093345
288.15	.022233	.0000778155
293.15	.018793	.0000657755
298.15	.016088	.000056308
303.15	.013916	.000048706
308.15	.012159	.0000425565
313.15	.010718	.000037513
318.15	.0095187	.00003331545
323.15	.0085175	.00002981125
328.15	.0076735	.00002685725
333.15	.0069511	.00002432885
338.15	.0063268	.0000221438
343.15	.0057883	.00002025905
348.15	.0053188	.0000186158
353.15	.0049095	.00001718325
358.15	.0045485	.00001591975
363.15	.0042292	.0000148022

System: 1-ethyl-3-methylimidazolium dicyanamide; phases: Liquid
Fixed: Pressure, kPa = 101.325
Property: Refractive index (Na D-line) (Liquid); method: Standard Abbe refractometry
Temperature, K	Refractive index (Na D-line)	uncertainty
288.37	1.51745	.00003
293.28	1.51585	.00003
298.19	1.51428	.00003
303.1	1.51269	.00003
308.01	1.51112	.00003
312.91	1.50956	.00003

System: 1-ethyl-3-methylimidazolium thiocyanate; phases: Liquid
Fixed: Pressure, kPa = 101.325
Property: Molar heat capacity at constant pressure, J/K/mol (Liquid); method: Drop calorimetry
Temperature, K	Molar heat capacity at constant pressure, J/K/mol	uncertainty
298.15	281.443264134	.660068994

System: 1-ethyl-3-methylimidazolium thiocyanate; phases: Liquid
Fixed: Pressure, kPa = 101.325
Property: Mass density, kg/m3 (Liquid); method: Vibrating tube method
Temperature, K	Mass density, kg/m3	uncertainty
278.15	1129.7	.5
283.15	1126.5	.5
288.15	1123.3	.5
293.15	1120.1	.5
298.15	1117	.5
303.15	1113.9	.5
308.15	1110.8	.5
313.15	1107.8	.5
318.15	1104.8	.5
323.15	1101.8	.5
328.15	1098.8	.5
333.15	1095.9	.5
338.15	1093	.5
343.15	1090.1	.5
348.15	1087.2	.5
353.15	1084.3	.5
358.15	1081.5	.5
363.15	1078.7	.5

System: 1-ethyl-3-methylimidazolium thiocyanate; phases: Liquid
Fixed: Pressure, kPa = 101.325
Property: Viscosity, Pa*s (Liquid); method: Concentric cylinders viscometry
Temperature, K	Viscosity, Pa*s	uncertainty
278.15	.054573	.0001910055
283.15	.04351	.000152285
288.15	.03536	.00012376
293.15	.029214	.000102249
298.15	.024505	.0000857675
303.15	.020793	.0000727755
308.15	.017858	.000062503
313.15	.015493	.0000542255
318.15	.01356	.00004746
323.15	.01197	.000041895
328.15	.010642	.000037247
333.15	.0095283	.00003334905
338.15	.0085821	.00003003735
343.15	.0077727	.00002720445
348.15	.0070758	.0000247653
353.15	.0064717	.00002265095
358.15	.0059453	.00002080855
363.15	.0054846	.0000191961

System: 1-ethyl-3-methylimidazolium thiocyanate; phases: Liquid
Fixed: Pressure, kPa = 101.325
Property: Refractive index (Na D-line) (Liquid); method: Standard Abbe refractometry
Temperature, K	Refractive index (Na D-line)	uncertainty
332.55	1.53909	.00003
334.52	1.5385	.00003
336.48	1.53794	.00003
338.44	1.53739	.00003
340.41	1.53682	.00003
342.37	1.53636	.00003

System: 1-ethyl-3-methylimidazolium tosylate; phases: Liquid
Fixed: Pressure, kPa = 101.325
Property: Mass density, kg/m3 (Liquid); method: Vibrating tube method
Temperature, K	Mass density, kg/m3	uncertainty
303.15	1223.4	.5
308.15	1220	.5
313.15	1216.6	.5
318.15	1213.2	.5
323.15	1210	.5
328.15	1206.8	.5
333.15	1203.7	.5
338.15	1200.6	.5
343.15	1197.6	.5
348.15	1194.5	.5
353.15	1191.5	.5
358.15	1188.5	.5
363.15	1185.5	.5

System: 1-ethyl-3-methylimidazolium tosylate; phases: Liquid
Fixed: Pressure, kPa = 101.325
Property: Viscosity, Pa*s (Liquid); method: Concentric cylinders viscometry
Temperature, K	Viscosity, Pa*s	uncertainty
303.15	1.4174	.0049609
308.15	.84245	.002948575
313.15	.53173	.001861055
318.15	.35197	.001231895
323.15	.24285	.000849975
328.15	.17369	.000607915
333.15	.12818	.00044863
338.15	.097207	.0003402245
343.15	.075508	.000264278
348.15	.059902	.000209657
353.15	.048424	.000169484
358.15	.039806	.000139321
363.15	.033215	.0001162525

System: 1-ethyl-3-methylimidazolium tosylate; phases: Liquid
Fixed: Pressure, kPa = 101.325
Property: Refractive index (Na D-line) (Liquid); method: Standard Abbe refractometry
Temperature, K	Refractive index (Na D-line)	uncertainty
322.73	1.53844	.00003
325.68	1.53757	.00003
327.64	1.53703	.00003
329.61	1.53649	.00003
332.55	1.5357	.00003
334.52	1.53509	.00003
336.48	1.53461	.00003
338.44	1.53409	.00003
340.41	1.53356	.00003
342.37	1.53304	.00003

System: 1-ethyl-3-methylimidazolium dimethylphosphate; phases: Liquid
Fixed: Pressure, kPa = 101.325
Property: Molar heat capacity at constant pressure, J/K/mol (Liquid); method: Drop calorimetry
Temperature, K	Molar heat capacity at constant pressure, J/K/mol	uncertainty
298.15	411.7769104293	.8503395156

System: 1-ethyl-3-methylimidazolium dimethylphosphate; phases: Liquid
Fixed: Pressure, kPa = 101.325
Property: Mass density, kg/m3 (Liquid); method: Vibrating tube method
Temperature, K	Mass density, kg/m3	uncertainty
303.15	1213.9	.5
308.15	1210.5	.5
313.15	1207.1	.5
318.15	1203.8	.5
323.15	1200.5	.5
328.15	1197.2	.5
333.15	1193.9	.5
338.15	1190.6	.5
343.15	1187.4	.5
348.15	1184.2	.5
353.15	1181	.5
358.15	1177.8	.5
363.15	1174.7	.5

System: 1-ethyl-3-methylimidazolium dimethylphosphate; phases: Liquid
Fixed: Pressure, kPa = 101.325
Property: Viscosity, Pa*s (Liquid); method: Concentric cylinders viscometry
Temperature, K	Viscosity, Pa*s	uncertainty
303.15	.19268	.00067438
308.15	.14432	.00050512
313.15	.11051	.000386785
318.15	.086322	.000302127
323.15	.068641	.0002402435
328.15	.055463	.0001941205
333.15	.045472	.000159152
338.15	.037776	.000132216
343.15	.031759	.0001111565
348.15	.026991	.0000944685
353.15	.023167	.0000810845
358.15	.020067	.0000702345
363.15	.017528	.000061348

System: 1-ethyl-3-methylimidazolium dimethylphosphate; phases: Liquid
Fixed: Pressure, kPa = 101.325
Property: Refractive index (Na D-line) (Liquid); method: Standard Abbe refractometry
Temperature, K	Refractive index (Na D-line)	uncertainty
298.19	1.48175	.00003
303.1	1.4805	.00003
308.01	1.47909	.00003
312.91	1.47771	.00003
317.82	1.47636	.00003
322.73	1.47511	.00003
327.64	1.47384	.00003
