Measured thermophysical data. Liquid Liquid Phase Behavior of Solutions of 1-Butyl-3-methylimidazolium Bis((trifluoromethyl)sulfonyl)amide (C4mimNTf2) in n-Alkyl Alcohols
Source: J. Chem. Eng. Data, 2011, 10.1021/je200792v
Compound 1: 1-butyl-3-methylimidazolium bis[(trifluoromethyl)sulfonyl]amide, C10H15F6N3O4S2
Compound 2: n-butyl alcohol, C4H10O, purity 99.7%
Compound 3: pentan-1-ol, C5H12O, purity 99%
Compound 4: 1-hydroxyhexane, C6H14O, purity 99.1%
Compound 5: enanthic alcohol, C7H16O, purity 99.8%
Compound 6: octyl alcohol, C8H18O, purity 99%
Compound 7: nonanol, C9H20O, purity 99.3%
Compound 8: 1-decanol, C10H22O, purity 99.8%
Compound 9: undecyl alcohol, C11H24O, purity 99.4%

System: n-butyl alcohol + 1-butyl-3-methylimidazolium bis[(trifluoromethyl)sulfonyl]amide; phases: Liquid mixture 1, Liquid mixture 2
Fixed: Pressure, kPa = 101
Property: Liquid-liquid equilibrium temperature, K (Liquid mixture 1); method: Visual observation
Mass fraction of 1-butyl-3-methylimidazolium bis[(trifluoromethyl)sulfonyl]amide	Liquid-liquid equilibrium temperature, K	uncertainty
.149	289.91	.75
.231	294.51	.75
.329	296.39	.75
.387	296.72	.75
.456	296.79	.75
.502	296.79	.75
.585	296.22	.75
.657	294.8	.75
.707	291.85	.75
.754	288.71	.75
.791	284.51	.75
.824	279.88	.75

System: pentan-1-ol + 1-butyl-3-methylimidazolium bis[(trifluoromethyl)sulfonyl]amide; phases: Liquid mixture 1, Liquid mixture 2
Fixed: Pressure, kPa = 101
Property: Liquid-liquid equilibrium temperature, K (Liquid mixture 1); method: Visual observation
Mass fraction of 1-butyl-3-methylimidazolium bis[(trifluoromethyl)sulfonyl]amide	Liquid-liquid equilibrium temperature, K	uncertainty
.127	307.44	.75
.2	312.35	.75
.291	314.76	.75
.345	315.28	.75
.412	315.54	.75
.458	315.54	.75
.541	315.28	.75
.614	314.46	.75
.669	312.35	.75
.72	309.79	.75
.76	306.05	.75
.798	301.76	.75

System: 1-hydroxyhexane + 1-butyl-3-methylimidazolium bis[(trifluoromethyl)sulfonyl]amide; phases: Liquid mixture 1, Liquid mixture 2
Fixed: Pressure, kPa = 101
Property: Liquid-liquid equilibrium temperature, K (Liquid mixture 1); method: Visual observation
Mass fraction of 1-butyl-3-methylimidazolium bis[(trifluoromethyl)sulfonyl]amide	Liquid-liquid equilibrium temperature, K	uncertainty
.113	323.45	.75
.181	329	.75
.264	331.79	.75
.316	332.32	.75
.381	332.37	.75
.426	332.6	.75
.51	332.31	.75
.587	331.55	.75
.636	330.28	.75
.695	327.34	.75
.734	324.36	.75
.778	320.59	.75

System: enanthic alcohol + 1-butyl-3-methylimidazolium bis[(trifluoromethyl)sulfonyl]amide; phases: Liquid mixture 1, Liquid mixture 2
Fixed: Pressure, kPa = 101
Property: Liquid-liquid equilibrium temperature, K (Liquid mixture 1); method: Visual observation
Mass fraction of 1-butyl-3-methylimidazolium bis[(trifluoromethyl)sulfonyl]amide	Liquid-liquid equilibrium temperature, K	uncertainty
.101	337.27	.75
.165	342.99	.75
.239	345.79	.75
.292	346.71	.75
.35	347.18	.75
.399	347.38	.75
.475	347.29	.75
.549	346.93	.75
.605	345.86	.75
.672	343.4	.75
.706	341.29	.75
.751	337.77	.75

System: octyl alcohol + 1-butyl-3-methylimidazolium bis[(trifluoromethyl)sulfonyl]amide; phases: Liquid mixture 1, Liquid mixture 2
Fixed: Pressure, kPa = 101
Property: Liquid-liquid equilibrium temperature, K (Liquid mixture 1); method: Visual observation
Mass fraction of 1-butyl-3-methylimidazolium bis[(trifluoromethyl)sulfonyl]amide	Liquid-liquid equilibrium temperature, K	uncertainty
.091	351.51	.75
.15	357.46	.75
.219	360.32	.75
.275	361.5	.75
.325	361.86	.75
.371	362.02	.75
.448	361.84	.75
.525	361.6	.75
.582	360.36	.75
.64	358.72	.75
.682	356.51	.75
.735	352.62	.75

System: nonanol + 1-butyl-3-methylimidazolium bis[(trifluoromethyl)sulfonyl]amide; phases: Liquid mixture 1, Liquid mixture 2
Fixed: Pressure, kPa = 101
Property: Liquid-liquid equilibrium temperature, K (Liquid mixture 1); method: Visual observation
Mass fraction of 1-butyl-3-methylimidazolium bis[(trifluoromethyl)sulfonyl]amide	Liquid-liquid equilibrium temperature, K	uncertainty
.082	363.8	.75
.133	368.02	.75
.201	372.25	.75
.245	373.24	.75
.302	374.13	.75
.338	374.32	.75
.419	374.79	.75
.49	374.23	.75
.661	369.94	.75
.699	366.68	.75

System: 1-decanol + 1-butyl-3-methylimidazolium bis[(trifluoromethyl)sulfonyl]amide; phases: Liquid mixture 1, Liquid mixture 2
Fixed: Pressure, kPa = 101
Property: Liquid-liquid equilibrium temperature, K (Liquid mixture 1); method: Visual observation
Mass fraction of 1-butyl-3-methylimidazolium bis[(trifluoromethyl)sulfonyl]amide	Liquid-liquid equilibrium temperature, K	uncertainty
.076	377.12	.75
.122	384.44	.75
.188	388.1	.75
.226	389.01	.75
.269	389.79	.75
.396	390.31	.75
.467	389.93	.75
.531	390.1	.75
.585	387.35	.75
.635	384.3	.75
.687	381.96	.75

System: undecyl alcohol + 1-butyl-3-methylimidazolium bis[(trifluoromethyl)sulfonyl]amide; phases: Liquid mixture 1, Liquid mixture 2
Fixed: Pressure, kPa = 101
Property: Liquid-liquid equilibrium temperature, K (Liquid mixture 1); method: titration
Mass fraction of 1-butyl-3-methylimidazolium bis[(trifluoromethyl)sulfonyl]amide	Liquid-liquid equilibrium temperature, K	uncertainty
.174	401.45	.75
.214	403.71	.75
.266	406.17	.75
.303	406.28	.75
.376	408.57	.75
.449	407.54	.75
.51	406.65	.75
.568	403.24	.75
.617	401.2	.75
