Measured thermophysical data. Solubility of L-Phenylalanine Anhydrous and Monohydrate Forms:  Experimental Measurements and Predictions
Source: J. Chem. Eng. Data, 2012, 10.1021/je201354k
Compound 1: water, H2O, purity 99.9%
Compound 2: acetone, C3H6O, purity 99.8%
Compound 3: ethanol, C2H6O, purity 99.8%
Compound 4: L-phenylalanine, C9H11NO2, purity 98%
Compound 5: monohydrate L-phenylalanine, C9H13NO3, purity 98%

System: L-phenylalanine; phases: Crystal, Liquid, Air at 1 atmosphere
Property: Molar enthalpy of transition or fusion, kJ/mol (Crystal); method: DSC/DTA
Molar enthalpy of transition or fusion, kJ/mol	uncertainty
18.4648465404	

System: L-phenylalanine; phases: Crystal, Liquid, Air at 1 atmosphere
Property: Triple point temperature, K (Crystal); method: DSC/DTA
Triple point temperature, K	uncertainty
556.15	

System: L-phenylalanine + acetone + water; phases: Liquid, Crystal
Fixed: Pressure, kPa = 101
Property: Mass fraction of L-phenylalanine (Liquid); method: Gravimetric method
Temperature, K	Solvent: Mass fraction of acetone	Mass fraction of L-phenylalanine	uncertainty
283.15	0	.02535	.00114075
293.15	0	.02811	.00126495
298.15	0	.0297	.0013365
303.15	0	.03219	.00144855
318.15	0	.04167	.00187515
323.15	0	.0443	.0019935
283.15	.08	.02285	.00102825
293.15	.08	.02587	.00116415
298.15	.08	.02742	.0012339
303.15	.08	.03173	.00142785
318.15	.08	.04086	.0018387
323.15	.08	.04327	.00194715
283.15	.25	.01752	.0007884
293.15	.25	.02157	.00097065
298.15	.25	.02331	.00104895
303.15	.25	.02873	.00129285
318.15	.25	.03716	.0016722
323.15	.25	.03927	.00176715
283.15	.45	.01088	.0004896
293.15	.45	.01401	.00063045
298.15	.45	.01598	.0007191
303.15	.45	.01736	.0007812
318.15	.45	.02675	.00120375
323.15	.45	.02705	.00121725
283.15	.65	.00426	.0001917
293.15	.65	.00473	.00021285
298.15	.65	.00562	.0002529
303.15	.65	.00675	.00030375
318.15	.65	.01217	.00054765
323.15	.65	.01223	.00055035
283.15	.87	.00049	.00002205
293.15	.87	.00055	.00002475
298.15	.87	.0006	.000027
303.15	.87	.00085	.00003825
318.15	.87	.00099	.00004455
323.15	.87	.00102	.0000459
283.15	1	.00003	.00000135
293.15	1	.00004	.0000018
298.15	1	.00005	.00000225
303.15	1	.00006	.0000027
318.15	1	.00008	.0000036
323.15	1	.00009	.00000405

System: L-phenylalanine + ethanol + water; phases: Liquid, Crystal
Fixed: Pressure, kPa = 101
Property: Mass fraction of L-phenylalanine (Liquid); method: Gravimetric method
Temperature, K	Solvent: Mass fraction of ethanol	Mass fraction of L-phenylalanine	uncertainty
283.15	0	.02535	.00114075
293.15	0	.02811	.00126495
298.15	0	.0297	.0013365
303.15	0	.03219	.00144855
313.15	0	.03651	.00164295
323.15	0	.0443	.0019935
283.15	.08	.01953	.00087885
293.15	.08	.02305	.00103725
298.15	.08	.02487	.00111915
303.15	.08	.02598	.0011691
313.15	.08	.0313	.0014085
323.15	.08	.03909	.00175905
283.15	.25	.01247	.00056115
293.15	.25	.01571	.00070695
298.15	.25	.01687	.00075915
303.15	.25	.01806	.0008127
313.15	.25	.02204	.0009918
323.15	.25	.02959	.00133155
283.15	.45	.00735	.00033075
293.15	.45	.00956	.0004302
298.15	.45	.01073	.00048285
303.15	.45	.01202	.0005409
313.15	.45	.01494	.0006723
323.15	.45	.02033	.00091485
283.15	.65	.00396	.0001782
293.15	.65	.00503	.00022635
298.15	.65	.00621	.00027945
303.15	.65	.00717	.00032265
313.15	.65	.00873	.00039285
323.15	.65	.01132	.0005094
283.15	.87	.00091	.00004095
293.15	.87	.00127	.00005715
298.15	.87	.00153	.00006885
303.15	.87	.00195	.00008775
313.15	.87	.00283	.00012735
323.15	.87	.00367	.00016515
283.15	1	.00046	.0000207
293.15	1	.00067	.00003015
298.15	1	.00074	.0000333
303.15	1	.00106	.0000477
313.15	1	.0015	.0000675
323.15	1	.00179	.00008055

System: acetone + water + monohydrate L-phenylalanine; phases: Liquid, Crystal
Fixed: Pressure, kPa = 101
Property: Mass fraction of monohydrate L-phenylalanine (Liquid); method: Gravimetric method
Temperature, K	Solvent: Mass fraction of acetone	Mass fraction of monohydrate L-phenylalanine	uncertainty
278.15	0	.02228	.0010026
283.15	0	.02304	.0010368
293.15	0	.02709	.00121905
298.15	0	.02837	.00127665
303.15	0	.03213	.00144585
308.15	0	.03406	.0015327
278.15	.08	.01835	.00082575
283.15	.08	.02013	.00090585
293.15	.08	.02479	.00111555
298.15	.08	.02701	.00121545
303.15	.08	.03048	.0013716
308.15	.08	.03261	.00146745
278.15	.25	.01253	.00056385
283.15	.25	.01473	.00066285
293.15	.25	.01908	.0008586
298.15	.25	.02109	.00094905
303.15	.25	.02504	.0011268
308.15	.25	.02876	.0012942
278.15	.45	.00675	.00030375
283.15	.45	.00814	.0003663
293.15	.45	.01014	.0004563
298.15	.45	.01074	.0004833
303.15	.45	.01459	.00065655
308.15	.45	.01905	.00085725
278.15	.65	.00155	.00006975
283.15	.65	.00201	.00009045
293.15	.65	.00344	.0001548
298.15	.65	.00396	.0001782
303.15	.65	.00607	.00027315
308.15	.65	.00739	.00033255
278.15	.87	.00004	.0000018
283.15	.87	.00006	.0000027
293.15	.87	.00009	.00000405
298.15	.87	.00025	.00001125
303.15	.87	.0005	.0000225
308.15	.87	.00082	.0000369
278.15	1	.00002	.0000009
283.15	1	.000025	.000001125
293.15	1	.000037	.000001665
298.15	1	.000043	.000001935
303.15	1	.000052	.00000234
308.15	1	.000061	.000002745

System: ethanol + water + monohydrate L-phenylalanine; phases: Liquid, Crystal
Fixed: Pressure, kPa = 101
Property: Mass fraction of monohydrate L-phenylalanine (Liquid); method: Gravimetric method
Temperature, K	Solvent: Mass fraction of ethanol	Mass fraction of monohydrate L-phenylalanine	uncertainty
278.15	0	.02228	.0010026
283.15	0	.02304	.0010368
293.15	0	.02709	.00121905
298.15	0	.02837	.00127665
303.15	0	.03213	.00144585
308.15	0	.03406	.0015327
278.15	.08	.01511	.00067995
283.15	.08	.01606	.0007227
293.15	.08	.02069	.00093105
298.15	.08	.02317	.00104265
303.15	.08	.02544	.0011448
308.15	.08	.02791	.00125595
278.15	.25	.00842	.0003789
283.15	.25	.01005	.00045225
293.15	.25	.01407	.00063315
298.15	.25	.0152	.000684
303.15	.25	.01745	.00078525
308.15	.25	.02049	.00092205
278.15	.45	.00516	.0002322
283.15	.45	.0061	.0002745
293.15	.45	.00872	.0003924
298.15	.45	.01003	.00045135
303.15	.45	.01178	.0005301
308.15	.45	.01374	.0006183
278.15	.65	.002	.00009
283.15	.65	.00283	.00012735
293.15	.65	.00415	.00018675
298.15	.65	.00491	.00022095
303.15	.65	.00635	.00028575
308.15	.65	.00754	.0003393
278.15	.87	.00041	.00001845
283.15	.87	.00057	.00002565
293.15	.87	.00097	.00004365
298.15	.87	.00135	.00006075
303.15	.87	.00176	.0000792
308.15	.87	.00215	.00009675
278.15	1	.00016	.0000072
283.15	1	.00029	.00001305
293.15	1	.00059	.00002655
298.15	1	.00072	.0000324
303.15	1	.00092	.0000414
308.15	1	.00121	.00005445

System: L-phenylalanine + water; phases: Liquid, Crystal
Property: Mass fraction of L-phenylalanine (Liquid); method: Gravimetric method
Temperature, K	Pressure, kPa	Mass fraction of L-phenylalanine	uncertainty
283.15	101	.02535	.00114075
293.15	101	.02811	.00126495
298.15	101	.0297	.0013365
303.15	101	.03219	.00144855
318.15	101	.04167	.00187515
323.15	101	.0443	.0019935
313.15	101	.03651	.00164295

System: L-phenylalanine + acetone; phases: Liquid, Crystal
Property: Mass fraction of L-phenylalanine (Liquid); method: Gravimetric method
Temperature, K	Pressure, kPa	Mass fraction of L-phenylalanine	uncertainty
283.15	101	.00003	.00000135
293.15	101	.00004	.0000018
298.15	101	.00005	.00000225
303.15	101	.00006	.0000027
318.15	101	.00008	.0000036
323.15	101	.00009	.00000405

System: L-phenylalanine + ethanol; phases: Liquid, Crystal
Property: Mass fraction of L-phenylalanine (Liquid); method: Gravimetric method
Temperature, K	Pressure, kPa	Mass fraction of L-phenylalanine	uncertainty
283.15	101	.00046	.0000207
293.15	101	.00067	.00003015
298.15	101	.00074	.0000333
303.15	101	.00106	.0000477
313.15	101	.0015	.0000675
323.15	101	.00179	.00008055

System: water + monohydrate L-phenylalanine; phases: Liquid, Crystal
Property: Mass fraction of monohydrate L-phenylalanine (Liquid); method: Gravimetric method
Temperature, K	Pressure, kPa	Mass fraction of monohydrate L-phenylalanine	uncertainty
278.15	101	.02228	.0010026
283.15	101	.02304	.0010368
293.15	101	.02709	.00121905
298.15	101	.02837	.00127665
303.15	101	.03213	.00144585
308.15	101	.03406	.0015327

System: acetone + monohydrate L-phenylalanine; phases: Liquid, Crystal
Property: Mass fraction of monohydrate L-phenylalanine (Liquid); method: Gravimetric method
Temperature, K	Pressure, kPa	Mass fraction of monohydrate L-phenylalanine	uncertainty
278.15	101	.00002	.0000009
283.15	101	.000025	.000001125
293.15	101	.000037	.000001665
298.15	101	.000043	.000001935
303.15	101	.000052	.00000234
308.15	101	.000061	.000002745

System: ethanol + monohydrate L-phenylalanine; phases: Liquid, Crystal
Property: Mass fraction of monohydrate L-phenylalanine (Liquid); method: Gravimetric method
Temperature, K	Pressure, kPa	Mass fraction of monohydrate L-phenylalanine	uncertainty
278.15	101	.00016	.0000072
283.15	101	.00029	.00001305
293.15	101	.00059	.00002655
298.15	101	.00072	.0000324
303.15	101	.00092	.0000414
308.15	101	.00121	.00005445
