Measured thermophysical data. Interactions of Volatile Organic Compounds with the Ionic Liquid 1-Butyl-1-methylpyrrolidinium Dicyanamide
Source: J. Chem. Eng. Data, 2011, 10.1021/je200822w
Compound 1: 1-butyl-1-methylpyrrolidinium dicyanamide, C9H20NC2N3, purity 99%
Compound 2: heptane, C7H16
Compound 3: n-octane, C8H18
Compound 4: 1-octene, C8H16
Compound 5: cyclohexane, C6H12
Compound 6: cyclohexane, methyl-, C7H14
Compound 7: cyclohexane, ethyl-, C8H16
Compound 8: benzene, C6H6
Compound 9: toluene, C7H8
Compound 10: ethylbenzene, C8H10
Compound 11: 1,3-xylene, C8H10
Compound 12: methanol, CH4O
Compound 13: ethanol, C2H6O
Compound 14: propyl alcohol, C3H8O
Compound 15: 2-propanol, C3H8O
Compound 16: 1,2-ethanediol, dimethyl ether, C4H10O2
Compound 17: isopropyl ether, C6H14O
Compound 18: methyl tert-butyl ether, C5H12O
Compound 19: oxacyclopentane, C4H8O
Compound 20: methyl ethanoate, C3H6O2
Compound 21: ethyl ethanoate, C4H8O2
Compound 22: acetone, C3H6O
Compound 23: butanone, C4H8O
Compound 24: dimethyl carbonate, C3H6O3
Compound 25: dichloromethane, CH2Cl2
Compound 26: freon 20, CHCl3
Compound 27: halothane, C2HBrClF3
Compound 28: carbon tetrachloride, CCl4
Compound 29: NM(nitromethane), CH3NO2
Compound 30: ethanonitrile, C2H3N
Compound 31: thiophene, C4H4S

System: 1-butyl-1-methylpyrrolidinium dicyanamide; phases: Liquid
Fixed: Pressure, kPa = 101.325
Property: Mass density, kg/m3 (Liquid); method: Vibrating tube method
Temperature, K	Mass density, kg/m3	uncertainty
283.15	1021.93	
293.15	1016.26	
303.15	1010.64	
313.15	1005.08	
323.15	999.56	
333.15	994.1	
343.15	988.69	

System: heptane + 1-butyl-1-methylpyrrolidinium dicyanamide; phases: Liquid
Fixed: Pressure, kPa = 101
Fixed: Mole fraction of heptane = 0
Property: Activity coefficient of heptane (Liquid); method: Chromatography
Temperature, K	Activity coefficient of heptane	uncertainty
318.15	76	2.28
323.15	73.6	2.208
333.15	68.9	2.067
343.15	64.7	1.941
353.15	60.9	1.827

System: n-octane + 1-butyl-1-methylpyrrolidinium dicyanamide; phases: Liquid
Fixed: Pressure, kPa = 101
Fixed: Mole fraction of n-octane = 0
Property: Activity coefficient of n-octane (Liquid); method: Chromatography
Temperature, K	Activity coefficient of n-octane	uncertainty
318.15	115	3.45
323.15	110	3.3
333.15	102	3.06
343.15	95.2	2.856
353.15	89.2	2.676

System: 1-octene + 1-butyl-1-methylpyrrolidinium dicyanamide; phases: Liquid
Fixed: Pressure, kPa = 101
Fixed: Mole fraction of 1-octene = 0
Property: Activity coefficient of 1-octene (Liquid); method: Chromatography
Temperature, K	Activity coefficient of 1-octene	uncertainty
318.15	47.3	1.419
323.15	46.3	1.389
333.15	44.4	1.332
343.15	42.4	1.272
353.15	40.8	1.224

System: cyclohexane + 1-butyl-1-methylpyrrolidinium dicyanamide; phases: Liquid
Fixed: Pressure, kPa = 101
Fixed: Mole fraction of cyclohexane = 0
Property: Activity coefficient of cyclohexane (Liquid); method: Chromatography
Temperature, K	Activity coefficient of cyclohexane	uncertainty
318.15	21.1	.633
323.15	20.6	.618
333.15	19.5	.585
343.15	18.5	.555
353.15	17.7	.531

System: cyclohexane, methyl- + 1-butyl-1-methylpyrrolidinium dicyanamide; phases: Liquid
Fixed: Pressure, kPa = 101
Fixed: Mole fraction of cyclohexane, methyl- = 0
Property: Activity coefficient of cyclohexane, methyl- (Liquid); method: Chromatography
Temperature, K	Activity coefficient of cyclohexane, methyl-	uncertainty
318.15	32.5	.975
323.15	31.7	.951
333.15	30	.9
343.15	28.4	.852
353.15	27.1	.813

System: cyclohexane, ethyl- + 1-butyl-1-methylpyrrolidinium dicyanamide; phases: Liquid
Fixed: Pressure, kPa = 101
Fixed: Mole fraction of cyclohexane, ethyl- = 0
Property: Activity coefficient of cyclohexane, ethyl- (Liquid); method: Chromatography
Temperature, K	Activity coefficient of cyclohexane, ethyl-	uncertainty
318.15	50.1	1.503
323.15	48.4	1.452
333.15	45.1	1.353
343.15	42.2	1.266
353.15	39.6	1.188

System: benzene + 1-butyl-1-methylpyrrolidinium dicyanamide; phases: Liquid
Fixed: Pressure, kPa = 101
Fixed: Mole fraction of benzene = 0
Property: Activity coefficient of benzene (Liquid); method: Chromatography
Temperature, K	Activity coefficient of benzene	uncertainty
318.15	1.41	.0423
323.15	1.42	.0426
333.15	1.46	.0438
343.15	1.49	.0447
353.15	1.53	.0459

System: toluene + 1-butyl-1-methylpyrrolidinium dicyanamide; phases: Liquid
Fixed: Pressure, kPa = 101
Fixed: Mole fraction of toluene = 0
Property: Activity coefficient of toluene (Liquid); method: Chromatography
Temperature, K	Activity coefficient of toluene	uncertainty
318.15	2.17	.0651
323.15	2.2	.066
333.15	2.26	.0678
343.15	2.3	.069
353.15	2.35	.0705

System: ethylbenzene + 1-butyl-1-methylpyrrolidinium dicyanamide; phases: Liquid
Fixed: Pressure, kPa = 101
Fixed: Mole fraction of ethylbenzene = 0
Property: Activity coefficient of ethylbenzene (Liquid); method: Chromatography
Temperature, K	Activity coefficient of ethylbenzene	uncertainty
318.15	3.52	.1056
323.15	3.55	.1065
333.15	3.6	.108
343.15	3.65	.1095
353.15	3.69	.1107

System: 1,3-xylene + 1-butyl-1-methylpyrrolidinium dicyanamide; phases: Liquid
Fixed: Pressure, kPa = 101
Fixed: Mole fraction of 1,3-xylene = 0
Property: Activity coefficient of 1,3-xylene (Liquid); method: Chromatography
Temperature, K	Activity coefficient of 1,3-xylene	uncertainty
318.15	3.46	.1038
323.15	3.5	.105
333.15	3.56	.1068
343.15	3.61	.1083
353.15	3.67	.1101

System: methanol + 1-butyl-1-methylpyrrolidinium dicyanamide; phases: Liquid
Fixed: Pressure, kPa = 101
Fixed: Mole fraction of methanol = 0
Property: Activity coefficient of methanol (Liquid); method: Chromatography
Temperature, K	Activity coefficient of methanol	uncertainty
318.15	.344	.01032
323.15	.344	.01032
333.15	.345	.01035
343.15	.347	.01041
353.15	.348	.01044

System: ethanol + 1-butyl-1-methylpyrrolidinium dicyanamide; phases: Liquid
Fixed: Pressure, kPa = 101
Fixed: Mole fraction of ethanol = 0
Property: Activity coefficient of ethanol (Liquid); method: Chromatography
Temperature, K	Activity coefficient of ethanol	uncertainty
318.15	.55	.0165
323.15	.545	.01635
333.15	.538	.01614
343.15	.53	.0159
353.15	.525	.01575

System: propyl alcohol + 1-butyl-1-methylpyrrolidinium dicyanamide; phases: Liquid
Fixed: Pressure, kPa = 101
Fixed: Mole fraction of propyl alcohol = 0
Property: Activity coefficient of propyl alcohol (Liquid); method: Chromatography
Temperature, K	Activity coefficient of propyl alcohol	uncertainty
318.15	.688	.02064
323.15	.68	.0204
333.15	.668	.02004
343.15	.656	.01968
353.15	.647	.01941

System: 2-propanol + 1-butyl-1-methylpyrrolidinium dicyanamide; phases: Liquid
Fixed: Pressure, kPa = 101
Fixed: Mole fraction of 2-propanol = 0
Property: Activity coefficient of 2-propanol (Liquid); method: Chromatography
Temperature, K	Activity coefficient of 2-propanol	uncertainty
318.15	.771	.02313
323.15	.761	.02283
333.15	.746	.02238
343.15	.733	.02199
353.15	.724	.02172

System: 1,2-ethanediol, dimethyl ether + 1-butyl-1-methylpyrrolidinium dicyanamide; phases: Liquid
Fixed: Pressure, kPa = 101
Fixed: Mole fraction of 1,2-ethanediol, dimethyl ether = 0
Property: Activity coefficient of 1,2-ethanediol, dimethyl ether (Liquid); method: Chromatography
Temperature, K	Activity coefficient of 1,2-ethanediol, dimethyl ether	uncertainty
318.15	1.19	.0357
323.15	1.23	.0369
333.15	1.31	.0393
343.15	1.39	.0417
353.13	1.46	.0438

System: isopropyl ether + 1-butyl-1-methylpyrrolidinium dicyanamide; phases: Liquid
Fixed: Pressure, kPa = 101
Fixed: Mole fraction of isopropyl ether = 0
Property: Activity coefficient of isopropyl ether (Liquid); method: Chromatography
Temperature, K	Activity coefficient of isopropyl ether	uncertainty
318.15	17.9	.537
323.15	17.9	.537
333.15	18	.54
343.15	17.9	.537
353.15	17.9	.537

System: methyl tert-butyl ether + 1-butyl-1-methylpyrrolidinium dicyanamide; phases: Liquid
Fixed: Pressure, kPa = 101
Fixed: Mole fraction of methyl tert-butyl ether = 0
Property: Activity coefficient of methyl tert-butyl ether (Liquid); method: Chromatography
Temperature, K	Activity coefficient of methyl tert-butyl ether	uncertainty
318.15	6.04	.1812
323.15	6.13	.1839
333.15	6.29	.1887
343.15	6.4	.192
353.15	6.53	.1959

System: oxacyclopentane + 1-butyl-1-methylpyrrolidinium dicyanamide; phases: Liquid
Fixed: Pressure, kPa = 101
Fixed: Mole fraction of oxacyclopentane = 0
Property: Activity coefficient of oxacyclopentane (Liquid); method: Chromatography
Temperature, K	Activity coefficient of oxacyclopentane	uncertainty
318.15	1.36	.0408
323.15	1.38	.0414
333.15	1.42	.0426
343.15	1.46	.0438
353.15	1.49	.0447

System: methyl ethanoate + 1-butyl-1-methylpyrrolidinium dicyanamide; phases: Liquid
Fixed: Pressure, kPa = 101
Fixed: Mole fraction of methyl ethanoate = 0
Property: Activity coefficient of methyl ethanoate (Liquid); method: Chromatography
Temperature, K	Activity coefficient of methyl ethanoate	uncertainty
318.15	1.51	.0453
323.15	1.53	.0459
333.15	1.56	.0468
343.15	1.59	.0477
353.15	1.63	.0489

System: ethyl ethanoate + 1-butyl-1-methylpyrrolidinium dicyanamide; phases: Liquid
Fixed: Pressure, kPa = 101
Fixed: Mole fraction of ethyl ethanoate = 0
Property: Activity coefficient of ethyl ethanoate (Liquid); method: Chromatography
Temperature, K	Activity coefficient of ethyl ethanoate	uncertainty
318.15	2.33	.0699
323.15	2.35	.0705
333.15	2.39	.0717
343.15	2.43	.0729
353.15	2.47	.0741

System: acetone + 1-butyl-1-methylpyrrolidinium dicyanamide; phases: Liquid
Fixed: Pressure, kPa = 101
Fixed: Mole fraction of acetone = 0
Property: Activity coefficient of acetone (Liquid); method: Chromatography
Temperature, K	Activity coefficient of acetone	uncertainty
318.15	.905	.02715
323.15	.917	.02751
333.15	.942	.02826
343.15	.963	.02889
353.15	.986	.02958

System: butanone + 1-butyl-1-methylpyrrolidinium dicyanamide; phases: Liquid
Fixed: Pressure, kPa = 101
Fixed: Mole fraction of butanone = 0
Property: Activity coefficient of butanone (Liquid); method: Chromatography
Temperature, K	Activity coefficient of butanone	uncertainty
318.15	1.26	.0378
323.15	1.27	.0381
333.15	1.32	.0396
343.15	1.33	.0399
353.15	1.35	.0405

System: dimethyl carbonate + 1-butyl-1-methylpyrrolidinium dicyanamide; phases: Liquid
Fixed: Pressure, kPa = 101
Fixed: Mole fraction of dimethyl carbonate = 0
Property: Activity coefficient of dimethyl carbonate (Liquid); method: Chromatography
Temperature, K	Activity coefficient of dimethyl carbonate	uncertainty
318.15	1.26	.0378
323.15	1.27	.0381
333.15	1.29	.0387
343.15	1.31	.0393
353.15	1.33	.0399

System: dichloromethane + 1-butyl-1-methylpyrrolidinium dicyanamide; phases: Liquid
Fixed: Pressure, kPa = 101
Fixed: Mole fraction of dichloromethane = 0
Property: Activity coefficient of dichloromethane (Liquid); method: Chromatography
Temperature, K	Activity coefficient of dichloromethane	uncertainty
318.15	.541	.01623
323.15	.558	.01674
333.15	.591	.01773
343.15	.623	.01869
353.15	.655	.01965

System: freon 20 + 1-butyl-1-methylpyrrolidinium dicyanamide; phases: Liquid
Fixed: Pressure, kPa = 101
Fixed: Mole fraction of freon 20 = 0
Property: Activity coefficient of freon 20 (Liquid); method: Chromatography
Temperature, K	Activity coefficient of freon 20	uncertainty
318.15	.391	.01173
323.15	.411	.01233
333.15	.453	.01359
343.15	.496	.01488
353.15	.54	.0162

System: halothane + 1-butyl-1-methylpyrrolidinium dicyanamide; phases: Liquid
Fixed: Pressure, kPa = 101
Fixed: Mole fraction of halothane = 0
Property: Activity coefficient of halothane (Liquid); method: Chromatography
Temperature, K	Activity coefficient of halothane	uncertainty
318.15	.568	.01704
323.15	.606	.01818
333.15	.694	.02082
343.15	.776	.02328
353.15	.866	.02598

System: carbon tetrachloride + 1-butyl-1-methylpyrrolidinium dicyanamide; phases: Liquid
Fixed: Pressure, kPa = 101
Fixed: Mole fraction of carbon tetrachloride = 0
Property: Activity coefficient of carbon tetrachloride (Liquid); method: Chromatography
Temperature, K	Activity coefficient of carbon tetrachloride	uncertainty
318.15	2.04	.0612
323.15	2.11	.0633
333.15	2.25	.0675
343.15	2.38	.0714
353.15	2.5	.075

System: NM(nitromethane) + 1-butyl-1-methylpyrrolidinium dicyanamide; phases: Liquid
Fixed: Pressure, kPa = 101
Fixed: Mole fraction of NM(nitromethane) = 0
Property: Activity coefficient of NM(nitromethane) (Liquid); method: Chromatography
Temperature, K	Activity coefficient of NM(nitromethane)	uncertainty
318.15	.592	.01776
323.15	.596	.01788
333.15	.604	.01812
343.15	.609	.01827
353.15	.615	.01845

System: ethanonitrile + 1-butyl-1-methylpyrrolidinium dicyanamide; phases: Liquid
Fixed: Pressure, kPa = 101
Fixed: Mole fraction of ethanonitrile = 0
Property: Activity coefficient of ethanonitrile (Liquid); method: Chromatography
Temperature, K	Activity coefficient of ethanonitrile	uncertainty
318.15	.67	.0201
323.15	.676	.02028
333.15	.68	.0204
343.15	.684	.02052
353.15	.687	.02061

System: thiophene + 1-butyl-1-methylpyrrolidinium dicyanamide; phases: Liquid
Fixed: Pressure, kPa = 101
Fixed: Mole fraction of thiophene = 0
Property: Activity coefficient of thiophene (Liquid); method: Chromatography
Temperature, K	Activity coefficient of thiophene	uncertainty
318.15	.851	.02553
323.15	.868	.02604
333.15	.901	.02703
343.15	.931	.02793
353.15	.962	.02886
