Measured thermophysical data. Vapor Liquid Equilibria Measurements of Bitter Orange Aroma Compounds Highly Diluted in Boiling Hydro-Alcoholic Solutions at 101.3 kPa
Source: J. Chem. Eng. Data, 2012, 10.1021/je3004854
Compound 1: ethyl alcohol, C2H6O, purity 99.8%
Compound 2: .alpha.-pinene, C10H16, purity 98%
Compound 3: d-limonene, C10H16, purity 97%
Compound 4: linalool, dl-, C10H18O, purity 97%
Compound 5: 3,7-dimethyl-2,6-octadienal, (cis+trans), C10H16O, purity 96%
Compound 6: 2-methyl-5-(1-hydroxy-1-methylethyl)-2-vinyltetrahydrofuran, C10H18O2, purity 97%
Compound 7: water, H2O, purity 99%

System: ethyl alcohol + .alpha.-pinene + water; phases: Liquid, Gas
Fixed: Pressure, kPa = 101
Property: Boiling temperature at pressure P, K (Liquid); method: Closed cell (Static) method
Mole fraction of ethyl alcohol	Mole fraction of .alpha.-pinene	Boiling temperature at pressure P, K	uncertainty
.056	0	362.27	.02
.0562	0	362.31	.02
.0618	0	362.1	.02
.0979	0	359.26	.02
.1007	0	359.17	.02
.1035	0	359.15	.02
.135	0	357.7	.02
.1365	0	357.65	.02
.0957	0	357.56	.02
.1992	.000000569	356.21	.02
.2066	.00000244	356.03	.02
.2083	.00000144	356.05	.02
.2936	.00000162	355.7	.02
.2665	.00000197	354.76	.02
.3049	.00000301	354.68	.02
.394	.00000679	353.77	.02
.4217	.00000754	353.78	.02
.3861	.00000636	353.81	.02
.5365	.0000086	352.84	.02
.5444	.00000608	352.76	.02
.5516	.00000923	352.7	.02
.9068	.0000218	351.39	.02
.8937	.0000196	351.37	.02
.8815	.0000199	351.43	.02

System: ethyl alcohol + .alpha.-pinene + water; phases: Gas, Liquid
Fixed: Pressure, kPa = 101
Property: Mole fraction of ethyl alcohol (Gas); method: Chromatography
Mole fraction of ethyl alcohol	Mole fraction of .alpha.-pinene	Mole fraction of ethyl alcohol	uncertainty
.056	0	.3466	.00000624
.0562	0	.3315	.00000173
.0618	0	.3679	.00000127
.0979	0	.4749	.00000713
.1007	0	.4762	.00000625
.1035	0	.5833	.00000393
.135	0	.4866	.0000034
.1365	0	.4813	.00000482
.0957	0	.4915	.00000337
.1992	.000000569	.5594	.00000533
.2066	.00000244	.5529	.0000053
.2083	.00000144	.5546	.00000207
.2936	.00000162	.5499	.00000959
.2665	.00000197	.5953	.000000291
.3049	.00000301	.5981	.00000585
.394	.00000679	.6315	.0000128
.4217	.00000754	.6574	.00000654
.3861	.00000636	.6704	.00000721
.5365	.0000086	.6841	.00000752
.5444	.00000608	.7038	.000016
.5516	.00000923	.6548	.0000114
.9068	.0000218	.8627	.00000363
.8937	.0000196	.9166	.00000644
.8815	.0000199	.8896	.00000465

System: ethyl alcohol + .alpha.-pinene + water; phases: Gas, Liquid
Fixed: Pressure, kPa = 101
Property: Mole fraction of .alpha.-pinene (Gas); method: Chromatography
Mole fraction of ethyl alcohol	Mole fraction of .alpha.-pinene	Mole fraction of .alpha.-pinene	uncertainty
.056	0	.000000761	.000000000206
.0562	0	.00000165	.000000000964
.0618	0	.000000734	.000000000104
.0979	0	.00000419	.000000000279
.1007	0	.00000552	.000000000429
.1035	0	.00000556	.000000000439
.135	0	.0000024	.000000000224
.1365	0	.0000021	.000000000144
.0957	0	.0000067	.000000000384
.1992	.000000569	.0000509	.000000000875
.2066	.00000244	.0000913	.00000000289
.2083	.00000144	.0000472	.00000000189
.2936	.00000162	.0000278	.000000000654
.2665	.00000197	.0000672	.00000000155
.3049	.00000301	.0000761	.00000000185
.394	.00000679	.0000749	.000000000428
.4217	.00000754	.0000723	.00000000303
.3861	.00000636	.0000634	.00000000397
.5365	.0000086	.0000417	.000000000541
.5444	.00000608	.0000348	.00000000208
.5516	.00000923	.0000517	.00000000237
.9068	.0000218	.0000262	.000000000625
.8937	.0000196	.000026	.00000000143
.8815	.0000199	.0000282	.000000000613

System: ethyl alcohol + d-limonene + water; phases: Liquid, Gas
Fixed: Pressure, kPa = 101
Property: Boiling temperature at pressure P, K (Liquid); method: Closed cell (Static) method
Mole fraction of ethyl alcohol	Mole fraction of d-limonene	Boiling temperature at pressure P, K	uncertainty
.056	0	362.27	
.0562	0	362.31	
.0618	0	362.1	
.0979	0	359.26	
.1007	0	359.17	
.1035	0	359.15	
.135	0	357.7	
.1365	0	357.65	
.0957	0	357.56	
.1992	.00000142	356.21	
.2066	.00000413	356.03	
.2083	.00000449	356.05	
.2936	.00000177	355.7	
.2665	.00000382	354.76	
.3049	.00000519	354.68	
.394	.00000795	353.77	
.4217	.00000792	353.78	
.3861	.00000754	353.81	
.5365	.00000942	352.84	
.5444	.00000776	352.76	
.5516	.00000933	352.7	
.9068	.0000187	351.39	
.8937	.0000174	351.37	
.8815	.0000179	351.43	

System: ethyl alcohol + d-limonene + water; phases: Gas, Liquid
Fixed: Pressure, kPa = 101
Property: Mole fraction of ethyl alcohol (Gas); method: Chromatography
Mole fraction of ethyl alcohol	Mole fraction of d-limonene	Mole fraction of ethyl alcohol	uncertainty
.056	0	.3466	.00000624
.0562	0	.3315	.00000173
.0618	0	.3679	.00000127
.0979	0	.4749	.00000713
.1007	0	.4762	.00000625
.1035	0	.5833	.00000393
.135	0	.4866	.0000034
.1365	0	.4813	.00000482
.0957	0	.4915	.00000337
.1992	.00000142	.5594	.00000533
.2066	.00000413	.5529	.0000053
.2083	.00000449	.5546	.00000207
.2936	.00000177	.5499	.00000959
.2665	.00000382	.5953	.000000291
.3049	.00000519	.5981	.00000585
.394	.00000795	.6315	.0000128
.4217	.00000792	.6574	.00000654
.3861	.00000754	.6704	.00000721
.5365	.00000942	.6841	.00000752
.5444	.00000776	.7038	.000016
.5516	.00000933	.6548	.0000114
.9068	.0000187	.8627	.00000363
.8937	.0000174	.9166	.00000644
.8815	.0000179	.8896	.00000465

System: ethyl alcohol + d-limonene + water; phases: Gas, Liquid
Fixed: Pressure, kPa = 101
Property: Mole fraction of d-limonene (Gas); method: Chromatography
Mole fraction of ethyl alcohol	Mole fraction of d-limonene	Mole fraction of d-limonene	uncertainty
.056	0	.00000254	.000000000476
.0562	0	.00000448	.000000000443
.0618	0	.00000372	.00000000036
.0979	0	.0000137	.000000000355
.1007	0	.0000149	.00000000138
.1035	0	.00002	.00000000111
.135	0	.0000257	.00000000463
.1365	0	.0000251	.00000000122
.0957	0	.0000158	.000000000751
.1992	.00000142	.0000621	.00000000225
.2066	.00000413	.0000927	.00000000372
.2083	.00000449	.0000555	.00000000247
.2936	.00000177	.0000272	.000000000645
.2665	.00000382	.0000561	.00000000102
.3049	.00000519	.0000639	.00000000193
.394	.00000795	.0000411	.00000000242
.4217	.00000792	.0000416	.00000000167
.3861	.00000754	.000039	.00000000189
.5365	.00000942	.0000221	.000000000322
.5444	.00000776	.0000213	.000000000575
.5516	.00000933	.0000225	.00000000111
.9068	.0000187	.00000993	.000000000644
.8937	.0000174	.0000109	.000000000882
.8815	.0000179	.0000112	.000000000353

System: ethyl alcohol + linalool, dl- + water; phases: Liquid, Gas
Fixed: Pressure, kPa = 101
Property: Boiling temperature at pressure P, K (Liquid); method: Closed cell (Static) method
Mole fraction of ethyl alcohol	Mole fraction of linalool, dl-	Boiling temperature at pressure P, K	uncertainty
.012	.00000166	369.98	
.011	.00000185	369.93	
.0101	.00000154	370.18	
.056	.0000245	362.27	
.0562	.0000206	362.31	
.0618	.0000162	362.1	
.0979	.0000116	359.26	
.1007	.0000132	359.17	
.1035	.0000146	359.15	
.135	.0000221	357.7	
.1365	.000018	357.65	
.0957	.0000171	357.56	
.1992	.0000194	356.21	
.2066	.000068	356.03	
.2083	.0000449	356.05	
.2936	.0000207	355.7	
.2665	.0000211	354.76	
.3049	.0000243	354.68	
.394	.0000286	353.77	
.4217	.0000285	353.78	
.3861	.0000254	353.81	
.5365	.0000296	352.84	
.5444	.0000328	352.76	
.5516	.000029	352.7	
.9068	.0000331	351.39	
.8937	.0000359	351.37	
.8815	.0000361	351.43	

System: ethyl alcohol + linalool, dl- + water; phases: Gas, Liquid
Fixed: Pressure, kPa = 101
Property: Mole fraction of ethyl alcohol (Gas); method: Chromatography
Mole fraction of ethyl alcohol	Mole fraction of linalool, dl-	Mole fraction of ethyl alcohol	uncertainty
.012	.00000166	.0891	.000000265
.011	.00000185	.0888	.00000057
.0101	.00000154	.0858	.000000297
.056	.0000245	.3466	.00000624
.0562	.0000206	.3315	.00000173
.0618	.0000162	.3679	.00000127
.0979	.0000116	.4749	.00000713
.1007	.0000132	.4762	.00000625
.1035	.0000146	.5833	.00000393
.135	.0000221	.4866	.0000034
.1365	.000018	.4813	.00000482
.0957	.0000171	.4915	.00000337
.1992	.0000194	.5594	.00000533
.2066	.000068	.5529	.0000053
.2083	.0000449	.5546	.00000207
.2936	.0000207	.5499	.00000959
.2665	.0000211	.5953	.000000291
.3049	.0000243	.5981	.00000585
.394	.0000286	.6315	.0000128
.4217	.0000285	.6574	.00000654
.3861	.0000254	.6704	.00000721
.5365	.0000296	.6841	.00000752
.5444	.0000328	.7038	.000016
.5516	.000029	.6548	.0000114
.9068	.0000331	.8627	.00000363
.8937	.0000359	.9166	.00000644
.8815	.0000361	.8896	.00000465

System: ethyl alcohol + linalool, dl- + water; phases: Gas, Liquid
Fixed: Pressure, kPa = 101
Property: Mole fraction of linalool, dl- (Gas); method: Chromatography
Mole fraction of ethyl alcohol	Mole fraction of linalool, dl-	Mole fraction of linalool, dl-	uncertainty
.012	.00000166	.000229	.0000000115
.011	.00000185	.00018	.00000000588
.0101	.00000154	.000211	.00000000468
.056	.0000245	.000136	.00000000696
.0562	.0000206	.000092	.00000000987
.0618	.0000162	.000082	.00000000232
.0979	.0000116	.0000302	.00000000122
.1007	.0000132	.0000311	.00000000234
.1035	.0000146	.0000359	.00000000485
.135	.0000221	.0000282	.000000000933
.1365	.000018	.0000237	.00000000331
.0957	.0000171	.0000176	.000000000803
.1992	.0000194	.0000158	.00000000229
.2066	.000068	.0000104	.00000000154
.2083	.0000449	.00000689	.00000000171
.2936	.0000207	.00000768	.00000000112
.2665	.0000211	.00000415	.000000000417
.3049	.0000243	.00000392	.000000000598
.394	.0000286	.00000198	.0000000000947
.4217	.0000285	.00000186	.000000000112
.3861	.0000254	.00000166	.000000000098
.5365	.0000296	.0000015	.000000000195
.5444	.0000328	.00000168	.000000000155
.5516	.000029	.00000137	.000000000168
.9068	.0000331	0	.000000005
.8937	.0000359	0	.000000005
.8815	.0000361	0	.000000005

System: ethyl alcohol + 3,7-dimethyl-2,6-octadienal, (cis+trans) + water; phases: Liquid, Gas
Fixed: Pressure, kPa = 101
Property: Boiling temperature at pressure P, K (Liquid); method: Closed cell (Static) method
Mole fraction of ethyl alcohol	Mole fraction of 3,7-dimethyl-2,6-octadienal, (cis+trans)	Boiling temperature at pressure P, K	uncertainty
.012	.00000283	369.98	
.011	.00000292	369.93	
.0101	.0000029	370.18	
.056	.0000257	362.27	
.0562	.0000206	362.31	
.0618	.0000148	362.1	
.0979	.0000138	359.26	
.1007	.0000141	359.17	
.1035	.0000146	359.15	
.135	.0000215	357.7	
.1365	.0000211	357.65	
.0957	.0000162	357.56	
.1992	.00002	356.21	
.2066	.0000673	356.03	
.2083	.0000426	356.05	
.2936	.0000234	355.7	
.2665	.0000207	354.76	
.3049	.0000255	354.68	
.394	.0000277	353.77	
.4217	.0000262	353.78	
.3861	.0000243	353.81	
.5365	.0000262	352.84	
.5444	.0000289	352.76	
.5516	.0000258	352.7	
.9068	.0000303	351.39	
.8937	.0000319	351.37	
.8815	.0000323	351.43	

System: ethyl alcohol + 3,7-dimethyl-2,6-octadienal, (cis+trans) + water; phases: Gas, Liquid
Fixed: Pressure, kPa = 101
Property: Mole fraction of ethyl alcohol (Gas); method: Chromatography
Mole fraction of ethyl alcohol	Mole fraction of 3,7-dimethyl-2,6-octadienal, (cis+trans)	Mole fraction of ethyl alcohol	uncertainty
.012	.00000283	.0891	.0000003
.011	.00000292	.0888	.0000006
.0101	.0000029	.0858	.0000003
.056	.0000257	.3466	.0000062
.0562	.0000206	.3315	.0000017
.0618	.0000148	.3679	.0000013
.0979	.0000138	.4749	.0000071
.1007	.0000141	.4762	.0000063
.1035	.0000146	.5833	.0000039
.135	.0000215	.4866	.0000034
.1365	.0000211	.4813	.0000048
.0957	.0000162	.4915	.0000034
.1992	.00002	.5594	.0000053
.2066	.0000673	.5529	.0000053
.2083	.0000426	.5546	.0000021
.2936	.0000234	.5499	.0000096
.2665	.0000207	.5953	.0000003
.3049	.0000255	.5981	.0000059
.394	.0000277	.6315	.0000128
.4217	.0000262	.6574	.0000065
.3861	.0000243	.6704	.0000072
.5365	.0000262	.6841	.0000075
.5444	.0000289	.7038	.000016
.5516	.0000258	.6548	.0000114
.9068	.0000303	.8627	.0000036
.8937	.0000319	.9166	.0000064
.8815	.0000323	.8896	.0000047

System: ethyl alcohol + 3,7-dimethyl-2,6-octadienal, (cis+trans) + water; phases: Gas, Liquid
Fixed: Pressure, kPa = 101
Property: Mole fraction of 3,7-dimethyl-2,6-octadienal, (cis+trans) (Gas); method: Chromatography
Mole fraction of ethyl alcohol	Mole fraction of 3,7-dimethyl-2,6-octadienal, (cis+trans)	Mole fraction of 3,7-dimethyl-2,6-octadienal, (cis+trans)	uncertainty
.012	.00000283	.000181	.00000000927
.011	.00000292	.000154	.00000000476
.0101	.0000029	.000175	.0000000061
.056	.0000257	.00019	.0000000085
.0562	.0000206	.000126	.0000000135
.0618	.0000148	.000119	.00000000367
.0979	.0000138	.000038	.00000000288
.1007	.0000141	.0000386	.00000000249
.1035	.0000146	.0000454	.00000000514
.135	.0000215	.0000348	.00000000131
.1365	.0000211	.0000243	.00000000347
.0957	.0000162	.0000189	.00000000076
.1992	.00002	.0000107	.00000000174
.2066	.0000673	.00000674	.00000000146
.2083	.0000426	.00000602	.00000000148
.2936	.0000234	.00000584	.000000000102
.2665	.0000207	.00000292	.00000000153
.3049	.0000255	.000002	.000000000614
.394	.0000277	.0000012	.0000000000883
.4217	.0000262	.00000115	.0000000000868
.3861	.0000243	.00000101	.0000000000485
.5365	.0000262	.00000119	.000000000175
.5444	.0000289	.00000116	.000000000196
.5516	.0000258	.000000943	.0000000000851
.9068	.0000303	0	.000000005
.8937	.0000319	0	.000000005
.8815	.0000323	0	.000000005

System: ethyl alcohol + water + 2-methyl-5-(1-hydroxy-1-methylethyl)-2-vinyltetrahydrofuran; phases: Liquid, Gas
Fixed: Pressure, kPa = 101
Property: Boiling temperature at pressure P, K (Liquid); method: Closed cell (Static) method
Mole fraction of ethyl alcohol	Mole fraction of 2-methyl-5-(1-hydroxy-1-methylethyl)-2-vinyltetrahydrofuran	Boiling temperature at pressure P, K	uncertainty
.012	.00000683	369.98	
.011	.00000781	369.93	
.0101	.00000673	370.18	
.056	.0000311	362.27	
.0562	.0000233	362.31	
.0618	.0000169	362.1	
.0979	.000016	359.26	
.1007	.0000147	359.17	
.1035	.0000159	359.15	
.135	.0000201	357.7	
.1365	.0000215	357.65	
.0957	.0000184	357.56	
.1992	.0000192	356.21	
.2066	.0000733	356.03	
.2083	.0000381	356.05	
.2936	.0000218	355.7	
.2665	.0000206	354.76	
.3049	.0000263	354.68	
.394	.0000275	353.77	
.4217	.0000266	353.78	
.3861	.000023	353.81	
.5365	.0000247	352.84	
.5444	.0000282	352.76	
.5516	.0000243	352.7	
.9068	.0000297	351.39	
.8937	.0000347	351.37	

System: ethyl alcohol + water + 2-methyl-5-(1-hydroxy-1-methylethyl)-2-vinyltetrahydrofuran; phases: Gas, Liquid
Fixed: Pressure, kPa = 101
Property: Mole fraction of ethyl alcohol (Gas); method: Chromatography
Mole fraction of ethyl alcohol	Mole fraction of 2-methyl-5-(1-hydroxy-1-methylethyl)-2-vinyltetrahydrofuran	Mole fraction of ethyl alcohol	uncertainty
.012	.00000683	.0891	.000000265
.011	.00000781	.0888	.00000057
.0101	.00000673	.0858	.000000297
.056	.0000311	.3466	.00000624
.0562	.0000233	.3315	.00000173
.0618	.0000169	.3679	.00000127
.0979	.000016	.4749	.00000713
.1007	.0000147	.4762	.00000625
.1035	.0000159	.5833	.00000393
.135	.0000201	.4866	.0000034
.1365	.0000215	.4813	.00000482
.0957	.0000184	.4915	.00000337
.1992	.0000192	.5594	.00000533
.2066	.0000733	.5529	.0000053
.2083	.0000381	.5546	.00000207
.2936	.0000218	.5499	.00000959
.2665	.0000206	.5953	.000000291
.3049	.0000263	.5981	.00000585
.394	.0000275	.6315	.0000128
.4217	.0000266	.6574	.00000654
.3861	.000023	.6704	.00000721
.5365	.0000247	.6841	.00000752
.5444	.0000282	.7038	.000016
.5516	.0000243	.6548	.0000114
.9068	.0000297	.8627	.00000363
.8937	.0000347	.9166	.00000644
.8815	.0000353	.8896	.00000465

System: ethyl alcohol + water + 2-methyl-5-(1-hydroxy-1-methylethyl)-2-vinyltetrahydrofuran; phases: Gas, Liquid
Fixed: Pressure, kPa = 101
Property: Mole fraction of 2-methyl-5-(1-hydroxy-1-methylethyl)-2-vinyltetrahydrofuran (Gas); method: Chromatography
Mole fraction of ethyl alcohol	Mole fraction of 2-methyl-5-(1-hydroxy-1-methylethyl)-2-vinyltetrahydrofuran	Mole fraction of 2-methyl-5-(1-hydroxy-1-methylethyl)-2-vinyltetrahydrofuran	uncertainty
.012	.00000683	.000208	.0000000104
.011	.00000781	.000163	.00000000533
.0101	.00000673	.000192	.00000000424
.056	.0000311	.000123	.0000000063
.0562	.0000233	.0000832	.00000000895
.0618	.0000169	.0000745	.0000000021
.0979	.000016	.0000273	.00000000111
.1007	.0000147	.0000281	.00000000212
.1035	.0000159	.0000325	.00000000439
.135	.0000201	.0000256	.000000000845
.1365	.0000215	.0000215	.000000003
.0957	.0000184	.000016	.000000000728
.1992	.0000192	.0000143	.00000000207
.2066	.0000733	.0000094	.00000000139
.2083	.0000381	.00000624	.00000000155
.2936	.0000218	.00000696	.00000000102
.2665	.0000206	.00000376	.000000000378
.3049	.0000263	.00000355	.000000000542
.394	.0000275	.00000179	.0000000000858
.4217	.0000266	.00000168	.000000000102
.3861	.000023	.0000015	.0000000000889
.5365	.0000247	.00000136	.000000000177
.5444	.0000282	.00000153	.000000000141
.5516	.0000243	.00000124	.000000000153
.9068	.0000297	0	.000000005
.8937	.0000347	0	.000000005
.8815	.0000353	0	.000000005
