Measured thermophysical data. Liquid Liquid Equilibria of the Aqueous Two-Phase Systems of Ionic Liquid 1-Butyl-3-methylimidazolium Tetrafluoroborate and Sodium Dihydrogen Phosphate/Disodium Hydrogen Phosphate or Their Mixtures
Source: J. Chem. Eng. Data, 2012, 10.1021/je300195c
Compound 1: [BMIM][BF4], C8H15BF4N2, purity 99%
Compound 2: sodium dihydrogen phosphate anhydrous, H2NaO4P, purity 99%
Compound 3: disodium hydrogen phosphate, HO4PNa2, purity 99%
Compound 4: water, H2O, purity 99.9%

System: disodium hydrogen phosphate + water + [BMIM][BF4]; phases: Liquid mixture 1, Liquid mixture 2
Fixed: Temperature, K = 298.15
Fixed: Pressure, kPa = 101
Property: Mass fraction of disodium hydrogen phosphate (Liquid mixture 1); method: Titration method
Mass fraction of [BMIM][BF4]	Mass fraction of disodium hydrogen phosphate	uncertainty
.733	.0021	.001
.7006	.0026	.001
.6699	.0029	.001
.6118	.0039	.001
.5435	.0057	.001
.4936	.0073	.001
.4525	.0089	.001
.4172	.0104	.001
.3825	.0121	.001
.361	.0132	.001
.3474	.0139	.001
.316	.0162	.001
.2995	.0173	.001
.2813	.0188	.001
.251	.022	.001
.233	.024	.001
.2093	.0279	.001
.1957	.0306	.001
.1797	.0339	.001
.1517	.0426	.001
.1324	.0507	.001
.1192	.0563	.001
.1093	.0607	.001
.0935	.0724	.001
.0829	.0844	.001
.0743	.0906	.001
.0674	.0973	.001
.0611	.1058	.001
.0554	.1145	.001

System: disodium hydrogen phosphate + water + [BMIM][BF4]; phases: Liquid mixture 2, Liquid mixture 1
Property: Mass fraction of [BMIM][BF4] (Liquid mixture 2); method: Spectrometer
Property: Mass fraction of [BMIM][BF4] (Liquid mixture 1); method: Spectrometer
Property: Mass fraction of disodium hydrogen phosphate (Liquid mixture 1); method: Spectrometer
Temperature, K	Pressure, kPa	Mass fraction of disodium hydrogen phosphate	Mass fraction of [BMIM][BF4]	uncertainty	Mass fraction of [BMIM][BF4]	uncertainty	Mass fraction of disodium hydrogen phosphate	uncertainty
298.15	101.325	.1986	.0271	.001	.676	.001	.0027	.001
298.15	101.325	.1824	.0288	.001	.6501	.001	.0032	.001
298.15	101.325	.1597	.0371	.001	.6305	.001	.0035	.001

System: sodium dihydrogen phosphate anhydrous + water + [BMIM][BF4]; phases: Liquid mixture 1, Liquid mixture 2
Fixed: Temperature, K = 298.15
Fixed: Pressure, kPa = 101
Property: Mass fraction of sodium dihydrogen phosphate anhydrous (Liquid mixture 1); method: Titration method
Mass fraction of [BMIM][BF4]	Mass fraction of sodium dihydrogen phosphate anhydrous	uncertainty
.6261	.0065	.001
.5838	.0083	.001
.5489	.0105	.001
.4934	.014	.001
.425	.0192	.001
.3785	.0241	.001
.3477	.0282	.001
.3214	.0309	.001
.2887	.0352	.001
.2519	.0439	.001
.2481	.0455	.001
.2146	.0513	.001
.1865	.0623	.001
.1736	.0701	.001
.1551	.0791	.001
.1431	.0866	.001
.1206	.1117	.001
.0951	.1278	.001
.0866	.1435	.001

System: sodium dihydrogen phosphate anhydrous + water + [BMIM][BF4]; phases: Liquid mixture 2, Liquid mixture 1
Property: Mass fraction of [BMIM][BF4] (Liquid mixture 2); method: Spectrometer
Property: Mass fraction of [BMIM][BF4] (Liquid mixture 1); method: Spectrometer
Property: Mass fraction of sodium dihydrogen phosphate anhydrous (Liquid mixture 1); method: Spectrometer
Temperature, K	Pressure, kPa	Mass fraction of sodium dihydrogen phosphate anhydrous	Mass fraction of [BMIM][BF4]	uncertainty	Mass fraction of [BMIM][BF4]	uncertainty	Mass fraction of sodium dihydrogen phosphate anhydrous	uncertainty
298.15	101.325	.2735	.0317	.001	.6374	.001	.0062	.001
298.15	101.325	.2532	.0377	.001	.6308	.001	.0064	.001
298.15	101.325	.234	.0454	.001	.6233	.001	.0065	.001
