Measured thermophysical data. Isobaric Vapor Liquid Equilibrium for the Ethanol + Water + 2-Aminoethanol Tetrafluoroborate System at 101.3 kPa
Source: J. Chem. Eng. Data, 2012, 10.1021/je3007138
Compound 1: ethyl alcohol, C2H6O, purity 99.7%
Compound 2: water, H2O
Compound 3: 2-aminoethanol tetrafluoroborate, C2H7BF4NO

System: ethyl alcohol; phases: Liquid, Gas
Property: Vapor or sublimation pressure, kPa (Liquid); method: Ebulliometric method (Recirculating still)
Temperature, K	Vapor or sublimation pressure, kPa	uncertainty
351.2	101.3	.1

System: ethyl alcohol + water; phases: Gas, Liquid
Property: Mole fraction of ethyl alcohol (Gas); method: Chromatography
Mole fraction of ethyl alcohol	Pressure, kPa	Mole fraction of ethyl alcohol	uncertainty
0	101.3	0	.008
.119	101.3	.518	.008
.154	101.3	.539	.008
.218	101.3	.598	.008
.269	101.3	.596	.008
.322	101.3	.624	.008
.357	101.3	.65	.008
.393	101.3	.642	.008
.425	101.3	.655	.008
.44	101.3	.661	.008
.557	101.3	.683	.008
.65	101.3	.741	.008
.759	101.3	.79	.008
.865	101.3	.867	.008
1	101.3	1	.008

System: ethyl alcohol + water; phases: Liquid, Gas
Property: Boiling temperature at pressure P, K (Liquid); method: Ebulliometric method (Recirculating still)
Mole fraction of ethyl alcohol	Pressure, kPa	Boiling temperature at pressure P, K	uncertainty
0	101.3	373.1	.3
.119	101.3	359.2	.3
.154	101.3	357.3	.3
.218	101.3	355.8	.3
.269	101.3	354.8	.3
.322	101.3	354.5	.3
.357	101.3	354	.3
.393	101.3	353.5	.3
.425	101.3	353.4	.3
.44	101.3	353.2	.3
.557	101.3	351.5	.3
.65	101.3	351.4	.3
.759	101.3	351.3	.3
.865	101.3	351.2	.3
1	101.3	351.2	.3

System: ethyl alcohol + water + 2-aminoethanol tetrafluoroborate; phases: Liquid, Gas
Fixed: Pressure, kPa = 101.3
Property: Boiling temperature at pressure P, K (Liquid); method: Ebulliometric method (Recirculating still)
Mole fraction of 2-aminoethanol tetrafluoroborate	Solvent: Mole fraction of ethyl alcohol	Boiling temperature at pressure P, K	uncertainty
.04997	.186	357.1	.3
.04997	.563	353	.3
.04998	.762	352.6	.3
.05	.438	353.8	.3
.05001	.255	355.6	.3
.05001	.049	367.4	.3
.05003	.634	352.8	.3
.05006	.859	352.4	.3
.05012	.376	355	.3
.05036	.107	361.4	.3
.09972	.361	355.2	.3
.09986	.555	353.8	.3
.09998	.106	368.4	.3
.09999	.047	368.2	.3
.09999	.173	359.4	.3
.10058	.277	357.9	.3
.1006	.876	353.2	.3
.10061	.684	353.4	.3
.10064	.463	354.2	.3
.10074	.798	353.2	.3
.15005	.051	369.6	.3
.15007	.465	355.4	.3
.15045	.105	366	.3
.15085	.265	357.6	.3
.15088	.374	355.9	.3
.15104	.168	360.5	.3

System: ethyl alcohol + water + 2-aminoethanol tetrafluoroborate; phases: Liquid, Gas
Fixed: Pressure, kPa = 101.3
Property: Mole fraction of ethyl alcohol (Liquid); method: Chromatography
Mole fraction of 2-aminoethanol tetrafluoroborate	Solvent: Mole fraction of ethyl alcohol	Mole fraction of ethyl alcohol	uncertainty
.05001	.049	.388	.009
.05036	.107	.532	.009
.04997	.186	.593	.009
.05001	.255	.637	.009
.05012	.376	.685	.009
.05	.438	.706	.009
.04997	.563	.754	.009
.05003	.634	.78	.009
.04998	.762	.853	.009
.05006	.859	.897	.009
.09999	.047	.398	.009
.09998	.106	.573	.009
.09999	.173	.627	.009
.10058	.277	.702	.009
.09972	.361	.742	.009
.10064	.463	.78	.009
.09986	.555	.815	.009
.10061	.684	.858	.009
.10074	.798	.903	.009
.1006	.876	.928	.009
.15005	.051	.435	.009
.15045	.105	.603	.009
.15104	.168	.674	.009
.15085	.265	.739	.009
.15088	.374	.781	.009
.15007	.465	.819	.009
