Measured thermophysical data. Solubility, Density, Refractive Index, and Viscosity for the Polyhydric Alcohol + CsBr + H2O Ternary Systems at Different Temperatures
Source: J. Chem. Eng. Data, 2013, 10.1021/je301222e
Compound 1: cesium monobromide, BrCs, purity 99.5%
Compound 2: 1,2-dihydroxyethane, C2H6O2, purity 99%
Compound 3: sodium chloride, ClNa, purity 99.95%
Compound 4: 1,2-dihydroxypropane, C3H8O2, purity 99%
Compound 5: silver nitrate (AgNO3), AgNO3, purity 99.8%
Compound 6: glycerol, C3H8O3, purity 99%
Compound 7: neutral potassium chromate, CrK2O4, purity 99%
Compound 8: water, H2O, purity 99.9%

System: 1,2-dihydroxypropane + water + cesium monobromide; phases: Liquid, Crystal
Fixed: Pressure, kPa = 101
Property: Mass density, kg/m3 (Liquid); method: Vibrating tube method
Temperature, K	Solvent: Mass fraction of 1,2-dihydroxypropane	Mass density, kg/m3	uncertainty
288.15	1	1090.95	.05
298.15	1	1094.83	.05
308.15	1	1101.9	.05
288.15	0	1660.44	.05
298.15	0	1722.7	.05
308.15	0	1788.08	.05
288.15	.8998	1125.44	.05
288.15	.7999	1168.45	.05
298.15	.9	1135.78	.05
288.15	.7	1215.05	.05
288.15	.5999	1267.49	.05
308.15	.8998	1148.13	.05
298.15	.7999	1186.55	.05
288.15	.5	1318.87	.05
288.15	.3999	1376.25	.05
298.15	.6999	1239.79	.05
308.15	.7999	1205.83	.05
298.15	.6	1305.47	.05
298.15	.5001	1361.48	.05
308.15	.6	1339.24	.05
298.15	.4	1429.75	.05
308.15	.6999	1269.66	.05
288.15	.3	1432.8	.05
308.15	.3001	1557.82	.05
308.15	.5	1398.16	.05
298.15	.3	1490	.05
308.15	.1999	1615.89	.05
298.15	.1	1647.19	.05
288.15	.1	1584.75	.05
288.15	.2	1509.5	.05
298.15	.2	1572.05	.05
308.15	.4	1478.53	.05
308.15	.0998	1705.69	.05

System: 1,2-dihydroxypropane + water + cesium monobromide; phases: Liquid, Crystal
Fixed: Pressure, kPa = 101
Property: Refractive index (Na D-line) (Liquid); method: Standard Abbe refractometry
Temperature, K	Solvent: Mass fraction of 1,2-dihydroxypropane	Refractive index (Na D-line)	uncertainty
288.15	0	1.39955	.0004
288.15	.1	1.40031	.0004
288.15	.2	1.40208	.0004
288.15	.3	1.40401	.0004
288.15	.3999	1.40835	.0004
288.15	.5	1.41307	.0004
288.15	.5999	1.41823	.0004
288.15	.7	1.42319	.0004
288.15	.7999	1.42776	.0004
288.15	.8998	1.43327	.0004
288.15	1	1.43828	.0004
298.15	0	1.40425	.0004
298.15	.1	1.40505	.0004
298.15	.2	1.40639	.0004
298.15	.3	1.4086	.0004
298.15	.4	1.41148	.0004
298.15	.5001	1.41475	.0004
298.15	.6	1.41894	.0004
298.15	.6999	1.42299	.0004
298.15	.7999	1.42704	.0004
298.15	.9	1.43166	.0004
298.15	1	1.43593	.0004
308.15	0	1.40729	.0004
308.15	.0998	1.40821	.0004
308.15	.1999	1.40929	.0004
308.15	.3001	1.41088	.0004
308.15	.4	1.41259	.0004
308.15	.5	1.4154	.0004
308.15	.6	1.4194	.0004
308.15	.6999	1.42211	.0004
308.15	.7999	1.42567	.0004
308.15	.8998	1.42931	.0004
308.15	1	1.43294	.0004

System: 1,2-dihydroxypropane + water + cesium monobromide; phases: Liquid, Crystal
Fixed: Pressure, kPa = 101
Property: Mass fraction of cesium monobromide (Liquid); method: Titration method
Temperature, K	Solvent: Mass fraction of 1,2-dihydroxypropane	Mass fraction of cesium monobromide	uncertainty
288.15	0	.5069	.0056
288.15	.1	.4683	.0056
288.15	.2	.4267	.0056
288.15	.3	.392	.0056
288.15	.3999	.3549	.0056
288.15	.5	.3101	.0056
288.15	.5999	.2708	.0056
288.15	.7	.2167	.0056
288.15	.7999	.1678	.0056
288.15	.8998	.1119	.0056
288.15	1	.0703	.0056
298.15	0	.5515	.0056
298.15	.1	.5167	.0056
298.15	.2	.4745	.0056
298.15	.3	.4232	.0056
298.15	.4	.3865	.0056
298.15	.5001	.3348	.0056
298.15	.6	.291	.0056
298.15	.6999	.2462	.0056
298.15	.7999	.1937	.0056
298.15	.9	.1352	.0056
298.15	1	.0874	.0056
308.15	0	.5856	.0056
308.15	.0998	.5487	.0056
308.15	.1999	.5148	.0056
308.15	.3001	.4779	.0056
308.15	.4	.4282	.0056
308.15	.5	.3798	.0056
308.15	.6	.3281	.0056
308.15	.6999	.2787	.0056
308.15	.7999	.2215	.0056
308.15	.8998	.157	.0056
308.15	1	.1029	.0056

System: 1,2-dihydroxypropane + water + cesium monobromide; phases: Liquid
Fixed: Pressure, kPa = 101
Property: Mass density, kg/m3 (Liquid); method: Vibrating tube method
Temperature, K	Mass fraction of 1,2-dihydroxypropane	Mass fraction of cesium monobromide	Mass density, kg/m3	uncertainty
288.15	.0941	.0581	1054.8	.05
288.15	.0889	.1103	1101.23	.05
288.15	.0844	.1562	1145.45	.05
288.15	.0802	.1979	1188.83	.05
288.15	.0763	.2358	1230.87	.05
288.15	.0728	.2711	1272.69	.05
288.15	.0697	.3027	1312.61	.05
288.15	.0668	.3309	1349.84	.05
288.15	.2854	.0489	1065.63	.05
288.15	.2717	.0942	1105.07	.05
288.15	.2612	.129	1137.56	.05
288.15	.2506	.1648	1172.62	.05
288.15	.2408	.1973	1206.69	.05
288.15	.2316	.2278	1240.1	.05
288.15	.222	.26	1277.44	.05
288.15	.2144	.2848	1308.04	.05
288.15	.4812	.0374	1071.55	.05
288.15	.4596	.0806	1108.38	.05
288.15	.4473	.1052	1130.58	.05
288.15	.4322	.1354	1158.76	.05
288.15	.4187	.1626	1185.47	.05
288.15	.4038	.1923	1216.32	.05
288.15	.3918	.2162	1242	.05
288.15	.3805	.2389	1267.57	.05
288.15	.8873	.014	1057.15	.05
288.15	.8752	.0275	1068.03	.05
288.15	.8644	.0396	1077.72	.05
288.15	.8511	.0543	1090.44	.05
288.15	.8404	.0661	1100.7	.05
288.15	.8304	.0771	1109.59	.05
288.15	.8207	.0881	1120.09	.05
288.15	.8117	.0981	1129.13	.05
288.15	.681	.027	1069.49	.05
288.15	.6626	.0533	1091.39	.05
288.15	.6471	.0755	1110.51	.05
288.15	.6286	.1018	1134.11	.05
288.15	.6141	.1226	1153.38	.05
288.15	.6022	.1396	1169.7	.05
288.15	.5881	.1597	1189.44	.05
288.15	.5737	.1802	1210.35	.05
298.15	.2373	.209	1213.21	.05
298.15	.2277	.2409	1249.14	.05
298.15	.2181	.2729	1287.03	.05
298.15	.2107	.2973	1316.9	.05
298.15	.4795	.0408	1067.2	.05
298.15	.4601	.0798	1100.44	.05
298.15	.4407	.1185	1135.54	.05
298.15	.4267	.1464	1162.29	.05
298.15	.4124	.1753	1191.57	.05
298.15	.3982	.2034	1220.86	.05
298.15	.3869	.226	1245.51	.05
298.15	.3743	.2511	1274.38	.05
298.15	.6789	.0302	1064.55	.05
298.15	.6602	.0568	1086.79	.05
298.15	.6406	.0848	1111.15	.05
298.15	.6217	.1118	1135.55	.05
298.15	.6065	.1332	1155.72	.05
298.15	.5689	.1644	1177.94	.05
298.15	.5761	.1766	1198.71	.05
298.15	.5562	.2053	1228.87	.05
298.15	.8863	.015	1047.36	.05
298.15	.8736	.0293	1061.74	.05
298.15	.8611	.0432	1073.38	.05
298.15	.8481	.0576	1085.69	.05
298.15	.8371	.0698	1096.16	.05
298.15	.826	.082	1106.71	.05
298.15	.8147	.0946	1117.95	.05
298.15	.8033	.1073	1129.57	.05
298.15	.0756	.2437	1235.68	.05
298.15	.0719	.2808	1280.18	.05
298.15	.0686	.3128	1320.93	.05
298.15	.0658	.3414	1359.55	.05
298.15	.0935	.064	1056.65	.05
298.15	.0884	.1153	1102.49	.05
298.15	.0821	.1791	1165.09	.05
298.15	.0791	.2088	1196.54	.05
298.15	.2842	.0525	1063.41	.05
298.15	.2714	.0953	1100.61	.05
298.15	.2583	.1386	1141.15	.05
298.15	.2477	.1744	1176.79	.05
308.15	.2306	.2309	1232.06	.05
308.15	.2196	.2675	1274.64	.05
308.15	.2102	.2989	1313.3	.05
308.15	.2019	.3267	1349.68	.05
308.15	.477	.0458	1065.25	.05
308.15	.4565	.0868	1100.49	.05
308.15	.4341	.1316	1141.61	.05
308.15	.4199	.16	1169.24	.05
308.15	.4043	.1911	1201.25	.05
308.15	.3892	.2215	1233.82	.05
308.15	.3739	.2519	1268.46	.05
308.15	.3589	.282	1304.35	.05
308.15	.6778	.0315	1058.52	.05
308.15	.6577	.0602	1082.47	.05
308.15	.6346	.0933	1111.33	.05
308.15	.6203	.1138	1130.01	.05
308.15	.6003	.1423	1153.38	.05
308.15	.5853	.1637	1178.14	.05
308.15	.5705	.1848	1199.71	.05
308.15	.5556	.2061	1222.43	.05
308.15	.8823	.0196	1046.38	.05
308.15	.8665	.0372	1060.94	.05
308.15	.8496	.056	1076.65	.05
308.15	.8338	.0734	1091.75	.05
308.15	.8171	.092	1108.28	.05
308.15	.8055	.1049	1119.85	.05
308.15	.7905	.1214	1134.96	.05
308.15	.7766	.137	1139.84	.05
308.15	.0936	.0632	1052.42	.05
308.15	.0879	.1204	1103.42	.05
308.15	.0828	.1715	1153.02	.05
308.15	.0782	.2181	1202.1	.05
308.15	.0741	.259	1248.62	.05
308.15	.0707	.2922	1289.42	.05
308.15	.0674	.3246	1331.31	.05
308.15	.0643	.3559	1374.62	.05
308.15	.2826	.0577	1063.1	.05
308.15	.2678	.1072	1106.74	.05
308.15	.253	.1563	1153.37	.05
308.15	.2411	.1959	1193.99	.05

System: 1,2-dihydroxypropane + water + cesium monobromide; phases: Liquid
Fixed: Pressure, kPa = 101
Property: Refractive index (Na D-line) (Liquid); method: Standard Abbe refractometry
Temperature, K	Mass fraction of 1,2-dihydroxypropane	Mass fraction of cesium monobromide	Refractive index (Na D-line)	uncertainty
288.15	.0941	.0581	1.34914	.00004
288.15	.0889	.1103	1.35375	.00004
288.15	.0844	.1562	1.35812	.00004
288.15	.0802	.1979	1.36241	.00004
288.15	.0763	.2358	1.36646	.00004
288.15	.0728	.2711	1.37049	.00004
288.15	.0697	.3027	1.37434	.00004
288.15	.0668	.3309	1.37803	.00004
288.15	.2854	.0489	1.37122	.00004
288.15	.2717	.0942	1.37488	.00004
288.15	.2612	.129	1.37775	.00004
288.15	.2506	.1648	1.38094	.00004
288.15	.2408	.1973	1.38402	.00004
288.15	.2316	.2278	1.38697	.00004
288.15	.222	.26	1.39027	.00004
288.15	.2144	.2848	1.39306	.00004
288.15	.4812	.0374	1.39166	.00004
288.15	.4596	.0806	1.39583	.00004
288.15	.4473	.1052	1.39764	.00004
288.15	.4322	.1354	1.39978	.00004
288.15	.4187	.1626	1.39166	.00004
288.15	.4038	.1923	1.39583	.00004
288.15	.3918	.2162	1.39764	.00004
288.15	.3805	.2389	1.39978	.00004
288.15	.8873	.014	1.39166	.00004
288.15	.8752	.0275	1.39583	.00004
288.15	.8644	.0396	1.39764	.00004
288.15	.8511	.0543	1.39978	.00004
288.15	.8404	.0661	1.42633	.00004
288.15	.8304	.0771	1.42701	.00004
288.15	.8207	.0881	1.42782	.00004
288.15	.8117	.0981	1.42849	.00004
298.15	.0935	.064	1.34825	.00004
298.15	.0884	.1153	1.35278	.00004
298.15	.0821	.1791	1.35894	.00004
298.15	.0791	.2088	1.36199	.00004
298.15	.2842	.0525	1.36893	.00004
298.15	.2714	.0953	1.37226	.00004
298.15	.2583	.1386	1.37597	.00004
298.15	.2477	.1744	1.37931	.00004
298.15	.2373	.209	1.38259	.00004
298.15	.2277	.2409	1.38581	.00004
298.15	.2181	.2729	1.38919	.00004
298.15	.2107	.2973	1.39175	.00004
298.15	.4795	.0408	1.38944	.00004
298.15	.4601	.0798	1.39219	.00004
298.15	.4407	.1185	1.3952	.00004
298.15	.4267	.1464	1.39756	.00004
298.15	.4124	.1753	1.39968	.00004
298.15	.3982	.2034	1.40227	.00004
298.15	.3869	.226	1.40406	.00004
298.15	.3743	.2511	1.40657	.00004
298.15	.6789	.0302	1.4079	.00004
298.15	.6602	.0568	1.40971	.00004
298.15	.6406	.0848	1.41164	.00004
298.15	.6217	.1118	1.41319	.00004
298.15	.6065	.1332	1.41525	.00004
298.15	.5689	.1644	1.4166	.00004
298.15	.5761	.1766	1.41794	.00004
298.15	.5562	.2053	1.42036	.00004
298.15	.8863	.015	1.42427	.00004
298.15	.8736	.0293	1.42545	.00004
298.15	.8611	.0432	1.42587	.00004
298.15	.8481	.0576	1.42678	.00004
298.15	.8371	.0698	1.4275	.00004
298.15	.826	.082	1.42821	.00004
298.15	.8147	.0946	1.42904	.00004
298.15	.8033	.1073	1.42996	.00004
308.15	.0936	.0632	1.34739	.00004
308.15	.0879	.1204	1.35242	.00004
308.15	.0828	.1715	1.35727	.00004
308.15	.0782	.2181	1.36203	.00004
308.15	.0741	.259	1.36651	.00004
308.15	.0707	.2922	1.37042	.00004
308.15	.0674	.3246	1.37441	.00004
308.15	.0643	.3559	1.37855	.00004
308.15	.2826	.0577	1.36869	.00004
308.15	.2678	.1072	1.37265	.00004
308.15	.253	.1563	1.37689	.00004
308.15	.2411	.1959	1.38052	.00004
308.15	.2306	.2309	1.36869	.00004
308.15	.2196	.2675	1.37265	.00004
308.15	.2102	.2989	1.37689	.00004
308.15	.2019	.3267	1.38052	.00004
308.15	.477	.0458	1.3892	.00004
308.15	.4565	.0868	1.39219	.00004
308.15	.4341	.1316	1.3956	.00004
308.15	.4199	.16	1.39789	.00004
308.15	.4043	.1911	1.40057	.00004
308.15	.3892	.2215	1.40321	.00004
308.15	.3739	.2519	1.406	.00004
308.15	.3589	.282	1.40895	.00004
308.15	.6778	.0315	1.40753	.00004
308.15	.6577	.0602	1.40941	.00004
308.15	.6346	.0933	1.41188	.00004
308.15	.6203	.1138	1.41315	.00004
308.15	.6003	.1423	1.41512	.00004
308.15	.5853	.1637	1.41687	.00004
308.15	.5705	.1848	1.41852	.00004
308.15	.5556	.2061	1.42025	.00004
308.15	.8823	.0196	1.42174	.00004
308.15	.8665	.0372	1.42292	.00004
308.15	.8496	.056	1.424	.00004
308.15	.8338	.0734	1.42516	.00004
308.15	.8171	.092	1.42641	.00004
308.15	.8055	.1049	1.42723	.00004
308.15	.7905	.1214	1.42838	.00004
308.15	.7766	.137	1.4284	.00004
298.15	.0756	.2437	1.36581	.00004
298.15	.0719	.2808	1.37005	.00004
298.15	.0686	.3128	1.37394	.00004
298.15	.0658	.3414	1.37772	.00004
288.15	.681	.027	1.41214	.00004
288.15	.6626	.0533	1.41385	.00004
288.15	.6471	.0755	1.41533	.00004
288.15	.6286	.1018	1.41712	.00004
288.15	.6141	.1226	1.41852	.00004
288.15	.6022	.1396	1.41978	.00004
288.15	.5881	.1597	1.42123	.00004
288.15	.5737	.1802	1.42281	.00004

System: 1,2-dihydroxypropane + water + cesium monobromide; phases: Liquid
Fixed: Pressure, kPa = 101
Property: Kinematic viscosity, m2/s (Liquid); method: Concentric cylinders viscometry
Temperature, K	Mass fraction of 1,2-dihydroxypropane	Mass fraction of cesium monobromide	Kinematic viscosity, m2/s	uncertainty
288.15	.0941	.0581	.000001511	.000000008
288.15	.0889	.1103	.0000014293	.000000008
288.15	.0844	.1562	.0000013276	.000000008
288.15	.0802	.1979	.0000012249	.000000008
288.15	.0763	.2358	.0000011482	.000000008
288.15	.0728	.2711	.0000010852	.000000008
288.15	.0697	.3027	.0000010325	.000000008
288.15	.0668	.3309	.0000009968	.000000008
288.15	.2854	.0489	.00000106563	.000000008
288.15	.2717	.0942	.00000110507	.000000008
288.15	.2612	.129	.00000113756	.000000008
288.15	.2506	.1648	.00000117262	.000000008
288.15	.2408	.1973	.000003176	.000000008
288.15	.2316	.2278	.0000029956	.000000008
288.15	.222	.26	.0000029679	.000000008
288.15	.2144	.2848	.0000027331	.000000008
288.15	.4812	.0374	.0000098743	.000000008
288.15	.4596	.0806	.0000085063	.000000008
288.15	.4473	.1052	.0000087155	.000000008
288.15	.4322	.1354	.000007449	.000000008
288.15	.4187	.1626	.0000072178	.000000008
288.15	.4038	.1923	.0000063706	.000000008
288.15	.3918	.2162	.0000062527	.000000008
288.15	.3805	.2389	.0000057343	.000000008
288.15	.681	.027	.0000181052	.000000008
288.15	.6626	.0533	.0000185396	.000000008
288.15	.6471	.0755	.000017424	.000000008
288.15	.6286	.1018	.0000161234	.000000008
288.15	.6141	.1226	.000016344	.000000008
288.15	.6022	.1396	.0000152048	.000000008
288.15	.5881	.1597	.0000148082	.000000008
288.15	.5737	.1802	.0000147266	.000000008
298.15	.2373	.209	.0000016997	.000000008
298.15	.2277	.2409	.0000016788	.000000008
298.15	.2181	.2729	.0000015481	.000000008
298.15	.2107	.2973	.0000015284	.000000008
298.15	.4795	.0408	.00000445	.000000008
298.15	.4601	.0798	.0000041652	.000000008
298.15	.4407	.1185	.0000039654	.000000008
298.15	.4267	.1464	.0000037762	.000000008
298.15	.4124	.1753	.0000036001	.000000008
298.15	.3982	.2034	.0000034777	.000000008
298.15	.3869	.226	.0000032647	.000000008
298.15	.3743	.2511	.0000031325	.000000008
298.15	.6789	.0302	.0000090957	.000000008
298.15	.6602	.0568	.0000087367	.000000008
298.15	.6406	.0848	.0000082389	.000000008
298.15	.6217	.1118	.000007899	.000000008
298.15	.6065	.1332	.0000078615	.000000008
298.15	.5689	.1644	.0000073643	.000000008
298.15	.5761	.1766	.0000071228	.000000008
298.15	.5562	.2053	.0000064603	.000000008
298.15	.0756	.2437	.0000008732	.000000008
298.15	.0719	.2808	.0000008407	.000000008
298.15	.0686	.3128	.0000007853	.000000008
298.15	.0658	.3414	.0000007724	.000000008
298.15	.0935	.064	.0000011378	.000000008
298.15	.0884	.1153	.0000010484	.000000008
298.15	.0821	.1791	.0000009392	.000000008
298.15	.0791	.2088	.0000011627	.000000008
298.15	.2842	.0525	.0000022477	.000000008
298.15	.2714	.0953	.0000020418	.000000008
298.15	.2583	.1386	.0000019575	.000000008
298.15	.2477	.1744	.0000018355	.000000008
308.15	.2306	.2309	.0000013512	.000000008
308.15	.2196	.2675	.0000014339	.000000008
308.15	.2102	.2989	.000001228	.000000008
308.15	.2019	.3267	.0000011732	.000000008
308.15	.477	.0458	.0000033363	.000000008
308.15	.4565	.0868	.0000031262	.000000008
308.15	.4341	.1316	.0000029203	.000000008
308.15	.4199	.16	.0000027563	.000000008
308.15	.4043	.1911	.0000026138	.000000008
308.15	.3892	.2215	.0000026084	.000000008
308.15	.3739	.2519	.0000024514	.000000008
308.15	.3589	.282	.0000023098	.000000008
308.15	.6778	.0315	.0000065233	.000000008
308.15	.6577	.0602	.0000063148	.000000008
308.15	.6346	.0933	.0000060005	.000000008
308.15	.6203	.1138	.000005776	.000000008
308.15	.6003	.1423	.0000055842	.000000008
308.15	.5853	.1637	.0000054607	.000000008
308.15	.5705	.1848	.0000052756	.000000008
308.15	.5556	.2061	.0000051571	.000000008
308.15	.0936	.0632	.0000009257	.000000008
308.15	.0879	.1204	.0000008277	.000000008
308.15	.0828	.1715	.0000007943	.000000008
308.15	.0782	.2181	.00000074	.000000008
308.15	.0741	.259	.0000007076	.000000008
308.15	.0707	.2922	.0000006978	.000000008
308.15	.0674	.3246	.000000729	.000000008
308.15	.0643	.3559	.0000009155	.000000008
308.15	.2826	.0577	.000001649	.000000008
308.15	.2678	.1072	.0000015617	.000000008
308.15	.253	.1563	.000001473	.000000008
308.15	.2411	.1959	.0000013895	.000000008

System: 1,2-dihydroxyethane + water + cesium monobromide; phases: Liquid, Crystal
Fixed: Pressure, kPa = 101
Property: Mass density, kg/m3 (Liquid); method: Vibrating tube method
Temperature, K	Solvent: Mass fraction of 1,2-dihydroxyethane	Mass density, kg/m3	uncertainty
288.15	0	1660.44	.05
288.15	.0999	1616.3	.05
288.15	.2001	1560.59	.05
288.15	.3001	1512.03	.05
288.15	.4001	1472.25	.05
288.15	.4999	1429.71	.05
288.15	.6	1391.65	.05
288.15	.7	1357.39	.05
288.15	.7998	1325.85	.05
288.15	.9	1297.14	.05
288.15	1	1273.78	.05
298.15	0	1722.7	.05
298.15	.0999	1671.45	.05
298.15	.1999	1620.32	.05
298.15	.3	1570.67	.05
298.15	.3999	1524.18	.05
298.15	.4999	1480.66	.05
298.15	.6	1437.63	.05
298.15	.7001	1393.8	.05
298.15	.8	1357.68	.05
298.15	.8999	1322.03	.05
298.15	1	1292.63	.05
308.15	0	1788.08	.05
308.15	.1001	1733.57	.05
308.15	.2	1682.23	.05
308.15	.3002	1627.08	.05
308.15	.3999	1573.37	.05
308.15	.4997	1517.11	.05
308.15	.6	1468.33	.05
308.15	.7	1417.17	.05
308.15	.7999	1372.62	.05
308.15	.8999	1330.84	.05
308.15	1	1295.02	.05

System: 1,2-dihydroxyethane + water + cesium monobromide; phases: Liquid, Crystal
Fixed: Pressure, kPa = 101
Property: Refractive index (Na D-line) (Liquid); method: Standard Abbe refractometry
Temperature, K	Solvent: Mass fraction of 1,2-dihydroxyethane	Refractive index (Na D-line)	uncertainty
288.15	0	1.39955	.00004
288.15	.0999	1.40206	.00004
288.15	.2001	1.40362	.00004
288.15	.3001	1.40658	.00004
288.15	.4001	1.41088	.00004
288.15	.4999	1.41508	.00004
288.15	.6	1.42032	.00004
288.15	.7	1.42601	.00004
288.15	.7998	1.43212	.00004
288.15	.9	1.43812	.00004
288.15	1	1.44477	.00004
298.15	0	1.40425	.00004
298.15	.0999	1.40543	.00004
298.15	.1999	1.40695	.00004
298.15	.3	1.40927	.00004
298.15	.3999	1.41239	.00004
298.15	.4999	1.41586	.00004
298.15	.6	1.42017	.00004
298.15	.7001	1.42448	.00004
298.15	.8	1.42944	.00004
298.15	.8999	1.43458	.00004
298.15	1	1.44031	.00004
308.15	0	1.40729	.00004
308.15	.1001	1.40782	.00004
308.15	.2	1.40956	.00004
308.15	.3002	1.41173	.00004
308.15	.3999	1.41429	.00004
308.15	.4997	1.41752	.00004
308.15	.6	1.42118	.00004
308.15	.7	1.42511	.00004
308.15	.7999	1.43096	.00004
308.15	.8999	1.43611	.00004
308.15	1	1.44169	.00004

System: 1,2-dihydroxyethane + water + cesium monobromide; phases: Liquid, Crystal
Fixed: Pressure, kPa = 101
Property: Mass fraction of cesium monobromide (Liquid); method: Titration method
Temperature, K	Solvent: Mass fraction of 1,2-dihydroxyethane	Mass fraction of cesium monobromide	uncertainty
288.15	0	.5069	.0056
288.15	.0999	.4821	.0056
288.15	.2001	.4517	.0056
288.15	.3001	.4113	.0056
288.15	.4001	.3784	.0056
288.15	.4999	.3459	.0056
288.15	.6	.3097	.0056
288.15	.7	.2725	.0056
288.15	.7998	.2364	.0056
288.15	.9	.2026	.0056
288.15	1	.1669	.0056
298.15	0	.5515	.0056
298.15	.0999	.5244	.0056
298.15	.1999	.4885	.0056
298.15	.3	.4565	.0056
298.15	.3999	.4143	.0056
298.15	.4999	.3756	.0056
298.15	.6	.3372	.0056
298.15	.7001	.294	.0056
298.15	.8	.2577	.0056
298.15	.8999	.2178	.0056
298.15	1	.1833	.0056
308.15	0	.5856	.0056
308.15	.1001	.553	.0056
308.15	.2	.5174	.0056
308.15	.3002	.4855	.0056
308.15	.3999	.4441	.0056
308.15	.4997	.4064	.0056
308.15	.6	.3604	.0056
308.15	.7	.3232	.0056
308.15	.7999	.2804	.0056
308.15	.8999	.2477	.0056
308.15	1	.1992	.0056

System: 1,2-dihydroxyethane + water + cesium monobromide; phases: Liquid
Fixed: Pressure, kPa = 101
Property: Mass density, kg/m3 (Liquid); method: Vibrating tube method
Temperature, K	Mass fraction of 1,2-dihydroxyethane	Mass fraction of cesium monobromide	Mass density, kg/m3	uncertainty
288.15	.0941	.0587	1060.9	.05
288.15	.0889	.1098	1106.53	.05
288.15	.0843	.1564	1171.76	.05
288.15	.0801	.1981	1194.47	.05
288.15	.0764	.236	1237.2	.05
288.15	.0729	.2707	1278.11	.05
288.15	.0698	.3021	1316.02	.05
288.15	.0669	.3309	1356.8	.05
288.15	.2846	.0512	1082.43	.05
288.15	.2706	.0976	1123.81	.05
288.15	.2579	.1401	1163.88	.05
288.15	.2467	.1777	1202.31	.05
288.15	.2361	.2129	1239.81	.05
288.15	.2264	.2449	1277.19	.05
288.15	.2176	.2746	1312.64	.05
288.15	.2092	.3022	1347.79	.05
288.15	.4789	.0421	1102.59	.05
288.15	.4587	.0825	1138.17	.05
288.15	.4402	.1194	1172.84	.05
288.15	.4247	.1504	1202.92	.05
288.15	.409	.1819	1235.47	.05
288.15	.3947	.2105	1266.49	.05
288.15	.3816	.2366	1296.23	.05
288.15	.369	.2618	1326.28	.05
288.15	.6748	.0359	1121.26	.05
288.15	.6513	.0694	1150.54	.05
288.15	.6294	.1007	1179.49	.05
288.15	.609	.13	1207.67	.05
288.15	.5898	.1572	1235.15	.05
288.15	.5718	.183	1262.24	.05
288.15	.554	.2084	1289.97	.05
288.15	.539	.2299	1314.78	.05
288.15	.8751	.0276	1132.98	.05
288.15	.8517	.0536	1155.6	.05
288.15	.8289	.0788	1178.56	.05
288.15	.8235	.0941	1200.87	.05
288.15	.7874	.125	1222.82	.05
288.15	.7684	.1461	1243.3	.05
288.15	.7503	.1662	1265.06	.05
288.15	.7324	.1861	1286.74	.05
298.15	.0937	.0621	1060.45	.05
298.15	.0876	.1234	1115.54	.05
298.15	.0831	.168	1159.74	.05
298.15	.0792	.2077	1202.15	.05
298.15	.0753	.2466	1365.15	.05
298.15	.0717	.2823	1369.44	.05
298.15	.0684	.3152	1373.43	.05
298.15	.0652	.3476	1377.72	.05
298.15	.2836	.0544	1080.37	.05
298.15	.2692	.1023	1123.42	.05
298.15	.2558	.1471	1164.25	.05
298.15	.243	.1897	1210.12	.05
298.15	.2336	.2214	1244.53	.05
298.15	.2235	.2549	1283.36	.05
298.15	.2137	.2874	1323.37	.05
298.15	.2059	.3136	1357.6	.05
298.15	.4776	.0446	1097.66	.05
298.15	.4572	.0856	1133.98	.05
298.15	.4375	.1248	1170.38	.05
298.15	.4195	.1609	1206.59	.05
298.15	.4044	.1911	1237.74	.05
298.15	.3884	.223	1272.77	.05
298.15	.3764	.2473	1301.47	.05
298.15	.362	.276	1335.65	.05
298.15	.672	.04	1117.1	.05
298.15	.6506	.0703	1143.78	.05
298.15	.6301	.0997	1169.4	.05
298.15	.6102	.1282	1197.52	.05
298.15	.5912	.1553	1224.66	.05
298.15	.5702	.1854	1256.59	.05
298.15	.5561	.2054	1278.18	.05
298.15	.541	.2271	1305.41	.05
298.15	.876	.0267	1124.67	.05
298.15	.8531	.0521	1146.18	.05
298.15	.8285	.0793	1171.03	.05
298.15	.8117	.0981	1188.62	.05
308.15	.0933	.0654	1059.74	.05
308.15	.0879	.1213	1110.13	.05
308.15	.0828	.1715	1159.07	.05
308.15	.0784	.2149	1204.71	.05
308.15	.2826	.0575	1078.97	.05
308.15	.2671	.1093	1124.88	.05
308.15	.2533	.1553	1169.36	.05
308.15	.2403	.1987	1214.44	.05
308.15	.4741	.0516	1098.9	.05
308.15	.4543	.0913	1134.07	.05
308.15	.434	.1319	1172.55	.05
308.15	.4157	.1686	1209.03	.05
298.15	.7878	.1245	1214.07	.05
298.15	.7738	.1402	1229.41	.05
298.15	.7551	.1608	1250.34	.05
298.15	.738	.1799	1270.89	.05
308.15	.0745	.2545	1250.7	.05
308.15	.071	.2903	1294.13	.05
308.15	.0676	.3235	1337.26	.05
308.15	.0646	.3537	1378.88	.05
308.15	.23	.2333	1253.3	.05
308.15	.2194	.2684	1294.04	.05
308.15	.2097	.3008	1335.25	.05
308.15	.2018	.3271	1369.43	.05
308.15	.3988	.2024	1245	.05
308.15	.3823	.2353	1282.48	.05
308.15	.369	.262	1313.91	.05
308.15	.3553	.2892	1347.62	.05
308.15	.6708	.0417	1113.09	.05
308.15	.645	.0785	1145.31	.05
308.15	.62	.1143	1178.64	.05
308.15	.5989	.1444	1208.48	.05
308.15	.8743	.0285	1119.68	.05
308.15	.85	.0555	1143.28	.05
308.15	.8216	.0869	1171.76	.05
308.15	.8052	.1053	1188.94	.05
308.15	.578	.1743	1239.38	.05
308.15	.5581	.2025	1269.02	.05
308.15	.5395	.2291	1298.91	.05
308.15	.5198	.2574	1332.38	.05
308.15	.7847	.128	1210.91	.05
308.15	.7572	.1587	1241.98	.05
308.15	.7456	.1715	1255.33	.05
308.15	.7277	.1914	1276.62	.05

System: 1,2-dihydroxyethane + water + cesium monobromide; phases: Liquid
Fixed: Pressure, kPa = 101
Property: Refractive index (Na D-line) (Liquid); method: Standard Abbe refractometry
Temperature, K	Mass fraction of 1,2-dihydroxyethane	Mass fraction of cesium monobromide	Refractive index (Na D-line)	uncertainty
288.15	.0941	.0587	1.34811	.00004
288.15	.0889	.1098	1.35258	.00004
288.15	.0843	.1564	1.35708	.00004
288.15	.0801	.1981	1.36109	.00004
288.15	.2846	.0512	1.36738	.00004
288.15	.2706	.0976	1.37124	.00004
288.15	.2579	.1401	1.37492	.00004
288.15	.2467	.1777	1.37853	.00004
288.15	.4789	.0421	1.38743	.00004
288.15	.4587	.0825	1.39056	.00004
288.15	.4402	.1194	1.39347	.00004
288.15	.4247	.1504	1.39602	.00004
288.15	.6748	.0359	1.40726	.00004
288.15	.6513	.0694	1.40965	.00004
288.15	.6294	.1007	1.41193	.00004
288.15	.609	.13	1.41427	.00004
288.15	.8751	.0276	1.42596	.00004
288.15	.8517	.0536	1.42773	.00004
288.15	.8289	.0788	1.42948	.00004
288.15	.8235	.0941	1.43122	.00004
288.15	.0764	.236	1.3656	.00004
288.15	.0729	.2707	1.36942	.00004
288.15	.0698	.3021	1.37312	.00004
288.15	.0669	.3309	1.37703	.00004
288.15	.2361	.2129	1.38191	.00004
288.15	.2264	.2449	1.38541	.00004
288.15	.2176	.2746	1.38859	.00004
288.15	.2092	.3022	1.39167	.00004
288.15	.409	.1819	1.39887	.00004
288.15	.3947	.2105	1.40147	.00004
288.15	.3816	.2366	1.40393	.00004
288.15	.369	.2618	1.40643	.00004
288.15	.5898	.1572	1.41645	.00004
288.15	.5718	.183	1.41856	.00004
288.15	.554	.2084	1.42078	.00004
288.15	.539	.2299	1.42283	.00004
288.15	.7874	.125	1.4328	.00004
288.15	.7684	.1461	1.43434	.00004
288.15	.7503	.1662	1.43599	.00004
288.15	.7324	.1861	1.43764	.00004
298.15	.0937	.0621	1.347	.00004
298.15	.0876	.1234	1.35248	.00004
298.15	.0831	.168	1.35682	.00004
298.15	.0792	.2077	1.3629	.00004
298.15	.0753	.2466	1.36515	.00004
298.15	.0717	.2823	1.36944	.00004
298.15	.0684	.3152	1.37343	.00004
298.15	.0652	.3476	1.37772	.00004
298.15	.2836	.0544	1.36564	.00004
298.15	.2692	.1023	1.36973	.00004
298.15	.2558	.1471	1.37253	.00004
298.15	.243	.1897	1.3778	.00004
298.15	.4776	.0446	1.38456	.00004
298.15	.4572	.0856	1.38804	.00004
298.15	.4375	.1248	1.39089	.00004
298.15	.4195	.1609	1.39419	.00004
298.15	.672	.04	1.40403	.00004
298.15	.6506	.0703	1.40618	.00004
298.15	.6301	.0997	1.40745	.00004
298.15	.6102	.1282	1.4104	.00004
298.15	.876	.0267	1.42267	.00004
298.15	.8531	.0521	1.42386	.00004
298.15	.8285	.0793	1.42613	.00004
298.15	.8117	.0981	1.42752	.00004
298.15	.2336	.2214	1.38091	.00004
298.15	.2235	.2549	1.38443	.00004
298.15	.2137	.2874	1.3881	.00004
298.15	.2059	.3136	1.39117	.00004
298.15	.4044	.1911	1.39681	.00004
298.15	.3884	.223	1.39975	.00004
298.15	.3764	.2473	1.40225	.00004
298.15	.362	.276	1.40495	.00004
298.15	.5912	.1553	1.41275	.00004
298.15	.5702	.1854	1.41525	.00004
298.15	.5561	.2054	1.4169	.00004
298.15	.541	.2271	1.41956	.00004
298.15	.7878	.1245	1.42958	.00004
298.15	.7738	.1402	1.43066	.00004
298.15	.7551	.1608	1.43216	.00004
298.15	.738	.1799	1.43384	.00004
308.15	.0933	.0654	1.34608	.00004
308.15	.0879	.1213	1.35107	.00004
308.15	.0828	.1715	1.35586	.00004
308.15	.0784	.2149	1.36024	.00004
308.15	.2826	.0575	1.36468	.00004
308.15	.2671	.1093	1.36889	.00004
308.15	.2533	.1553	1.37303	.00004
308.15	.2403	.1987	1.37719	.00004
308.15	.4741	.0516	1.38388	.00004
308.15	.4543	.0913	1.38703	.00004
308.15	.434	.1319	1.39044	.00004
308.15	.4157	.1686	1.39359	.00004
308.15	.0745	.2545	1.36476	.00004
308.15	.071	.2903	1.36893	.00004
308.15	.0676	.3235	1.37308	.00004
308.15	.0646	.3537	1.37704	.00004
308.15	.23	.2333	1.38077	.00004
308.15	.2194	.2684	1.3844	.00004
308.15	.2097	.3008	1.38818	.00004
308.15	.2018	.3271	1.39121	.00004
308.15	.3988	.2024	1.39666	.00004
308.15	.3823	.2353	1.39992	.00004
308.15	.369	.262	1.40249	.00004
308.15	.3553	.2892	1.40541	.00004
308.15	.6708	.0417	1.40297	.00004
308.15	.645	.0785	1.40545	.00004
308.15	.62	.1143	1.4082	.00004
308.15	.5989	.1444	1.41084	.00004
308.15	.8743	.0285	1.42065	.00004
308.15	.85	.0555	1.4227	.00004
308.15	.8216	.0869	1.42498	.00004
308.15	.8052	.1053	1.42632	.00004
308.15	.578	.1743	1.41341	.00004
308.15	.5581	.2025	1.41553	.00004
308.15	.5395	.2291	1.41798	.00004
308.15	.5198	.2574	1.42057	.00004
308.15	.7847	.128	1.428	.00004
308.15	.7572	.1587	1.43039	.00004
308.15	.7456	.1715	1.43133	.00004
308.15	.7277	.1914	1.433	.00004

System: 1,2-dihydroxyethane + water + cesium monobromide; phases: Liquid
Fixed: Pressure, kPa = 101
Property: Kinematic viscosity, m2/s (Liquid); method: Concentric cylinders viscometry
Temperature, K	Mass fraction of 1,2-dihydroxyethane	Mass fraction of cesium monobromide	Kinematic viscosity, m2/s	uncertainty
288.15	.0941	.0941	.0000019788	.000000008
288.15	.0889	.0889	.0000018593	.000000008
288.15	.0843	.0843	.0000017737	.000000008
288.15	.0801	.0801	.000001686	.000000008
288.15	.2846	.2846	.0000029515	.000000008
288.15	.2706	.2706	.0000027887	.000000008
288.15	.2579	.2579	.0000026275	.000000008
288.15	.2467	.2467	.0000024978	.000000008
288.15	.4789	.4789	.0000048048	.000000008
288.15	.4587	.4587	.0000045592	.000000008
288.15	.4402	.4402	.0000043803	.000000008
288.15	.4247	.4247	.0000041101	.000000008
288.15	.6748	.0359	.0000088485	.000000008
288.15	.6513	.0694	.0000084073	.000000008
288.15	.6294	.1007	.0000077904	.000000008
288.15	.609	.13	.0000076458	.000000008
288.15	.0764	.236	.0000016251	.000000008
288.15	.0729	.2707	.0000015589	.000000008
288.15	.0698	.3021	.0000015293	.000000008
288.15	.0669	.3309	.0000014847	.000000008
288.15	.2361	.2129	.0000023232	.000000008
288.15	.2264	.2449	.0000022449	.000000008
288.15	.2176	.2746	.0000021957	.000000008
288.15	.2092	.3022	.0000020719	.000000008
288.15	.409	.1819	.0000039477	.000000008
288.15	.3947	.2105	.0000037962	.000000008
288.15	.3816	.2366	.0000036331	.000000008
288.15	.369	.2618	.0000034693	.000000008
288.15	.5898	.1572	.0000074189	.000000008
288.15	.5718	.183	.0000070961	.000000008
288.15	.554	.2084	.0000069519	.000000008
288.15	.539	.2299	.0000067079	.000000008
298.15	.0937	.0621	.0000010477	.000000008
298.15	.0876	.1234	.0000009699	.000000008
298.15	.0831	.168	.0000009348	.000000008
298.15	.0792	.2077	.0000008826	.000000008
298.15	.0753	.2466	.0000008383	.000000008
298.15	.0717	.2823	.0000008128	.000000008
298.15	.0684	.3152	.0000007677	.000000008
298.15	.0652	.3476	.0000007334	.000000008
298.15	.2836	.0544	.0000016619	.000000008
298.15	.2692	.1023	.00000158	.000000008
298.15	.2558	.1471	.0000014529	.000000008
298.15	.243	.1897	.0000014298	.000000008
298.15	.4776	.0446	.0000028211	.000000008
298.15	.4572	.0856	.0000026483	.000000008
298.15	.4375	.1248	.000002523	.000000008
298.15	.4195	.1609	.000002447	.000000008
298.15	.672	.04	.0000049765	.000000008
298.15	.6506	.0703	.0000048187	.000000008
298.15	.6301	.0997	.0000044765	.000000008
298.15	.6102	.1282	.0000043455	.000000008
298.15	.2336	.2214	.0000013514	.000000008
298.15	.2235	.2549	.0000013191	.000000008
298.15	.2137	.2874	.0000012407	.000000008
298.15	.2059	.3136	.0000012254	.000000008
298.15	.4044	.1911	.0000023077	.000000008
298.15	.3884	.223	.000002186	.000000008
298.15	.3764	.2473	.0000021337	.000000008
298.15	.362	.276	.0000020425	.000000008
298.15	.5912	.1553	.0000041126	.000000008
298.15	.5702	.1854	.0000039535	.000000008
298.15	.5561	.2054	.0000039294	.000000008
298.15	.541	.2271	.0000038001	.000000008
308.15	.0933	.0654	.0000008416	.000000008
308.15	.0879	.1213	.0000007938	.000000008
308.15	.0828	.1715	.0000007486	.000000008
308.15	.0784	.2149	.0000007059	.000000008
308.15	.2826	.0575	.0000013148	.000000008
308.15	.2671	.1093	.0000012466	.000000008
308.15	.2533	.1553	.0000011778	.000000008
308.15	.2403	.1987	.0000011204	.000000008
308.15	.4741	.0516	.0000021484	.000000008
308.15	.4543	.0913	.0000020566	.000000008
308.15	.434	.1319	.0000019629	.000000008
308.15	.4157	.1686	.0000018754	.000000008
308.15	.0745	.2545	.0000006732	.000000008
308.15	.071	.2903	.00000066	.000000008
308.15	.0676	.3235	.0000006375	.000000008
308.15	.0646	.3537	.0000006152	.000000008
308.15	.23	.2333	.0000010768	.000000008
308.15	.2194	.2684	.0000010383	.000000008
308.15	.2097	.3008	.0000009996	.000000008
308.15	.2018	.3271	.000000971	.000000008
308.15	.3988	.2024	.000001817	.000000008
308.15	.3823	.2353	.0000016785	.000000008
308.15	.369	.262	.0000017039	.000000008
308.15	.3553	.2892	.0000015936	.000000008
308.15	.6708	.0417	.0000037385	.000000008
308.15	.645	.0785	.000003452	.000000008
308.15	.62	.1143	.0000033021	.000000008
308.15	.5989	.1444	.0000033504	.000000008
308.15	.578	.1743	.0000031987	.000000008
308.15	.5581	.2025	.000003091	.000000008
308.15	.5395	.2291	.0000029169	.000000008
308.15	.5198	.2574	.0000029033	.000000008

System: glycerol + water + cesium monobromide; phases: Liquid, Crystal
Fixed: Pressure, kPa = 101
Property: Mass density, kg/m3 (Liquid); method: Vibrating tube method
Temperature, K	Solvent: Mass fraction of glycerol	Mass density, kg/m3	uncertainty
288.15	0	1660.44	.05
288.15	.1	1635.26	.05
288.15	.2	1610.17	.05
288.15	.3	1585.43	.05
288.15	.3999	1561.17	.05
288.15	.5	1540.54	.05
288.15	.6	1517.76	.05
288.15	.7	1499.99	.05
288.15	.7999	1482.56	.05
288.15	.8999	1469.66	.05
288.15	1	1458.05	.05
298.15	0	1722.7	.05
298.15	.1	1692.18	.05
298.15	.2002	1664.04	.05
298.15	.3	1634.6	.05
298.15	.4	1610.95	.05
298.15	.4998	1581.78	.05
298.15	.6	1559.81	.05
298.15	.7	1537.42	.05
298.15	.7998	1512.78	.05
298.15	.9	1492.93	.05
298.15	1	1477.4	.05
308.15	0	1788.08	.05
308.15	.1001	1746.03	.05
308.15	.2	1713.68	.05
308.15	.3001	1689.09	.05
308.15	.4	1651.37	.05
308.15	.5	1627.53	.05
308.15	.5999	1604.24	.05
308.15	.7	1574.84	.05
308.15	.8	1545.29	.05
308.15	.9	1518.82	.05
308.15	1	1495.95	.05

System: glycerol + water + cesium monobromide; phases: Liquid, Crystal
Fixed: Pressure, kPa = 101
Property: Refractive index (Na D-line) (Liquid); method: Standard Abbe refractometry
Temperature, K	Solvent: Mass fraction of glycerol	Refractive index (Na D-line)	uncertainty
288.15	0	1.39955	.00004
288.15	.1	1.40462	.00004
288.15	.2	1.41019	.00004
288.15	.3	1.41697	.00004
288.15	.3999	1.42429	.00004
288.15	.5	1.43272	.00004
288.15	.6	1.4417	.00004
288.15	.7	1.45199	.00004
288.15	.7999	1.46266	.00004
288.15	.8999	1.47455	.00004
288.15	1	1.48661	.00004
298.15	0	1.40205	.00004
298.15	.1	1.40869	.00004
298.15	.2002	1.41388	.00004
298.15	.3	1.41988	.00004
298.15	.4	1.42641	.00004
298.15	.4998	1.43325	.00004
298.15	.6	1.441	.00004
298.15	.7	1.44983	.00004
298.15	.7998	1.46044	.00004
298.15	.9	1.47154	.00004
298.15	1	1.4834	.00004
308.15	0	1.40729	.00004
308.15	.1001	1.41095	.00004
308.15	.2	1.41654	.00004
308.15	.3001	1.42172	.00004
308.15	.4	1.42654	.00004
308.15	.5	1.43406	.00004
308.15	.5999	1.44174	.00004
308.15	.7	1.44873	.00004
308.15	.8	1.45788	.00004
308.15	.9	1.46776	.00004
308.15	1	1.4778	.00004

System: glycerol + water + cesium monobromide; phases: Liquid, Crystal
Fixed: Pressure, kPa = 101
Property: Mass fraction of cesium monobromide (Liquid); method: Titration method
Temperature, K	Solvent: Mass fraction of glycerol	Mass fraction of cesium monobromide	uncertainty
288.15	0	.5069	.0056
288.15	.1	.4897	.0056
288.15	.2	.466	.0056
288.15	.3	.4325	.0056
288.15	.3999	.4093	.0056
288.15	.5	.3829	.0056
288.15	.6	.3493	.0056
288.15	.7	.3182	.0056
288.15	.7999	.2791	.0056
288.15	.8999	.2515	.0056
288.15	1	.2113	.0056
298.15	0	.5515	.0056
298.15	.1	.5238	.0056
298.15	.2002	.5031	.0056
298.15	.3	.4707	.0056
298.15	.4	.4371	.0056
298.15	.4998	.4082	.0056
298.15	.6	.3712	.0056
298.15	.7	.3393	.0056
298.15	.7998	.3036	.0056
298.15	.9	.2685	.0056
298.15	1	.2287	.0056
308.15	0	.5856	.0056
308.15	.1001	.5632	.0056
308.15	.2	.5344	.0056
308.15	.3001	.4987	.0056
308.15	.4	.4627	.0056
308.15	.5	.4309	.0056
308.15	.5999	.4016	.0056
308.15	.7	.3662	.0056
308.15	.8	.324	.0056
308.15	.9	.287	.0056
308.15	1	.2462	.0056

System: glycerol + water + cesium monobromide; phases: Liquid
Fixed: Pressure, kPa = 101
Property: Refractive index (Na D-line) (Liquid); method: Standard Abbe refractometry
Temperature, K	Mass fraction of glycerol	Mass fraction of cesium monobromide	Refractive index (Na D-line)	uncertainty
288.15	.0941	.0586	1.35049	.00004
288.15	.0892	.1074	1.35484	.00004
288.15	.0845	.1547	1.35936	.00004
288.15	.0805	.1948	1.36345	.00004
288.15	.2845	.0517	1.37549	.00004
288.15	.2705	.0982	1.37941	.00004
288.15	.258	.14	1.38304	.00004
288.15	.2462	.1793	1.38667	.00004
288.15	.4771	.0456	1.40289	.00004
288.15	.4562	.0874	1.40607	.00004
288.15	.438	.1238	1.40881	.00004
288.15	.4172	.1655	1.41249	.00004
288.15	.6728	.0387	1.43114	.00004
288.15	.6484	.0736	1.43431	.00004
288.15	.6235	.1092	1.43674	.00004
288.15	.6025	.139	1.43903	.00004
288.15	.8727	.0302	1.46132	.00004
288.15	.8467	.0591	1.46209	.00004
288.15	.8225	.0858	1.46313	.00004
288.15	.7996	.1113	1.4657	.00004
288.15	.0765	.2341	1.36778	.00004
288.15	.0728	.2712	1.37207	.00004
288.15	.0702	.2973	1.37524	.00004
288.15	.0673	.3267	1.379	.00004
288.15	.2353	.2154	1.39046	.00004
288.15	.226	.2465	1.38384	.00004
288.15	.2167	.2772	1.39706	.00004
288.15	.2088	.3037	1.4	.00004
288.15	.404	.1919	1.41474	.00004
288.15	.3883	.2232	1.41752	.00004
288.15	.3754	.249	1.41993	.00004
288.15	.3621	.2756	1.42268	.00004
288.15	.5829	.1672	1.4411	.00004
288.15	.5647	.1931	1.44332	.00004
288.15	.543	.2242	1.44579	.00004
288.15	.5291	.244	1.44751	.00004
288.15	.778	.1353	1.46673	.00004
288.15	.7572	.1585	1.46773	.00004
288.15	.7384	.1794	1.46982	.00004
288.15	.7197	.2002	1.47137	.00004
298.15	.0936	.0625	1.34962	.00004
298.15	.0872	.1273	1.35546	.00004
298.15	.0831	.1691	1.35948	.00004
298.15	.0787	.2115	1.36417	.00004
298.15	.075	.2504	1.36813	.00004
298.15	.0713	.2872	1.37265	.00004
298.15	.0679	.3203	1.37656	.00004
298.15	.065	.3499	1.3806	.00004
298.15	.2812	.0626	1.37465	.00004
298.15	.2674	.1083	1.37857	.00004
298.15	.2544	.1519	1.38314	.00004
298.15	.2425	.1915	1.38624	.00004
298.15	.4757	.0485	1.39947	.00004
298.15	.4533	.0933	1.40326	.00004
298.15	.433	.134	1.40628	.00004
298.15	.4149	.17	1.40976	.00004
298.15	.6713	.0409	1.42958	.00004
298.15	.6441	.0797	1.43125	.00004
298.15	.6202	.1138	1.43471	.00004
298.15	.5985	.1448	1.43583	.00004
298.15	.8721	.0307	1.45918	.00004
298.15	.8442	.0619	1.45852	.00004
298.15	.8219	.0867	1.46026	.00004
298.15	.7963	.1151	1.46456	.00004
298.15	.2315	.2281	1.38982	.00004
298.15	.2216	.2611	1.39336	.00004
298.15	.2124	.2918	1.39676	.00004
298.15	.2039	.3203	1.40025	.00004
298.15	.3964	.207	1.41375	.00004
298.15	.3819	.236	1.41647	.00004
298.15	.368	.2639	1.41927	.00004
298.15	.3548	.2904	1.4221	.00004
298.15	.5772	.1753	1.43884	.00004
298.15	.5529	.2101	1.4409	.00004
298.15	.5366	.2333	1.44192	.00004
298.15	.5197	.2575	1.44338	.00004
298.15	.7743	.1396	1.46409	.00004
298.15	.7524	.1638	1.46557	.00004
298.15	.7355	.1826	1.46783	.00004
298.15	.7161	.2043	1.47014	.00004
308.15	.0932	.0678	1.34856	.00004
308.15	.0879	.1199	1.35317	.00004
308.15	.0828	.1727	1.3587	.00004
308.15	.0786	.2135	1.36263	.00004
308.15	.2812	.0625	1.37307	.00004
308.15	.2659	.1134	1.37736	.00004
308.15	.2511	.1626	1.38091	.00004
308.15	.2397	.201	1.38512	.00004
308.15	.4725	.0549	1.3984	.00004
308.15	.449	.1018	1.40169	.00004
308.15	.4267	.1464	1.40665	.00004
308.15	.4088	.1822	1.40964	.00004
308.15	.0743	.2556	1.36719	.00004
308.15	.0705	.2943	1.37186	.00004
308.15	.0675	.324	1.37565	.00004
308.15	.0642	.358	1.38024	.00004
308.15	.2269	.2435	1.38925	.00004
308.15	.2183	.272	1.39245	.00004
308.15	.2087	.3044	1.39567	.00004
308.15	.2001	.3329	1.39956	.00004
308.15	.391	.218	1.41282	.00004
308.15	.3742	.2513	1.41611	.00004
308.15	.3585	.2829	1.41935	.00004
308.15	.3436	.3126	1.42225	.00004
308.15	.6695	.0434	1.42608	.00004
308.15	.6421	.0826	1.42891	.00004
308.15	.6158	.1201	1.43091	.00004
308.15	.5879	.1601	1.43661	.00004
308.15	.8691	.0339	1.4563	.00004
308.15	.8484	.0572	1.45858	.00004
308.15	.8132	.0964	1.46043	.00004
308.15	.7871	.1254	1.46242	.00004
308.15	.5684	.1878	1.43826	.00004
308.15	.5466	.2189	1.44072	.00004
308.15	.5304	.2421	1.44304	.00004
308.15	.5117	.2688	1.44489	.00004
308.15	.7614	.1539	1.46353	.00004
308.15	.7368	.1812	1.46552	.00004
308.15	.7136	.207	1.46636	.00004
308.15	.6991	.2231	1.46773	.00004

System: glycerol + water + cesium monobromide; phases: Liquid
Fixed: Pressure, kPa = 101
Property: Mass density, kg/m3 (Liquid); method: Vibrating tube method
Temperature, K	Mass fraction of glycerol	Mass fraction of cesium monobromide	Mass density, kg/m3	uncertainty
288.15	.0941	.0586	1079.14	.05
288.15	.0892	.1074	1115.87	.05
288.15	.0845	.1547	1161.81	.05
288.15	.0805	.1948	1203.38	.05
288.15	.2845	.0517	1118.05	.05
288.15	.2705	.0982	1159.72	.05
288.15	.258	.14	1200.35	.05
288.15	.2462	.1793	1240.53	.05
288.15	.4771	.0456	1169.71	.05
288.15	.4562	.0874	1205.82	.05
288.15	.438	.1238	1240.93	.05
288.15	.4172	.1655	1283.89	.05
288.15	.6728	.0387	1216.47	.05
288.15	.6484	.0736	1250.01	.05
288.15	.6235	.1092	1283.29	.05
288.15	.6025	.139	1312.86	.05
288.15	.8727	.0302	1264.6	.05
288.15	.8467	.0591	1289.33	.05
288.15	.8225	.0858	1314.11	.05
288.15	.7996	.1113	1341.1	.05
288.15	.0765	.2341	1247.26	.05
288.15	.0728	.2712	1292.07	.05
288.15	.0702	.2973	1324.71	.05
288.15	.0673	.3267	1364.09	.05
288.15	.2353	.2154	1280.08	.05
288.15	.226	.2465	1316.08	.05
288.15	.2167	.2772	1354.86	.05
288.15	.2088	.3037	1389.73	.05
288.15	.404	.1919	1311.76	.05
288.15	.3883	.2232	1347.34	.05
288.15	.3754	.249	1378.06	.05
288.15	.3621	.2756	1411.1	.05
288.15	.5829	.1672	1344.25	.05
288.15	.5647	.1931	1372.88	.05
288.15	.543	.2242	1409.06	.05
288.15	.5291	.244	1432.98	.05
288.15	.778	.1353	1364.85	.05
288.15	.7572	.1585	1388.57	.05
288.15	.7384	.1794	1412.82	.05
288.15	.7197	.2002	1436.62	.05
298.15	.0936	.075	1072.23	.05
298.15	.0872	.0713	1131.22	.05
298.15	.0831	.0679	1172.64	.05
298.15	.0787	.065	1218.57	.05
298.15	.075	.2504	1261.83	.05
298.15	.0713	.2872	1306.73	.05
298.15	.0679	.3203	1350.12	.05
298.15	.065	.3499	1392.02	.05
298.15	.2812	.0626	1121.93	.05
298.15	.2674	.1083	1165.12	.05
298.15	.2544	.1519	1205.81	.05
298.15	.2425	.1915	1249.52	.05
298.15	.4757	.0485	1161.96	.05
298.15	.4533	.0933	1203.63	.05
298.15	.433	.134	1242.68	.05
298.15	.4149	.17	1280.89	.05
298.15	.6713	.0409	1213.42	.05
298.15	.6441	.0797	1247.81	.05
298.15	.6202	.1138	1282.22	.05
298.15	.5985	.1448	1311.31	.05
298.15	.8721	.0307	1258.89	.05
298.15	.8442	.0619	1283	.05
298.15	.8219	.0867	1307.25	.05
298.15	.7963	.1151	1340.01	.05
298.15	.2315	.2281	1290.21	.05
298.15	.2216	.2611	1329.34	.05
298.15	.2124	.2918	1368.32	.05
298.15	.2039	.3203	1405.66	.05
298.15	.3964	.207	1322.7	.05
298.15	.3819	.236	1356.25	.05
298.15	.368	.2639	1390.72	.05
298.15	.3548	.2904	1424.97	.05
298.15	.5772	.1753	1344.56	.05
298.15	.5529	.2101	1382.69	.05
298.15	.5366	.2333	1407.76	.05
298.15	.5197	.2575	1436.04	.05
298.15	.7743	.1396	1361.3	.05
298.15	.7524	.1638	1386.5	.05
298.15	.7355	.1826	1409.37	.05
298.15	.7161	.2043	1435.53	.05
308.15	.0932	.0678	1073.36	.05
308.15	.0879	.1199	1120.37	.05
308.15	.0828	.1727	1171.53	.05
308.15	.0786	.2135	1214.6	.05
308.15	.2812	.0625	1119.02	.05
308.15	.2659	.1134	1165.69	.05
308.15	.2511	.1626	1211.99	.05
308.15	.2397	.201	1254.46	.05
308.15	.4725	.0549	1163.14	.05
308.15	.449	.1018	1204.98	.05
308.15	.4267	.1464	1252.07	.05
308.15	.4088	.1822	1289.59	.05
308.15	.0743	.2556	1263.51	.05
308.15	.0705	.2943	1310.46	.05
308.15	.0675	.324	1349.06	.05
308.15	.0642	.358	1396.54	.05
308.15	.2269	.2435	1301.12	.05
308.15	.2183	.272	1335.58	.05
308.15	.2087	.3044	1376.63	.05
308.15	.2001	.3329	1416.77	.05
308.15	.391	.218	1329.24	.05
308.15	.3742	.2513	1368.78	.05
308.15	.3585	.2829	1408.38	.05
308.15	.3436	.3126	1446.51	.05
308.15	.6695	.0434	1205.78	.05
308.15	.6421	.0826	1241.92	.05
308.15	.6158	.1201	1276.82	.05
308.15	.5879	.1601	1323.68	.05
308.15	.8691	.0339	1253.03	.05
308.15	.8484	.0572	1284.09	.05
308.15	.8132	.0964	1312.28	.05
308.15	.7871	.1254	1341.65	.05
308.15	.5684	.1878	1352.21	.05
308.15	.5466	.2189	1387.84	.05
308.15	.5304	.2421	1415.69	.05
308.15	.5117	.2688	1447.53	.05
308.15	.7614	.1539	1369.72	.05
308.15	.7368	.1812	1399.84	.05
308.15	.7136	.207	1427.35	.05
308.15	.6991	.2231	1445.87	.05

System: glycerol + water + cesium monobromide; phases: Liquid
Fixed: Pressure, kPa = 101
Property: Kinematic viscosity, m2/s (Liquid); method: Concentric cylinders viscometry
Temperature, K	Mass fraction of glycerol	Mass fraction of cesium monobromide	Kinematic viscosity, m2/s	uncertainty
288.15	.0941	.0586	.0000014249	.000000008
288.15	.0892	.1074	.0000012674	.000000008
288.15	.0845	.1547	.0000011929	.000000008
288.15	.0805	.1948	.0000011376	.000000008
288.15	.2845	.0517	.0000033196	.000000008
288.15	.2705	.0982	.0000030707	.000000008
288.15	.258	.14	.0000028607	.000000008
288.15	.2462	.1793	.0000027593	.000000008
288.15	.4771	.0456	.0000074669	.000000008
288.15	.4562	.0874	.0000072935	.000000008
288.15	.438	.1238	.0000064478	.000000008
288.15	.4172	.1655	.0000060297	.000000008
288.15	.6728	.0387	.0000259174	.000000008
288.15	.6484	.0736	.000024724	.000000008
288.15	.6235	.1092	.0000218927	.000000008
288.15	.6025	.139	.000021614	.000000008
288.15	.0765	.2341	.0000010749	.000000008
288.15	.0728	.2712	.000000998	.000000008
288.15	.0702	.2973	.0000009847	.000000008
288.15	.0673	.3267	.0000009376	.000000008
288.15	.2353	.2154	.0000026	.000000008
288.15	.226	.2465	.0000025472	.000000008
288.15	.2167	.2772	.0000023463	.000000008
288.15	.2088	.3037	.000002273	.000000008
288.15	.404	.1919	.0000060693	.000000008
288.15	.3883	.2232	.000005691	.000000008
288.15	.3754	.249	.0000054732	.000000008
288.15	.3621	.2756	.0000050412	.000000008
288.15	.5829	.1672	.0000205116	.000000008
288.15	.5647	.1931	.000019848	.000000008
288.15	.543	.2242	.0000187258	.000000008
288.15	.5291	.244	.0000171338	.000000008
298.15	.0936	.0625	.0000010187	.000000008
298.15	.0872	.1273	.000000967	.000000008
298.15	.0831	.1691	.0000008908	.000000008
298.15	.0787	.2115	.0000008439	.000000008
298.15	.075	.2504	.0000010811	.000000008
298.15	.0713	.2872	.0000007672	.000000008
298.15	.0679	.3203	.0000007562	.000000008
298.15	.065	.3499	.0000007132	.000000008
298.15	.2812	.0626	.0000017923	.000000008
298.15	.2674	.1083	.0000017084	.000000008
298.15	.2544	.1519	.0000016191	.000000008
298.15	.2425	.1915	.0000014913	.000000008
298.15	.4757	.0485	.0000038932	.000000008
298.15	.4533	.0933	.000003742	.000000008
298.15	.433	.134	.00000335	.000000008
298.15	.4149	.17	.0000032925	.000000008
298.15	.6713	.0409	.0000168593	.000000008
298.15	.6441	.0797	.0000154534	.000000008
298.15	.6202	.1138	.0000150939	.000000008
298.15	.5985	.1448	.0000132558	.000000008
298.15	.2315	.2281	.0000014331	.000000008
298.15	.2216	.2611	.0000014658	.000000008
298.15	.2124	.2918	.0000013094	.000000008
298.15	.2039	.3203	.0000012788	.000000008
298.15	.3964	.207	.000003095	.000000008
298.15	.3819	.236	.0000030477	.000000008
298.15	.368	.2639	.0000029492	.000000008
298.15	.3548	.2904	.0000027974	.000000008
298.15	.5772	.1753	.0000127703	.000000008
298.15	.5529	.2101	.0000117887	.000000008
298.15	.5366	.2333	.0000108066	.000000008
298.15	.5197	.2575	.0000101442	.000000008
308.15	.0932	.0678	.0000008471	.000000008
308.15	.0879	.1199	.0000008013	.000000008
308.15	.0828	.1727	.0000008226	.000000008
308.15	.0786	.2135	.000000728	.000000008
308.15	.2812	.0625	.0000014392	.000000008
308.15	.2659	.1134	.0000013554	.000000008
308.15	.2511	.1626	.0000012485	.000000008
308.15	.2397	.201	.0000012128	.000000008
308.15	.4725	.0549	.000002892	.000000008
308.15	.449	.1018	.0000026805	.000000008
308.15	.4267	.1464	.0000026648	.000000008
308.15	.4088	.1822	.0000025546	.000000008
308.15	.0743	.2556	.0000006828	.000000008
308.15	.0705	.2943	.0000006626	.000000008
308.15	.0675	.324	.0000006457	.000000008
308.15	.0642	.358	.000000627	.000000008
308.15	.2269	.2435	.0000011507	.000000008
308.15	.2183	.272	.000001114	.000000008
308.15	.2087	.3044	.0000010664	.000000008
308.15	.2001	.3329	.0000010403	.000000008
308.15	.391	.218	.0000023966	.000000008
308.15	.3742	.2513	.0000023077	.000000008
308.15	.3585	.2829	.0000022171	.000000008
308.15	.3436	.3126	.0000021408	.000000008
308.15	.6695	.0434	.0000101113	.000000008
308.15	.6421	.0826	.0000099639	.000000008
308.15	.6158	.1201	.0000088191	.000000008
308.15	.5879	.1601	.0000087187	.000000008
308.15	.5684	.1878	.0000086048	.000000008
308.15	.5466	.2189	.0000081153	.000000008
308.15	.5304	.2421	.000008015	.000000008
308.15	.5117	.2688	.0000075971	.000000008

System: water + cesium monobromide; phases: Liquid, Crystal
Property: Refractive index (Na D-line) (Liquid); method: Standard Abbe refractometry
Temperature, K	Pressure, kPa	Refractive index (Na D-line)	uncertainty
288.15	101	1.39955	.0004
298.15	101	1.40425	.0004
308.15	101	1.40729	.0004
298.15	101	1.40205	.0004

System: water + cesium monobromide; phases: Liquid, Crystal
Property: Mass fraction of cesium monobromide (Liquid); method: Titration method
Temperature, K	Pressure, kPa	Mass fraction of cesium monobromide	uncertainty
288.15	101	.5069	.0056
298.15	101	.5515	.0056
308.15	101	.5856	.0056

System: water + cesium monobromide; phases: Liquid, Crystal
Property: Mass density, kg/m3 (Liquid); method: Vibrating tube method
Temperature, K	Pressure, kPa	Mass density, kg/m3	uncertainty
288.15	101	1660.44	.05
298.15	101	1722.7	.05
308.15	101	1788.08	.05

System: 1,2-dihydroxypropane + cesium monobromide; phases: Liquid, Crystal
Property: Refractive index (Na D-line) (Liquid); method: Standard Abbe refractometry
Temperature, K	Pressure, kPa	Refractive index (Na D-line)	uncertainty
288.15	101	1.43828	.0004
298.15	101	1.43593	.0004
308.15	101	1.43294	.0004

System: 1,2-dihydroxypropane + cesium monobromide; phases: Liquid, Crystal
Property: Mass fraction of cesium monobromide (Liquid); method: Titration method
Temperature, K	Pressure, kPa	Mass fraction of cesium monobromide	uncertainty
288.15	101	.0703	.0056
298.15	101	.0874	.0056
308.15	101	.1029	.0056

System: 1,2-dihydroxypropane + cesium monobromide; phases: Liquid, Crystal
Property: Mass density, kg/m3 (Liquid); method: Vibrating tube method
Temperature, K	Pressure, kPa	Mass density, kg/m3	uncertainty
288.15	101	1090.95	.05
298.15	101	1094.83	.05
308.15	101	1101.9	.05

System: 1,2-dihydroxyethane + cesium monobromide; phases: Liquid, Crystal
Property: Refractive index (Na D-line) (Liquid); method: Standard Abbe refractometry
Temperature, K	Pressure, kPa	Refractive index (Na D-line)	uncertainty
288.15	101	1.44477	.00004
298.15	101	1.44031	.00004
308.15	101	1.44169	.00004

System: 1,2-dihydroxyethane + cesium monobromide; phases: Liquid, Crystal
Property: Mass fraction of cesium monobromide (Liquid); method: Titration method
Temperature, K	Pressure, kPa	Mass fraction of cesium monobromide	uncertainty
288.15	101	.1669	.0056
298.15	101	.1833	.0056
308.15	101	.1992	.0056

System: 1,2-dihydroxyethane + cesium monobromide; phases: Liquid, Crystal
Property: Mass density, kg/m3 (Liquid); method: Vibrating tube method
Temperature, K	Pressure, kPa	Mass density, kg/m3	uncertainty
288.15	101	1273.78	.05
298.15	101	1292.63	.05
308.15	101	1295.02	.05

System: glycerol + cesium monobromide; phases: Liquid, Crystal
Property: Refractive index (Na D-line) (Liquid); method: Standard Abbe refractometry
Temperature, K	Pressure, kPa	Refractive index (Na D-line)	uncertainty
288.15	101	1.48661	.00004
298.15	101	1.4834	.00004
308.15	101	1.4778	.00004

System: glycerol + cesium monobromide; phases: Liquid, Crystal
Property: Mass fraction of cesium monobromide (Liquid); method: Titration method
Temperature, K	Pressure, kPa	Mass fraction of cesium monobromide	uncertainty
288.15	101	.2113	.0056
298.15	101	.2287	.0056
308.15	101	.2462	.0056

System: glycerol + cesium monobromide; phases: Liquid, Crystal
Property: Mass density, kg/m3 (Liquid); method: Vibrating tube method
Temperature, K	Pressure, kPa	Mass density, kg/m3	uncertainty
288.15	101	1458.05	.05
298.15	101	1477.4	.05
308.15	101	1495.95	.05
