Measured thermophysical data. A Thermodynamic Study of Micellization of 3-Alkyloxy-2-hydroxypropyl Trimethylammonium Chloride in Aqueous Solution
Source: J. Chem. Eng. Data, 2013, 10.1021/je301340h
Compound 1: 3-dodecyloxy-2-hydroxypropyltrimethylammonium chloride, C18H40ClNO2, purity 98%
Compound 2: 3-tetradecyloxy-2-hydroxypropyltrimethylammonium chloride, C20H44ClNO2, purity 98%
Compound 3: 3-hexadecyloxy-2-hydroxypropyltrimethylammonium chloride, C22H48ClNO2, purity 98%
Compound 4: water, H2O, purity 99.9%

System: water + 3-dodecyloxy-2-hydroxypropyltrimethylammonium chloride; phases: Liquid
Fixed: Pressure, kPa = 101
Property: Electrical conductivity, S/m (Liquid); method: DDS-308 conductivity meter using a DJS-1C Pt electrode
Temperature, K	Molality, mol/kg of 3-dodecyloxy-2-hydroxypropyltrimethylammonium chloride	Electrical conductivity, S/m	uncertainty
293.15	.0005423	9.5	.19
293.15	.0010705	18.23	.3646
293.15	.0016196	28	.56
293.15	.002149	36.9	.738
293.15	.0026899	45.4	.908
293.15	.003236	54.5	1.09
293.15	.003769	63.1	1.262
293.15	.0043114	71.9	1.438
293.15	.0048565	80.6	1.612
293.15	.005388	88.5	1.77
293.15	.0059315	96.2	1.924
293.15	.0064695	103.1	2.062
293.15	.0070119	110.1	2.202
293.15	.0075569	116.8	2.336
293.15	.0081014	123.6	2.472
293.15	.0086148	130	2.6
293.15	.0091216	135.9	2.718
293.15	.009572	141.2	2.824
298.15	.0005423	10.53	.2106
298.15	.0010705	20.8	.416
298.15	.0016196	31.9	.638
298.15	.002149	41.2	.824
298.15	.0026899	50.7	1.014
298.15	.003236	60.5	1.21
298.15	.003769	70.4	1.408
298.15	.0043114	80.5	1.61
298.15	.0048565	88.3	1.766
298.15	.005388	97.2	1.944
298.15	.0059315	105.4	2.108
298.15	.0064695	113.5	2.27
298.15	.0070119	120.9	2.418
298.15	.0075569	128.2	2.564
298.15	.0081014	135.1	2.702
298.15	.0086148	141.5	2.83
298.15	.0091216	147.4	2.948
298.15	.009572	153.1	3.062
303.15	.0005423	11.67	.2334
303.15	.0010705	22.8	.456
303.15	.0016196	33.9	.678
303.15	.002149	44.7	.894
303.15	.0026899	55.6	1.112
303.15	.003236	66	1.32
303.15	.003769	76.3	1.526
303.15	.0043114	86.5	1.73
303.15	.0048565	96.7	1.934
303.15	.005388	106	2.12
303.15	.0059315	115.2	2.304
303.15	.0064695	124.1	2.482
303.15	.0070119	132.2	2.644
303.15	.0075569	140	2.8
303.15	.0081014	147.8	2.956
303.15	.0086148	154.7	3.094
303.15	.0091216	161.5	3.23
303.15	.009572	167.6	3.352
308.15	.0005423	11.77	.2354
308.15	.0010705	24	.48
308.15	.0016196	35.6	.712
308.15	.002149	47.1	.942
308.15	.0026899	58.9	1.178
308.15	.003236	70.5	1.41
308.15	.003769	81.7	1.634
308.15	.0043114	93.3	1.866
308.15	.0048565	104.2	2.084
308.15	.005388	114.7	2.294
308.15	.0059315	124	2.48
308.15	.0064695	133.6	2.672
308.15	.0070119	142.8	2.856
308.15	.0075569	151.5	3.03
308.15	.0081014	160.2	3.204
308.15	.0086148	167.8	3.356
308.15	.0091216	175.1	3.502
308.15	.009572	181.8	3.636
313.15	.0005423	13.89	.2778
313.15	.0010705	27.4	.548
313.15	.0016196	40.7	.814
313.15	.002149	53.2	1.064
313.15	.0026899	65.6	1.312
313.15	.003236	78.7	1.574
313.15	.003769	90.3	1.806
313.15	.0043114	104.1	2.082
313.15	.0048565	115.5	2.31
313.15	.005388	126.9	2.538
313.15	.0059315	138.1	2.762
313.15	.0064695	146.8	2.936
313.15	.0070119	156.2	3.124
313.15	.0075569	166.3	3.326
313.15	.0081014	175.6	3.512
313.15	.0086148	184.3	3.686
313.15	.0091216	192.7	3.854
313.15	.009572	199.3	3.986
318.15	.0005423	14.93	.2986
318.15	.0010705	29.6	.592
318.15	.0016196	43.9	.878
318.15	.002149	57.9	1.158
318.15	.0026899	71.9	1.438
318.15	.003236	85.3	1.706
318.15	.003769	98.7	1.974
318.15	.0043114	112.2	2.244
318.15	.0048565	125.2	2.504
318.15	.005388	138.1	2.762
318.15	.0059315	150.3	3.006
318.15	.0064695	161.7	3.234
318.15	.0070119	172.8	3.456
318.15	.0075569	183.2	3.664
318.15	.0081014	193.4	3.868
318.15	.0086148	203.7	4.074
318.15	.0091216	212	4.24
318.15	.009572	220.1	4.402
323.15	.0005423	15.65	.313
323.15	.0010705	31.1	.622
323.15	.0016196	46.2	.924
323.15	.002149	61	1.22
323.15	.0026899	75.3	1.506
323.15	.003236	89.2	1.784
323.15	.003769	104.1	2.082
323.15	.0043114	118.6	2.372
323.15	.0048565	132.5	2.65
323.15	.005388	145.7	2.914
323.15	.0059315	160.4	3.208
323.15	.0064695	171	3.42
323.15	.0070119	181.5	3.63
323.15	.0075569	196.1	3.922
323.15	.0081014	207.5	4.15
323.15	.0086148	219.5	4.39
323.15	.0091216	228.5	4.57
323.15	.009572	237	4.74

System: water + 3-tetradecyloxy-2-hydroxypropyltrimethylammonium chloride; phases: Liquid
Fixed: Pressure, kPa = 101
Property: Electrical conductivity, S/m (Liquid); method: DDS-308 conductivity meter using a DJS-1C Pt electrode
Temperature, K	Molality, mol/kg of 3-tetradecyloxy-2-hydroxypropyltrimethylammonium chloride	Electrical conductivity, S/m	uncertainty
293.15	.0002506	3.18	.0636
293.15	.0004947	5.69	.1138
293.15	.0007484	8.32	.1664
293.15	.000993	10.92	.2184
293.15	.001243	13.63	.2726
293.15	.0014953	15.52	.3104
293.15	.0017416	17.11	.3422
293.15	.0019923	18.48	.3696
293.15	.0022441	20	.4
293.15	.0024897	21.3	.426
293.15	.0027409	22.6	.452
293.15	.0029895	23.9	.478
293.15	.003268	25.2	.504
298.15	.0002506	3.07	.0614
298.15	.0004947	5.92	.1184
298.15	.0007484	8.83	.1766
298.15	.000993	11.64	.2328
298.15	.001243	14.09	.2818
298.15	.0014953	16.36	.3272
298.15	.0017416	17.81	.3562
298.15	.0019923	20	.4
298.15	.0022441	21.5	.43
298.15	.0024897	22.9	.458
298.15	.0027409	24.4	.488
298.15	.0029895	25.8	.516
298.15	.003268	27.4	.548
303.15	.0002506	3.73	.0746
303.15	.0004947	6.96	.1392
303.15	.0007484	10.22	.2044
303.15	.000993	13.31	.2662
303.15	.001243	16.29	.3258
303.15	.0014953	18.49	.3698
303.15	.0017416	20.9	.418
303.15	.0019923	22.7	.454
303.15	.0022441	24.3	.486
303.15	.0024897	25.9	.518
303.15	.0027409	27.5	.55
303.15	.0029895	29.1	.582
303.15	.003268	30.8	.616
308.15	.0002506	3.87	.0774
308.15	.0004947	7.3	.146
308.15	.0007484	10.65	.213
308.15	.000993	13.92	.2784
308.15	.001243	17.23	.3446
308.15	.0014953	20.4	.408
308.15	.0017416	22.5	.45
308.15	.0019923	24.5	.49
308.15	.0022441	26.4	.528
308.15	.0024897	28.2	.564
308.15	.0027409	30	.6
308.15	.0029895	31.7	.634
308.15	.003268	33.6	.672
313.15	.0002506	4.32	.0864
313.15	.0004947	7.99	.1598
313.15	.0007484	11.66	.2332
313.15	.000993	15.28	.3056
313.15	.001243	19.5	.39
313.15	.0014953	22.3	.446
313.15	.0017416	24.8	.496
313.15	.0019923	27	.54
313.15	.0022441	29.1	.582
313.15	.0024897	31	.62
313.15	.0027409	32.9	.658
313.15	.0029895	35	.7
313.15	.003268	37	.74
318.15	.0002506	4.57	.0914
318.15	.0004947	8.59	.1718
318.15	.0007484	12.83	.2566
318.15	.000993	16.52	.3304
318.15	.001243	20.9	.418
318.15	.0014953	24.4	.488
318.15	.0017416	27	.54
318.15	.0019923	29.5	.59
318.15	.0022441	31.7	.634
318.15	.0024897	33.7	.674
318.15	.0027409	36	.72
318.15	.0029895	38.2	.764
318.15	.003268	40.4	.808
323.15	.0002506	5.18	.1036
323.15	.0004947	9.51	.1902
323.15	.0007484	14.01	.2802
323.15	.000993	18.93	.3786
323.15	.001243	23.7	.474
323.15	.0014953	27.8	.556
323.15	.0017416	30.7	.614
323.15	.0019923	33.4	.668
323.15	.0022441	35.7	.714
323.15	.0024897	37.9	.758
323.15	.0027409	40.7	.814
323.15	.0029895	42.8	.856
323.15	.003268	45.1	.902

System: 3-hexadecyloxy-2-hydroxypropyltrimethylammonium chloride + water; phases: Liquid
Fixed: Pressure, kPa = 101
Property: Electrical conductivity, S/m (Liquid); method: DDS-308 conductivity meter using a DJS-1C Pt electrode
Temperature, K	Amount concentration (molarity), mol/dm3 of 3-hexadecyloxy-2-hydroxypropyltrimethylammonium chloride	Electrical conductivity, S/m	uncertainty
293.15	.0000454	.711	.01422
293.15	.0000896	1.146	.02292
293.15	.0001357	1.604	.03208
293.15	.000178	2.02	.0404
293.15	.0002253	2.479	.04958
293.15	.0002711	2.879	.05758
293.15	.0003158	3.21	.0642
293.15	.0003612	3.54	.0708
293.15	.0004068	3.81	.0762
293.15	.0004515	4.01	.0802
293.15	.0004969	4.21	.0842
293.15	.000542	4.43	.0886
293.15	.0005925	4.67	.0934
293.15	.0006426	4.9	.098
293.15	.0006897	5.13	.1026
293.15	.000736	5.34	.1068
293.15	.0007768	5.51	.1102
298.15	.0000454	.755	.0151
298.15	.0000896	1.274	.02548
298.15	.0001357	1.83	.0366
298.15	.000178	2.28	.0456
298.15	.0002253	2.75	.055
298.15	.0002711	3.2	.064
298.15	.0003158	3.58	.0716
298.15	.0003612	3.96	.0792
298.15	.0004068	4.23	.0846
298.15	.0004515	4.51	.0902
298.15	.0004969	4.81	.0962
298.15	.000542	5.07	.1014
298.15	.0005925	5.32	.1064
298.15	.0006426	5.64	.1128
298.15	.0006897	5.87	.1174
298.15	.000736	6.09	.1218
298.15	.0007768	6.29	.1258
303.15	.0000454	.842	.01684
303.15	.0000896	1.405	.0281
303.15	.0001357	1.969	.03938
303.15	.000178	2.48	.0496
303.15	.0002253	3.01	.0602
303.15	.0002711	3.59	.0718
303.15	.0003158	4.1	.082
303.15	.0003612	4.53	.0906
303.15	.0004068	4.91	.0982
303.15	.0004515	5.23	.1046
303.15	.0004969	5.48	.1096
303.15	.000542	5.74	.1148
303.15	.0005925	6.02	.1204
303.15	.0006426	6.32	.1264
303.15	.0006897	6.6	.132
303.15	.000736	6.85	.137
303.15	.0007768	7.09	.1418
308.15	.0000454	.856	.01712
308.15	.0000896	1.382	.02764
308.15	.0001357	1.99	.0398
308.15	.000178	2.54	.0508
308.15	.0002253	3.1	.062
308.15	.0002711	3.65	.073
308.15	.0003158	4.2	.084
308.15	.0003612	4.75	.095
308.15	.0004068	5.21	.1042
308.15	.0004515	5.58	.1116
308.15	.0004969	5.91	.1182
308.15	.000542	6.23	.1246
308.15	.0005925	6.56	.1312
308.15	.0006426	6.87	.1374
308.15	.0006897	7.18	.1436
308.15	.000736	7.45	.149
308.15	.0007768	7.75	.155
313.15	.0000454	1.033	.02066
313.15	.0000896	1.673	.03346
313.15	.0001357	2.3	.046
313.15	.000178	2.94	.0588
313.15	.0002253	3.57	.0714
313.15	.0002711	4.2	.084
313.15	.0003158	4.79	.0958
313.15	.0003612	5.33	.1066
313.15	.0004068	5.76	.1152
313.15	.0004515	6.1	.122
313.15	.0004969	6.42	.1284
313.15	.000542	6.75	.135
313.15	.0005925	7.1	.142
313.15	.0006426	7.42	.1484
313.15	.0006897	7.75	.155
313.15	.000736	8.07	.1614
313.15	.0007768	8.38	.1676
318.15	.0000454	1.096	.02192
318.15	.0000896	1.751	.03502
318.15	.0001357	2.45	.049
318.15	.000178	3.08	.0616
318.15	.0002253	3.77	.0754
318.15	.0002711	4.41	.0882
318.15	.0003158	5.01	.1002
318.15	.0003612	5.61	.1122
318.15	.0004068	6.12	.1224
318.15	.0004515	6.6	.132
318.15	.0004969	6.97	.1394
318.15	.000542	7.38	.1476
318.15	.0005925	7.79	.1558
318.15	.0006426	8.18	.1636
318.15	.0006897	8.56	.1712
318.15	.000736	8.9	.178
318.15	.0007768	9.23	.1846
323.15	.0000454	1.212	.02424
323.15	.0000896	1.961	.03922
323.15	.0001357	2.62	.0524
323.15	.000178	3.337	.06674
323.15	.0002253	4.04	.0808
323.15	.0002711	4.72	.0944
323.15	.0003158	5.43	.1086
323.15	.0003612	6.09	.1218
323.15	.0004068	6.7	.134
323.15	.0004515	7.07	.1414
323.15	.0004969	7.5	.15
323.15	.000542	7.87	.1574
323.15	.0005925	8.3	.166
323.15	.0006426	8.75	.175
323.15	.0006897	9.17	.1834
323.15	.000736	9.57	.1914
323.15	.0007768	9.93	.1986
