Measured thermophysical data. Properties of New Asymmetrically Quaternized Dicationic Ammonium Based Room-Temperature Ionic Liquids with Ether Functionality
Source: J. Chem. Eng. Data, 2013, 10.1021/je300718x
Compound 1: N(1)-(2-ethoxyethyl)-N(1),N(1),N(3),N(3)-tetramethyl-N(3)-(3-phenylpropyl)propane-1,3-diaminium bromide, C20H38Br2N2O
Compound 2: N(1)-(2-ethoxyethyl)-N(3)-(2-(2-methoxyethoxy)ethyl)-N(1),N(1),N(3),N(3)-tetramethylpropane-1,3-diaminium bromide, C16H38Br2N2O3
Compound 3: N(1)-allyl-N(3)-(2-ethoxyethyl)-N(1),N(1),N(3),N(3)-tetramethylpropane-1,3-diaminium bromide, C14H32Br2N2O
Compound 4: N(1)-(2-ethoxyethyl)-N(1),N(1),N(3),N(3)-tetramethyl-N(3)-pentylpropane-1,3-diaminium bromide, C16H38Br2N2O
Compound 5: N-(2-(2-(dimethyl(propyl)ammonio)ethoxy)ethyl)-N,N-dimethylpentan-1-aminium bromide, C16H38Br2N2O
Compound 6: N-(8,8-dimethyl-2,5,11-trioxa-8-azatridecan-8-ium-13-yl)-N,N-dimethylpentan-1-aminium bromide, C18H42Br2N2O3
Compound 7: N-(2-(2-((2-ethoxyethyl)dimethylammonio)ethoxy)ethyl)-N,N-dimethylpentan-1-aminium bromide, C17H40Br2N2O2
Compound 8: N-(2-(2-(allyldimethylammonio)ethoxy)ethyl)-N,N-dimethylpentan-1-aminium bromide, C16H36Br2N2O
Compound 9: N-(2-(2-(dimethyl(3-phenylpropyl)ammonio)ethoxy)ethyl)-N,N-dimethylpentan-1-aminium bromide, C22H42Br2N2O
Compound 10: N-(2-(2-((2-ethoxyethyl)dimethylammonio)ethoxy)ethyl)-N,N-dimethylpropan-1-aminium bromide, C15H36Br2N2O2
Compound 11: N-(8,8-dimethyl-2,5,11-trioxa-8-azatridecan-8-ium-13-yl)-N,N-dimethylpropan-1-aminium bromide, C16H38Br2N2O3
Compound 12: N(1)-(2-ethoxyethyl)-N(1),N(1),N(3),N(3)-tetramethyl-N(3)-(3-phenylpropyl)propane-1,3-diaminium bis((trifluoromethyl)sulfonyl)amide, C24H38F12N4O9S4
Compound 13: N(1)-(2-ethoxyethyl)-N(3)-(2-(2-methoxyethoxy)ethyl)-N(1),N(1),N(3),N(3)-tetramethylpropane-1,3-diaminium bis((trifluoromethyl)sulfonyl)amide, C20H38F12N4O11S4
Compound 14: N(1)-allyl-N(3)-(2-ethoxyethyl)-N(1),N(1),N(3),N(3)-tetramethylpropane-1,3-diaminium bis((trifluoromethyl)sulfonyl)amide, C18H32F12N4O9S4
Compound 15: N(1)-(2-ethoxyethyl)-N(1),N(1),N(3),N(3)-tetramethyl-N(3)-pentylpropane-1,3-diaminium bis((trifluoromethyl)sulfonyl)amide, C20H38F12N4O9S4
Compound 16: N-(2-(2-(dimethyl(propyl)ammonio)ethoxy)ethyl)-N,N-dimethylpentan-1-aminium bis((trifluoromethyl)sulfonyl)amide, C20H38F12N4O9S4
Compound 17: N-(8,8-dimethyl-2,5,11-trioxa-8-azatridecan-8-ium-13-yl)-N,N-dimethylpentan-1-aminium bis((trifluoromethyl)sulfonyl)amide, C22H42F12N4O11S4
Compound 18: N-(2-(2-((2-ethoxyethyl)dimethylammonio)ethoxy)ethyl)-N,N-dimethylpentan-1-aminium bis((trifluoromethyl)sulfonyl)amide, C21H40F12N4O10S4
Compound 19: N-(2-(2-(allyldimethylammonio)ethoxy)ethyl)-N,N-dimethylpentan-1-aminium bis((trifluoromethyl)sulfonyl)amide, C20H36F12N4O9S4
Compound 20: N-(2-(2-(dimethyl(3-phenylpropyl)ammonio)ethoxy)ethyl)-N,N-dimethylpentan-1-aminium bis((trifluoromethyl)sulfonyl)amide, C26H42F12N4O9S4
Compound 21: N-(2-(2-((2-ethoxyethyl)dimethylammonio)ethoxy)ethyl)-N,N-dimethylpropan-1-aminium bis((trifluoromethyl)sulfonyl)amide, C19H36F12N4O10S4
Compound 22: N-(8,8-dimethyl-2,5,11-trioxa-8-azatridecan-8-ium-13-yl)-N,N-dimethylpropan-1-aminium bis((trifluoromethyl)sulfonyl)amide, C20H38F12N4O11S4

System: N(1)-(2-ethoxyethyl)-N(1),N(1),N(3),N(3)-tetramethyl-N(3)-(3-phenylpropyl)propane-1,3-diaminium bromide; phases: Glass, Liquid, Air at 1 atmosphere
Property: Triple point temperature, K (Glass); method: DSC/DTA
Triple point temperature, K	uncertainty
282.55	1

System: N(1)-(2-ethoxyethyl)-N(3)-(2-(2-methoxyethoxy)ethyl)-N(1),N(1),N(3),N(3)-tetramethylpropane-1,3-diaminium bromide; phases: Glass, Liquid, Air at 1 atmosphere
Property: Triple point temperature, K (Glass); method: DSC/DTA
Triple point temperature, K	uncertainty
268.05	1

System: N(1)-allyl-N(3)-(2-ethoxyethyl)-N(1),N(1),N(3),N(3)-tetramethylpropane-1,3-diaminium bromide; phases: Glass, Liquid, Air at 1 atmosphere
Property: Triple point temperature, K (Glass); method: DSC/DTA
Triple point temperature, K	uncertainty
269.95	1

System: N(1)-(2-ethoxyethyl)-N(1),N(1),N(3),N(3)-tetramethyl-N(3)-pentylpropane-1,3-diaminium bromide; phases: Crystal 2, Crystal 1, Air at 1 atmosphere
Property: Triple point temperature, K (Crystal 2); method: DSC/DTA
Triple point temperature, K	uncertainty
250.55	1

System: N(1)-(2-ethoxyethyl)-N(1),N(1),N(3),N(3)-tetramethyl-N(3)-pentylpropane-1,3-diaminium bromide; phases: Crystal 2, Crystal 1, Air at 1 atmosphere
Property: Molar enthalpy of transition or fusion, kJ/mol (Crystal 2); method: DSC/DTA
Molar enthalpy of transition or fusion, kJ/mol	uncertainty
31.7	

System: N-(2-(2-(dimethyl(propyl)ammonio)ethoxy)ethyl)-N,N-dimethylpentan-1-aminium bromide; phases: Crystal, Liquid, Air at 1 atmosphere
Property: Triple point temperature, K (Crystal); method: DSC/DTA
Triple point temperature, K	uncertainty
456.95	1

System: N-(2-(2-(dimethyl(propyl)ammonio)ethoxy)ethyl)-N,N-dimethylpentan-1-aminium bromide; phases: Crystal, Liquid, Air at 1 atmosphere
Property: Molar enthalpy of transition or fusion, kJ/mol (Crystal); method: DSC/DTA
Molar enthalpy of transition or fusion, kJ/mol	uncertainty
27.1	

System: N-(8,8-dimethyl-2,5,11-trioxa-8-azatridecan-8-ium-13-yl)-N,N-dimethylpentan-1-aminium bromide; phases: Crystal, Liquid, Air at 1 atmosphere
Property: Triple point temperature, K (Crystal); method: DSC/DTA
Triple point temperature, K	uncertainty
450.95	1

System: N-(8,8-dimethyl-2,5,11-trioxa-8-azatridecan-8-ium-13-yl)-N,N-dimethylpentan-1-aminium bromide; phases: Crystal, Liquid, Air at 1 atmosphere
Property: Molar enthalpy of transition or fusion, kJ/mol (Crystal); method: DSC/DTA
Molar enthalpy of transition or fusion, kJ/mol	uncertainty
21.2	

System: N-(2-(2-((2-ethoxyethyl)dimethylammonio)ethoxy)ethyl)-N,N-dimethylpentan-1-aminium bromide; phases: Crystal 2, Crystal 1, Air at 1 atmosphere
Property: Triple point temperature, K (Crystal 2); method: DSC/DTA
Triple point temperature, K	uncertainty
250.45	1

System: N-(2-(2-((2-ethoxyethyl)dimethylammonio)ethoxy)ethyl)-N,N-dimethylpentan-1-aminium bromide; phases: Crystal 1, Liquid, Air at 1 atmosphere
Property: Triple point temperature, K (Crystal 1); method: DSC/DTA
Triple point temperature, K	uncertainty
457.85	1

System: N-(2-(2-((2-ethoxyethyl)dimethylammonio)ethoxy)ethyl)-N,N-dimethylpentan-1-aminium bromide; phases: Crystal 2, Crystal 1, Air at 1 atmosphere
Property: Molar enthalpy of transition or fusion, kJ/mol (Crystal 2); method: DSC/DTA
Molar enthalpy of transition or fusion, kJ/mol	uncertainty
11.3	

System: N-(2-(2-((2-ethoxyethyl)dimethylammonio)ethoxy)ethyl)-N,N-dimethylpentan-1-aminium bromide; phases: Crystal 1, Liquid, Air at 1 atmosphere
Property: Molar enthalpy of transition or fusion, kJ/mol (Crystal 1); method: DSC/DTA
Molar enthalpy of transition or fusion, kJ/mol	uncertainty
19.7	

System: N-(2-(2-(allyldimethylammonio)ethoxy)ethyl)-N,N-dimethylpentan-1-aminium bromide; phases: Crystal, Liquid, Air at 1 atmosphere
Property: Triple point temperature, K (Crystal); method: DSC/DTA
Triple point temperature, K	uncertainty
435.95	1

System: N-(2-(2-(allyldimethylammonio)ethoxy)ethyl)-N,N-dimethylpentan-1-aminium bromide; phases: Crystal, Liquid, Air at 1 atmosphere
Property: Molar enthalpy of transition or fusion, kJ/mol (Crystal); method: DSC/DTA
Molar enthalpy of transition or fusion, kJ/mol	uncertainty
20.2	

System: N-(2-(2-(dimethyl(3-phenylpropyl)ammonio)ethoxy)ethyl)-N,N-dimethylpentan-1-aminium bromide; phases: Crystal, Liquid, Air at 1 atmosphere
Property: Triple point temperature, K (Crystal); method: DSC/DTA
Triple point temperature, K	uncertainty
445.05	1

System: N-(2-(2-(dimethyl(3-phenylpropyl)ammonio)ethoxy)ethyl)-N,N-dimethylpentan-1-aminium bromide; phases: Crystal, Liquid, Air at 1 atmosphere
Property: Molar enthalpy of transition or fusion, kJ/mol (Crystal); method: DSC/DTA
Molar enthalpy of transition or fusion, kJ/mol	uncertainty
20.7	

System: N-(2-(2-((2-ethoxyethyl)dimethylammonio)ethoxy)ethyl)-N,N-dimethylpropan-1-aminium bromide; phases: Crystal, Liquid, Air at 1 atmosphere
Property: Triple point temperature, K (Crystal); method: DSC/DTA
Triple point temperature, K	uncertainty
453.45	1

System: N-(2-(2-((2-ethoxyethyl)dimethylammonio)ethoxy)ethyl)-N,N-dimethylpropan-1-aminium bromide; phases: Crystal, Liquid, Air at 1 atmosphere
Property: Molar enthalpy of transition or fusion, kJ/mol (Crystal); method: DSC/DTA
Molar enthalpy of transition or fusion, kJ/mol	uncertainty
20.1	

System: N-(8,8-dimethyl-2,5,11-trioxa-8-azatridecan-8-ium-13-yl)-N,N-dimethylpropan-1-aminium bromide; phases: Crystal, Liquid, Air at 1 atmosphere
Property: Triple point temperature, K (Crystal); method: DSC/DTA
Triple point temperature, K	uncertainty
421.25	1

System: N-(8,8-dimethyl-2,5,11-trioxa-8-azatridecan-8-ium-13-yl)-N,N-dimethylpropan-1-aminium bromide; phases: Crystal, Liquid, Air at 1 atmosphere
Property: Molar enthalpy of transition or fusion, kJ/mol (Crystal); method: DSC/DTA
Molar enthalpy of transition or fusion, kJ/mol	uncertainty
19.7	

System: N(1)-(2-ethoxyethyl)-N(1),N(1),N(3),N(3)-tetramethyl-N(3)-(3-phenylpropyl)propane-1,3-diaminium bis((trifluoromethyl)sulfonyl)amide; phases: Glass, Liquid, Air at 1 atmosphere
Property: Triple point temperature, K (Glass); method: DSC/DTA
Triple point temperature, K	uncertainty
229.75	1

System: N(1)-(2-ethoxyethyl)-N(1),N(1),N(3),N(3)-tetramethyl-N(3)-(3-phenylpropyl)propane-1,3-diaminium bis((trifluoromethyl)sulfonyl)amide; phases: Liquid
Fixed: Pressure, kPa = 101.325
Property: Viscosity, Pa*s (Liquid); method: Cone and plate viscometry
Temperature, K	Viscosity, Pa*s	uncertainty
303.15	6.671	.13342
308.15	4.055	.0811
313.15	2.607	.05214
318.15	1.722	.03444
323.15	1.185	.0237
328.15	.845	.0169
333.15	.625	.0125

System: N(1)-(2-ethoxyethyl)-N(3)-(2-(2-methoxyethoxy)ethyl)-N(1),N(1),N(3),N(3)-tetramethylpropane-1,3-diaminium bis((trifluoromethyl)sulfonyl)amide; phases: Glass, Liquid, Air at 1 atmosphere
Property: Triple point temperature, K (Glass); method: DSC/DTA
Triple point temperature, K	uncertainty
214.95	1

System: N(1)-(2-ethoxyethyl)-N(3)-(2-(2-methoxyethoxy)ethyl)-N(1),N(1),N(3),N(3)-tetramethylpropane-1,3-diaminium bis((trifluoromethyl)sulfonyl)amide; phases: Liquid
Fixed: Pressure, kPa = 101.325
Property: Viscosity, Pa*s (Liquid); method: Cone and plate viscometry
Temperature, K	Viscosity, Pa*s	uncertainty
303.15	1.147	.02294
308.15	.804	.01608
313.15	.581	.01162
318.15	.426	.00852
323.15	.323	.00646
328.15	.247	.00494
333.15	.189	.00378

System: N(1)-allyl-N(3)-(2-ethoxyethyl)-N(1),N(1),N(3),N(3)-tetramethylpropane-1,3-diaminium bis((trifluoromethyl)sulfonyl)amide; phases: Glass, Liquid, Air at 1 atmosphere
Property: Triple point temperature, K (Glass); method: DSC/DTA
Triple point temperature, K	uncertainty
216.75	1

System: N(1)-allyl-N(3)-(2-ethoxyethyl)-N(1),N(1),N(3),N(3)-tetramethylpropane-1,3-diaminium bis((trifluoromethyl)sulfonyl)amide; phases: Liquid
Fixed: Pressure, kPa = 101.325
Property: Viscosity, Pa*s (Liquid); method: Cone and plate viscometry
Temperature, K	Viscosity, Pa*s	uncertainty
303.15	1.345	.0269
308.15	.93	.0186
313.15	.661	.01322
318.15	.483	.00966
323.15	.367	.00734
328.15	.286	.00572
333.15	.226	.00452

System: N(1)-(2-ethoxyethyl)-N(1),N(1),N(3),N(3)-tetramethyl-N(3)-pentylpropane-1,3-diaminium bis((trifluoromethyl)sulfonyl)amide; phases: Glass, Liquid, Air at 1 atmosphere
Property: Triple point temperature, K (Glass); method: DSC/DTA
Triple point temperature, K	uncertainty
219.15	1

System: N(1)-(2-ethoxyethyl)-N(1),N(1),N(3),N(3)-tetramethyl-N(3)-pentylpropane-1,3-diaminium bis((trifluoromethyl)sulfonyl)amide; phases: Liquid
Fixed: Pressure, kPa = 101.325
Property: Viscosity, Pa*s (Liquid); method: Cone and plate viscometry
Temperature, K	Viscosity, Pa*s	uncertainty
303.15	4.949	.09898
308.15	3.143	.06286
313.15	2.104	.04208
318.15	1.432	.02864
323.15	1.008	.02016
328.15	.727	.01454
333.15	.531	.01062

System: N-(2-(2-(dimethyl(propyl)ammonio)ethoxy)ethyl)-N,N-dimethylpentan-1-aminium bis((trifluoromethyl)sulfonyl)amide; phases: Glass, Liquid, Air at 1 atmosphere
Property: Triple point temperature, K (Glass); method: DSC/DTA
Triple point temperature, K	uncertainty
215.55	1

System: N-(2-(2-(dimethyl(propyl)ammonio)ethoxy)ethyl)-N,N-dimethylpentan-1-aminium bis((trifluoromethyl)sulfonyl)amide; phases: Liquid
Fixed: Pressure, kPa = 101.325
Property: Viscosity, Pa*s (Liquid); method: Cone and plate viscometry
Temperature, K	Viscosity, Pa*s	uncertainty
303.15	2.106	.04212
308.15	1.404	.02808
313.15	.961	.01922
318.15	.678	.01356
323.15	.492	.00984
328.15	.365	.0073
333.15	.275	.0055

System: N-(8,8-dimethyl-2,5,11-trioxa-8-azatridecan-8-ium-13-yl)-N,N-dimethylpentan-1-aminium bis((trifluoromethyl)sulfonyl)amide; phases: Glass, Liquid, Air at 1 atmosphere
Property: Triple point temperature, K (Glass); method: DSC/DTA
Triple point temperature, K	uncertainty
212.55	1

System: N-(8,8-dimethyl-2,5,11-trioxa-8-azatridecan-8-ium-13-yl)-N,N-dimethylpentan-1-aminium bis((trifluoromethyl)sulfonyl)amide; phases: Liquid
Fixed: Pressure, kPa = 101.325
Property: Viscosity, Pa*s (Liquid); method: Cone and plate viscometry
Temperature, K	Viscosity, Pa*s	uncertainty
303.15	1.215	.0243
308.15	.831	.01662
313.15	.587	.01174
318.15	.427	.00854
323.15	.316	.00632
328.15	.24	.0048
333.15	.186	.00372

System: N-(2-(2-((2-ethoxyethyl)dimethylammonio)ethoxy)ethyl)-N,N-dimethylpentan-1-aminium bis((trifluoromethyl)sulfonyl)amide; phases: Glass, Liquid, Air at 1 atmosphere
Property: Triple point temperature, K (Glass); method: DSC/DTA
Triple point temperature, K	uncertainty
214.45	1

System: N-(2-(2-((2-ethoxyethyl)dimethylammonio)ethoxy)ethyl)-N,N-dimethylpentan-1-aminium bis((trifluoromethyl)sulfonyl)amide; phases: Liquid
Fixed: Pressure, kPa = 101.325
Property: Viscosity, Pa*s (Liquid); method: Cone and plate viscometry
Temperature, K	Viscosity, Pa*s	uncertainty
303.15	2.037	.04074
308.15	1.343	.02686
313.15	.915	.0183
318.15	.645	.0129
323.15	.464	.00928
328.15	.345	.0069
333.15	.259	.00518

System: N-(2-(2-(allyldimethylammonio)ethoxy)ethyl)-N,N-dimethylpentan-1-aminium bis((trifluoromethyl)sulfonyl)amide; phases: Glass, Liquid, Air at 1 atmosphere
Property: Triple point temperature, K (Glass); method: DSC/DTA
Triple point temperature, K	uncertainty
214.95	1

System: N-(2-(2-(allyldimethylammonio)ethoxy)ethyl)-N,N-dimethylpentan-1-aminium bis((trifluoromethyl)sulfonyl)amide; phases: Liquid
Fixed: Pressure, kPa = 101.325
Property: Viscosity, Pa*s (Liquid); method: Cone and plate viscometry
Temperature, K	Viscosity, Pa*s	uncertainty
303.15	3.974	.07948
308.15	2.591	.05182
313.15	1.734	.03468
318.15	1.206	.02412
323.15	.854	.01708
328.15	.609	.01218
333.15	.444	.00888

System: N-(2-(2-(dimethyl(3-phenylpropyl)ammonio)ethoxy)ethyl)-N,N-dimethylpentan-1-aminium bis((trifluoromethyl)sulfonyl)amide; phases: Glass, Liquid, Air at 1 atmosphere
Property: Triple point temperature, K (Glass); method: DSC/DTA
Triple point temperature, K	uncertainty
227.05	1

System: N-(2-(2-(dimethyl(3-phenylpropyl)ammonio)ethoxy)ethyl)-N,N-dimethylpentan-1-aminium bis((trifluoromethyl)sulfonyl)amide; phases: Liquid
Fixed: Pressure, kPa = 101.325
Property: Viscosity, Pa*s (Liquid); method: Cone and plate viscometry
Temperature, K	Viscosity, Pa*s	uncertainty
303.15	6.431	.12862
308.15	3.897	.07794
313.15	2.476	.04952
318.15	1.639	.03278
323.15	1.111	.02222
328.15	.772	.01544
333.15	.556	.01112

System: N-(2-(2-((2-ethoxyethyl)dimethylammonio)ethoxy)ethyl)-N,N-dimethylpropan-1-aminium bis((trifluoromethyl)sulfonyl)amide; phases: Glass, Liquid, Air at 1 atmosphere
Property: Triple point temperature, K (Glass); method: DSC/DTA
Triple point temperature, K	uncertainty
213.85	1

System: N-(2-(2-((2-ethoxyethyl)dimethylammonio)ethoxy)ethyl)-N,N-dimethylpropan-1-aminium bis((trifluoromethyl)sulfonyl)amide; phases: Liquid
Fixed: Pressure, kPa = 101.325
Property: Viscosity, Pa*s (Liquid); method: Cone and plate viscometry
Temperature, K	Viscosity, Pa*s	uncertainty
303.15	1.355	.0271
308.15	.915	.0183
313.15	.657	.01314
318.15	.46	.0092
323.15	.338	.00676
328.15	.257	.00514
333.15	.195	.0039

System: N-(8,8-dimethyl-2,5,11-trioxa-8-azatridecan-8-ium-13-yl)-N,N-dimethylpropan-1-aminium bis((trifluoromethyl)sulfonyl)amide; phases: Glass, Liquid, Air at 1 atmosphere
Property: Triple point temperature, K (Glass); method: DSC/DTA
Triple point temperature, K	uncertainty
212.65	1

System: N-(8,8-dimethyl-2,5,11-trioxa-8-azatridecan-8-ium-13-yl)-N,N-dimethylpropan-1-aminium bis((trifluoromethyl)sulfonyl)amide; phases: Liquid
Fixed: Pressure, kPa = 101.325
Property: Viscosity, Pa*s (Liquid); method: Cone and plate viscometry
Temperature, K	Viscosity, Pa*s	uncertainty
303.15	1.213	.02426
308.15	.819	.01638
313.15	.571	.01142
318.15	.409	.00818
323.15	.302	.00604
328.15	.228	.00456
333.15	.175	.0035
