Measured thermophysical data. Density and Viscosity of Aqueous Mixtures of N-Methyldiethanolamines (MDEA) and Ionic Liquids
Source: J. Chem. Eng. Data, 2013, 10.1021/je300628e
Compound 1: carbon dioxide, CO2, purity 99.9%
Compound 2: N-methyldiethanolamine, C5H13NO2, purity 98.5%
Compound 3: [BMIM][BF4], C8H15BF4N2, purity 98%
Compound 4: 1-butyl-3-methylimidazolium dicyanamide, C10H15N5, purity 98%
Compound 5: 1-ethyl-3-methylimidazolium trifluoromethanesulfonate, C7H11F3N2O3S, purity 98%
Compound 6: water, H2O

System: N-methyldiethanolamine; phases: Liquid
Property: Mass density, kg/m3 (Liquid); method: Vibrating tube method
Temperature, K	Pressure, kPa	Mass density, kg/m3	uncertainty
303.15	101	1034.7	.1
313.15	101	1027.1	.1
333.15	101	1013	.1
353.15	101	996.3	.1
363.15	101	993.9	.1

System: N-methyldiethanolamine; phases: Liquid
Property: Viscosity, Pa*s (Liquid); method: Concentric cylinders viscometry
Temperature, K	Pressure, kPa	Viscosity, Pa*s	uncertainty
303.15	101	.058621	.00005
313.15	101	.037682	.00005
333.15	101	.015256	.00005
353.15	101	.006756	.00005
363.15	101	.004539	.00005

System: [BMIM][BF4]; phases: Liquid
Property: Mass density, kg/m3 (Liquid); method: Vibrating tube method
Temperature, K	Pressure, kPa	Mass density, kg/m3	uncertainty
303.15	101	1191.3	.1
313.15	101	1182.3	.1
333.15	101	1166.7	.1
353.15	101	1154.9	.1
363.15	101	1139.4	.1

System: [BMIM][BF4]; phases: Liquid
Property: Viscosity, Pa*s (Liquid); method: Concentric cylinders viscometry
Temperature, K	Pressure, kPa	Viscosity, Pa*s	uncertainty
303.15	101	.071633	.00005
313.15	101	.046961	.00005
333.15	101	.023799	.00005
353.15	101	.013936	.00005
363.15	101	.011325	.00005

System: 1-butyl-3-methylimidazolium dicyanamide; phases: Liquid
Property: Mass density, kg/m3 (Liquid); method: Vibrating tube method
Temperature, K	Pressure, kPa	Mass density, kg/m3	uncertainty
303.15	101	1055.1	.1
313.15	101	1049.3	.1
333.15	101	1037.1	.1
353.15	101	1024.2	.1
363.15	101	1019.3	.1

System: 1-butyl-3-methylimidazolium dicyanamide; phases: Liquid
Property: Viscosity, Pa*s (Liquid); method: Concentric cylinders viscometry
Temperature, K	Pressure, kPa	Viscosity, Pa*s	uncertainty
303.15	101	.023916	.00005
313.15	101	.017116	.00005
333.15	101	.01049	.00005
353.15	101	.006773	.00005
363.15	101	.005523	.00005

System: 1-ethyl-3-methylimidazolium trifluoromethanesulfonate; phases: Liquid
Property: Mass density, kg/m3 (Liquid); method: Vibrating tube method
Temperature, K	Pressure, kPa	Mass density, kg/m3	uncertainty
303.15	101	1381.8	.1
313.15	101	1371.7	.1
333.15	101	1350.9	.1
353.15	101	1338.7	.1
363.15	101	1326	.1

System: 1-ethyl-3-methylimidazolium trifluoromethanesulfonate; phases: Liquid
Property: Viscosity, Pa*s (Liquid); method: Concentric cylinders viscometry
Temperature, K	Pressure, kPa	Viscosity, Pa*s	uncertainty
303.15	101	.036141	.00005
313.15	101	.026651	.00005
333.15	101	.016452	.00005
353.15	101	.012166	.00005
363.15	101	.011144	.00005

System: N-methyldiethanolamine + water + [BMIM][BF4]; phases: Liquid
Fixed: Pressure, kPa = 101
Property: Mass density, kg/m3 (Liquid); method: Vibrating tube method
Temperature, K	Mass fraction of N-methyldiethanolamine	Mass fraction of [BMIM][BF4]	Mass density, kg/m3	uncertainty
303.15	.234	0	1018.7	3
313.15	.234	0	1014.1	3
333.15	.234	0	1003	3
353.15	.234	0	987.2	3
363.15	.234	0	981.3	3
303.15	.233	.111	1020.9	3
313.15	.233	.111	1015.7	3
333.15	.233	.111	1005.1	3
353.15	.233	.111	991.9	3
363.15	.233	.111	984.2	3
303.15	.231	.219	1030.5	3
313.15	.231	.219	1025	3
333.15	.231	.219	1014	3
353.15	.231	.219	1000.7	3
363.15	.231	.219	985.9	3
303.15	.229	.326	1041.4	3
313.15	.229	.326	1035	3
333.15	.229	.326	1022.9	3
353.15	.229	.326	1009.7	3
363.15	.229	.326	994.9	3
303.15	.227	.431	1048.9	3
313.15	.227	.431	1043.5	3
333.15	.227	.431	1032.8	3
353.15	.227	.431	1017.3	3
363.15	.227	.431	1002	3
303.15	.459	0	1018.3	3
313.15	.459	0	1011	3
333.15	.459	0	1005.2	3
353.15	.459	0	989.6	3
363.15	.459	0	971.8	3
303.15	.464	.11	1027.2	3
313.15	.464	.11	1022.3	3
333.15	.464	.11	1010.9	3
353.15	.464	.11	993.7	3
363.15	.464	.11	984.5	3
303.15	.459	.217	1039.5	3
313.15	.459	.217	1033.5	3
333.15	.459	.217	1022	3
353.15	.459	.217	1004.3	3
363.15	.459	.217	993.4	3
303.15	.454	.323	1048.8	3
313.15	.454	.323	1043.7	3
333.15	.454	.323	1029.6	3
353.15	.454	.323	1014	3
363.15	.454	.323	1000.7	3

System: N-methyldiethanolamine + water + [BMIM][BF4]; phases: Liquid
Fixed: Pressure, kPa = 101
Property: Viscosity, Pa*s (Liquid); method: Concentric cylinders viscometry
Temperature, K	Mass fraction of N-methyldiethanolamine	Mass fraction of [BMIM][BF4]	Viscosity, Pa*s	uncertainty
303.15	.234	0	.002285	.00005
313.15	.234	0	.001612	.00005
333.15	.234	0	.001418	.00005
353.15	.234	0	.001121	.00005
363.15	.234	0	.001112	.00005
303.15	.233	.111	.002686	.00005
313.15	.233	.111	.001924	.00005
333.15	.233	.111	.00154	.00005
353.15	.233	.111	.001229	.00005
363.15	.233	.111	.001207	.00005
303.15	.231	.219	.003211	.00005
313.15	.231	.219	.00236	.00005
333.15	.231	.219	.00164	.00005
353.15	.231	.219	.001325	.00005
363.15	.231	.219	.001289	.00005
303.15	.229	.326	.00323	.00005
313.15	.229	.326	.002493	.00005
333.15	.229	.326	.001757	.00005
353.15	.229	.326	.001506	.00005
363.15	.229	.326	.001452	.00005
303.15	.227	.431	.003366	.00005
313.15	.227	.431	.002754	.00005
333.15	.227	.431	.00186	.00005
353.15	.227	.431	.001658	.00005
363.15	.227	.431	.001462	.00005
303.15	.459	0	.00285	.00005
313.15	.459	0	.002238	.00005
333.15	.459	0	.001621	.00005
353.15	.459	0	.001485	.00005
363.15	.459	0	.001337	.00005
303.15	.464	.11	.003174	.00005
313.15	.464	.11	.002423	.00005
333.15	.464	.11	.001884	.00005
353.15	.464	.11	.001678	.00005
363.15	.464	.11	.001485	.00005
303.15	.459	.217	.003475	.00005
313.15	.459	.217	.002785	.00005
333.15	.459	.217	.002075	.00005
353.15	.459	.217	.001755	.00005
363.15	.459	.217	.001568	.00005
303.15	.454	.323	.003611	.00005
313.15	.454	.323	.002995	.00005
333.15	.454	.323	.002197	.00005
353.15	.454	.323	.001797	.00005
363.15	.454	.323	.001664	.00005

System: N-methyldiethanolamine + water + 1-butyl-3-methylimidazolium dicyanamide; phases: Liquid
Fixed: Pressure, kPa = 101
Property: Mass density, kg/m3 (Liquid); method: Vibrating tube method
Temperature, K	Mass fraction of N-methyldiethanolamine	Mass fraction of 1-butyl-3-methylimidazolium dicyanamide	Mass density, kg/m3	uncertainty
303.15	.234	0	1018.7	3
313.15	.234	0	1014.1	3
333.15	.234	0	1003	3
353.15	.234	0	987.2	3
363.15	.234	0	981.3	3
303.15	.233	.111	1020.9	3
313.15	.233	.111	1015.7	3
333.15	.233	.111	1005.1	3
353.15	.233	.111	991.9	3
363.15	.233	.111	984.2	3
303.15	.231	.219	1030.5	3
313.15	.231	.219	1025	3
333.15	.231	.219	1014	3
353.15	.231	.219	1000.7	3
363.15	.231	.219	985.9	3
303.15	.229	.326	1041.4	3
313.15	.229	.326	1035	3
333.15	.229	.326	1022.9	3
353.15	.229	.326	1009.7	3
363.15	.229	.326	994.9	3
303.15	.227	.431	1048.9	3
313.15	.227	.431	1043.5	3
333.15	.227	.431	1032.8	3
353.15	.227	.431	1017.3	3
363.15	.227	.431	1002	3
303.15	.459	0	1018.3	3
313.15	.459	0	1011	3
333.15	.459	0	1005.2	3
353.15	.459	0	989.6	3
363.15	.459	0	971.8	3
303.15	.464	.11	1027.2	3
313.15	.464	.11	1022.3	3
333.15	.464	.11	1010.9	3
353.15	.464	.11	993.7	3
363.15	.464	.11	984.5	3
303.15	.459	.217	1039.5	3
313.15	.459	.217	1033.5	3
333.15	.459	.217	1022	3
353.15	.459	.217	1004.3	3
363.15	.459	.217	993.4	3
303.15	.454	.323	1048.8	3
313.15	.454	.323	1043.7	3
333.15	.454	.323	1029.6	3
353.15	.454	.323	1014	3
363.15	.454	.323	1000.7	3

System: N-methyldiethanolamine + water + 1-butyl-3-methylimidazolium dicyanamide; phases: Liquid
Fixed: Pressure, kPa = 101
Property: Viscosity, Pa*s (Liquid); method: Concentric cylinders viscometry
Temperature, K	Mass fraction of N-methyldiethanolamine	Mass fraction of 1-butyl-3-methylimidazolium dicyanamide	Viscosity, Pa*s	uncertainty
303.15	.235	.101	.002365	.00005
313.15	.235	.101	.001982	.00005
333.15	.235	.101	.001557	.00005
353.15	.235	.101	.0012	.00005
363.15	.235	.101	.00114	.00005
303.15	.239	.202	.002467	.00005
313.15	.239	.202	.002181	.00005
333.15	.239	.202	.001663	.00005
353.15	.239	.202	.00131	.00005
363.15	.239	.202	.001193	.00005
303.15	.234	.302	.003222	.00005
313.15	.234	.302	.002312	.00005
333.15	.234	.302	.001746	.00005
353.15	.234	.302	.001333	.00005
363.15	.234	.302	.001243	.00005
303.15	.234	.402	.003273	.00005
313.15	.234	.402	.002799	.00005
333.15	.234	.402	.002314	.00005
353.15	.234	.402	.001637	.00005
363.15	.234	.402	.001384	.00005
303.15	.466	.1	.002858	.00005
313.15	.466	.1	.002402	.00005
333.15	.466	.1	.00191	.00005
353.15	.466	.1	.001563	.00005
363.15	.466	.1	.001445	.00005
303.15	.465	.2	.002942	.00005
313.15	.465	.2	.002613	.00005
333.15	.465	.2	.001928	.00005
353.15	.465	.2	.001647	.00005
363.15	.465	.2	.001518	.00005
303.15	.462	.298	.005032	.00005
313.15	.462	.298	.003972	.00005
333.15	.462	.298	.002489	.00005
353.15	.462	.298	.00175	.00005
363.15	.462	.298	.001659	.00005

System: N-methyldiethanolamine + water + 1-ethyl-3-methylimidazolium trifluoromethanesulfonate; phases: Liquid
Fixed: Pressure, kPa = 101
Property: Mass density, kg/m3 (Liquid); method: Vibrating tube method
Temperature, K	Mass fraction of N-methyldiethanolamine	Mass fraction of 1-ethyl-3-methylimidazolium trifluoromethanesulfonate	Mass density, kg/m3	uncertainty
303.15	.231	.139	1030.7	3
313.15	.231	.139	1026.7	3
333.15	.231	.139	1020.3	3
353.15	.231	.139	1001.8	3
363.15	.231	.139	997.5	3
303.15	.226	.273	1054.4	3
313.15	.226	.273	1048.9	3
333.15	.226	.273	1037.9	3
353.15	.226	.273	1024.3	3
363.15	.226	.273	1016.1	3
303.15	.221	.401	1079.7	3
313.15	.221	.401	1074.6	3
333.15	.221	.401	1061.7	3
353.15	.221	.401	1041	3
363.15	.221	.401	1029.2	3
303.15	.216	.522	1104.8	3
313.15	.216	.522	1098.1	3
333.15	.216	.522	1084.1	3
353.15	.216	.522	1061	3
363.15	.216	.522	1058	3
303.15	.457	.138	1042.6	3
313.15	.457	.138	1037.1	3
333.15	.457	.138	1025.4	3
353.15	.457	.138	1011.8	3
363.15	.457	.138	1004	3
303.15	.447	.27	1065.6	3
313.15	.447	.27	1058.4	3
333.15	.447	.27	1046.6	3
353.15	.447	.27	1033.6	3
363.15	.447	.27	1024.4	3
303.15	.438	.397	1089.3	3
313.15	.438	.397	1082.3	3
333.15	.438	.397	1068.9	3
353.15	.438	.397	1054.8	3
363.15	.438	.397	1036.7	3

System: N-methyldiethanolamine + water + 1-ethyl-3-methylimidazolium trifluoromethanesulfonate; phases: Liquid
Fixed: Pressure, kPa = 101
Property: Viscosity, Pa*s (Liquid); method: Concentric cylinders viscometry
Temperature, K	Mass fraction of N-methyldiethanolamine	Mass fraction of 1-ethyl-3-methylimidazolium trifluoromethanesulfonate	Viscosity, Pa*s	uncertainty
303.15	.231	.139	.002488	.00005
313.15	.231	.139	.00229	.00005
333.15	.231	.139	.001764	.00005
353.15	.231	.139	.001468	.00005
363.15	.231	.139	.001374	.00005
303.15	.226	.273	.002711	.00005
313.15	.226	.273	.002316	.00005
333.15	.226	.273	.002069	.00005
353.15	.226	.273	.001472	.00005
363.15	.226	.273	.001402	.00005
303.15	.221	.401	.005177	.00005
313.15	.221	.401	.004345	.00005
333.15	.221	.401	.002755	.00005
353.15	.221	.401	.001875	.00005
363.15	.221	.401	.001609	.00005
303.15	.216	.522	.005333	.00005
313.15	.216	.522	.004498	.00005
333.15	.216	.522	.003071	.00005
353.15	.216	.522	.00235	.00005
363.15	.216	.522	.001948	.00005
303.15	.457	.138	.007549	.00005
313.15	.457	.138	.005682	.00005
333.15	.457	.138	.003898	.00005
353.15	.457	.138	.002738	.00005
363.15	.457	.138	.002253	.00005
303.15	.447	.271	.008278	.00005
313.15	.447	.271	.007215	.00005
333.15	.447	.271	.004353	.00005
353.15	.447	.271	.003231	.00005
363.15	.447	.271	.002897	.00005
303.15	.438	.397	.009234	.00005
313.15	.438	.397	.008149	.00005
333.15	.438	.397	.005631	.00005
353.15	.438	.397	.004213	.00005
363.15	.438	.397	.003128	.00005

System: N-methyldiethanolamine + water; phases: Liquid
Property: Mass density, kg/m3 (Liquid); method: Vibrating tube method
Temperature, K	Mass fraction of N-methyldiethanolamine	Pressure, kPa	Mass density, kg/m3	uncertainty
303.15	.234	101	1018.7	3
313.15	.234	101	1014.1	3
333.15	.234	101	1003	3
353.15	.234	101	987.2	3
363.15	.234	101	981.3	3
303.15	.459	101	1018.3	3
313.15	.459	101	1011	3
333.15	.459	101	1005.2	3
353.15	.459	101	989.6	3
363.15	.459	101	971.8	3

System: N-methyldiethanolamine + water; phases: Liquid
Property: Viscosity, Pa*s (Liquid); method: Concentric cylinders viscometry
Temperature, K	Mass fraction of N-methyldiethanolamine	Pressure, kPa	Viscosity, Pa*s	uncertainty
303.15	.234	101	.002285	.00005
313.15	.234	101	.001612	.00005
333.15	.234	101	.001418	.00005
353.15	.234	101	.001121	.00005
363.15	.234	101	.001112	.00005
303.15	.459	101	.00285	.00005
313.15	.459	101	.002238	.00005
333.15	.459	101	.001621	.00005
353.15	.459	101	.001485	.00005
363.15	.459	101	.001337	.00005
