Measured thermophysical data. Physical Properties of N-Butylpyridinium Tetrafluoroborate and N-Butylpyridinium Bis(trifluoromethylsulfonyl)imide Binary Ionic Liquid Mixtures
Source: J. Chem. Eng. Data, 2012, 10.1021/je300093r
Compound 1: 1-butylpyridinium tetrafluoroborate, C9H14BF4N, purity 99%
Compound 2: 1-butylpyridinium bis[(trifluoromethyl)sulfonyl]amide, C11H14F6N2O4S2, purity 99%

System: 1-butylpyridinium tetrafluoroborate; phases: Liquid
Fixed: Pressure, kPa = 101.325
Property: Refractive index (Na D-line) (Liquid); method: Standard Abbe refractometry
Temperature, K	Refractive index (Na D-line)	uncertainty
303.15	1.4444	.0005
313.15	1.4418	.0005
323.15	1.4392	.0005
333.15	1.4366	.0005
343.15	1.4341	.0005
353.15	1.4315	.0005

System: 1-butylpyridinium tetrafluoroborate; phases: Liquid
Property: Mass density, kg/m3 (Liquid); method: Vibrating tube method
Temperature, K	Pressure, kPa	Mass density, kg/m3	uncertainty
303.15	101	1210.3	.8
313.15	101	1203.5	.8
323.15	101	1196.7	.8
333.15	101	1189.9	.8
343.15	101	1183.2	.8
353.15	101	1176.5	.8

System: 1-butylpyridinium tetrafluoroborate; phases: Liquid
Property: Viscosity, Pa*s (Liquid); method: Falling or rolling sphere viscometry
Temperature, K	Pressure, kPa	Viscosity, Pa*s	uncertainty
303.15	101	.1236	.0013596
313.15	101	.0748	.0008228
323.15	101	.0481	.0005291
333.15	101	.033	.000363
343.15	101	.0238	.0002618
353.15	101	.0177	.0001947

System: 1-butylpyridinium bis[(trifluoromethyl)sulfonyl]amide; phases: Liquid
Fixed: Pressure, kPa = 101.325
Property: Refractive index (Na D-line) (Liquid); method: Standard Abbe refractometry
Temperature, K	Refractive index (Na D-line)	uncertainty
303.15	1.4415	.0005
313.15	1.4386	.0005
323.15	1.4356	.0005
333.15	1.4327	.0005
343.15	1.4298	.0005
353.15	1.4269	.0005

System: 1-butylpyridinium bis[(trifluoromethyl)sulfonyl]amide; phases: Liquid
Property: Mass density, kg/m3 (Liquid); method: Vibrating tube method
Temperature, K	Pressure, kPa	Mass density, kg/m3	uncertainty
303.15	101	1444	.8
313.15	101	1434.7	.8
323.15	101	1425.4	.8
333.15	101	1416.2	.8
343.15	101	1407.1	.8
353.15	101	1398	.8

System: 1-butylpyridinium bis[(trifluoromethyl)sulfonyl]amide; phases: Liquid
Property: Viscosity, Pa*s (Liquid); method: Falling or rolling sphere viscometry
Temperature, K	Pressure, kPa	Viscosity, Pa*s	uncertainty
303.15	101	.0494	.0005434
313.15	101	.0338	.0003718
323.15	101	.0242	.0002662
333.15	101	.0179	.0001969
343.15	101	.0137	.0001507
353.15	101	.0109	.0001199

System: 1-butylpyridinium bis[(trifluoromethyl)sulfonyl]amide + 1-butylpyridinium tetrafluoroborate; phases: Liquid
Fixed: Pressure, kPa = 101
Property: Refractive index (Na D-line) (Liquid); method: Standard Abbe refractometry
Temperature, K	Mole fraction of 1-butylpyridinium tetrafluoroborate	Refractive index (Na D-line)	uncertainty
303.15	0	1.4415	.0005
303.15	.0533	1.4415	.0005
303.15	.1178	1.4415	.0005
303.15	.2357	1.4415	.0005
303.15	.3477	1.4416	.0005
303.15	.4571	1.4416	.0005
303.15	.5673	1.4419	.0005
303.15	.6783	1.4424	.0005
303.15	.7838	1.4428	.0005
303.15	.8881	1.4433	.0005
303.15	.9558	1.4438	.0005
303.15	1	1.4444	.0005
313.15	0	1.4386	.0005
313.15	.0533	1.4386	.0005
313.15	.1178	1.4386	.0005
313.15	.2357	1.4386	.0005
313.15	.3477	1.4386	.0005
313.15	.4571	1.4387	.0005
313.15	.5673	1.4389	.0005
313.15	.6783	1.4395	.0005
313.15	.7838	1.4401	.0005
313.15	.8881	1.4405	.0005
313.15	.9558	1.4411	.0005
313.15	1	1.4418	.0005
323.15	0	1.4356	.0005
323.15	.0533	1.4357	.0005
323.15	.1178	1.4356	.0005
323.15	.2357	1.4356	.0005
323.15	.3477	1.4356	.0005
323.15	.4571	1.4357	.0005
323.15	.5673	1.4361	.0005
323.15	.6783	1.4366	.0005
323.15	.7838	1.4373	.0005
323.15	.8881	1.4378	.0005
323.15	.9558	1.4384	.0005
323.15	1	1.4392	.0005
333.15	0	1.4327	.0005
333.15	.0533	1.4327	.0005
333.15	.1178	1.4327	.0005
333.15	.2357	1.4328	.0005
333.15	.3477	1.4327	.0005
333.15	.4571	1.4328	.0005
333.15	.5673	1.4332	.0005
333.15	.6783	1.434	.0005
333.15	.7838	1.4346	.0005
333.15	.8881	1.4352	.0005
333.15	.9558	1.4358	.0005
333.15	1	1.4366	.0005
343.15	0	1.4298	.0005
343.15	.0533	1.4298	.0005
343.15	.1178	1.4298	.0005
343.15	.2357	1.4298	.0005
343.15	.3477	1.4299	.0005
343.15	.4571	1.43	.0005
343.15	.5673	1.4304	.0005
343.15	.6783	1.4312	.0005
343.15	.7838	1.4319	.0005
343.15	.8881	1.4325	.0005
343.15	.9558	1.4332	.0005
343.15	1	1.4341	.0005
353.15	0	1.4269	.0005
353.15	.0533	1.4269	.0005
353.15	.1178	1.4269	.0005
353.15	.2357	1.427	.0005
353.15	.3477	1.4271	.0005
353.15	.4571	1.4272	.0005
353.15	.5673	1.4277	.0005
353.15	.6783	1.4285	.0005
353.15	.7838	1.4293	.0005
353.15	.8881	1.43	.0005
353.15	.9558	1.4307	.0005
353.15	1	1.4315	.0005

System: 1-butylpyridinium bis[(trifluoromethyl)sulfonyl]amide + 1-butylpyridinium tetrafluoroborate; phases: Liquid
Fixed: Pressure, kPa = 101
Property: Mass density, kg/m3 (Liquid); method: Vibrating tube method
Temperature, K	Mole fraction of 1-butylpyridinium tetrafluoroborate	Mass density, kg/m3	uncertainty
303.15	0	1444	.8
303.15	.0533	1435.5	.8
303.15	.1178	1424.9	.8
303.15	.2357	1404.2	.8
303.15	.3477	1382.8	.8
303.15	.4571	1360.1	.8
303.15	.5673	1335	.8
303.15	.6783	1307.2	.8
303.15	.7838	1278	.8
303.15	.8881	1246.1	.8
303.15	.9558	1223.8	.8
303.15	1	1210.3	.8
313.15	0	1434.7	.8
313.15	.0533	1426.3	.8
313.15	.1178	1415.8	.8
313.15	.2357	1395.3	.8
313.15	.3477	1374.2	.8
313.15	.4571	1351.7	.8
313.15	.5673	1326.8	.8
313.15	.6783	1299.4	.8
313.15	.7838	1270.5	.8
313.15	.8881	1238.9	.8
313.15	.9558	1216.8	.8
313.15	1	1203.5	.8
323.15	0	1425.4	.8
323.15	.0533	1417.1	.8
323.15	.1178	1406.7	.8
323.15	.2357	1386.4	.8
323.15	.3477	1365.5	.8
323.15	.4571	1343.3	.8
323.15	.5673	1318.8	.8
323.15	.6783	1291.6	.8
323.15	.7838	1263	.8
323.15	.8881	1231.7	.8
323.15	.9558	1209.8	.8
323.15	1	1196.7	.8
333.15	0	1416.2	.8
333.15	.0533	1408	.8
333.15	.1178	1397.7	.8
333.15	.2357	1377.6	.8
333.15	.3477	1357	.8
333.15	.4571	1335	.8
333.15	.5673	1310.7	.8
333.15	.6783	1283.8	.8
333.15	.7838	1255.5	.8
333.15	.8881	1224.6	.8
333.15	.9558	1202.8	.8
333.15	1	1189.9	.8
343.15	0	1407.1	.8
343.15	.0533	1398.9	.8
343.15	.1178	1388.7	.8
343.15	.2357	1368.9	.8
343.15	.3477	1348.4	.8
343.15	.4571	1326.7	.8
343.15	.5673	1302.6	.8
343.15	.6783	1276.1	.8
343.15	.7838	1248.1	.8
343.15	.8881	1217.5	.8
343.15	.9558	1195.9	.8
343.15	1	1183.2	.8
353.15	0	1398	.8
353.15	.0533	1389.9	.8
353.15	.1178	1379.8	.8
353.15	.2357	1360.1	.8
353.15	.3477	1339.9	.8
353.15	.4571	1318.5	.8
353.15	.5673	1294.7	.8
353.15	.6783	1268.5	.8
353.15	.7838	1240.7	.8
353.15	.8881	1210.4	.8
353.15	.9558	1189.1	.8
353.15	1	1176.5	.8

System: 1-butylpyridinium bis[(trifluoromethyl)sulfonyl]amide + 1-butylpyridinium tetrafluoroborate; phases: Liquid
Fixed: Pressure, kPa = 101
Property: Viscosity, Pa*s (Liquid); method: Falling or rolling sphere viscometry
Temperature, K	Mole fraction of 1-butylpyridinium tetrafluoroborate	Viscosity, Pa*s	uncertainty
303.15	0	.0494	.0005434
303.15	.0533	.052	.000572
303.15	.1178	.0541	.0005951
303.15	.2357	.0582	.0006402
303.15	.3477	.0631	.0006941
303.15	.4571	.0702	.0007722
303.15	.5673	.0757	.0008327
303.15	.6783	.0826	.0009086
303.15	.7838	.0912	.0010032
303.15	.8881	.105	.001155
303.15	.9558	.1153	.0012683
303.15	1	.1236	.0013596
313.15	0	.0338	.0003718
313.15	.0533	.035	.000385
313.15	.1178	.0363	.0003993
313.15	.2357	.0391	.0004301
313.15	.3477	.0425	.0004675
313.15	.4571	.0462	.0005082
313.15	.5673	.0484	.0005324
313.15	.6783	.0531	.0005841
313.15	.7838	.0576	.0006336
313.15	.8881	.0662	.0007282
313.15	.9558	.0705	.0007755
313.15	1	.0748	.0008228
323.15	0	.0242	.0002662
323.15	.0533	.025	.000275
323.15	.1178	.0258	.0002838
323.15	.2357	.0277	.0003047
323.15	.3477	.0298	.0003278
323.15	.4571	.0318	.0003498
323.15	.5673	.0333	.0003663
323.15	.6783	.0357	.0003927
323.15	.7838	.0386	.0004246
323.15	.8881	.0438	.0004818
323.15	.9558	.0461	.0005071
323.15	1	.0481	.0005291
333.15	0	.0179	.0001969
333.15	.0533	.0185	.0002035
333.15	.1178	.0192	.0002112
333.15	.2357	.0205	.0002255
333.15	.3477	.0218	.0002398
333.15	.4571	.0231	.0002541
333.15	.5673	.0238	.0002618
333.15	.6783	.0255	.0002805
333.15	.7838	.0273	.0003003
333.15	.8881	.0304	.0003344
333.15	.9558	.0319	.0003509
333.15	1	.033	.000363
343.15	0	.0137	.0001507
343.15	.0533	.0141	.0001551
343.15	.1178	.0145	.0001595
343.15	.2357	.0155	.0001705
343.15	.3477	.0164	.0001804
343.15	.4571	.0173	.0001903
343.15	.5673	.0176	.0001936
343.15	.6783	.0187	.0002057
343.15	.7838	.0199	.0002189
343.15	.8881	.0219	.0002409
343.15	.9558	.0229	.0002519
343.15	1	.0238	.0002618
353.15	0	.0109	.0001199
353.15	.0533	.0111	.0001221
353.15	.1178	.0115	.0001265
353.15	.2357	.0121	.0001331
353.15	.3477	.0128	.0001408
353.15	.4571	.0132	.0001452
353.15	.5673	.0137	.0001507
353.15	.6783	.0144	.0001584
353.15	.7838	.0152	.0001672
353.15	.8881	.0165	.0001815
353.15	.9558	.0171	.0001881
353.15	1	.0177	.0001947
