Measured thermophysical data. Density and Surface Tension of Ionic Liquids [H2N-C2mim][PF6]  and [H2N-C3mim][PF6]
Source: J. Chem. Eng. Data, 2012, 10.1021/je300288a
Compound 1: 1-(2-aminoethyl)-3-methylimidazolium hexafluorophosphate, C6H12F6N3P, purity 99%
Compound 2: 1-(3-aminopropyl)-3-methylimidazolium hexafluorophosphate, C7H14F6N3P, purity 99%

System: 1-(2-aminoethyl)-3-methylimidazolium hexafluorophosphate; phases: Liquid
Fixed: Pressure, kPa = 101.325
Property: Mass density, kg/m3 (Liquid); method: Vibrating tube method
Temperature, K	Mass density, kg/m3	uncertainty
293.15	1565.7	.3
298.15	1561.9	.3
303.15	1558.1	.3
308.15	1553.9	.3
313.15	1550.5	.3
318.15	1546.2	.3
323.15	1542.3	.3
328.15	1538.5	.3
333.15	1534.7	.3
338.15	1530.9	.3
343.15	1526.2	.3
348.15	1523	.3
353.15	1518.7	.3

System: 1-(2-aminoethyl)-3-methylimidazolium hexafluorophosphate; phases: Liquid, Air at 1 atmosphere
Property: Surface tension liquid-gas, N/m (Liquid); method: Pendant drop shape
Temperature, K	Surface tension liquid-gas, N/m	uncertainty
293.15	.05586	.0004
298.15	.05542	.0004
303.15	.05504	.0004
308.15	.05459	.0004
313.15	.05429	.0004
318.15	.0538	.0004
323.15	.05363	.0004
328.15	.05323	.0004
333.15	.05294	.0004
338.15	.05257	.0004
343.15	.05235	.0004
348.15	.05207	.0004
353.15	.05186	.0004

System: 1-(3-aminopropyl)-3-methylimidazolium hexafluorophosphate; phases: Liquid
Fixed: Pressure, kPa = 101.325
Property: Mass density, kg/m3 (Liquid); method: Vibrating tube method
Temperature, K	Mass density, kg/m3	uncertainty
293.15	1499.4	.3
298.15	1496	.3
303.15	1492.6	.3
308.15	1488.5	.3
313.15	1484.7	.3
318.15	1480.9	.3
323.15	1477.5	.3
328.15	1473.4	.3
333.15	1468.9	.3
338.15	1465.8	.3
343.15	1462.1	.3
348.15	1458.4	.3
353.15	1454.7	.3

System: 1-(3-aminopropyl)-3-methylimidazolium hexafluorophosphate; phases: Liquid, Air at 1 atmosphere
Property: Surface tension liquid-gas, N/m (Liquid); method: Pendant drop shape
Temperature, K	Surface tension liquid-gas, N/m	uncertainty
293.15	.05106	.0004
298.15	.05084	.0004
303.15	.05061	.0004
308.15	.05025	.0004
313.15	.05002	.0004
318.15	.04994	.0004
323.15	.0497	.0004
328.15	.04929	.0004
333.15	.04926	.0004
338.15	.04904	.0004
343.15	.04879	.0004
348.15	.04861	.0004
353.15	.04849	.0004
