Measured thermophysical data. Crystal Structures, Reaction Rates, and Selected Physical Properties  of Halo-Boronsubphthalocyanines (Halo = Fluoride, Chloride, and  Bromide)
Source: J. Chem. Eng. Data, 2012, 10.1021/je3005112
Compound 1: Boron, chloro[7,12:14,19-diimino-21,5-nitrilo-5H-tribenzo[c,h,m][1,6,11]triazacyclopentadecinato(2-)-N22,N23,N24]-, (T-4)-, C24H12BClN6, purity 95%
Compound 2: Boron, [7,12:14,19-diimino-21,5-nitrilo-5H-tribenzo[c,h,m][1,6,11]triazacyclopentadecinato(2-)-N22,N23,N24]fluoro-, (T-4)-, C24H12BFN6, purity 95%
Compound 3: Boron, bromo[7,12:14,19-diimino-21,5-nitrilo-5H-tribenzo[c,h,m][1,6,11]triazacyclopentadecinato(2-)-N22,N23,N24]-, (T-4)-, C24H12BBrN6, purity 95%
Compound 4: propanone, C3H6O, purity 98%
Compound 5: methane, trichloro-, CHCl3, purity 98%
Compound 6: ethanoic acid, propyl ester, C5H10O2, purity 98%
Compound 7: oxacyclopentane, C4H8O, purity 98%
Compound 8: toluene, C7H8, purity 98%
Compound 9: N,N-dimethylformamide, C3H7NO, purity 98%
Compound 10: methanecarbonitrile, C2H3N, purity 98%
Compound 11: monochlorobenzene, C6H5Cl, purity 98%

System: propanone + Boron, bromo[7,12:14,19-diimino-21,5-nitrilo-5H-tribenzo[c,h,m][1,6,11]triazacyclopentadecinato(2-)-N22,N23,N24]-, (T-4)-; phases: Liquid, Crystal
Fixed: Pressure, kPa = 101
Property: Molality, mol/kg of Boron, bromo[7,12:14,19-diimino-21,5-nitrilo-5H-tribenzo[c,h,m][1,6,11]triazacyclopentadecinato(2-)-N22,N23,N24]-, (T-4)- (Liquid); method: Spectra
Temperature, K	Molality, mol/kg of Boron, bromo[7,12:14,19-diimino-21,5-nitrilo-5H-tribenzo[c,h,m][1,6,11]triazacyclopentadecinato(2-)-N22,N23,N24]-, (T-4)-	uncertainty
295.15	.0000418	.00000351

System: methane, trichloro- + Boron, bromo[7,12:14,19-diimino-21,5-nitrilo-5H-tribenzo[c,h,m][1,6,11]triazacyclopentadecinato(2-)-N22,N23,N24]-, (T-4)-; phases: Liquid, Crystal
Fixed: Pressure, kPa = 101
Property: Molality, mol/kg of Boron, bromo[7,12:14,19-diimino-21,5-nitrilo-5H-tribenzo[c,h,m][1,6,11]triazacyclopentadecinato(2-)-N22,N23,N24]-, (T-4)- (Liquid); method: Spectra
Temperature, K	Molality, mol/kg of Boron, bromo[7,12:14,19-diimino-21,5-nitrilo-5H-tribenzo[c,h,m][1,6,11]triazacyclopentadecinato(2-)-N22,N23,N24]-, (T-4)-	uncertainty
295.15	.00157	.00013

System: monochlorobenzene + Boron, bromo[7,12:14,19-diimino-21,5-nitrilo-5H-tribenzo[c,h,m][1,6,11]triazacyclopentadecinato(2-)-N22,N23,N24]-, (T-4)-; phases: Liquid, Crystal
Fixed: Pressure, kPa = 101
Property: Molality, mol/kg of Boron, bromo[7,12:14,19-diimino-21,5-nitrilo-5H-tribenzo[c,h,m][1,6,11]triazacyclopentadecinato(2-)-N22,N23,N24]-, (T-4)- (Liquid); method: Spectra
Temperature, K	Molality, mol/kg of Boron, bromo[7,12:14,19-diimino-21,5-nitrilo-5H-tribenzo[c,h,m][1,6,11]triazacyclopentadecinato(2-)-N22,N23,N24]-, (T-4)-	uncertainty
295.15	.00042	.0000137

System: ethanoic acid, propyl ester + Boron, bromo[7,12:14,19-diimino-21,5-nitrilo-5H-tribenzo[c,h,m][1,6,11]triazacyclopentadecinato(2-)-N22,N23,N24]-, (T-4)-; phases: Liquid, Crystal
Fixed: Pressure, kPa = 101
Property: Molality, mol/kg of Boron, bromo[7,12:14,19-diimino-21,5-nitrilo-5H-tribenzo[c,h,m][1,6,11]triazacyclopentadecinato(2-)-N22,N23,N24]-, (T-4)- (Liquid); method: Spectra
Temperature, K	Molality, mol/kg of Boron, bromo[7,12:14,19-diimino-21,5-nitrilo-5H-tribenzo[c,h,m][1,6,11]triazacyclopentadecinato(2-)-N22,N23,N24]-, (T-4)-	uncertainty
295.15	.00042	.0000137

System: oxacyclopentane + Boron, bromo[7,12:14,19-diimino-21,5-nitrilo-5H-tribenzo[c,h,m][1,6,11]triazacyclopentadecinato(2-)-N22,N23,N24]-, (T-4)-; phases: Liquid, Crystal
Fixed: Pressure, kPa = 101
Property: Molality, mol/kg of Boron, bromo[7,12:14,19-diimino-21,5-nitrilo-5H-tribenzo[c,h,m][1,6,11]triazacyclopentadecinato(2-)-N22,N23,N24]-, (T-4)- (Liquid); method: Spectra
Temperature, K	Molality, mol/kg of Boron, bromo[7,12:14,19-diimino-21,5-nitrilo-5H-tribenzo[c,h,m][1,6,11]triazacyclopentadecinato(2-)-N22,N23,N24]-, (T-4)-	uncertainty
295.15	.00026	.0000396

System: toluene + Boron, bromo[7,12:14,19-diimino-21,5-nitrilo-5H-tribenzo[c,h,m][1,6,11]triazacyclopentadecinato(2-)-N22,N23,N24]-, (T-4)-; phases: Liquid, Crystal
Fixed: Pressure, kPa = 101
Property: Molality, mol/kg of Boron, bromo[7,12:14,19-diimino-21,5-nitrilo-5H-tribenzo[c,h,m][1,6,11]triazacyclopentadecinato(2-)-N22,N23,N24]-, (T-4)- (Liquid); method: Spectra
Temperature, K	Molality, mol/kg of Boron, bromo[7,12:14,19-diimino-21,5-nitrilo-5H-tribenzo[c,h,m][1,6,11]triazacyclopentadecinato(2-)-N22,N23,N24]-, (T-4)-	uncertainty
295.15	.00024	.000016

System: N,N-dimethylformamide + Boron, bromo[7,12:14,19-diimino-21,5-nitrilo-5H-tribenzo[c,h,m][1,6,11]triazacyclopentadecinato(2-)-N22,N23,N24]-, (T-4)-; phases: Liquid, Crystal
Fixed: Pressure, kPa = 101
Property: Molality, mol/kg of Boron, bromo[7,12:14,19-diimino-21,5-nitrilo-5H-tribenzo[c,h,m][1,6,11]triazacyclopentadecinato(2-)-N22,N23,N24]-, (T-4)- (Liquid); method: Spectra
Temperature, K	Molality, mol/kg of Boron, bromo[7,12:14,19-diimino-21,5-nitrilo-5H-tribenzo[c,h,m][1,6,11]triazacyclopentadecinato(2-)-N22,N23,N24]-, (T-4)-	uncertainty
295.15	.00037	.000136

System: methanecarbonitrile + Boron, bromo[7,12:14,19-diimino-21,5-nitrilo-5H-tribenzo[c,h,m][1,6,11]triazacyclopentadecinato(2-)-N22,N23,N24]-, (T-4)-; phases: Liquid, Crystal
Fixed: Pressure, kPa = 101
Property: Molality, mol/kg of Boron, bromo[7,12:14,19-diimino-21,5-nitrilo-5H-tribenzo[c,h,m][1,6,11]triazacyclopentadecinato(2-)-N22,N23,N24]-, (T-4)- (Liquid); method: Spectra
Temperature, K	Molality, mol/kg of Boron, bromo[7,12:14,19-diimino-21,5-nitrilo-5H-tribenzo[c,h,m][1,6,11]triazacyclopentadecinato(2-)-N22,N23,N24]-, (T-4)-	uncertainty
295.15	.00001068	.000001064

System: propanone + Boron, chloro[7,12:14,19-diimino-21,5-nitrilo-5H-tribenzo[c,h,m][1,6,11]triazacyclopentadecinato(2-)-N22,N23,N24]-, (T-4)-; phases: Liquid, Crystal
Fixed: Pressure, kPa = 101
Property: Molality, mol/kg of Boron, chloro[7,12:14,19-diimino-21,5-nitrilo-5H-tribenzo[c,h,m][1,6,11]triazacyclopentadecinato(2-)-N22,N23,N24]-, (T-4)- (Liquid); method: Spectra
Temperature, K	Molality, mol/kg of Boron, chloro[7,12:14,19-diimino-21,5-nitrilo-5H-tribenzo[c,h,m][1,6,11]triazacyclopentadecinato(2-)-N22,N23,N24]-, (T-4)-	uncertainty
295.15	.000036	.000008

System: methane, trichloro- + Boron, chloro[7,12:14,19-diimino-21,5-nitrilo-5H-tribenzo[c,h,m][1,6,11]triazacyclopentadecinato(2-)-N22,N23,N24]-, (T-4)-; phases: Liquid, Crystal
Fixed: Pressure, kPa = 101
Property: Molality, mol/kg of Boron, chloro[7,12:14,19-diimino-21,5-nitrilo-5H-tribenzo[c,h,m][1,6,11]triazacyclopentadecinato(2-)-N22,N23,N24]-, (T-4)- (Liquid); method: Spectra
Temperature, K	Molality, mol/kg of Boron, chloro[7,12:14,19-diimino-21,5-nitrilo-5H-tribenzo[c,h,m][1,6,11]triazacyclopentadecinato(2-)-N22,N23,N24]-, (T-4)-	uncertainty
295.15	.000089	.0000197

System: monochlorobenzene + Boron, chloro[7,12:14,19-diimino-21,5-nitrilo-5H-tribenzo[c,h,m][1,6,11]triazacyclopentadecinato(2-)-N22,N23,N24]-, (T-4)-; phases: Liquid, Crystal
Fixed: Pressure, kPa = 101
Property: Molality, mol/kg of Boron, chloro[7,12:14,19-diimino-21,5-nitrilo-5H-tribenzo[c,h,m][1,6,11]triazacyclopentadecinato(2-)-N22,N23,N24]-, (T-4)- (Liquid); method: Spectra
Temperature, K	Molality, mol/kg of Boron, chloro[7,12:14,19-diimino-21,5-nitrilo-5H-tribenzo[c,h,m][1,6,11]triazacyclopentadecinato(2-)-N22,N23,N24]-, (T-4)-	uncertainty
295.15	.000287	.0000637

System: ethanoic acid, propyl ester + Boron, chloro[7,12:14,19-diimino-21,5-nitrilo-5H-tribenzo[c,h,m][1,6,11]triazacyclopentadecinato(2-)-N22,N23,N24]-, (T-4)-; phases: Liquid, Crystal
Fixed: Pressure, kPa = 101
Property: Molality, mol/kg of Boron, chloro[7,12:14,19-diimino-21,5-nitrilo-5H-tribenzo[c,h,m][1,6,11]triazacyclopentadecinato(2-)-N22,N23,N24]-, (T-4)- (Liquid); method: Spectra
Temperature, K	Molality, mol/kg of Boron, chloro[7,12:14,19-diimino-21,5-nitrilo-5H-tribenzo[c,h,m][1,6,11]triazacyclopentadecinato(2-)-N22,N23,N24]-, (T-4)-	uncertainty
295.15	.0000444	.00000985

System: oxacyclopentane + Boron, chloro[7,12:14,19-diimino-21,5-nitrilo-5H-tribenzo[c,h,m][1,6,11]triazacyclopentadecinato(2-)-N22,N23,N24]-, (T-4)-; phases: Liquid, Crystal
Fixed: Pressure, kPa = 101
Property: Molality, mol/kg of Boron, chloro[7,12:14,19-diimino-21,5-nitrilo-5H-tribenzo[c,h,m][1,6,11]triazacyclopentadecinato(2-)-N22,N23,N24]-, (T-4)- (Liquid); method: Spectra
Temperature, K	Molality, mol/kg of Boron, chloro[7,12:14,19-diimino-21,5-nitrilo-5H-tribenzo[c,h,m][1,6,11]triazacyclopentadecinato(2-)-N22,N23,N24]-, (T-4)-	uncertainty
295.15	.000196	.0000434

System: toluene + Boron, chloro[7,12:14,19-diimino-21,5-nitrilo-5H-tribenzo[c,h,m][1,6,11]triazacyclopentadecinato(2-)-N22,N23,N24]-, (T-4)-; phases: Liquid, Crystal
Fixed: Pressure, kPa = 101
Property: Molality, mol/kg of Boron, chloro[7,12:14,19-diimino-21,5-nitrilo-5H-tribenzo[c,h,m][1,6,11]triazacyclopentadecinato(2-)-N22,N23,N24]-, (T-4)- (Liquid); method: Spectra
Temperature, K	Molality, mol/kg of Boron, chloro[7,12:14,19-diimino-21,5-nitrilo-5H-tribenzo[c,h,m][1,6,11]triazacyclopentadecinato(2-)-N22,N23,N24]-, (T-4)-	uncertainty
295.15	.000151	.0000334

System: N,N-dimethylformamide + Boron, chloro[7,12:14,19-diimino-21,5-nitrilo-5H-tribenzo[c,h,m][1,6,11]triazacyclopentadecinato(2-)-N22,N23,N24]-, (T-4)-; phases: Liquid, Crystal
Fixed: Pressure, kPa = 101
Property: Molality, mol/kg of Boron, chloro[7,12:14,19-diimino-21,5-nitrilo-5H-tribenzo[c,h,m][1,6,11]triazacyclopentadecinato(2-)-N22,N23,N24]-, (T-4)- (Liquid); method: Spectra
Temperature, K	Molality, mol/kg of Boron, chloro[7,12:14,19-diimino-21,5-nitrilo-5H-tribenzo[c,h,m][1,6,11]triazacyclopentadecinato(2-)-N22,N23,N24]-, (T-4)-	uncertainty
295.15	.0000925	.000018

System: methanecarbonitrile + Boron, chloro[7,12:14,19-diimino-21,5-nitrilo-5H-tribenzo[c,h,m][1,6,11]triazacyclopentadecinato(2-)-N22,N23,N24]-, (T-4)-; phases: Liquid, Crystal
Fixed: Pressure, kPa = 101
Property: Molality, mol/kg of Boron, chloro[7,12:14,19-diimino-21,5-nitrilo-5H-tribenzo[c,h,m][1,6,11]triazacyclopentadecinato(2-)-N22,N23,N24]-, (T-4)- (Liquid); method: Spectra
Temperature, K	Molality, mol/kg of Boron, chloro[7,12:14,19-diimino-21,5-nitrilo-5H-tribenzo[c,h,m][1,6,11]triazacyclopentadecinato(2-)-N22,N23,N24]-, (T-4)-	uncertainty
295.15	.00000976	.000001039

System: propanone + Boron, [7,12:14,19-diimino-21,5-nitrilo-5H-tribenzo[c,h,m][1,6,11]triazacyclopentadecinato(2-)-N22,N23,N24]fluoro-, (T-4)-; phases: Liquid, Crystal
Fixed: Pressure, kPa = 101
Property: Molality, mol/kg of Boron, [7,12:14,19-diimino-21,5-nitrilo-5H-tribenzo[c,h,m][1,6,11]triazacyclopentadecinato(2-)-N22,N23,N24]fluoro-, (T-4)- (Liquid); method: Spectra
Temperature, K	Molality, mol/kg of Boron, [7,12:14,19-diimino-21,5-nitrilo-5H-tribenzo[c,h,m][1,6,11]triazacyclopentadecinato(2-)-N22,N23,N24]fluoro-, (T-4)-	uncertainty
295.15	.000178	.0000367

System: methane, trichloro- + Boron, [7,12:14,19-diimino-21,5-nitrilo-5H-tribenzo[c,h,m][1,6,11]triazacyclopentadecinato(2-)-N22,N23,N24]fluoro-, (T-4)-; phases: Liquid, Crystal
Fixed: Pressure, kPa = 101
Property: Molality, mol/kg of Boron, [7,12:14,19-diimino-21,5-nitrilo-5H-tribenzo[c,h,m][1,6,11]triazacyclopentadecinato(2-)-N22,N23,N24]fluoro-, (T-4)- (Liquid); method: Spectra
Temperature, K	Molality, mol/kg of Boron, [7,12:14,19-diimino-21,5-nitrilo-5H-tribenzo[c,h,m][1,6,11]triazacyclopentadecinato(2-)-N22,N23,N24]fluoro-, (T-4)-	uncertainty
295.15	.00205	.000457

System: monochlorobenzene + Boron, [7,12:14,19-diimino-21,5-nitrilo-5H-tribenzo[c,h,m][1,6,11]triazacyclopentadecinato(2-)-N22,N23,N24]fluoro-, (T-4)-; phases: Liquid, Crystal
Fixed: Pressure, kPa = 101
Property: Molality, mol/kg of Boron, [7,12:14,19-diimino-21,5-nitrilo-5H-tribenzo[c,h,m][1,6,11]triazacyclopentadecinato(2-)-N22,N23,N24]fluoro-, (T-4)- (Liquid); method: Spectra
Temperature, K	Molality, mol/kg of Boron, [7,12:14,19-diimino-21,5-nitrilo-5H-tribenzo[c,h,m][1,6,11]triazacyclopentadecinato(2-)-N22,N23,N24]fluoro-, (T-4)-	uncertainty
295.15	.00205	.000457

System: ethanoic acid, propyl ester + Boron, [7,12:14,19-diimino-21,5-nitrilo-5H-tribenzo[c,h,m][1,6,11]triazacyclopentadecinato(2-)-N22,N23,N24]fluoro-, (T-4)-; phases: Liquid, Crystal
Fixed: Pressure, kPa = 101
Property: Molality, mol/kg of Boron, [7,12:14,19-diimino-21,5-nitrilo-5H-tribenzo[c,h,m][1,6,11]triazacyclopentadecinato(2-)-N22,N23,N24]fluoro-, (T-4)- (Liquid); method: Spectra
Temperature, K	Molality, mol/kg of Boron, [7,12:14,19-diimino-21,5-nitrilo-5H-tribenzo[c,h,m][1,6,11]triazacyclopentadecinato(2-)-N22,N23,N24]fluoro-, (T-4)-	uncertainty
295.15	.000196	.0000148

System: oxacyclopentane + Boron, [7,12:14,19-diimino-21,5-nitrilo-5H-tribenzo[c,h,m][1,6,11]triazacyclopentadecinato(2-)-N22,N23,N24]fluoro-, (T-4)-; phases: Liquid, Crystal
Fixed: Pressure, kPa = 101
Property: Molality, mol/kg of Boron, [7,12:14,19-diimino-21,5-nitrilo-5H-tribenzo[c,h,m][1,6,11]triazacyclopentadecinato(2-)-N22,N23,N24]fluoro-, (T-4)- (Liquid); method: Spectra
Temperature, K	Molality, mol/kg of Boron, [7,12:14,19-diimino-21,5-nitrilo-5H-tribenzo[c,h,m][1,6,11]triazacyclopentadecinato(2-)-N22,N23,N24]fluoro-, (T-4)-	uncertainty
295.15	.00137	.000176

System: toluene + Boron, [7,12:14,19-diimino-21,5-nitrilo-5H-tribenzo[c,h,m][1,6,11]triazacyclopentadecinato(2-)-N22,N23,N24]fluoro-, (T-4)-; phases: Liquid, Crystal
Fixed: Pressure, kPa = 101
Property: Molality, mol/kg of Boron, [7,12:14,19-diimino-21,5-nitrilo-5H-tribenzo[c,h,m][1,6,11]triazacyclopentadecinato(2-)-N22,N23,N24]fluoro-, (T-4)- (Liquid); method: Spectra
Temperature, K	Molality, mol/kg of Boron, [7,12:14,19-diimino-21,5-nitrilo-5H-tribenzo[c,h,m][1,6,11]triazacyclopentadecinato(2-)-N22,N23,N24]fluoro-, (T-4)-	uncertainty
295.15	.0013	.000462

System: N,N-dimethylformamide + Boron, [7,12:14,19-diimino-21,5-nitrilo-5H-tribenzo[c,h,m][1,6,11]triazacyclopentadecinato(2-)-N22,N23,N24]fluoro-, (T-4)-; phases: Liquid, Crystal
Fixed: Pressure, kPa = 101
Property: Molality, mol/kg of Boron, [7,12:14,19-diimino-21,5-nitrilo-5H-tribenzo[c,h,m][1,6,11]triazacyclopentadecinato(2-)-N22,N23,N24]fluoro-, (T-4)- (Liquid); method: Spectra
Temperature, K	Molality, mol/kg of Boron, [7,12:14,19-diimino-21,5-nitrilo-5H-tribenzo[c,h,m][1,6,11]triazacyclopentadecinato(2-)-N22,N23,N24]fluoro-, (T-4)-	uncertainty
295.15	.000608	.0000459

System: methanecarbonitrile + Boron, [7,12:14,19-diimino-21,5-nitrilo-5H-tribenzo[c,h,m][1,6,11]triazacyclopentadecinato(2-)-N22,N23,N24]fluoro-, (T-4)-; phases: Liquid, Crystal
Fixed: Pressure, kPa = 101
Property: Molality, mol/kg of Boron, [7,12:14,19-diimino-21,5-nitrilo-5H-tribenzo[c,h,m][1,6,11]triazacyclopentadecinato(2-)-N22,N23,N24]fluoro-, (T-4)- (Liquid); method: Spectra
Temperature, K	Molality, mol/kg of Boron, [7,12:14,19-diimino-21,5-nitrilo-5H-tribenzo[c,h,m][1,6,11]triazacyclopentadecinato(2-)-N22,N23,N24]fluoro-, (T-4)-	uncertainty
295.15	.0000454	.0000129
