Measured thermophysical data. Propylene and Propane Solubility in Imidazolium, Pyridinium, and Tetralkylammonium Based Ionic Liquids Containing a Silver Salt
Source: J. Chem. Eng. Data, 2013, 10.1021/je301368x
Compound 1: 1-ethyl-3-methylimidazolium tetrafluoroborate, C6H11BF4N2, purity 99%
Compound 2: 1-hexyl-3-methylimidazolium tetrafluoroborate, C10H19BF4N2, purity 99%
Compound 3: 1-methyl-3-octylimidazolium tetrafluoroborate, C12H23BF4N2, purity 99%
Compound 4: 1-butyl-3-methylimidazolium nitrate, C8H15N3O3, purity 99%
Compound 5: 1-butyl-3-methylimidazolium 1,1,1-trifluoro-N-[(trifluoromethyl)sulfonyl]methanesulfonamide, C10H15F6N3O4S2, purity 99%
Compound 6: methyltrioctylammonium 1,1,1-trifluoro-N-[(trifluoromethyl)sulfonyl]methanesulfonamide, C27H54F6N2O4S2, purity 99%
Compound 7: butyltrimethylammonium bis(trifluoromethylsulfonyl)imide, C9H18F6N2O4S2, purity 99%
Compound 8: propene, C3H6, purity 99.5%
Compound 9: n-propane, C3H8, purity 99.5%
Compound 10: silver tetrafluoroborate, AgBF4, purity 99%
Compound 11: slver bis(trifluoromethylsulfonyl)amide, C2AgF6NO4S2, purity 97%

System: propene + 1-ethyl-3-methylimidazolium tetrafluoroborate; phases: Liquid, Gas
Property: Molality, mol/kg of propene (Liquid); method: Volume gas absorbed
Temperature, K	Pressure, kPa	Molality, mol/kg of propene	uncertainty
288	83	.043	.002
288	181	.089	.002
288	265	.132	.002
288	357	.173	.002
288	437	.214	.002
288	534	.262	.002
298	90	.038	.002
298	189	.076	.002
298	284	.111	.002
298	378	.143	.002
298	475	.18	.002
298	595	.219	.002
308	120	.036	.002
308	204	.058	.002
308	321	.092	.002
308	401	.11	.002
308	461	.13	.002
308	557	.151	.002

System: propene + 1-hexyl-3-methylimidazolium tetrafluoroborate; phases: Liquid, Gas
Property: Molality, mol/kg of propene (Liquid); method: Volume gas absorbed
Temperature, K	Pressure, kPa	Molality, mol/kg of propene	uncertainty
288	71	.096	.002
288	140	.192	.002
288	206	.283	.002
288	275	.37	.002
288	345	.46	.002
288	414	.559	.002
288	483	.658	.002
298	64	.071	.002
298	135	.15	.002
298	199	.22	.002
298	268	.288	.002
298	338	.372	.002
298	415	.453	.002
298	487	.538	.002
308	72	.055	.002
308	141	.106	.002
308	211	.16	.002
308	279	.217	.002
308	347	.277	.002
308	423	.332	.002
308	527	.408	.002

System: propene + 1-methyl-3-octylimidazolium tetrafluoroborate; phases: Liquid, Gas
Property: Molality, mol/kg of propene (Liquid); method: Volume gas absorbed
Temperature, K	Pressure, kPa	Molality, mol/kg of propene	uncertainty
288	61	.077	.002
288	132	.17	.002
288	193	.275	.002
288	259	.392	.002
288	329	.526	.002
288	395	.667	.002
288	459	.848	.002
298	72	.077	.002
298	133	.131	.002
298	197	.208	.002
298	271	.299	.002
298	337	.38	.002
298	405	.468	.002
298	476	.562	.002
308	67	.053	.002
308	139	.109	.002
308	207	.165	.002
308	275	.241	.002
308	341	.322	.002
308	421	.367	.002
308	490	.433	.002

System: propene + 1-butyl-3-methylimidazolium nitrate; phases: Liquid, Gas
Property: Molality, mol/kg of propene (Liquid); method: Volume gas absorbed
Temperature, K	Pressure, kPa	Molality, mol/kg of propene	uncertainty
288	103	.077	.002
288	188	.132	.002
288	271	.187	.002
288	342	.235	.002
288	418	.284	.002
288	490	.321	.002
288	570	.368	.002
288	661	.418	.002
298	101	.063	.002
298	184	.104	.002
298	258	.148	.002
298	336	.185	.002
298	413	.223	.002
298	493	.271	.002
298	565	.304	.002
308	109	.049	.002
308	200	.077	.002
308	293	.117	.002
308	376	.147	.002
308	461	.171	.002
308	543	.196	.002
308	612	.213	.002
308	675	.231	.002

System: propene + 1-butyl-3-methylimidazolium 1,1,1-trifluoro-N-[(trifluoromethyl)sulfonyl]methanesulfonamide; phases: Liquid, Gas
Property: Molality, mol/kg of propene (Liquid); method: Volume gas absorbed
Temperature, K	Pressure, kPa	Molality, mol/kg of propene	uncertainty
288	66	.064	.002
288	140	.135	.002
288	213	.207	.002
288	284	.293	.002
288	357	.364	.002
288	419	.431	.002
288	495	.503	.002
298	72	.044	.002
298	127	.084	.002
298	186	.117	.002
298	271	.173	.002
298	344	.225	.002
298	417	.279	.002
298	497	.331	.002
308	84	.04	.002
308	147	.074	.002
308	221	.118	.002
308	292	.153	.002
308	363	.189	.002
308	430	.226	.002
308	509	.27	.002

System: propene + methyltrioctylammonium 1,1,1-trifluoro-N-[(trifluoromethyl)sulfonyl]methanesulfonamide; phases: Liquid, Gas
Property: Molality, mol/kg of propene (Liquid); method: Volume gas absorbed
Temperature, K	Pressure, kPa	Molality, mol/kg of propene	uncertainty
288	78	.191	.002
288	162	.445	.002
288	239	.671	.002
288	337	1.004	.002
288	418	1.316	.002
288	523	1.571	.002
298	76	.133	.002
298	163	.313	.002
298	252	.534	.002
298	365	.788	.002
298	478	1.049	.002
298	567	1.281	.002
308	85	.127	.002
308	178	.276	.002
308	270	.411	.002
308	393	.596	.002
308	509	.779	.002
308	597	.967	.002

System: propene + butyltrimethylammonium bis(trifluoromethylsulfonyl)imide; phases: Liquid, Gas
Property: Molality, mol/kg of propene (Liquid); method: Volume gas absorbed
Temperature, K	Pressure, kPa	Molality, mol/kg of propene	uncertainty
288	80	.1	.002
288	167	.197	.002
288	258	.3	.002
288	360	.438	.002
288	433	.524	.002
288	530	.647	.002
298	79	.079	.002
298	175	.161	.002
298	260	.24	.002
298	339	.32	.002
298	430	.403	.002
298	539	.498	.002
308	86	.058	.002
308	182	.117	.002
308	281	.185	.002
308	380	.255	.002
308	468	.314	.002
308	544	.364	.002

System: n-propane + 1-ethyl-3-methylimidazolium tetrafluoroborate; phases: Liquid, Gas
Property: Molality, mol/kg of n-propane (Liquid); method: Volume gas absorbed
Temperature, K	Pressure, kPa	Molality, mol/kg of n-propane	uncertainty
288	94	.023	.002
288	207	.045	.002
288	293	.065	.002
288	390	.089	.002
288	472	.116	.002
288	561	.145	.002
298	98	.021	.002
298	197	.033	.002
298	296	.046	.002
298	401	.061	.002
298	475	.075	.002
298	578	.089	.002
308	99	.015	.002
308	213	.023	.002
308	310	.035	.002
308	409	.042	.002
308	499	.051	.002
308	587	.06	.002

System: n-propane + 1-hexyl-3-methylimidazolium tetrafluoroborate; phases: Liquid, Gas
Property: Molality, mol/kg of n-propane (Liquid); method: Volume gas absorbed
Temperature, K	Pressure, kPa	Molality, mol/kg of n-propane	uncertainty
308	88	.032	.002
308	149	.059	.002
308	217	.089	.002
308	305	.127	.002
308	370	.156	.002
308	436	.186	.002
308	509	.217	.002
298	129	.069	.002
298	218	.117	.002
298	251	.142	.002
298	286	.157	.002
298	350	.194	.002
298	427	.239	.002
298	500	.293	.002
288	76	.049	.002
288	145	.097	.002
288	206	.15	.002
288	273	.234	.002
288	331	.259	.002
288	400	.313	.002
288	451	.353	.002

System: n-propane + 1-methyl-3-octylimidazolium tetrafluoroborate; phases: Liquid, Gas
Property: Molality, mol/kg of n-propane (Liquid); method: Volume gas absorbed
Temperature, K	Pressure, kPa	Molality, mol/kg of n-propane	uncertainty
288	66	.06	.002
288	131	.127	.002
288	202	.192	.002
288	270	.249	.002
288	337	.329	.002
288	412	.38	.002
288	481	.45	.002
298	80	.055	.002
298	169	.118	.002
298	224	.164	.002
298	286	.215	.002
298	355	.271	.002
298	423	.33	.002
298	494	.401	.002
308	70	.039	.002
308	140	.082	.002
308	212	.12	.002
308	282	.163	.002
308	353	.223	.002
308	418	.277	.002
308	489	.334	.002

System: n-propane + 1-butyl-3-methylimidazolium nitrate; phases: Liquid, Gas
Property: Molality, mol/kg of n-propane (Liquid); method: Volume gas absorbed
Temperature, K	Pressure, kPa	Molality, mol/kg of n-propane	uncertainty
308	114	.022	.002
308	197	.037	.002
308	284	.054	.002
308	363	.069	.002
308	464	.088	.002
308	537	.101	.002
308	615	.116	.002
308	666	.126	.002
298	108	.026	.002
298	175	.042	.002
298	247	.058	.002
298	340	.081	.002
298	427	.101	.002
298	501	.119	.002
298	543	.129	.002
298	646	.153	.002
288	101	.038	.002
288	167	.064	.002
288	256	.097	.002
288	335	.128	.002
288	421	.16	.002
288	487	.185	.002
288	555	.212	.002
288	643	.245	.002

System: n-propane + 1-butyl-3-methylimidazolium 1,1,1-trifluoro-N-[(trifluoromethyl)sulfonyl]methanesulfonamide; phases: Liquid, Gas
Property: Molality, mol/kg of n-propane (Liquid); method: Volume gas absorbed
Temperature, K	Pressure, kPa	Molality, mol/kg of n-propane	uncertainty
288	67	.052	.002
288	136	.101	.002
288	206	.149	.002
288	276	.201	.002
288	346	.253	.002
288	412	.312	.002
288	495	.379	.002
298	74	.033	.002
298	156	.075	.002
298	228	.112	.002
298	297	.147	.002
298	353	.183	.002
298	425	.224	.002
298	495	.263	.002
308	81	.033	.002
308	147	.056	.002
308	218	.086	.002
308	290	.114	.002
308	362	.142	.002
308	428	.168	.002
308	502	.2	.002

System: n-propane + methyltrioctylammonium 1,1,1-trifluoro-N-[(trifluoromethyl)sulfonyl]methanesulfonamide; phases: Liquid, Gas
Property: Molality, mol/kg of n-propane (Liquid); method: Volume gas absorbed
Temperature, K	Pressure, kPa	Molality, mol/kg of n-propane	uncertainty
308	120	.151	.002
308	218	.284	.002
308	296	.409	.002
308	384	.548	.002
308	479	.694	.002
308	567	.842	.002
298	79	.126	.002
298	160	.285	.002
298	255	.464	.002
298	347	.678	.002
298	442	.914	.002
298	537	1.167	.002
288	75	.168	.002
288	157	.389	.002
288	257	.665	.002
288	343	.942	.002
288	425	1.275	.002
288	522	1.707	.002

System: n-propane + butyltrimethylammonium bis(trifluoromethylsulfonyl)imide; phases: Liquid, Gas
Property: Molality, mol/kg of n-propane (Liquid); method: Volume gas absorbed
Temperature, K	Pressure, kPa	Molality, mol/kg of n-propane	uncertainty
288	81	.063	.002
288	175	.123	.002
288	265	.193	.002
288	361	.265	.002
288	456	.338	.002
288	548	.411	.002
298	92	.052	.002
298	187	.096	.002
298	288	.139	.002
298	383	.193	.002
298	447	.229	.002
298	533	.272	.002
308	89	.038	.002
308	182	.071	.002
308	282	.106	.002
308	383	.139	.002
308	477	.185	.002
308	562	.227	.002

System: propene + silver tetrafluoroborate + 1-ethyl-3-methylimidazolium tetrafluoroborate; phases: Liquid, Gas
Property: Molality, mol/kg of propene (Liquid); method: Volume gas absorbed
Temperature, K	Molality, mol/kg of silver tetrafluoroborate	Pressure, kPa	Molality, mol/kg of propene	uncertainty
288	.077	62	.113	.005
288	.077	167	.18	.005
288	.077	272	.249	.005
288	.077	381	.31	.005
288	.077	475	.372	.005
288	.077	601	.44	.005
298	.077	81	.114	.005
298	.077	188	.173	.005
298	.077	289	.219	.005
298	.077	385	.275	.005
298	.077	476	.308	.005
298	.077	581	.359	.005
308	.077	70	.086	.005
308	.077	178	.13	.005
308	.077	293	.169	.005
308	.077	383	.202	.005
308	.077	502	.243	.005
308	.077	581	.28	.005
288	.19	48	.201	.005
288	.19	154	.306	.005
288	.19	258	.377	.005
288	.19	345	.441	.005
288	.19	438	.496	.005
288	.19	541	.57	.005
298	.19	61	.191	.005
298	.19	170	.283	.005
298	.19	266	.342	.005
298	.19	357	.39	.005
298	.19	443.5	.434	.005
298	.19	557	.481	.005
308	.19	56	.175	.005
308	.19	169	.248	.005
308	.19	274	.298	.005
308	.19	370.5	.337	.005
308	.19	457	.374	.005
308	.19	552	.404	.005
288	.38	28	.366	.005
288	.38	134	.569	.005
288	.38	243	.689	.005
288	.38	351	.776	.005
288	.38	436	.86	.005
288	.38	540	.951	.005
298	.38	27	.335	.005
298	.38	137	.511	.005
298	.38	248	.613	.005
298	.38	355	.69	.005
298	.38	440	.749	.005
298	.38	634	.873	.005
308	.38	35	.311	.005
308	.38	140	.479	.005
308	.38	242	.567	.005
308	.38	352	.637	.005
308	.38	450	.703	.005
308	.38	577	.768	.005
288	.77	6	.551	.005
288	.77	72	1.007	.005
288	.77	199	1.258	.005
288	.77	323	1.409	.005
288	.77	431	1.518	.005
288	.77	519	1.609	.005
298	.77	9	.482	.005
298	.77	75	.905	.005
298	.77	205	1.111	.005
298	.77	328	1.246	.005
298	.77	432	1.33	.005
298	.77	523	1.406	.005
308	.77	9	.433	.005
308	.77	80	.824	.005
308	.77	212	1.028	.005
308	.77	339	1.139	.005
308	.77	433	1.223	.005
308	.77	534	1.278	.005

System: propene + silver tetrafluoroborate + 1-hexyl-3-methylimidazolium tetrafluoroborate; phases: Liquid, Gas
Property: Molality, mol/kg of propene (Liquid); method: Volume gas absorbed
Temperature, K	Molality, mol/kg of silver tetrafluoroborate	Pressure, kPa	Molality, mol/kg of propene	uncertainty
288	.077	51	.182	.005
288	.077	127	.305	.005
288	.077	200	.414	.005
288	.077	268	.508	.005
288	.077	342	.606	.005
288	.077	407	.726	.005
288	.077	484	.806	.005
298	.077	49	.138	.005
298	.077	126	.234	.005
298	.077	212	.338	.005
298	.077	277	.411	.005
298	.077	350	.49	.005
298	.077	412	.552	.005
298	.077	479	.625	.005
308	.077	66	.104	.005
308	.077	136	.17	.005
308	.077	227	.246	.005
308	.077	292	.301	.005
308	.077	348	.376	.005
308	.077	420	.483	.005
308	.077	514	.56	.005
288	.19	31	.257	.005
288	.19	102	.429	.005
288	.19	188	.576	.005
288	.19	274	.703	.005
288	.19	346	.824	.005
288	.19	418	.919	.005
288	.19	479	1.038	.005
298	.19	48	.248	.005
298	.19	129	.361	.005
298	.19	197	.429	.005
298	.19	266	.526	.005
298	.19	333	.639	.005
298	.19	405	.736	.005
298	.19	476	.809	.005
308	.19	64	.179	.005
308	.19	139	.277	.005
308	.19	207	.349	.005
308	.19	278	.422	.005
308	.19	349	.484	.005
308	.19	427	.559	.005
308	.19	492	.616	.005
288	.38	16	.388	.005
288	.38	85	.743	.005
288	.38	164	.972	.005
288	.38	251	1.163	.005
288	.38	321	1.395	.005
288	.38	387	1.617	.005
288	.38	487	1.825	.005
298	.38	31	.317	.005
298	.38	108	.505	.005
298	.38	190	.632	.005
298	.38	267	.731	.005
298	.38	338	.813	.005
298	.38	414	.901	.005
298	.38	486	.976	.005
308	.38	35	.258	.005
308	.38	106	.459	.005
308	.38	212	.651	.005
308	.38	292	.789	.005
308	.38	346	.996	.005
308	.38	435	1.126	.005
308	.38	510	1.236	.005
298	.77	53	.747	.005
298	.77	152	1.022	.005
298	.77	244	1.183	.005
298	.77	332	1.302	.005
298	.77	404	1.393	.005
298	.77	492	1.496	.005
298	.77	554	1.568	.005

System: propene + silver tetrafluoroborate + 1-methyl-3-octylimidazolium tetrafluoroborate; phases: Liquid, Gas
Property: Molality, mol/kg of propene (Liquid); method: Volume gas absorbed
Temperature, K	Molality, mol/kg of silver tetrafluoroborate	Pressure, kPa	Molality, mol/kg of propene	uncertainty
288	.077	49	.136	.005
288	.077	119	.259	.005
288	.077	189	.387	.005
288	.077	271	.51	.005
288	.077	336	.613	.005
288	.077	403	.764	.005
288	.077	477	.89	.005
298	.077	58	.112	.005
298	.077	127	.203	.005
298	.077	207	.302	.005
298	.077	271	.382	.005
298	.077	336	.478	.005
298	.077	418	.581	.005
298	.077	485	.662	.005
308	.077	63	.087	.005
308	.077	140	.166	.005
308	.077	205	.231	.005
308	.077	277	.295	.005
308	.077	348	.357	.005
308	.077	418	.424	.005
308	.077	495	.493	.005
288	.19	38	.21	.005
288	.19	108	.385	.005
288	.19	185	.516	.005
288	.19	262	.633	.005
288	.19	326	.793	.005
288	.19	403	.895	.005
288	.19	472	1.023	.005
298	.19	49	.175	.005
298	.19	120	.291	.005
298	.19	195	.408	.005
298	.19	278	.514	.005
298	.19	341	.6	.005
298	.19	408	.693	.005
298	.19	478	.788	.005
308	.19	48	.133	.005
308	.19	130	.259	.005
308	.19	202	.346	.005
308	.19	273	.427	.005
308	.19	343	.506	.005
308	.19	423	.597	.005
308	.19	486	.668	.005
298	.38	15	.319	.005
298	.38	86	.596	.005
298	.38	176	.771	.005
298	.38	253	.89	.005
298	.38	327	1	.005
298	.38	408	1.116	.005
298	.38	479	1.213	.005
298	.77	10	.337	.005
298	.77	43	.794	.005
298	.77	143	1.13	.005
298	.77	249	1.335	.005
298	.77	329	1.477	.005
298	.77	401	1.59	.005
298	.77	476	1.7	.005

System: propene + 1-butyl-3-methylimidazolium 1,1,1-trifluoro-N-[(trifluoromethyl)sulfonyl]methanesulfonamide + slver bis(trifluoromethylsulfonyl)amide; phases: Liquid, Gas
Property: Molality, mol/kg of propene (Liquid); method: Volume gas absorbed
Temperature, K	Molality, mol/kg of slver bis(trifluoromethylsulfonyl)amide	Pressure, kPa	Molality, mol/kg of propene	uncertainty
288	.077	48	.123	.005
288	.077	125	.24	.005
288	.077	198	.337	.005
288	.077	266	.435	.005
288	.077	348	.529	.005
288	.077	435	.625	.005
288	.077	539	.757	.005
298	.077	70	.117	.005
298	.077	141	.187	.005
298	.077	209	.25	.005
298	.077	279	.312	.005
298	.077	350	.376	.005
298	.077	425	.442	.005
298	.077	525	.532	.005
308	.077	52	.088	.005
308	.077	140	.162	.005
308	.077	242	.237	.005
308	.077	333	.298	.005
308	.077	420	.357	.005
308	.077	500	.409	.005
308	.077	584	.467	.005
288	.19	30	.175	.005
288	.19	94	.329	.005
288	.19	174	.467	.005
288	.19	252	.581	.005
288	.19	325	.7	.005
288	.19	403	.797	.005
288	.19	512	.93	.005
298	.19	38	.143	.005
298	.19	118	.272	.005
298	.19	198	.374	.005
298	.19	275	.455	.005
298	.19	351	.534	.005
298	.19	440	.62	.005
298	.19	549	.737	.005
308	.19	52	.144	.005
308	.19	125	.24	.005
308	.19	202	.32	.005
308	.19	285	.391	.005
308	.19	368	.457	.005
308	.19	446	.519	.005
308	.19	543	.59	.005
288	.38	18	.251	.005
288	.38	80	.553	.005
288	.38	197	.824	.005
288	.38	317	1.057	.005
288	.38	427	1.239	.005
288	.38	515	1.396	.005
288	.38	620	1.578	.005
298	.38	23	.21	.005
298	.38	79	.426	.005
298	.38	177	.594	.005
298	.38	267	.744	.005
298	.38	369	.897	.005
298	.38	471	1.033	.005
308	.38	31	.193	.005
308	.38	105	.382	.005
308	.38	208	.536	.005
308	.38	316	.659	.005
308	.38	424	.755	.005
308	.38	543	.859	.005
308	.38	647	.944	.005
288	.77	15	.427	.005
288	.77	65	.872	.005
288	.77	163	1.244	.005
288	.77	273	1.514	.005
288	.77	371	1.755	.005
288	.77	483	1.991	.005
288	.77	587	2.244	.005
298	.77	17	.352	.005
298	.77	83	.785	.005
298	.77	193	1.11	.005
298	.77	306	1.335	.005
298	.77	406	1.511	.005
298	.77	502	1.671	.005
298	.77	615	1.84	.005
308	.77	25	.328	.005
308	.77	99	.678	.005
308	.77	216	.94	.005
308	.77	355	1.153	.005
308	.77	461	1.29	.005
308	.77	560	1.412	.005
308	.77	653	1.519	.005

System: propene + slver bis(trifluoromethylsulfonyl)amide + butyltrimethylammonium bis(trifluoromethylsulfonyl)imide; phases: Liquid, Gas
Property: Molality, mol/kg of propene (Liquid); method: Volume gas absorbed
Temperature, K	Molality, mol/kg of slver bis(trifluoromethylsulfonyl)amide	Pressure, kPa	Molality, mol/kg of propene	uncertainty
288	.077	62	.163	.005
288	.077	169	.332	.005
288	.077	250	.449	.005
288	.077	327	.559	.005
288	.077	424	.694	.005
288	.077	515	.824	.005
298	.077	70	.146	.005
298	.077	169	.255	.005
298	.077	254	.351	.005
298	.077	347	.451	.005
298	.077	435	.545	.005
298	.077	518	.633	.005
308	.077	75	.117	.005
308	.077	173	.208	.005
308	.077	265	.273	.005
308	.077	348	.339	.005
308	.077	434	.412	.005
308	.077	524	.492	.005
288	.19	39	.25	.005
288	.19	133.5	.464	.005
288	.19	226	.621	.005
288	.19	320	.765	.005
288	.19	406	.905	.005
288	.19	498	1.052	.005
298	.19	53	.209	.005
298	.19	151	.361	.005
298	.19	244	.471	.005
298	.19	341	.577	.005
298	.19	437	.686	.005
298	.19	528	.793	.005
308	.19	51	.181	.005
308	.19	156	.317	.005
308	.19	254	.424	.005
308	.19	345	.508	.005
308	.19	455	.612	.005
308	.19	533	.683	.005
