Measured thermophysical data. Solubility Advantage of Pyrazine-2-carboxamide: Application of Alternative Solvents on the Way to the Future Pharmaceutical Development
Source: J. Chem. Eng. Data, 2012, 10.1021/je300044x
Compound 1: pyrazinecarboxamide, C5H5N3O, purity 98%
Compound 2: 1-ethyl-3-methylimidazolium bis[(trifluoromethyl)sulfonyl]imide, C8H11F6N3O4S2, purity 99%
Compound 3: 1-butyl-3-methylimidazolium bis[(trifluoromethyl)sulfonyl]amide, C10H15F6N3O4S2, purity 99%
Compound 4: 1-hexyl-3-methylimidazolium bis[(trifluoromethyl)sulfonyl]imide, C12H19F6N3O4S2, purity 99%
Compound 5: 1-octyl-3-methylimidazolium 1,1,1-trifluoro-N-[(trifluoromethyl)sulfonyl]methanesulfonamide, C14H23F6N3O4S2, purity 99%
Compound 6: 1-decyl-3-methylimidazolium bis(trifluoromethylsulfonyl)imide, C16H23F6N3O4S2, purity 99%
Compound 7: 1-decyl-3-methylimidazolium trifluoromethansulfate, C15H27F3N2O3S, purity 99%

System: pyrazinecarboxamide; phases: Crystal 1, Liquid, Air at 1 atmosphere
Property: Normal melting temperature, K (Crystal 1); method: DSC/DTA
Normal melting temperature, K	uncertainty
461.42	.5

System: pyrazinecarboxamide; phases: Crystal 1, Liquid, Air at 1 atmosphere
Property: Molar enthalpy of transition or fusion, kJ/mol (Crystal 1); method: DSC/DTA
Molar enthalpy of transition or fusion, kJ/mol	uncertainty
28.135	.281

System: pyrazinecarboxamide; phases: Crystal 2, Crystal 1, Air at 1 atmosphere
Property: Molar enthalpy of transition or fusion, kJ/mol (Crystal 2); method: DSC/DTA
Molar enthalpy of transition or fusion, kJ/mol	uncertainty
1.632	.016

System: pyrazinecarboxamide; phases: Crystal 2, Crystal 1, Air at 1 atmosphere
Property: Triple point temperature, K (Crystal 2); method: DSC/DTA
Triple point temperature, K	uncertainty
420.36	.5

System: 1-ethyl-3-methylimidazolium bis[(trifluoromethyl)sulfonyl]imide; phases: Crystal, Liquid, Air at 1 atmosphere
Property: Normal melting temperature, K (Crystal); method: Visual observation
Normal melting temperature, K	uncertainty
256.91	.05

System: 1-butyl-3-methylimidazolium bis[(trifluoromethyl)sulfonyl]amide; phases: Crystal 1, Liquid, Air at 1 atmosphere
Property: Normal melting temperature, K (Crystal 1); method: Visual observation
Normal melting temperature, K	uncertainty
270.22	.05

System: 1-hexyl-3-methylimidazolium bis[(trifluoromethyl)sulfonyl]imide; phases: Crystal 1, Liquid, Air at 1 atmosphere
Property: Normal melting temperature, K (Crystal 1); method: Visual observation
Normal melting temperature, K	uncertainty
272.13	.05

System: 1-octyl-3-methylimidazolium 1,1,1-trifluoro-N-[(trifluoromethyl)sulfonyl]methanesulfonamide; phases: Crystal 1, Liquid, Air at 1 atmosphere
Property: Normal melting temperature, K (Crystal 1); method: Visual observation
Normal melting temperature, K	uncertainty
251.42	.05

System: 1-decyl-3-methylimidazolium bis(trifluoromethylsulfonyl)imide; phases: Crystal 1, Liquid, Air at 1 atmosphere
Property: Normal melting temperature, K (Crystal 1); method: Visual observation
Normal melting temperature, K	uncertainty
244.15	.05

System: pyrazinecarboxamide + 1-ethyl-3-methylimidazolium bis[(trifluoromethyl)sulfonyl]imide; phases: Liquid, Crystal
Fixed: Pressure, kPa = 100
Property: Solid-liquid equilibrium temperature, K (Liquid); method: Visual observation
Mole fraction of pyrazinecarboxamide	Solid-liquid equilibrium temperature, K	uncertainty
0	256.91	.8
.0027	248.92	.8

System: pyrazinecarboxamide + 1-ethyl-3-methylimidazolium bis[(trifluoromethyl)sulfonyl]imide; phases: Liquid, Crystal 2
Fixed: Pressure, kPa = 100
Property: Solid-liquid equilibrium temperature, K (Liquid); method: Visual observation
Mole fraction of pyrazinecarboxamide	Solid-liquid equilibrium temperature, K	uncertainty
.0048	294.4	.8
.0075	313.36	.8
.0147	328.98	.8
.0197	335.51	.8
.0302	346.59	.8
.043	357.17	.8
.0532	363.65	.8
.0653	368.52	.8
.0817	375.3	.8
.1016	386.03	.8
.1278	392.35	.8
.149	397.37	.8
.1895	405.82	.8
.2122	409.43	.8

System: pyrazinecarboxamide + 1-butyl-3-methylimidazolium bis[(trifluoromethyl)sulfonyl]amide; phases: Liquid, Crystal 2
Fixed: Pressure, kPa = 100
Property: Solid-liquid equilibrium temperature, K (Liquid); method: Visual observation
Mole fraction of pyrazinecarboxamide	Solid-liquid equilibrium temperature, K	uncertainty
.0036	279.27	.8
.0054	307.31	.8
.0114	325.97	.8
.0199	339.28	.8
.0293	349.29	.8
.0397	357.59	.8
.0499	362.77	.8
.0745	376.64	.8
.0917	383.21	.8
.122	391.66	.8
.16	401.34	.8
.1981	408.48	.8
.2462	413.84	.8

System: pyrazinecarboxamide + 1-butyl-3-methylimidazolium bis[(trifluoromethyl)sulfonyl]amide; phases: Liquid, Crystal 1
Fixed: Pressure, kPa = 100
Property: Solid-liquid equilibrium temperature, K (Liquid); method: Visual observation
Mole fraction of pyrazinecarboxamide	Solid-liquid equilibrium temperature, K	uncertainty
0	270.22	.8

System: pyrazinecarboxamide + 1-hexyl-3-methylimidazolium bis[(trifluoromethyl)sulfonyl]imide; phases: Liquid, Crystal 1
Fixed: Pressure, kPa = 100
Property: Solid-liquid equilibrium temperature, K (Liquid); method: Visual observation
Mole fraction of pyrazinecarboxamide	Solid-liquid equilibrium temperature, K	uncertainty
0	272.13	.8
.0006	268.18	.8
.0012	263.58	.8

System: pyrazinecarboxamide + 1-hexyl-3-methylimidazolium bis[(trifluoromethyl)sulfonyl]imide; phases: Liquid, Crystal 2
Fixed: Pressure, kPa = 100
Property: Solid-liquid equilibrium temperature, K (Liquid); method: Visual observation
Mole fraction of pyrazinecarboxamide	Solid-liquid equilibrium temperature, K	uncertainty
.002	275.27	.8
.005	307.65	.8
.0105	326.5	.8
.0184	339.94	.8
.027	350.05	.8
.0366	358.43	.8
.0461	363.67	.8
.0687	377.67	.8
.0863	384.31	.8
.1148	392.84	.8
.1506	402.62	.8
.1865	409.83	.8
.2318	415.25	.8

System: pyrazinecarboxamide + 1-octyl-3-methylimidazolium 1,1,1-trifluoro-N-[(trifluoromethyl)sulfonyl]methanesulfonamide; phases: Liquid, Crystal 1
Fixed: Pressure, kPa = 100
Property: Solid-liquid equilibrium temperature, K (Liquid); method: Visual observation
Mole fraction of pyrazinecarboxamide	Solid-liquid equilibrium temperature, K	uncertainty
0	251.42	.8

System: pyrazinecarboxamide + 1-octyl-3-methylimidazolium 1,1,1-trifluoro-N-[(trifluoromethyl)sulfonyl]methanesulfonamide; phases: Liquid, Crystal 2
Fixed: Pressure, kPa = 100
Property: Solid-liquid equilibrium temperature, K (Liquid); method: Visual observation
Mole fraction of pyrazinecarboxamide	Solid-liquid equilibrium temperature, K	uncertainty
.003	275.37	.8
.0052	309.38	.8
.0109	329.17	.8
.0191	343.28	.8
.0281	353.89	.8
.0381	362.69	.8
.0479	368.21	.8
.0715	382.9	.8
.0898	389.87	.8
.1194	398.82	.8
.1566	409.11	.8
.194	416.66	.8

System: pyrazinecarboxamide + 1-decyl-3-methylimidazolium bis(trifluoromethylsulfonyl)imide; phases: Liquid, Crystal 1
Fixed: Pressure, kPa = 100
Property: Solid-liquid equilibrium temperature, K (Liquid); method: Visual observation
Mole fraction of pyrazinecarboxamide	Solid-liquid equilibrium temperature, K	uncertainty
0	244.15	.8

System: pyrazinecarboxamide + 1-decyl-3-methylimidazolium bis(trifluoromethylsulfonyl)imide; phases: Liquid, Crystal 2
Fixed: Pressure, kPa = 100
Property: Solid-liquid equilibrium temperature, K (Liquid); method: Visual observation
Mole fraction of pyrazinecarboxamide	Solid-liquid equilibrium temperature, K	uncertainty
.0027	275.32	.8
.0046	308.66	.8
.0097	328.05	.8
.017	341.88	.8
.025	352.31	.8
.0339	360.89	.8
.0426	366.3	.8
.0636	380.71	.8
.0799	387.97	.8
.1063	396.31	.8
.1394	406.38	.8
.1726	413.79	.8

System: pyrazinecarboxamide + 1-decyl-3-methylimidazolium trifluoromethansulfate; phases: Liquid, Crystal 2
Fixed: Pressure, kPa = 100
Property: Solid-liquid equilibrium temperature, K (Liquid); method: Visual observation
Mole fraction of pyrazinecarboxamide	Solid-liquid equilibrium temperature, K	uncertainty
.0076	290.4	.8
.0116	306.78	.8
.0239	323.02	.8
.0388	335.33	.8
.0525	346.88	.8
.066	353.06	.8
.0927	364.38	.8
.1121	369.27	.8
.1358	374.77	.8
.1833	382.72	.8
.2536	391.93	.8
.3542	403.04	.8
.4867	417.42	.8
