Measured thermophysical data. Solubility of Carbon Dioxide in the Ionic Liquid 1-Ethyl-3-methylimidazolium Tris(pentafluoroethyl)trifluorophosphate
Source: J. Chem. Eng. Data, 2012, 10.1021/je300521y
Compound 1: carbon dioxide, CO2, purity 99.995%
Compound 2: 1-ethyl-3-methylimidazolium tris(pentafluoroethyl)trifluorophosphate, C12H11F18N2P, purity 99%

System: carbon dioxide + 1-ethyl-3-methylimidazolium tris(pentafluoroethyl)trifluorophosphate; phases: Gas, Liquid
Property: Vapor or sublimation pressure, kPa (Gas); method: Closed cell (Static) method
Temperature, K	Mole fraction of carbon dioxide	Vapor or sublimation pressure, kPa	uncertainty
313.89	.1003	447	3
323.92	.1003	510	3
333.85	.1003	580	3
283.93	.2045	536	3
293.95	.2045	654	3
303.89	.2045	787	3
283.94	.3012	837	3
293.69	.3012	1024	3
303.87	.3012	1237	3
283.89	.3997	1221	3
293.9	.3997	1518	3
303.93	.3997	1884	3
283.75	.501	1716	3
293.88	.501	2145	3
303.87	.501	2628	3
293.83	.6	3137	3
303.83	.6	3758	3
313.95	.6	4553	3
344	.1003	664	3
354.04	.1003	748	3
364.09	.1003	837	3
313.83	.2045	934	3
323.82	.2045	1092	3
333.97	.2045	1270	3
313.88	.3012	1487	3
323.92	.3012	1741	3
333.97	.3012	2035	3
313.94	.3997	2229	3
323.94	.3997	2633	3
333.97	.3997	3078	3
313.88	.501	3177	3
323.93	.501	3779	3
333.96	.501	4446	3
324.07	.6	5661	3
333.98	.6	6698	3
344	.6	7833	3
343.98	.2045	1452	3
354.09	.2045	1636	3
364.08	.2045	1839	3
343.99	.3012	2332	3
354.05	.3012	2653	3
364.09	.3012	2999	3
343.91	.3997	3532	3
353.92	.3997	4030	3
364.13	.3997	4569	3
344.03	.501	5167	3
354.03	.501	5937	3
364.03	.501	6742	3
353.93	.6	9062	3
364.06	.6	10400	3
