Measured thermophysical data. Electrical Conductances of 1-Butyl-3-propylimidazolium Bromide and 1-Butyl-3-propylbenzimidazolium Bromide in Water, Methanol, and Acetonitrile at (308, 313, and 318) K at 0.1 MPa
Source: J. Chem. Eng. Data, 2013, 10.1021/je300339q
Compound 1: 1-butyl-3-propylimidazolium bromide, C10H19BrN2
Compound 2: 3-butyl-1-propylbenzimidazolium bromide, C14H21BrN2
Compound 3: cyanomethane, C2H3N, purity 99%
Compound 4: methanol, CH4O, purity 99.9%
Compound 5: water, H2O

System: cyanomethane; phases: Liquid
Fixed: Pressure, kPa = 101.325
Property: Mass density, kg/m3 (Liquid); method: Vibrating tube method
Temperature, K	Mass density, kg/m3	uncertainty
308.15	765.64	.03
313.15	759.7	.03
318.15	755.01	.03

System: cyanomethane; phases: Liquid
Fixed: Pressure, kPa = 101.325
Property: Viscosity, Pa*s (Liquid); method: Capillary tube (Ostwald; Ubbelohde) method
Temperature, K	Viscosity, Pa*s	uncertainty
308.15	.0003125	.000005
313.15	.0003042	.000005
318.15	.0002903	.000005

System: methanol; phases: Liquid
Fixed: Pressure, kPa = 101.325
Property: Mass density, kg/m3 (Liquid); method: Vibrating tube method
Temperature, K	Mass density, kg/m3	uncertainty
308.15	777.18	.03
313.15	772.5	.03
318.15	767.7	.03

System: methanol; phases: Liquid
Fixed: Pressure, kPa = 101.325
Property: Viscosity, Pa*s (Liquid); method: Capillary tube (Ostwald; Ubbelohde) method
Temperature, K	Viscosity, Pa*s	uncertainty
308.15	.0004747	.000005
313.15	.000444	.000005
318.15	.0004185	.000005

System: water + 1-butyl-3-propylimidazolium bromide; phases: Liquid
Fixed: Pressure, kPa = 101
Property: Molar conductivity, S*m2/mol (Liquid); method: Direct current cell with electrodes
Temperature, K	Molality, mol/kg of 1-butyl-3-propylimidazolium bromide	Molar conductivity, S*m2/mol	uncertainty
308	.10004	.00996	.000003
308	.089874	.010084	.000003
308	.07621	.010304	.000003
308	.056963	.01065	.000003
308	.042616	.01095	.000003
308	.031902	.011212	.000003
308	.023891	.011441	.000003
308	.017898	.011642	.000003
308	.013414	.011818	.000003
308	.010054	.011972	.000003
308	.007536	.012106	.000003
308	.005651	.012224	.000003
313	.10004	.0108	.000003
313	.089874	.01094	.000003
313	.07621	.011165	.000003
313	.056963	.011518	.000003
313	.042616	.011824	.000003
313	.031902	.012091	.000003
313	.023891	.01232	.000003
313	.017898	.012531	.000003
313	.013414	.012712	.000003
313	.010054	.012872	.000003
313	.007536	.013013	.000003
313	.005651	.013136	.000003
318	.10004	.01177	.000003
318	.089874	.011898	.000003
318	.07621	.012094	.000003
318	.056963	.012401	.000003
318	.042616	.012669	.000003
318	.031902	.012905	.000003
318	.023891	.013116	.000003
318	.017898	.013305	.000003
318	.013414	.013474	.000003
318	.010054	.013625	.000003
318	.007536	.01376	.000003
318	.005651	.01387	.000003

System: methanol + 1-butyl-3-propylimidazolium bromide; phases: Liquid
Fixed: Pressure, kPa = 101
Property: Molar conductivity, S*m2/mol (Liquid); method: Direct current cell with electrodes
Temperature, K	Molality, mol/kg of 1-butyl-3-propylimidazolium bromide	Molar conductivity, S*m2/mol	uncertainty
308	.100193	.005238	.000003
308	.090174	.005304	.000003
308	.076646	.005372	.000003
308	.057486	.005468	.000003
308	.043114	.005561	.000003
308	.032338	.005668	.000003
308	.024251	.005792	.000003
308	.018188	.005932	.000003
308	.013642	.006083	.000003
308	.010231	.006239	.000003
308	.007673	.006395	.000003
308	.005755	.006546	.000003
313	.100193	.00554	.000003
313	.090174	.005611	.000003
313	.076646	.005703	.000003
313	.057486	.005832	.000003
313	.043114	.005936	.000003
313	.032338	.006052	.000003
313	.024251	.006185	.000003
313	.018188	.006333	.000003
313	.013642	.006493	.000003
313	.010231	.006658	.000003
313	.007673	.006815	.000003
318	.100193	.005923	.000003
318	.090174	.006016	.000003
318	.076646	.006123	.000003
318	.057486	.006257	.000003
318	.043114	.006371	.000003
318	.032338	.006491	.000003
318	.024251	.006627	.000003
318	.018188	.006781	.000003
318	.013642	.006946	.000003
318	.010231	.007119	.000003
318	.007673	.00729	.000003
318	.005755	.00748	.000003

System: cyanomethane + 1-butyl-3-propylimidazolium bromide; phases: Liquid
Fixed: Pressure, kPa = 101
Property: Molar conductivity, S*m2/mol (Liquid); method: Direct current cell with electrodes
Temperature, K	Molality, mol/kg of 1-butyl-3-propylimidazolium bromide	Molar conductivity, S*m2/mol	uncertainty
308	.099872	.00592	.000003
308	.089824	.006124	.000003
308	.076282	.006433	.000003
308	.065605	.006707	.000003
308	.057139	.006944	.000003
308	.042813	.007424	.000003
308	.032088	.007883	.000003
308	.027496	.008123	.000003
308	.024052	.008325	.000003
308	.018033	.008751	.000003
308	.01352	.00916	.000003
308	.010138	.00955	.000003
313	.099872	.006199	.000003
313	.089824	.006393	.000003
313	.076282	.006701	.000003
313	.065605	.006956	.000003
313	.057139	.007222	.000003
313	.048752	.007467	.000003
313	.042813	.007724	.000003
313	.032088	.008213	.000003
313	.024052	.008691	.000003
313	.018033	.009155	.000003
313	.01352	.009604	.000003
313	.010138	.010075	.000003
318	.099872	.006435	.000003
318	.089824	.006648	.000003
318	.076282	.006968	.000003
318	.065605	.007255	.000003
318	.057139	.007523	.000003
318	.048752	.007807	.000003
318	.042813	.008054	.000003
318	.032088	.008595	.000003
318	.024052	.009114	.000003
318	.018033	.009627	.000003
318	.01352	.010128	.000003
318	.010138	.01063	.000003

System: water + 3-butyl-1-propylbenzimidazolium bromide; phases: Liquid
Fixed: Pressure, kPa = 101
Property: Molar conductivity, S*m2/mol (Liquid); method: Direct current cell with electrodes
Temperature, K	Molality, mol/kg of 3-butyl-1-propylbenzimidazolium bromide	Molar conductivity, S*m2/mol	uncertainty
308	.103011	.008921	.000003
308	.092481	.009076	.000003
308	.083046	.009206	.000003
308	.078815	.009262	.000003
308	.058831	.00949	.000003
308	.043966	.009677	.000003
308	.032887	.009807	.000003
308	.024617	.009914	.000003
308	.018436	.010006	.000003
308	.013811	.01009	.000003
308	.010349	.010165	.000003
308	.007757	.010235	.000003
313	.133001	.009587	.000003
313	.12	.009737	.000003
313	.103011	.009931	.000003
313	.078815	.01019	.000003
313	.058831	.010402	.000003
313	.043966	.010566	.000003
313	.032887	.010706	.000003
313	.024617	.010829	.000003
313	.018436	.010939	.000003
313	.013811	.011038	.000003
313	.010349	.011126	.000003
318	.133001	.010258	.000003
318	.12	.010393	.000003
318	.103011	.010606	.000003
318	.078815	.010892	.000003
318	.058831	.011125	.000003
318	.043966	.011327	.000003
318	.032887	.011495	.000003
318	.024617	.011656	.000003
318	.018436	.011788	.000003
318	.013811	.011908	.000003
318	.010349	.01202	.000003

System: methanol + 3-butyl-1-propylbenzimidazolium bromide; phases: Liquid
Fixed: Pressure, kPa = 101
Property: Molar conductivity, S*m2/mol (Liquid); method: Direct current cell with electrodes
Temperature, K	Molality, mol/kg of 3-butyl-1-propylbenzimidazolium bromide	Molar conductivity, S*m2/mol	uncertainty
308	.10125	.005141	.000003
308	.091023	.005307	.000003
308	.077252	.005488	.000003
308	.057814	.005682	.000003
308	.043294	.005804	.000003
308	.032432	.005906	.000003
308	.024302	.006009	.000003
308	.018215	.00612	.000003
308	.013653	.006241	.000003
308	.010237	.00638	.000003
308	.007675	.006498	.000003
308	.005755	.006627	.000003
313	.10125	.005543	.000003
313	.091023	.005728	.000003
313	.077252	.005929	.000003
313	.057814	.006137	.000003
313	.043294	.006263	.000003
313	.032432	.006367	.000003
313	.024302	.006472	.000003
313	.018215	.006587	.000003
313	.013653	.006712	.000003
313	.010237	.006846	.000003
313	.007675	.006983	.000003
313	.005755	.007132	.000003
318	.10125	.006111	.000003
318	.091023	.006291	.000003
318	.077252	.006481	.000003
318	.057814	.006676	.000003
318	.043294	.006794	.000003
318	.032432	.006896	.000003
318	.024302	.007002	.000003
318	.018215	.007123	.000003
318	.013653	.007257	.000003
318	.010237	.0074	.000003
318	.007675	.007549	.000003
318	.005755	.007717	.000003

System: cyanomethane + 3-butyl-1-propylbenzimidazolium bromide; phases: Liquid
Fixed: Pressure, kPa = 101
Property: Molar conductivity, S*m2/mol (Liquid); method: Direct current cell with electrodes
Temperature, K	Molality, mol/kg of 3-butyl-1-propylbenzimidazolium bromide	Molar conductivity, S*m2/mol	uncertainty
308	.05665	.013304	.000003
313	.05665	.014064	.000003
308	.07555	.012828	.000003
313	.07555	.013466	.000003
318	.07555	.014335	.000003
308	.10077	.012303	.000003
313	.10077	.012873	.000003
318	.10077	.013718	.000003
313	.13448	.012262	.000003
308	.13448	.01173	.000003
318	.13448	.013037	.000003
313	.17935	.011613	.000003
318	.17935	.012322	.000003
308	.17935	.011134	.000003
313	.23936	.010939	.000003
318	.23936	.011581	.000003
308	.23936	.010506	.000003
308	.31948	.009855	.000003
318	.31948	.01082	.000003
313	.31948	.010239	.000003
318	.42663	.010044	.000003
308	.42663	.009179	.000003
313	.42663	.009537	.000003
318	.56999	.009253	.000003
308	.56999	.008476	.000003
313	.56999	.008804	.000003
318	.76202	.008443	.000003
308	.76202	.00774	.000003
313	.76202	.008055	.000003
313	.89829	.007619	.000003
318	.89829	.007974	.000003
308	.89829	.007299	.000003
318	.99954	.007663	.000003
308	.99954	.007005	.000003
313	.99954	.00732	.000003
