Measured thermophysical data. Synthesis and Physicochemical Properties of Amino Acid Ionic Liquid 1-Butyl-3-methylimidazolium Aspartate and Binary Mixture with Methanol
Source: J. Chem. Eng. Data, 2013, 10.1021/je300932n
Compound 1: methanol, CH4O
Compound 2: 1-butyl-3-methylimidazolium L-aspartate, C12H21N3O4

System: 1-butyl-3-methylimidazolium L-aspartate; phases: Liquid
Fixed: Pressure, kPa = 101.325
Property: Mass density, kg/m3 (Liquid); method: Buoyancy - hydrostatic balance
Temperature, K	Mass density, kg/m3	uncertainty
298.15	1182.6	.2
303.15	1180.3	.2
308.15	1175.7	.2
313.15	1171.9	.2
318.15	1167.8	.2
323.15	1160.8	.2
328.15	1155.9	.2
333.15	1151.9	.2
338.15	1148.5	.2
343.15	1145.4	.2
348.15	1140.8	.2

System: 1-butyl-3-methylimidazolium L-aspartate; phases: Liquid, Gas
Property: Surface tension liquid-gas, N/m (Liquid); method: Maximal bubble pressure
Temperature, K	Surface tension liquid-gas, N/m	uncertainty
298.15	.0548	.0001
303.15	.0538	.0001
308.15	.0532	.0001
313.15	.0522	.0001
318.15	.0511	.0001
323.15	.0502	.0001
328.15	.0497	.0001
333.15	.0487	.0001
338.15	.0475	.0001
343.15	.047	.0001
348.15	.0462	.0001

System: 1-butyl-3-methylimidazolium L-aspartate; phases: Liquid
Fixed: Pressure, kPa = 101.325
Property: Electrical conductivity, S/m (Liquid); method: Alternating current cell with electrodes
Temperature, K	Electrical conductivity, S/m	uncertainty
298.15	.075	.00075
303.15	.082	.00082
308.15	.098	.00098
313.15	.123	.00123
318.15	.16	.0016
323.15	.197	.00197
328.15	.234	.00234
333.15	.278	.00278
338.15	.326	.00326
343.15	.368	.00368
348.15	.451	.00451

System: methanol + 1-butyl-3-methylimidazolium L-aspartate; phases: Liquid
Fixed: Pressure, kPa = 101
Property: Mass density, kg/m3 (Liquid); method: Buoyancy - hydrostatic balance with magnetic suspension - one sinker
Temperature, K	Mole fraction of 1-butyl-3-methylimidazolium L-aspartate	Mass density, kg/m3	uncertainty
298.15	.1012	970.6	.2
298.15	.2043	1033.3	.2
298.15	.3031	1075.4	.2
298.15	.4051	1145	.2
298.15	.4985	1150.3	.2
298.15	.602	1158.5	.2
298.15	.7001	1165.7	.2
298.15	.8001	1173.1	.2
298.15	.8999	1173.9	.2
303.15	.1012	965.7	.2
303.15	.2043	1029.1	.2
303.15	.3031	1071.2	.2
303.15	.4051	1140	.2
303.15	.4985	1147.9	.2
303.15	.602	1153	.2
303.15	.7001	1158.9	.2
303.15	.8001	1165.7	.2
303.15	.8999	1170	.2
308.15	.1012	962.4	.2
308.15	.2043	1025.9	.2
308.15	.3031	1070.3	.2
308.15	.4051	1137.3	.2
308.15	.4985	1144	.2
308.15	.602	1149.3	.2
308.15	.7001	1156.2	.2
308.15	.8001	1161.7	.2
308.15	.8999	1163.4	.2
318.15	.1012	960.2	.2
318.15	.2043	1022.1	.2
318.15	.3031	1065.3	.2
318.15	.4051	1130	.2
318.15	.4985	1137.9	.2
318.15	.602	1145	.2
318.15	.7001	1148.7	.2
318.15	.8001	1151.9	.2
318.15	.8999	1156.8	.2

System: methanol + 1-butyl-3-methylimidazolium L-aspartate; phases: Liquid, Gas
Property: Surface tension liquid-gas, N/m (Liquid); method: Maximal bubble pressure
Temperature, K	Mole fraction of 1-butyl-3-methylimidazolium L-aspartate	Surface tension liquid-gas, N/m	uncertainty
298.15	.1012	.02717	.0001
298.15	.2043	.03458	.0001
298.15	.3031	.0373	.0001
298.15	.4051	.0405	.0001
298.15	.4985	.0421	.0001
298.15	.602	.0436	.0001
298.15	.7001	.0448	.0001
298.15	.8001	.0511	.0001
298.15	.8999	.0521	.0001
303.15	.1012	.0268	.0001
303.15	.2043	.03402	.0001
303.15	.3031	.0361	.0001
303.15	.4051	.0394	.0001
303.15	.4985	.0417	.0001
303.15	.602	.043	.0001
303.15	.7001	.0444	.0001
303.15	.8001	.0503	.0001
303.15	.8999	.0509	.0001
308.15	.1012	.02655	.0001
308.15	.2043	.03295	.0001
308.15	.3031	.0354	.0001
308.15	.4051	.0385	.0001
308.15	.4985	.0402	.0001
308.15	.602	.0415	.0001
308.15	.7001	.0436	.0001
308.15	.8001	.0497	.0001
308.15	.8999	.0506	.0001
318.15	.1012	.02546	.0001
318.15	.2043	.03133	.0001
318.15	.3031	.03342	.0001
318.15	.4051	.0369	.0001
318.15	.4985	.0388	.0001
318.15	.602	.0397	.0001
318.15	.7001	.0427	.0001
318.15	.8001	.0487	.0001
318.15	.8999	.0496	.0001

System: methanol + 1-butyl-3-methylimidazolium L-aspartate; phases: Liquid
Fixed: Pressure, kPa = 101
Property: Electrical conductivity, S/m (Liquid); method: Alternating current cell with electrodes
Temperature, K	Mole fraction of 1-butyl-3-methylimidazolium L-aspartate	Electrical conductivity, S/m	uncertainty
298.15	.0099	.824	.00824
298.15	.025	1.228	.01228
298.15	.0499	1.358	.01358
298.15	.0786	1.272	.01272
298.15	.1012	1.131	.01131
298.15	.2043	.636	.00636
298.15	.3031	.314	.00314
298.15	.4051	.218	.00218
298.15	.4985	.161	.00161
298.15	.602	.125	.00125
298.15	.7001	.101	.00101
298.15	.8001	.093	.00093
298.15	.8999	.087	.00087
303.15	.0099	.887	.00887
303.15	.025	1.247	.01247
303.15	.0499	1.387	.01387
303.15	.0786	1.317	.01317
303.15	.1012	1.219	.01219
303.15	.2043	.754	.00754
303.15	.3031	.377	.00377
303.15	.4051	.241	.00241
303.15	.4985	.231	.00231
303.15	.602	.185	.00185
303.15	.7001	.148	.00148
303.15	.8001	.108	.00108
303.15	.8999	.101	.00101
308.15	.0099	.998	.00998
308.15	.025	1.356	.01356
308.15	.0499	1.442	.01442
308.15	.0786	1.394	.01394
308.15	.1012	1.283	.01283
308.15	.2043	.831	.00831
308.15	.3031	.496	.00496
308.15	.4051	.336	.00336
308.15	.4985	.263	.00263
308.15	.602	.218	.00218
308.15	.7001	.202	.00202
308.15	.8001	.155	.00155
308.15	.8999	.124	.00124
318.15	.0099	1.029	.01029
318.15	.025	1.385	.01385
318.15	.0499	1.572	.01572
318.15	.0786	1.484	.01484
318.15	.1012	1.416	.01416
318.15	.2043	.978	.00978
318.15	.3031	.635	.00635
318.15	.4051	.429	.00429
318.15	.4985	.378	.00378
318.15	.602	.26	.0026
318.15	.7001	.233	.00233
318.15	.8001	.212	.00212
318.15	.8999	.205	.00205
