Measured thermophysical data. Solubilities of 4,4'-Dichlorodiphenyl Disulfide in Six Organic Solvents between (303.15 and 333.15) K
Source: J. Chem. Eng. Data, 2013, 10.1021/je301243f
Compound 1: 1,2-bis(4-chlorophenyl)disulfane, C12H8Cl2S2
Compound 2: ethanol, C2H6O, purity 99.7%
Compound 3: methanol, CH4O, purity 99.5%
Compound 4: ethyl ethanoate, C4H8O2, purity 99.5%
Compound 5: phenylmethane, C7H8, purity 99.5%
Compound 6: R-20, CHCl3, purity 99.6%
Compound 7: pyroacetic ether, C3H6O, purity 99.5%

System: ethanol + 1,2-bis(4-chlorophenyl)disulfane; phases: Liquid, Crystal
Fixed: Pressure, kPa = 101
Property: Mole fraction of 1,2-bis(4-chlorophenyl)disulfane (Liquid); method: Laser light
Temperature, K	Mole fraction of 1,2-bis(4-chlorophenyl)disulfane	uncertainty
304.35	.0002643	.000002643
307.45	.0007831	.000007831
312.35	.0030485	.000030485
317.35	.0078635	.000078635
322.55	.0151764	.000151764
328.35	.0195362	.000195362
333.15	.0204984	.000204984

System: methanol + 1,2-bis(4-chlorophenyl)disulfane; phases: Liquid, Crystal
Fixed: Pressure, kPa = 101
Property: Mole fraction of 1,2-bis(4-chlorophenyl)disulfane (Liquid); method: Laser light
Temperature, K	Mole fraction of 1,2-bis(4-chlorophenyl)disulfane	uncertainty
303.15	.0001398	.000001398
307.65	.0006104	.000006104
314.15	.0025921	.000025921
318.95	.0055198	.000055198
322.45	.0079465	.000079465
328.15	.0099639	.000099639
332.65	.0104563	.000104563

System: ethyl ethanoate + 1,2-bis(4-chlorophenyl)disulfane; phases: Liquid, Crystal
Fixed: Pressure, kPa = 101
Property: Mole fraction of 1,2-bis(4-chlorophenyl)disulfane (Liquid); method: Laser light
Temperature, K	Mole fraction of 1,2-bis(4-chlorophenyl)disulfane	uncertainty
303.95	.02006	.0002006
307.9	.03798	.0003798
312.35	.06672	.0006672
319.05	.1171	.001171
322.45	.15233	.0015233
329.75	.20181	.0020181
332.85	.22306	.0022306

System: phenylmethane + 1,2-bis(4-chlorophenyl)disulfane; phases: Liquid, Crystal
Fixed: Pressure, kPa = 101
Property: Mole fraction of 1,2-bis(4-chlorophenyl)disulfane (Liquid); method: Laser light
Temperature, K	Mole fraction of 1,2-bis(4-chlorophenyl)disulfane	uncertainty
303.2	.0219	.000219
307.85	.04463	.0004463
314.05	.08641	.0008641
317.55	.11449	.0011449
322.75	.16042	.0016042
327.65	.20009	.0020009
332.75	.24356	.0024356

System: R-20 + 1,2-bis(4-chlorophenyl)disulfane; phases: Liquid, Crystal
Fixed: Pressure, kPa = 101
Property: Mole fraction of 1,2-bis(4-chlorophenyl)disulfane (Liquid); method: Laser light
Temperature, K	Mole fraction of 1,2-bis(4-chlorophenyl)disulfane	uncertainty
303.15	.12248	.0012248
307.95	.17403	.0017403
312.55	.24335	.0024335
317.85	.34448	.0034448
322.15	.43885	.0043885
328.15	.56667	.0056667

System: pyroacetic ether + 1,2-bis(4-chlorophenyl)disulfane; phases: Liquid, Crystal
Fixed: Pressure, kPa = 101
Property: Mole fraction of 1,2-bis(4-chlorophenyl)disulfane (Liquid); method: Laser light
Temperature, K	Mole fraction of 1,2-bis(4-chlorophenyl)disulfane	uncertainty
302.95	.10161	.0010161
308.05	.14548	.0014548
313.25	.20808	.0020808
317.25	.27084	.0027084
322.55	.37005	.0037005
328.15	.48321	.0048321
