Measured thermophysical data. Thermophysical Properties of a New Dicationic Ionic Liquid
Source: J. Chem. Eng. Data, 2012, 10.1021/je3000876
Compound 1: 1-(2-amino-2-oxoethyl)-3-(4-(3-(2-amino-2-oxoethyl)-1H-imidazol-3-ium-1-yl)butyl)-1H-imidazol-3-ium bis((trifluoromethyl)sulfonyl)amide, C18H22F12N8O10S4, purity 95%

System: 1-(2-amino-2-oxoethyl)-3-(4-(3-(2-amino-2-oxoethyl)-1H-imidazol-3-ium-1-yl)butyl)-1H-imidazol-3-ium bis((trifluoromethyl)sulfonyl)amide; phases: Glass, Liquid, Air at 1 atmosphere
Property: Triple point temperature, K (Glass); method: DSC/DTA
Triple point temperature, K	uncertainty
233	3

System: 1-(2-amino-2-oxoethyl)-3-(4-(3-(2-amino-2-oxoethyl)-1H-imidazol-3-ium-1-yl)butyl)-1H-imidazol-3-ium bis((trifluoromethyl)sulfonyl)amide; phases: Liquid
Fixed: Pressure, kPa = 101.325
Property: Mass density, kg/m3 (Liquid); method: Vibrating tube method
Temperature, K	Mass density, kg/m3	uncertainty
298.15	1590.17	.005
303.15	1585.41	.005
308.15	1580.62	.005
313.15	1575.98	.005
318.15	1572.04	.005
323.15	1567.22	.005
328.15	1562.31	.005
333.15	1557.66	.005
338.15	1552.61	.005
343.15	1548.03	.005

System: 1-(2-amino-2-oxoethyl)-3-(4-(3-(2-amino-2-oxoethyl)-1H-imidazol-3-ium-1-yl)butyl)-1H-imidazol-3-ium bis((trifluoromethyl)sulfonyl)amide; phases: Liquid
Fixed: Pressure, kPa = 101.325
Property: Refractive index (Na D-line) (Liquid); method: Standard Abbe refractometry
Temperature, K	Refractive index (Na D-line)	uncertainty
298.15	1.4546	.0001
303.15	1.4532	.0001
308.15	1.4518	.0001
313.15	1.4504	.0001
318.15	1.4491	.0001
323.15	1.4477	.0001
328.15	1.4464	.0001
333.15	1.4451	.0001
338.15	1.4439	.0001
343.15	1.443	.0001

System: 1-(2-amino-2-oxoethyl)-3-(4-(3-(2-amino-2-oxoethyl)-1H-imidazol-3-ium-1-yl)butyl)-1H-imidazol-3-ium bis((trifluoromethyl)sulfonyl)amide; phases: Liquid
Fixed: Pressure, kPa = 101.325
Property: Viscosity, Pa*s (Liquid); method: Cone and plate viscometry
Temperature, K	Viscosity, Pa*s	uncertainty
298.15	8.689	
303.15	4.73	
308.15	3.285	
313.15	2.365	
318.15	1.824	
323.15	1.517	
328.15	1.323	
333.15	1.221	
338.15	1.129	
343.15	1.098	
