Measured thermophysical data. Phase Equilibria of the 1-Hexyl-2,3-dimethylimidazolium Bis(trifluoromethylsulfonyl)imide and Carbon Dioxide Binary System and 1-Octyl-2,3-dimethylimidazolium Bis(trifluoromethylsulfonyl)imide and Carbon Dioxide Binary System
Source: J. Chem. Eng. Data, 2012, 10.1021/je300098p
Compound 1: 1-hexyl-2,3-dimethylimidazolium 1,1,1-trifluoro-N-[(trifluoromethyl)sulfonyl]methanesulfonamide, C13H21F6N3O4S2, purity 99.2%
Compound 2: 1-octyl-2,3-dimethylimidazolium bis(trifluoromethylsulfonyl)imide, C15H25F6N3O4S2, purity 99.7%
Compound 3: carbon dioxide, CO2, purity 99.999%

System: carbon dioxide + 1-hexyl-2,3-dimethylimidazolium 1,1,1-trifluoro-N-[(trifluoromethyl)sulfonyl]methanesulfonamide; phases: Liquid, Gas
Property: Vapor or sublimation pressure, kPa (Liquid); method: Closed cell (Static) method
Temperature, K	Mole fraction of carbon dioxide	Vapor or sublimation pressure, kPa	uncertainty
298.2	.211	1110	52
298.2	.417	2670	57
298.2	.599	4680	70
298.2	.695	5480	80
298.2	.801	6340	38
303.2	.109	1020	31
303.2	.164	1200	62
303.2	.211	1300	67
303.2	.293	1600	44
303.2	.417	2830	62
303.2	.599	4920	52
303.2	.695	5730	63
303.2	.801	6640	43
308.2	.109	1200	39
308.2	.164	1320	42
308.2	.211	1490	54
308.2	.293	1870	71
308.2	.417	2990	38
308.2	.599	5100	60
308.2	.695	5900	48
308.2	.801	6880	93
313.2	.109	1330	24
313.2	.164	1410	56
313.2	.211	1600	24
313.2	.293	2160	40
313.2	.417	3090	55
313.2	.599	5210	40
313.2	.695	6130	63
313.2	.801	7070	83
318.2	.109	1460	24
318.2	.164	1580	49
318.2	.211	1780	55
318.2	.417	3250	60
318.2	.599	5330	37
318.2	.695	6300	76
318.2	.801	7200	50
323.2	.211	1910	52
323.2	.417	3370	52
323.2	.599	5500	404

System: carbon dioxide + 1-octyl-2,3-dimethylimidazolium bis(trifluoromethylsulfonyl)imide; phases: Liquid, Gas
Property: Vapor or sublimation pressure, kPa (Liquid); method: Closed cell (Static) method
Temperature, K	Mole fraction of carbon dioxide	Vapor or sublimation pressure, kPa	uncertainty
288.2	.203	1400	31
288.2	.315	1730	28
288.2	.9	6150	17
293.2	.203	1650	17
293.2	.315	2080	24
293.2	.501	3910	63
293.2	.602	4590	49
293.2	.805	5820	31
293.2	.9	6310	24
298.2	.113	1310	29
298.2	.203	1810	28
298.2	.315	2350	31
298.2	.407	3160	49
298.2	.501	4050	69
298.2	.602	4740	45
298.2	.702	5480	37
298.2	.805	6010	25
298.2	.9	6470	25
303.2	.113	1520	25
303.2	.203	2000	22
303.2	.315	2710	40
303.2	.407	3420	38
303.2	.501	4210	49
303.2	.602	4960	31
303.2	.702	5670	32
303.2	.805	6190	32
303.2	.9	6640	31
308.2	.113	1710	42
308.2	.203	2190	17
308.2	.315	2930	35
308.2	.407	3670	33
308.2	.501	4330	48
308.2	.602	5170	54
308.2	.702	5860	31
308.2	.805	6360	39
308.2	.9	6860	26
313.2	.113	1910	42
313.2	.203	2450	28
313.2	.315	3220	28
313.2	.407	3860	35
313.2	.501	4440	46
313.2	.602	5390	38
313.2	.702	6080	33
313.2	.805	6540	38
313.2	.9	6980	17
318.2	.113	2120	56
318.2	.203	2690	11
318.2	.315	3470	18
318.2	.407	4100	45
318.2	.602	5600	52
318.2	.702	6270	25
318.2	.805	6640	33
318.2	.9	7090	17
323.2	.113	2300	32
323.2	.203	2890	21
323.2	.315	3700	28
323.2	.407	4410	45
323.2	.602	5820	31
323.2	.702	6510	28
323.2	.805	6800	52
323.2	.9	7260	29
