Measured thermophysical data. Liquid Liquid Phase Equilibria of the Binary Ionic Liquid Systems [Cn MIM][NTf2] + n-Butanol, + n-Pentanol, + H2O Using UV Spectroscopic and Densimetric Analytical Methods
Source: J. Chem. Eng. Data, 2013, 10.1021/je300672q
Compound 1: n-butanol, C4H10O, purity 99.8%
Compound 2: water, H2O
Compound 3: pentyl alcohol, C5H12O, purity 99%
Compound 4: 1-ethyl-3-methylimidazolium 1,1,1-trifluoro-N-[(trifluoromethyl)sulfonyl]methanesulfonamide, C8H11F6N3O4S2, purity 98%
Compound 5: 1-butyl-3-methylimidazolium 1,1,1-trifluoro-N-[(trifluoromethyl)sulfonyl]methanesulfonamide, C10H15F6N3O4S2, purity 98%
Compound 6: 1-hexyl-3-methylimidazolium bis[(trifluoromethyl)sulfonyl]imide, C12H19F6N3O4S2, purity 98%

System: n-butanol + 1-ethyl-3-methylimidazolium 1,1,1-trifluoro-N-[(trifluoromethyl)sulfonyl]methanesulfonamide; phases: Liquid mixture 1, Liquid mixture 2
Fixed: Pressure, kPa = 101
Property: Mass fraction of 1-ethyl-3-methylimidazolium 1,1,1-trifluoro-N-[(trifluoromethyl)sulfonyl]methanesulfonamide (Liquid mixture 1); method: UV-Spectroscopy
Temperature, K	Mass fraction of 1-ethyl-3-methylimidazolium 1,1,1-trifluoro-N-[(trifluoromethyl)sulfonyl]methanesulfonamide	uncertainty
278.38	.0261	.06
278.38	.0248	.06
283.32	.0303	.03
283.32	.0293	.01
288.31	.0376	.04
288.31	.0375	.07
293.31	.047	.04
293.31	.0467	0
298.3	.0666	.08
298.3	.0656	.09
308.29	.1049	.08
308.29	.1057	.15
313.28	.1418	.33

System: n-butanol + 1-ethyl-3-methylimidazolium 1,1,1-trifluoro-N-[(trifluoromethyl)sulfonyl]methanesulfonamide; phases: Liquid mixture 1, Liquid mixture 2
Fixed: Pressure, kPa = 101
Property: Mass fraction of 1-ethyl-3-methylimidazolium 1,1,1-trifluoro-N-[(trifluoromethyl)sulfonyl]methanesulfonamide (Liquid mixture 1); method: Density calibration data
Temperature, K	Mass fraction of 1-ethyl-3-methylimidazolium 1,1,1-trifluoro-N-[(trifluoromethyl)sulfonyl]methanesulfonamide	uncertainty
278.38	.9129	.0016
283.32	.9022	.0016
288.31	.8891	.0016
298.3	.8636	.0016
303.29	.8306	.0016
308.29	.7992	.0016
308.29	.7995	.0016
313.28	.7633	.0016
318.28	.6892	.0016

System: pentyl alcohol + 1-ethyl-3-methylimidazolium 1,1,1-trifluoro-N-[(trifluoromethyl)sulfonyl]methanesulfonamide; phases: Liquid mixture 1, Liquid mixture 2
Fixed: Pressure, kPa = 101
Property: Mass fraction of 1-ethyl-3-methylimidazolium 1,1,1-trifluoro-N-[(trifluoromethyl)sulfonyl]methanesulfonamide (Liquid mixture 1); method: UV-Spectroscopy
Temperature, K	Mass fraction of 1-ethyl-3-methylimidazolium 1,1,1-trifluoro-N-[(trifluoromethyl)sulfonyl]methanesulfonamide	uncertainty
278.38	.0112	.0003
278.38	.0109	.0002
283.32	.0131	.0003
283.32	.0128	.0003
288.31	.0165	.0005
288.31	.0158	.0004
293.31	.0188	.0007
293.31	.0182	.0004
298.3	.028	.0004
298.3	.0269	.0006
303.29	.0319	.0006
303.29	.0309	.0006
308.29	.0381	.0013
308.29	.0375	.0002
313.28	.0516	.0015
318.28	.0628	.0012
318.28	.0653	.0003
323.28	.0875	.0027
323.28	.0844	.0049
328.27	.1046	.0063
328.27	.1109	.0013

System: pentyl alcohol + 1-ethyl-3-methylimidazolium 1,1,1-trifluoro-N-[(trifluoromethyl)sulfonyl]methanesulfonamide; phases: Liquid mixture 1, Liquid mixture 2
Fixed: Pressure, kPa = 101
Property: Mass fraction of 1-ethyl-3-methylimidazolium 1,1,1-trifluoro-N-[(trifluoromethyl)sulfonyl]methanesulfonamide (Liquid mixture 1); method: Density calibration data
Temperature, K	Mass fraction of 1-ethyl-3-methylimidazolium 1,1,1-trifluoro-N-[(trifluoromethyl)sulfonyl]methanesulfonamide	uncertainty
278.38	.9327	.0014
283.32	.9345	.0014
288.31	.9261	.0014
293.31	.9165	.0014
298.3	.9198	.0014
303.29	.902	.0014
308.29	.8831	.0014
313.28	.8702	.0014
318.28	.8581	.0014
323.28	.836	.0014
328.27	.7981	.0014

System: water + 1-ethyl-3-methylimidazolium 1,1,1-trifluoro-N-[(trifluoromethyl)sulfonyl]methanesulfonamide; phases: Liquid mixture 1, Liquid mixture 2
Fixed: Pressure, kPa = 101
Property: Mass fraction of 1-ethyl-3-methylimidazolium 1,1,1-trifluoro-N-[(trifluoromethyl)sulfonyl]methanesulfonamide (Liquid mixture 1); method: UV-Spectroscopy
Temperature, K	Mass fraction of 1-ethyl-3-methylimidazolium 1,1,1-trifluoro-N-[(trifluoromethyl)sulfonyl]methanesulfonamide	uncertainty
278.38	.00631	.0001
283.32	.00641	.0002
288.31	.00649	.0003
293.31	.00659	.0001
298.3	.00676	.0001
303.29	.00693	.0002
308.29	.00708	.0008
313.28	.00717	.0002
318.28	.00738	.0004
323.28	.00751	.0004
328.27	.00769	.0004
333.26	.00777	.0004

System: water + 1-ethyl-3-methylimidazolium 1,1,1-trifluoro-N-[(trifluoromethyl)sulfonyl]methanesulfonamide; phases: Liquid mixture 1, Liquid mixture 2
Fixed: Pressure, kPa = 101
Property: Mass fraction of 1-ethyl-3-methylimidazolium 1,1,1-trifluoro-N-[(trifluoromethyl)sulfonyl]methanesulfonamide (Liquid mixture 1); method: Density calibration data
Temperature, K	Mass fraction of 1-ethyl-3-methylimidazolium 1,1,1-trifluoro-N-[(trifluoromethyl)sulfonyl]methanesulfonamide	uncertainty
278.38	.9862	.0007
283.32	.9848	.0007
288.31	.9833	.0007
293.31	.9815	.0007
298.3	.9795	.0007
303.29	.9773	.0007
308.29	.9758	.0007
313.28	.9738	.0007
318.28	.9693	.0007
323.28	.9669	.0007
328.27	.9638	.0007
333.26	.9598	.0007

System: water + 1-butyl-3-methylimidazolium 1,1,1-trifluoro-N-[(trifluoromethyl)sulfonyl]methanesulfonamide; phases: Liquid mixture 1, Liquid mixture 2
Fixed: Pressure, kPa = 101
Property: Mass fraction of 1-butyl-3-methylimidazolium 1,1,1-trifluoro-N-[(trifluoromethyl)sulfonyl]methanesulfonamide (Liquid mixture 1); method: UV-Spectroscopy
Temperature, K	Mass fraction of 1-butyl-3-methylimidazolium 1,1,1-trifluoro-N-[(trifluoromethyl)sulfonyl]methanesulfonamide	uncertainty
278.38	.00366	.0001
283.32	.00373	0
288.31	.00382	.0001
293.31	.00387	.0001
303.29	.00418	.0002
308.29	.00426	.0002
313.28	.00444	.0002
318.28	.00462	.0002
323.28	.00482	.0002
328.27	.00503	.0002
333.26	.00517	.0002

System: water + 1-hexyl-3-methylimidazolium bis[(trifluoromethyl)sulfonyl]imide; phases: Liquid mixture 1, Liquid mixture 2
Fixed: Pressure, kPa = 101
Property: Mass fraction of 1-hexyl-3-methylimidazolium bis[(trifluoromethyl)sulfonyl]imide (Liquid mixture 1); method: UV-Spectroscopy
Temperature, K	Mass fraction of 1-hexyl-3-methylimidazolium bis[(trifluoromethyl)sulfonyl]imide	uncertainty
278.38	.00154	.00002
283.32	.00158	.00002
288.31	.0016	.00002
293.31	.00169	.00002
298.3	.00177	.00002
308.29	.00192	.00002
313.28	.00204	.00002
318.28	.00216	.00002
323.28	.00225	.00002
328.27	.00238	.00002
