Measured thermophysical data. Solubility of the System KOH K2CrO4 Al2O3 H2O at 150 deg C in a High Alkali Concentrated Region
Source: J. Chem. Eng. Data, 2012, 10.1021/je3004782
Compound 1: potassium hydroxide, HKO, purity 99%
Compound 2: potassium chromate, CrK2O4, purity 99%
Compound 3: .alpha.-aluminum oxide, Al2O3, purity 99%
Compound 4: water, H2O, purity 99.8%
Compound 5: potassium oxide, K2O, purity 99%

System: potassium hydroxide + water + potassium chromate; phases: Liquid, Crystal
Fixed: Temperature, K = 423.15
Fixed: Pressure, kPa = 101
Property: Mass fraction of potassium chromate (Liquid); method: Titration method
Mass fraction of potassium hydroxide	Mass fraction of potassium chromate	uncertainty
.5192	.0114	.0012
.5249	.0109	.0012
.5342	.0101	.0012
.565	.0085	.0012
.605	.0069	.0012
.6526	.0057	.0012
.684	.005	.0012
.725	.0042	.0012
.7574	.0036	.0012

System: .alpha.-aluminum oxide + water + potassium oxide; phases: Liquid, Crystal of intercomponent compound 1
Fixed: Pressure, kPa = 101
Fixed: Temperature, K = 423.15
Property: Mass fraction of .alpha.-aluminum oxide (Liquid); method: Titration method
Mass fraction of potassium oxide	Mass fraction of .alpha.-aluminum oxide	uncertainty
.4002	.1824	.0022
.4192	.1392	.0022
.4612	.0817	.0022
.5133	.039	.0022
.5276	.0293	.0022
.5694	.0176	.0022
.6006	.0095	.0022
.6315	.0052	.0022
