Measured thermophysical data. Determination of CO2 Solubility in Saturated Liquid CH4 + N2 and CH4 + C2H6 Mixtures above Atmospheric Pressure
Source: J. Chem. Eng. Data, 2012, 10.1021/je3002859
Compound 1: carbon dioxide, CO2, purity 99%
Compound 2: carbane, CH4, purity 99%
Compound 3: nitrogen, diatomic, N2, purity 99%
Compound 4: ethane, C2H6, purity 99%

System: carbane + carbon dioxide; phases: Liquid, Gas, Crystal
Property: Vapor or sublimation pressure, kPa (Liquid); method: Closed cell (Static) method
Temperature, K	Vapor or sublimation pressure, kPa	uncertainty
112	93	7
124	241	7
129.7	350	7
135.2	489	7
139.4	617	7
144.5	800	7
150.4	1055	7
162	1718	7
169.9	2315	7

System: carbane + carbon dioxide; phases: Liquid, Gas, Crystal
Property: Mole fraction of carbon dioxide (Liquid); method: Chromatography
Temperature, K	Mole fraction of carbon dioxide	uncertainty
112	.000213	1.6
124	.000823	1.6
129.7	.001413	1.1
135.2	.002479	1.1
139.4	.003678	1.1
144.5	.005665	1.1
150.4	.008225	1.1
162	.01764	1.1
169.9	.02896	1.1

System: carbane + carbon dioxide + nitrogen, diatomic; phases: Liquid, Gas, Crystal
Property: Mole fraction of carbon dioxide (Liquid); method: Chromatography
Temperature, K	Solvent: Mole fraction of carbane	Mole fraction of carbon dioxide	uncertainty
112	.98	.000225	1.6
124	.98	.000889	1.6
129.7	.98	.001501	1.1
135.2	.98	.002495	1.1
139.4	.98	.003701	1.1
144.5	.98	.005502	1.1
150.4	.98	.00821	1.1
162	.98	.01745	1.1
169.9	.98	.02771	1.1
112	.95	.000238	1.6
124	.95	.000909	1.6
129.7	.95	.001577	1.1
135.2	.95	.00256	1.1
139.4	.95	.003745	1.1
144.5	.95	.005423	1.1
150.4	.95	.008204	1.1
162	.95	.01616	1.1
169.9	.95	.02678	1.1
112	.9	.000254	1.6
124	.9	.000917	1.6
129.7	.9	.001591	1.1
135.2	.9	.002652	1.1
139.4	.9	.003768	1.1
144.5	.9	.005366	1.1
150.4	.9	.008156	1.1
162	.9	.0159	1.1
169.9	.9	.02521	1.1

System: carbane + carbon dioxide + nitrogen, diatomic; phases: Liquid, Gas, Crystal
Property: Vapor or sublimation pressure, kPa (Liquid); method: Closed cell (Static) method
Temperature, K	Solvent: Mole fraction of carbane	Vapor or sublimation pressure, kPa	uncertainty
112	.98	155	7
124	.98	326	7
129.7	.98	446	7
135.2	.98	596	7
139.4	.98	724	7
144.5	.98	929	7
150.4	.98	1168	7
162	.98	1845	7
169.9	.98	2421	7
112	.95	268	7
124	.95	418	7
129.7	.95	545	7
135.2	.95	725	7
139.4	.95	880	7
144.5	.95	1095	7
150.4	.95	1385	7
162	.95	2097	7
169.9	.95	2685	7
112	.9	318	7
124	.9	580	7
129.7	.9	748	7
135.2	.9	968	7
139.4	.9	1146	7
144.5	.9	1397	7
150.4	.9	1678	7
162	.9	2448	7
169.9	.9	3150	7

System: carbane + ethane + carbon dioxide; phases: Liquid, Gas, Crystal
Property: Mole fraction of carbon dioxide (Liquid); method: Chromatography
Temperature, K	Solvent: Mole fraction of carbane	Mole fraction of carbon dioxide	uncertainty
120	.98	.000577	1.6
120	.95	.000601	1.6
120	.9	.000624	1.6
124	.98	.000821	1.6
124	.95	.000945	1.6
124	.9	.000956	1.6
129.7	.95	.001566	1.1
129.7	.98	.001548	1.1
129.7	.9	.001587	1.1
135.2	.98	.00263	1.1
135.2	.95	.002668	1.1
135.2	.9	.002734	1.1
139.4	.98	.003842	1.1
139.4	.95	.003885	1.1
139.4	.9	.003946	1.1
144.5	.98	.005743	1.1
144.5	.95	.006037	1.1
144.5	.9	.006234	1.1
150.4	.95	.008727	1.1
150.4	.98	.008544	1.1
150.4	.9	.009225	1.1
162	.98	.01864	1.1
162	.95	.01933	1.1
162	.9	.01975	1.1
169.9	.98	.03026	1.1
169.9	.95	.03192	1.1
169.9	.9	.03311	1.1

System: carbane + ethane + carbon dioxide; phases: Liquid, Crystal, Gas
Property: Vapor or sublimation pressure, kPa (Liquid); method: Closed cell (Static) method
Temperature, K	Solvent: Mole fraction of carbane	Vapor or sublimation pressure, kPa	uncertainty
120	.98	175	7
124	.98	233	7
129.7	.98	342	7
135.2	.98	473	7
139.4	.98	590	7
144.5	.98	770	7
150.4	.98	1012	7
162	.98	1632	7
169.9	.98	2228	7
120	.95	171	7
124	.95	229	7
129.7	.95	331	7
135.2	.95	459	7
139.4	.95	578	7
144.5	.95	745	7
150.4	.95	982	7
162	.95	1588	7
169.9	.95	2155	7
120	.9	162	7
124	.9	218	7
129.7	.9	315	7
135.2	.9	437	7
139.4	.9	548	7
144.5	.9	708	7
150.4	.9	930	7
162	.9	1488	7
169.9	.9	2006	7
