Measured thermophysical data. Viscosities of Glycine and l-Alanine in (0.2, 0.4, 0.6, and 0.8) mol*kg 1 Aqueous Dipotassium Hydrogen Phosphate Solutions at Different Temperatures
Source: J. Chem. Eng. Data, 2012, 10.1021/je300673m
Compound 1: glycine, C2H5NO2, purity 99%
Compound 2: L-alanine, C3H7NO2, purity 99%
Compound 3: dipotassium phosphate (K2HPO4), HK2O4P, purity 99%
Compound 4: water, H2O, purity 99.9%

System: glycine + water + dipotassium phosphate (K2HPO4); phases: Liquid
Fixed: Pressure, kPa = 101
Property: Viscosity, Pa*s (Liquid); method: Falling or rolling sphere viscometry
Temperature, K	Molality, mol/kg of glycine	Solvent: Molality, mol/kg of dipotassium phosphate (K2HPO4)	Viscosity, Pa*s	uncertainty
288.15	0	.2	.001201	.00003
288.15	.0359	.2	.00123	.00003
288.15	.05907	.2	.001234	.00003
288.15	.09179	.2	.001235	.00003
288.15	.14485	.2	.001244	.00003
288.15	.26875	.2	.001246	.00003
288.15	0	.4	.001329	.00003
288.15	.03943	.4	.00133	.00003
288.15	.05925	.4	.001336	.00003
288.15	.10296	.4	.001343	.00003
288.15	.15917	.4	.001356	.00003
288.15	.20702	.4	.001367	.00003
288.15	.26359	.4	.001379	.00003
288.15	.35021	.4	.001386	.00003
288.15	0	.6	.001409	.00003
288.15	.04302	.6	.001421	.00003
288.15	.08234	.6	.001437	.00003
288.15	.14601	.6	.001449	.00003
288.15	.17662	.6	.001457	.00003
288.15	.22791	.6	.001482	.00003
288.15	.26448	.6	.001488	.00003
288.15	.32849	.6	.001495	.00003
288.15	0	.8	.001534	.00003
288.15	.04184	.8	.00155	.00003
288.15	.09827	.8	.001561	.00003
288.15	.16446	.8	.001594	.00003
288.15	.20374	.8	.001605	.00003
288.15	.25129	.8	.001617	.00003
318.15	0	.2	.000659	.00003
318.15	.0359	.2	.000678	.00003
318.15	.05907	.2	.000679	.00003
318.15	.09179	.2	.000681	.00003
318.15	.14485	.2	.000689	.00003
318.15	.26875	.2	.00069	.00003
318.15	0	.4	.00073	.00003
318.15	.03943	.4	.000745	.00003
318.15	.05925	.4	.000752	.00003
318.15	.10296	.4	.000762	.00003
318.15	.15917	.4	.000771	.00003
318.15	.20702	.4	.000774	.00003
318.15	.26359	.4	.000776	.00003
318.15	.35021	.4	.000778	.00003
318.15	0	.6	.00077	.00003
318.15	.04302	.6	.000778	.00003
318.15	.08234	.6	.000785	.00003
318.15	.14601	.6	.00079	.00003
318.15	.17662	.6	.000795	.00003
318.15	.22791	.6	.000801	.00003
318.15	.26448	.6	.000803	.00003
318.15	.32849	.6	.000812	.00003
318.15	0	.8	.000833	.00003
318.15	.04184	.8	.000845	.00003
318.15	.09827	.8	.000852	.00003
318.15	.16446	.8	.000868	.00003
318.15	.20374	.8	.000869	.00003
318.15	.25129	.8	.000873	.00003
298.15	0	.2	.000953	.00003
298.15	.0359	.2	.000972	.00003
298.15	.05907	.2	.000984	.00003
298.15	.09179	.2	.000986	.00003
298.15	.14485	.2	.000999	.00003
298.15	.26875	.2	.001003	.00003
298.15	0	.4	.001057	.00003
298.15	.03943	.4	.001059	.00003
298.15	.05925	.4	.00106	.00003
298.15	.10296	.4	.001065	.00003
298.15	.15917	.4	.001074	.00003
298.15	.20702	.4	.001082	.00003
298.15	.26359	.4	.001092	.00003
298.15	.35021	.4	.001109	.00003
298.15	0	.6	.001118	.00003
298.15	.04302	.6	.001123	.00003
298.15	.08234	.6	.00114	.00003
298.15	.14601	.6	.001151	.00003
298.15	.17662	.6	.001156	.00003
298.15	.22791	.6	.001176	.00003
298.15	.26448	.6	.001182	.00003
298.15	.32849	.6	.001185	.00003
298.15	0	.8	.001217	.00003
298.15	.04184	.8	.001231	.00003
298.15	.09827	.8	.00124	.00003
298.15	.16446	.8	.001262	.00003
298.15	.20374	.8	.001279	.00003
298.15	.25129	.8	.001285	.00003
308.15	0	.2	.000781	.00003
308.15	.0359	.2	.000787	.00003
308.15	.05907	.2	.000791	.00003
308.15	.09179	.2	.000801	.00003
308.15	.14485	.2	.000808	.00003
308.15	.26875	.2	.000818	.00003
308.15	0	.4	.000867	.00003
308.15	.03943	.4	.000868	.00003
308.15	.05925	.4	.00087	.00003
308.15	.10296	.4	.000887	.00003
308.15	.15917	.4	.0009	.00003
308.15	.20702	.4	.000908	.00003
308.15	.26359	.4	.000913	.00003
308.15	.35021	.4	.000914	.00003
308.15	0	.6	.000916	.00003
308.15	.04302	.6	.000923	.00003
308.15	.08234	.6	.000934	.00003
308.15	.14601	.6	.000941	.00003
308.15	.17662	.6	.000947	.00003
308.15	.22791	.6	.00096	.00003
308.15	.26448	.6	.000968	.00003
308.15	.32849	.6	.000969	.00003
308.15	0	.8	.000997	.00003
308.15	.04184	.8	.001007	.00003
308.15	.09827	.8	.001013	.00003
308.15	.16446	.8	.001034	.00003
308.15	.20374	.8	.001046	.00003
308.15	.25129	.8	.001047	.00003

System: L-alanine + water + dipotassium phosphate (K2HPO4); phases: Liquid
Fixed: Pressure, kPa = 101
Property: Viscosity, Pa*s (Liquid); method: Falling or rolling sphere viscometry
Temperature, K	Molality, mol/kg of L-alanine	Solvent: Molality, mol/kg of dipotassium phosphate (K2HPO4)	Viscosity, Pa*s	uncertainty
288.15	0	.2	.001201	.00003
288.15	.05075	.2	.00123	.00003
288.15	.11076	.2	.001248	.00003
288.15	.15256	.2	.001274	.00003
288.15	.20019	.2	.001298	.00003
288.15	.25144	.2	.001307	.00003
288.15	.32211	.2	.001319	.00003
288.15	.36239	.2	.001333	.00003
288.15	0	.4	.001329	.00003
288.15	.04944	.4	.001331	.00003
288.15	.16042	.4	.001373	.00003
288.15	.2219	.4	.001389	.00003
288.15	.2673	.4	.001413	.00003
288.15	.3172	.4	.001426	.00003
288.15	.35409	.4	.001449	.00003
288.15	0	.6	.001409	.00003
288.15	.06819	.6	.00153	.00003
288.15	.11883	.6	.001535	.00003
288.15	.16947	.6	.001549	.00003
288.15	.25609	.6	.001564	.00003
288.15	.30064	.6	.00158	.00003
288.15	.35684	.6	.001606	.00003
288.15	0	.8	.0015343	.00003
288.15	.07497	.8	.0016341	.00003
288.15	.17715	.8	.0016466	.00003
288.15	.22784	.8	.0016732	.00003
288.15	.27826	.8	.0016967	.00003
288.15	.32913	.8	.0017181	.00003
288.15	.37594	.8	.0017377	.00003
298.15	0	.2	.000953	.00003
298.15	.05075	.2	.000973	.00003
298.15	.11076	.2	.000989	.00003
298.15	.15256	.2	.001002	.00003
298.15	.20019	.2	.001024	.00003
298.15	.25144	.2	.001029	.00003
298.15	.32211	.2	.001036	.00003
298.15	.36239	.2	.001042	.00003
298.15	0	.4	.001057	.00003
298.15	.04944	.4	.001058	.00003
298.15	.16042	.4	.001087	.00003
298.15	.2219	.4	.0011	.00003
298.15	.2673	.4	.001113	.00003
298.15	.3172	.4	.001124	.00003
298.15	.35409	.4	.001141	.00003
298.15	0	.6	.001118	.00003
298.15	.06819	.6	.001231	.00003
298.15	.11883	.6	.001231	.00003
298.15	.16947	.6	.001233	.00003
298.15	.25609	.6	.001235	.00003
298.15	.30064	.6	.001247	.00003
298.15	.35684	.6	.001265	.00003
298.15	0	.8	.001217	.00003
298.15	.07497	.8	.001292	.00003
298.15	.17715	.8	.001301	.00003
298.15	.22784	.8	.001324	.00003
298.15	.27826	.8	.001339	.00003
298.15	.32913	.8	.001372	.00003
298.15	.37594	.8	.001381	.00003
308.15	0	.2	.000781	.00003
308.15	.05075	.2	.000798	.00003
308.15	.11076	.2	.000807	.00003
308.15	.15256	.2	.000817	.00003
308.15	.20019	.2	.000838	.00003
308.15	.25144	.2	.000839	.00003
308.15	.32211	.2	.000842	.00003
308.15	.36239	.2	.00085	.00003
308.15	0	.4	.000867	.00003
308.15	.04944	.4	.000875	.00003
308.15	.16042	.4	.000887	.00003
308.15	.2219	.4	.000902	.00003
308.15	.2673	.4	.000908	.00003
308.15	.3172	.4	.000916	.00003
308.15	.35409	.4	.000928	.00003
308.15	0	.6	.000916	.00003
308.15	.06819	.6	.00096	.00003
308.15	.11883	.6	.000976	.00003
308.15	.16947	.6	.000985	.00003
308.15	.25609	.6	.001008	.00003
308.15	.30064	.6	.001015	.00003
308.15	.35684	.6	.00103	.00003
308.15	0	.8	.000997	.00003
308.15	.07497	.8	.001051	.00003
308.15	.17715	.8	.001061	.00003
308.15	.22784	.8	.001073	.00003
308.15	.27826	.8	.00109	.00003
308.15	.32913	.8	.001124	.00003
308.15	.37594	.8	.001129	.00003
318.15	0	.2	.000659	.00003
318.15	.05075	.2	.000673	.00003
318.15	.11076	.2	.000678	.00003
318.15	.15256	.2	.000695	.00003
318.15	.20019	.2	.000699	.00003
318.15	.25144	.2	.000699	.00003
318.15	.32211	.2	.000708	.00003
318.15	.36239	.2	.000714	.00003
318.15	0	.4	.00073	.00003
318.15	.04944	.4	.000738	.00003
318.15	.16042	.4	.000744	.00003
318.15	.2219	.4	.000754	.00003
318.15	.2673	.4	.000761	.00003
318.15	.3172	.4	.000767	.00003
318.15	.35409	.4	.000776	.00003
318.15	0	.6	.00077	.00003
318.15	.06819	.6	.000811	.00003
318.15	.11883	.6	.000818	.00003
318.15	.16947	.6	.000822	.00003
318.15	.25609	.6	.000843	.00003
318.15	.30064	.6	.000837	.00003
318.15	.35684	.6	.000853	.00003
318.15	0	.8	.000833	.00003
318.15	.07497	.8	.000866	.00003
318.15	.17715	.8	.000887	.00003
318.15	.22784	.8	.000901	.00003
318.15	.27826	.8	.00091	.00003
318.15	.32913	.8	.000921	.00003
318.15	.37594	.8	.000934	.00003

System: water + dipotassium phosphate (K2HPO4); phases: Liquid
Property: Viscosity, Pa*s (Liquid); method: Falling or rolling sphere viscometry
Temperature, K	Molality, mol/kg of dipotassium phosphate (K2HPO4)	Pressure, kPa	Viscosity, Pa*s	uncertainty
288.15	.2	101	.001201	.00003
288.15	.4	101	.001329	.00003
288.15	.6	101	.001409	.00003
288.15	.8	101	.001534	.00003
318.15	.2	101	.000659	.00003
318.15	.4	101	.00073	.00003
318.15	.6	101	.00077	.00003
318.15	.8	101	.000833	.00003
298.15	.2	101	.000953	.00003
298.15	.4	101	.001057	.00003
298.15	.6	101	.001118	.00003
298.15	.8	101	.001217	.00003
308.15	.2	101	.000781	.00003
308.15	.4	101	.000867	.00003
308.15	.6	101	.000916	.00003
308.15	.8	101	.000997	.00003
