Measured thermophysical data. Density and Solubility of CO2 in Aqueous Solutions of (Potassium Carbonate + Sarcosine) and (Potassium Carbonate + Pipecolic Acid)
Source: J. Chem. Eng. Data, 2012, 10.1021/je300782p
Compound 1: potassium carbonate, CK2O3, purity 99%
Compound 2: sarcosine, C3H7NO2, purity 99%
Compound 3: hexahydro-2-picolinic acid, C6H11NO2, purity 99%
Compound 4: water, H2O, purity 99.9%
Compound 5: carbon dioxide, CO2, purity 99.999%
Compound 6: nitrogen, diatomic, N2, purity 99.999%

System: potassium carbonate + water; phases: Liquid
Fixed: Pressure, kPa = 101
Fixed: Mass fraction of potassium carbonate = .3
Property: Mass density, kg/m3 (Liquid); method: Pycnometric method
Temperature, K	Mass density, kg/m3	uncertainty
298.2	1288.8	1.2888
303.2	1284.1	1.2841
313.2	1278.6	1.2786
323.2	1273.4	1.2734
333.2	1267.1	1.2671
343.2	1261	1.261

System: sarcosine + potassium carbonate + water; phases: Liquid
Fixed: Pressure, kPa = 101
Fixed: Mass fraction of potassium carbonate = .3
Fixed: Mass fraction of sarcosine = .03
Property: Mass density, kg/m3 (Liquid); method: Pycnometric method
Temperature, K	Mass density, kg/m3	uncertainty
303.2	1291.9	1.2919
313.2	1286.8	1.2868
323.2	1281.4	1.2814
333.2	1275.6	1.2756
343.2	1269.8	1.2698
353.2	1265	1.265

System: hexahydro-2-picolinic acid + potassium carbonate + water; phases: Liquid
Fixed: Pressure, kPa = 101
Fixed: Mass fraction of potassium carbonate = .3
Fixed: Mass fraction of hexahydro-2-picolinic acid = .03
Property: Mass density, kg/m3 (Liquid); method: Pycnometric method
Temperature, K	Mass density, kg/m3	uncertainty
303.2	1292.1	1.2921
313.2	1286.1	1.2861
323.2	1280.1	1.2801
333.2	1274.5	1.2745
343.2	1269.4	1.2694
353.2	1263.4	1.2634

System: carbon dioxide + potassium carbonate + water; phases: Liquid, Gas
Fixed: Solvent: Mass fraction of potassium carbonate = .3
Property: Mole fraction of carbon dioxide (Liquid); method: Chromatography
Partial pressure, kPa of carbon dioxide	Temperature, K	Mole fraction of carbon dioxide	uncertainty
.4	373.2	.0767	.0002
.9	373.2	.1305	.0002
4.6	373.2	.2071	.0002
8	373.2	.259	.0002
25.9	373.2	.3265	.0002
49.4	373.2	.3707	.0002
117.6	373.2	.4213	.0002
224.3	373.2	.4504	.0002
480.4	373.2	.4758	.0002
970.1	373.2	.4947	.0002
1465.4	373.2	.5063	.0002
1.6	393.2	.0683	.0002
6.1	393.2	.1672	.0002
15	393.2	.2321	.0002
31.8	393.2	.2939	.0002
51.3	393.2	.3353	.0002
94.4	393.2	.3809	.0002
149	393.2	.4102	.0002
248	393.2	.4372	.0002
432.6	393.2	.4607	.0002
860.9	393.2	.483	.0002
1268.1	393.2	.4935	.0002
