Measured thermophysical data. Formation of Deep Eutectic Solvents by Phenols and Choline Chloride and Their Physical Properties
Source: J. Chem. Eng. Data, 2013, 10.1021/je300997v
Compound 1: choline hydrochloride, C5H14ClNO, purity 99%
Compound 2: o-hydroxytoluene, C7H8O, purity 99%
Compound 3: 1-hydroxy-2-3,-dimethylbenzene, C8H10O, purity 99%
Compound 4: benzenol, C6H6O, purity 98%

System: choline hydrochloride; phases: Crystal, Liquid, Air at 1 atmosphere
Property: Normal melting temperature, K (Crystal); method: DSC/DTA
Normal melting temperature, K	uncertainty
577.2	

System: choline hydrochloride + o-hydroxytoluene; phases: Liquid, Crystal
Fixed: Pressure, kPa = 101
Property: Solid-liquid equilibrium temperature, K (Liquid); method: DSC/DTA
Mole fraction of o-hydroxytoluene	Solid-liquid equilibrium temperature, K	uncertainty
.546	348.3	8.1
.601	321.8	8.1
.643	295.3	8.1

System: choline hydrochloride + o-hydroxytoluene; phases: Liquid, Crystal
Fixed: Pressure, kPa = 101
Property: Solid-liquid equilibrium temperature, K (Liquid); method: DSC/DTA
Mole fraction of o-hydroxytoluene	Solid-liquid equilibrium temperature, K	uncertainty
.75	249.4	8.1
.797	250.3	8.1
.834	251.4	8.1
.857	279.5	8.1
.909	283	8.1
1	304.1	8.1

System: choline hydrochloride + o-hydroxytoluene; phases: Liquid
Fixed: Pressure, kPa = 101
Fixed: Temperature, K = 298.2
Property: Mass density, kg/m3 (Liquid); method: Pycnometric method
Mole fraction of o-hydroxytoluene	Mass density, kg/m3	uncertainty
.6667	1077.6	1
.75	1070.7	1
.7963	1066.4	1
.8333	1063.1	1
.8571	1060.6	1

System: choline hydrochloride + o-hydroxytoluene; phases: Liquid
Fixed: Pressure, kPa = 101
Fixed: Temperature, K = 298.2
Property: Viscosity, Pa*s (Liquid); method: Capillary tube (Ostwald; Ubbelohde) method
Mole fraction of o-hydroxytoluene	Viscosity, Pa*s	uncertainty
.6667	.20741	.0062223
.75	.07765	.0023295
.7963	.04695	.0014085
.8333	.0349	.001047
.8571	.02782	.0008346

System: choline hydrochloride + o-hydroxytoluene; phases: Liquid
Fixed: Pressure, kPa = 101
Fixed: Temperature, K = 298.2
Property: Electrical conductivity, S/m (Liquid); method: conductivity meter
Mole fraction of o-hydroxytoluene	Electrical conductivity, S/m	uncertainty
.6667	.083	.00083
.75	.121	.00121
.7963	.141	.00141
.8333	.145	.00145
.8571	.138	.00138

System: choline hydrochloride + 1-hydroxy-2-3,-dimethylbenzene; phases: Liquid, Crystal
Fixed: Pressure, kPa = 101
Property: Solid-liquid equilibrium temperature, K (Liquid); method: DSC/DTA
Mole fraction of 1-hydroxy-2-3,-dimethylbenzene	Solid-liquid equilibrium temperature, K	uncertainty
.6	330.5	8.1
.668	323.6	8.1

System: choline hydrochloride + 1-hydroxy-2-3,-dimethylbenzene; phases: Liquid, Crystal
Fixed: Pressure, kPa = 101
Property: Solid-liquid equilibrium temperature, K (Liquid); method: DSC/DTA
Mole fraction of 1-hydroxy-2-3,-dimethylbenzene	Solid-liquid equilibrium temperature, K	uncertainty
.75	290.8	8.1
.8	316.3	8.1
.833	325	8.1
.9	339.8	8.1
1	348.2	8.1

System: choline hydrochloride + benzenol; phases: Liquid, Crystal
Fixed: Pressure, kPa = 101
Property: Solid-liquid equilibrium temperature, K (Liquid); method: DSC/DTA
Mole fraction of benzenol	Solid-liquid equilibrium temperature, K	uncertainty
.546	335.2	8.1
.6	294.2	8.1

System: choline hydrochloride + benzenol; phases: Liquid, Crystal
Fixed: Pressure, kPa = 101
Property: Solid-liquid equilibrium temperature, K (Liquid); method: DSC/DTA
Mole fraction of benzenol	Solid-liquid equilibrium temperature, K	uncertainty
.75	253.1	8.1
.8	260.2	8.1
.833	255.6	8.1
.881	279.3	8.1
.9	297.5	8.1
1	313.8	8.1

System: choline hydrochloride + benzenol; phases: Liquid
Fixed: Pressure, kPa = 101
Property: Mass density, kg/m3 (Liquid); method: Pycnometric method
Mass ratio of solute to solvent of choline hydrochloride	Temperature, K	Mass density, kg/m3	uncertainty
2	293.2	1099.5	10.995
2	298.2	1096.7	10.967
2	303.2	1093	10.93
2	308.2	1090.1	10.901
2	313.2	1087.3	10.873
2	318.2	1084.3	10.843
3	293.2	1094.8	10.948
3	298.2	1092.1	10.921
3	303.2	1089	10.89
3	308.2	1085.8	10.858
3	313.2	1082.9	10.829
3	318.2	1079.5	10.795
4	293.2	1091.8	10.918
4	298.2	1089.3	10.893
4	303.2	1086	10.86
4	308.2	1081.9	10.819
4	313.2	1079.5	10.795
4	318.2	1076.3	10.763
5	293.2	1089.8	10.898
5	298.2	1087	10.87
5	303.2	1083.8	10.838
5	308.2	1080.3	10.803
5	313.2	1076.1	10.761
5	318.2	1073.6	10.736
6	293.2	1088.5	10.885
6	298.2	1085.2	10.852
6	303.2	1081.8	10.818
6	308.2	1078.2	10.782
6	313.2	1074.5	10.745
6	318.2	1071.7	10.717

System: choline hydrochloride + benzenol; phases: Liquid
Fixed: Pressure, kPa = 101
Property: Viscosity, Pa*s (Liquid); method: Capillary tube (Ostwald; Ubbelohde) method
Amount ratio of solute to solvent of choline hydrochloride	Temperature, K	Viscosity, Pa*s	uncertainty
2	293.2	.12077	.0036231
2	298.2	.09033	.0027099
2	303.2	.06841	.0020523
2	308.2	.05343	.0016029
2	313.2	.04242	.0012726
2	318.2	.03434	.0010302
3	293.2	.05784	.0017352
3	298.2	.04464	.0013392
3	303.2	.03517	.0010551
3	308.2	.02822	.0008466
3	313.2	.02308	.0006924
3	318.2	.01914	.0005742
4	293.2	.04023	.0012069
4	298.2	.03155	.0009465
4	303.2	.0252	.000756
4	308.2	.02025	.0006075
4	313.2	.01671	.0005013
4	318.2	.014	.00042
5	293.2	.03196	.0009588
5	298.2	.02525	.0007575
5	303.2	.01975	.0005925
5	308.2	.01616	.0004848
5	313.2	.01344	.0004032
5	318.2	.01126	.0003378
6	293.2	.02703	.0008109
6	298.2	.02143	.0006429
6	303.2	.01682	.0005046
6	308.2	.01376	.0004128
6	313.2	.01145	.0003435
6	318.2	.00946	.0002838

System: choline hydrochloride + benzenol; phases: Liquid
Fixed: Pressure, kPa = 101
Property: Electrical conductivity, S/m (Liquid); method: conductivity meter
Amount ratio of solute to solvent of choline hydrochloride	Temperature, K	Electrical conductivity, S/m	uncertainty
2	293.2	.14	.0014
2	298.2	.205	.00205
2	303.2	.265	.00265
2	308.2	.337	.00337
2	313.2	.416	.00416
2	318.2	.509	.00509
3	293.2	.238	.00238
3	298.2	.314	.00314
3	303.2	.388	.00388
3	308.2	.477	.00477
3	313.2	.576	.00576
3	318.2	.677	.00677
4	293.2	.275	.00275
4	298.2	.345	.00345
4	303.2	.421	.00421
4	308.2	.507	.00507
4	313.2	.602	.00602
4	318.2	.706	.00706
5	293.2	.281	.00281
5	298.2	.347	.00347
5	303.2	.425	.00425
5	308.2	.508	.00508
5	313.2	.599	.00599
5	318.2	.696	.00696
6	293.2	.273	.00273
6	298.2	.338	.00338
6	303.2	.409	.00409
6	308.2	.487	.00487
6	313.2	.574	.00574
6	318.2	.666	.00666
