Measured thermophysical data. Viscosities and Conductivities of 1-Butyl-3-methylimidazolium Carboxylates Ionic Liquids at Different Temperatures
Source: J. Chem. Eng. Data, 2012, 10.1021/je300507h
Compound 1: 1-butyl-3-methylimidazolium formate, C9H16N2O2
Compound 2: 1-butyl-3-methylimidazolium acetate, C10H18N2O2
Compound 3: 1-butyl-3-methylimidazolium propionate, C11H20N2O2
Compound 4: 1-butyl-3-methylimidazolium butanoate, C12H22N2O2

System: 1-butyl-3-methylimidazolium formate; phases: Liquid
Fixed: Pressure, kPa = 101.325
Property: Viscosity, Pa*s (Liquid); method: Capillary tube (Ostwald; Ubbelohde) method
Temperature, K	Viscosity, Pa*s	uncertainty
303.15	138.5	1.385
313.15	80.53	.8053
323.15	50.78	.5078
333.15	34	.34
343.15	23.94	.2394

System: 1-butyl-3-methylimidazolium formate; phases: Liquid
Fixed: Pressure, kPa = 101.325
Property: Electrical conductivity, S/m (Liquid); method: Wayne-Kerr 6430B Autobalance Bridge electrode
Temperature, K	Electrical conductivity, S/m	uncertainty
303.15	.1909	.0009545
308.15	.2495	.0012475
313.15	.3193	.0015965
318.15	.4019	.0020095
323.15	.4983	.0024915
328.15	.6125	.0030625
333.15	.7383	.0036915
338.15	.88	.0044
343.15	1.04	.0052

System: 1-butyl-3-methylimidazolium acetate; phases: Liquid
Fixed: Pressure, kPa = 101.325
Property: Viscosity, Pa*s (Liquid); method: Capillary tube (Ostwald; Ubbelohde) method
Temperature, K	Viscosity, Pa*s	uncertainty
303.15	288.8	2.888
313.15	149.9	1.499
323.15	86.13	.8613
333.15	53.43	.5343
343.15	35.33	.3533

System: 1-butyl-3-methylimidazolium acetate; phases: Liquid
Fixed: Pressure, kPa = 101.325
Property: Electrical conductivity, S/m (Liquid); method: Wayne-Kerr 6430B Autobalance Bridge electrode
Temperature, K	Electrical conductivity, S/m	uncertainty
303.15	.07312	.0003656
308.15	.1014	.000507
313.15	.1361	.0006805
318.15	.1785	.0008925
323.15	.2291	.0011455
328.15	.2902	.001451
333.15	.3598	.001799
338.15	.4398	.002199
343.15	.5319	.0026595

System: 1-butyl-3-methylimidazolium propionate; phases: Liquid
Fixed: Pressure, kPa = 101.325
Property: Viscosity, Pa*s (Liquid); method: Capillary tube (Ostwald; Ubbelohde) method
Temperature, K	Viscosity, Pa*s	uncertainty
303.15	325.7	3.257
313.15	171.5	1.715
323.15	99.27	.9927
333.15	61.78	.6178
343.15	40.75	.4075

System: 1-butyl-3-methylimidazolium propionate; phases: Liquid
Fixed: Pressure, kPa = 101.325
Property: Electrical conductivity, S/m (Liquid); method: Wayne-Kerr 6430B Autobalance Bridge electrode
Temperature, K	Electrical conductivity, S/m	uncertainty
303.15	.07028	.0003514
308.15	.09023	.00045115
313.15	.1201	.0006005
318.15	.1557	.0007785
323.05	.1984	.000992
328.15	.2482	.001241
333.15	.3057	.0015285
338.15	.3716	.001858
343.15	.4471	.0022355

System: 1-butyl-3-methylimidazolium butanoate; phases: Liquid
Fixed: Pressure, kPa = 101.325
Property: Viscosity, Pa*s (Liquid); method: Capillary tube (Ostwald; Ubbelohde) method
Temperature, K	Viscosity, Pa*s	uncertainty
303.15	364.3	3.643
313.15	193.1	1.931
323.15	111.6	1.116
333.15	69.24	.6924
343.15	45.43	.4543

System: 1-butyl-3-methylimidazolium butanoate; phases: Liquid
Fixed: Pressure, kPa = 101.325
Property: Electrical conductivity, S/m (Liquid); method: Wayne-Kerr 6430B Autobalance Bridge electrode
Temperature, K	Electrical conductivity, S/m	uncertainty
303.15	.04102	.0002051
308.15	.05579	.00027895
313.15	.07522	.0003761
318.15	.09915	.00049575
323.05	.1291	.0006455
328.15	.1649	.0008245
333.15	.2084	.001042
338.15	.2577	.0012885
343.15	.3146	.001573
