Measured thermophysical data. Activity Coefficients at Infinite Dilution for Organic Compounds Dissolved in 1-Alkyl-1-methylpyrrolidinium Bis(trifluoromethylsulfonyl)imide Ionic Liquids Having Six-, Eight-, and Ten-Carbon Alkyl Chains
Source: J. Chem. Eng. Data, 2012, 10.1021/je300692s
Compound 1: 1-hexyl-1-methylpyrrolidinium bis(trifluoromethanesulfonyl)imide, C13H24F6N2O4S2, purity 98%
Compound 2: 1-methyl-1-octyl-pyrrolidinium bis(trifluoromethylsulfonyl)imide, C15H28F6N2O4S2, purity 98%
Compound 3: 1-decyl-1-methylpyrrolidinium bis(trifluoromethylsulfonyl)imide, C17H32N2F6O4S2, purity 98%
Compound 4: n-hexane, C6H14, purity 98%
Compound 5: pentane, 3-methyl-, C6H14, purity 98%
Compound 6: heptane, C7H16, purity 98%
Compound 7: n-octane, C8H18, purity 98%
Compound 8: n-nonane, C9H20, purity 98%
Compound 9: n-decane, C10H22, purity 98%
Compound 10: undecane, C11H24, purity 98%
Compound 11: methylcyclopentane, C6H12, purity 98%
Compound 12: cyclohexane, C6H12, purity 98%
Compound 13: methylcyclohexane, C7H14, purity 98%
Compound 14: cycloheptane, C7H14, purity 98%
Compound 15: benzene, C6H6, purity 98%
Compound 16: phenylmethane, C7H8, purity 98%
Compound 17: ethylbenzene, C8H10, purity 98%
Compound 18: 1,3-xylene, C8H10, purity 98%
Compound 19: 1,4-dimethylbenzene, C8H10, purity 98%
Compound 20: benzene, 1,2-dimethyl-, C8H10, purity 98%
Compound 21: 1-hexene, C6H12, purity 98%
Compound 22: 1-hexyne, C6H10, purity 98%
Compound 23: 1-heptyne, C7H12, purity 98%
Compound 24: butanone, C4H8O, purity 98%
Compound 25: methyl n-propyl ketone, C5H10O, purity 98%
Compound 26: diethyl ketone, C5H10O, purity 98%
Compound 27: 1,4-dioxane, C4H8O2, purity 98%
Compound 28: methanol, CH4O, purity 98%
Compound 29: ethyl alcohol, C2H6O, purity 98%
Compound 30: propan-1-ol, C3H8O, purity 98%
Compound 31: 2-propanol, C3H8O, purity 98%
Compound 32: isobutyl alcohol, C4H10O, purity 98%
Compound 33: 1-butanol, C4H10O, purity 98%
Compound 34: diethyl ether, C4H10O, purity 98%
Compound 35: isopropyl ether, C6H14O, purity 98%
Compound 36: methane, trichloro-, CHCl3, purity 98%
Compound 37: methane, dichloro-, CH2Cl2, purity 98%
Compound 38: carbon tetrachloride, CCl4, purity 98%
Compound 39: cyanomethane, C2H3N, purity 98%
Compound 40: NM(nitromethane), CH3NO2, purity 98%
Compound 41: 1-nitropropane, C3H7NO2, purity 98%
Compound 42: pyridine, C5H5N, purity 98%
Compound 43: thiophene, C4H4S, purity 98%

System: n-hexane + 1-hexyl-1-methylpyrrolidinium bis(trifluoromethanesulfonyl)imide; phases: Liquid
Fixed: Pressure, kPa = 101
Fixed: Mole fraction of n-hexane = 0
Property: Activity coefficient of n-hexane (Liquid); method: Chromatography
Temperature, K	Activity coefficient of n-hexane	uncertainty
322.9	7.74	.387
333	7.38	.369
343.1	7.11	.3555

System: pentane, 3-methyl- + 1-hexyl-1-methylpyrrolidinium bis(trifluoromethanesulfonyl)imide; phases: Liquid
Fixed: Pressure, kPa = 101
Fixed: Mole fraction of pentane, 3-methyl- = 0
Property: Activity coefficient of pentane, 3-methyl- (Liquid); method: Chromatography
Temperature, K	Activity coefficient of pentane, 3-methyl-	uncertainty
322.9	6.52	.326
333	6.46	.323
343.1	6.37	.3185

System: heptane + 1-hexyl-1-methylpyrrolidinium bis(trifluoromethanesulfonyl)imide; phases: Liquid
Fixed: Pressure, kPa = 101
Fixed: Mole fraction of heptane = 0
Property: Activity coefficient of heptane (Liquid); method: Chromatography
Temperature, K	Activity coefficient of heptane	uncertainty
322.9	10.58	.529
333	9.43	.4715
343.1	9.58	.479

System: n-octane + 1-hexyl-1-methylpyrrolidinium bis(trifluoromethanesulfonyl)imide; phases: Liquid
Fixed: Pressure, kPa = 101
Fixed: Mole fraction of n-octane = 0
Property: Activity coefficient of n-octane (Liquid); method: Chromatography
Temperature, K	Activity coefficient of n-octane	uncertainty
322.9	14.25	.7125
333	13.37	.6685
343.1	12.91	.6455

System: n-nonane + 1-hexyl-1-methylpyrrolidinium bis(trifluoromethanesulfonyl)imide; phases: Liquid
Fixed: Pressure, kPa = 101
Fixed: Mole fraction of n-nonane = 0
Property: Activity coefficient of n-nonane (Liquid); method: Chromatography
Temperature, K	Activity coefficient of n-nonane	uncertainty
322.9	21.1	1.055
333	18.18	.909
343.1	18.49	.9245

System: n-decane + 1-hexyl-1-methylpyrrolidinium bis(trifluoromethanesulfonyl)imide; phases: Liquid
Fixed: Pressure, kPa = 101
Fixed: Mole fraction of n-decane = 0
Property: Activity coefficient of n-decane (Liquid); method: Chromatography
Temperature, K	Activity coefficient of n-decane	uncertainty
322.9	25.99	1.2995
333	18.97	.9485
343.1	22.74	1.137

System: undecane + 1-hexyl-1-methylpyrrolidinium bis(trifluoromethanesulfonyl)imide; phases: Liquid
Fixed: Pressure, kPa = 101
Fixed: Mole fraction of undecane = 0
Property: Activity coefficient of undecane (Liquid); method: Chromatography
Temperature, K	Activity coefficient of undecane	uncertainty
322.9	34.39	1.7195
333	30.96	1.548
343.1	30.11	1.5055

System: methylcyclopentane + 1-hexyl-1-methylpyrrolidinium bis(trifluoromethanesulfonyl)imide; phases: Liquid
Fixed: Pressure, kPa = 101
Fixed: Mole fraction of methylcyclopentane = 0
Property: Activity coefficient of methylcyclopentane (Liquid); method: Chromatography
Temperature, K	Activity coefficient of methylcyclopentane	uncertainty
322.9	4.9	.245
333	4.52	.226
343.1	4.76	.238

System: cyclohexane + 1-hexyl-1-methylpyrrolidinium bis(trifluoromethanesulfonyl)imide; phases: Liquid
Fixed: Pressure, kPa = 101
Fixed: Mole fraction of cyclohexane = 0
Property: Activity coefficient of cyclohexane (Liquid); method: Chromatography
Temperature, K	Activity coefficient of cyclohexane	uncertainty
322.9	5.16	.258
333	4.64	.232
343.1	4.67	.2335

System: methylcyclohexane + 1-hexyl-1-methylpyrrolidinium bis(trifluoromethanesulfonyl)imide; phases: Liquid
Fixed: Pressure, kPa = 101
Fixed: Mole fraction of methylcyclohexane = 0
Property: Activity coefficient of methylcyclohexane (Liquid); method: Chromatography
Temperature, K	Activity coefficient of methylcyclohexane	uncertainty
322.9	6.57	.3285
333	6.07	.3035
343.1	6.03	.3015

System: cycloheptane + 1-hexyl-1-methylpyrrolidinium bis(trifluoromethanesulfonyl)imide; phases: Liquid
Fixed: Pressure, kPa = 101
Fixed: Mole fraction of cycloheptane = 0
Property: Activity coefficient of cycloheptane (Liquid); method: Chromatography
Temperature, K	Activity coefficient of cycloheptane	uncertainty
322.9	14.01	.7005
333	19.01	.9505
343.1	25.09	1.2545

System: benzene + 1-hexyl-1-methylpyrrolidinium bis(trifluoromethanesulfonyl)imide; phases: Liquid
Fixed: Pressure, kPa = 101
Fixed: Mole fraction of benzene = 0
Property: Activity coefficient of benzene (Liquid); method: Chromatography
Temperature, K	Activity coefficient of benzene	uncertainty
322.9	.76	.038
333	.77	.0385
343.1	.78	.039

System: phenylmethane + 1-hexyl-1-methylpyrrolidinium bis(trifluoromethanesulfonyl)imide; phases: Liquid
Fixed: Pressure, kPa = 101
Fixed: Mole fraction of phenylmethane = 0
Property: Activity coefficient of phenylmethane (Liquid); method: Chromatography
Temperature, K	Activity coefficient of phenylmethane	uncertainty
322.9	1	.05
333	1.01	.0505
343.1	1.04	.052

System: ethylbenzene + 1-hexyl-1-methylpyrrolidinium bis(trifluoromethanesulfonyl)imide; phases: Liquid
Fixed: Pressure, kPa = 101
Fixed: Mole fraction of ethylbenzene = 0
Property: Activity coefficient of ethylbenzene (Liquid); method: Chromatography
Temperature, K	Activity coefficient of ethylbenzene	uncertainty
322.9	1.38	.069
333	1.43	.0715
343.1	1.46	.073

System: 1,3-xylene + 1-hexyl-1-methylpyrrolidinium bis(trifluoromethanesulfonyl)imide; phases: Liquid
Fixed: Pressure, kPa = 101
Fixed: Mole fraction of 1,3-xylene = 0
Property: Activity coefficient of 1,3-xylene (Liquid); method: Chromatography
Temperature, K	Activity coefficient of 1,3-xylene	uncertainty
322.9	1.28	.064
333	1.39	.0695
343.1	1.42	.071

System: 1,4-dimethylbenzene + 1-hexyl-1-methylpyrrolidinium bis(trifluoromethanesulfonyl)imide; phases: Liquid
Fixed: Pressure, kPa = 101
Fixed: Mole fraction of 1,4-dimethylbenzene = 0
Property: Activity coefficient of 1,4-dimethylbenzene (Liquid); method: Chromatography
Temperature, K	Activity coefficient of 1,4-dimethylbenzene	uncertainty
322.9	1.35	.0675
333	1.4	.07
343.1	1.42	.071

System: benzene, 1,2-dimethyl- + 1-hexyl-1-methylpyrrolidinium bis(trifluoromethanesulfonyl)imide; phases: Liquid
Fixed: Pressure, kPa = 101
Fixed: Mole fraction of benzene, 1,2-dimethyl- = 0
Property: Activity coefficient of benzene, 1,2-dimethyl- (Liquid); method: Chromatography
Temperature, K	Activity coefficient of benzene, 1,2-dimethyl-	uncertainty
322.9	1.17	.0585
333	1.28	.064
343.1	1.31	.0655

System: 1-hexene + 1-hexyl-1-methylpyrrolidinium bis(trifluoromethanesulfonyl)imide; phases: Liquid
Fixed: Pressure, kPa = 101
Fixed: Mole fraction of 1-hexene = 0
Property: Activity coefficient of 1-hexene (Liquid); method: Chromatography
Temperature, K	Activity coefficient of 1-hexene	uncertainty
322.9	4.56	.228
333	4.63	.2315
343.1	4.44	.222

System: 1-hexyne + 1-hexyl-1-methylpyrrolidinium bis(trifluoromethanesulfonyl)imide; phases: Liquid
Fixed: Pressure, kPa = 101
Fixed: Mole fraction of 1-hexyne = 0
Property: Activity coefficient of 1-hexyne (Liquid); method: Chromatography
Temperature, K	Activity coefficient of 1-hexyne	uncertainty
322.9	2.1	.105
333	2.1	.105
343.1	2.09	.1045

System: 1-heptyne + 1-hexyl-1-methylpyrrolidinium bis(trifluoromethanesulfonyl)imide; phases: Liquid
Fixed: Pressure, kPa = 101
Fixed: Mole fraction of 1-heptyne = 0
Property: Activity coefficient of 1-heptyne (Liquid); method: Chromatography
Temperature, K	Activity coefficient of 1-heptyne	uncertainty
322.9	2.24	.112
333	2.79	.1395
343.1	2.78	.139

System: butanone + 1-hexyl-1-methylpyrrolidinium bis(trifluoromethanesulfonyl)imide; phases: Liquid
Fixed: Pressure, kPa = 101
Fixed: Mole fraction of butanone = 0
Property: Activity coefficient of butanone (Liquid); method: Chromatography
Temperature, K	Activity coefficient of butanone	uncertainty
322.9	.42	.021
333	.42	.021
343.1	.39	.0195

System: methyl n-propyl ketone + 1-hexyl-1-methylpyrrolidinium bis(trifluoromethanesulfonyl)imide; phases: Liquid
Fixed: Pressure, kPa = 101
Fixed: Mole fraction of methyl n-propyl ketone = 0
Property: Activity coefficient of methyl n-propyl ketone (Liquid); method: Chromatography
Temperature, K	Activity coefficient of methyl n-propyl ketone	uncertainty
322.9	.59	.0295
333	.65	.0325
343.1	.66	.033

System: diethyl ketone + 1-hexyl-1-methylpyrrolidinium bis(trifluoromethanesulfonyl)imide; phases: Liquid
Fixed: Pressure, kPa = 101
Fixed: Mole fraction of diethyl ketone = 0
Property: Activity coefficient of diethyl ketone (Liquid); method: Chromatography
Temperature, K	Activity coefficient of diethyl ketone	uncertainty
322.9	.47	.0235
333	.6	.03
343.1	.62	.031

System: 1,4-dioxane + 1-hexyl-1-methylpyrrolidinium bis(trifluoromethanesulfonyl)imide; phases: Liquid
Fixed: Pressure, kPa = 101
Fixed: Mole fraction of 1,4-dioxane = 0
Property: Activity coefficient of 1,4-dioxane (Liquid); method: Chromatography
Temperature, K	Activity coefficient of 1,4-dioxane	uncertainty
322.9	.58	.029
333	.42	.021
343.1	.44	.022

System: methanol + 1-hexyl-1-methylpyrrolidinium bis(trifluoromethanesulfonyl)imide; phases: Liquid
Fixed: Pressure, kPa = 101
Fixed: Mole fraction of methanol = 0
Property: Activity coefficient of methanol (Liquid); method: Chromatography
Temperature, K	Activity coefficient of methanol	uncertainty
322.9	.94	.047
333	1.77	.0885
343.1	.95	.0475

System: ethyl alcohol + 1-hexyl-1-methylpyrrolidinium bis(trifluoromethanesulfonyl)imide; phases: Liquid
Fixed: Pressure, kPa = 101
Fixed: Mole fraction of ethyl alcohol = 0
Property: Activity coefficient of ethyl alcohol (Liquid); method: Chromatography
Temperature, K	Activity coefficient of ethyl alcohol	uncertainty
322.9	1.41	.0705
333	1.4	.07
343.1	1.31	.0655

System: propan-1-ol + 1-hexyl-1-methylpyrrolidinium bis(trifluoromethanesulfonyl)imide; phases: Liquid
Fixed: Pressure, kPa = 101
Fixed: Mole fraction of propan-1-ol = 0
Property: Activity coefficient of propan-1-ol (Liquid); method: Chromatography
Temperature, K	Activity coefficient of propan-1-ol	uncertainty
322.9	1.72	.086
333	1.64	.082
343.1	1.49	.0745

System: 2-propanol + 1-hexyl-1-methylpyrrolidinium bis(trifluoromethanesulfonyl)imide; phases: Liquid
Fixed: Pressure, kPa = 101
Fixed: Mole fraction of 2-propanol = 0
Property: Activity coefficient of 2-propanol (Liquid); method: Chromatography
Temperature, K	Activity coefficient of 2-propanol	uncertainty
322.9	1.55	.0775
333	1.53	.0765
343.1	1.4	.07

System: isobutyl alcohol + 1-hexyl-1-methylpyrrolidinium bis(trifluoromethanesulfonyl)imide; phases: Liquid
Fixed: Pressure, kPa = 101
Fixed: Mole fraction of isobutyl alcohol = 0
Property: Activity coefficient of isobutyl alcohol (Liquid); method: Chromatography
Temperature, K	Activity coefficient of isobutyl alcohol	uncertainty
322.9	1.87	.0935
333	2.67	.1335
343.1	1.65	.0825

System: 1-butanol + 1-hexyl-1-methylpyrrolidinium bis(trifluoromethanesulfonyl)imide; phases: Liquid
Fixed: Pressure, kPa = 101
Fixed: Mole fraction of 1-butanol = 0
Property: Activity coefficient of 1-butanol (Liquid); method: Chromatography
Temperature, K	Activity coefficient of 1-butanol	uncertainty
322.9	2.28	.114
333	2.86	.143
343.1	2.04	.102

System: diethyl ether + 1-hexyl-1-methylpyrrolidinium bis(trifluoromethanesulfonyl)imide; phases: Liquid
Fixed: Pressure, kPa = 101
Fixed: Mole fraction of diethyl ether = 0
Property: Activity coefficient of diethyl ether (Liquid); method: Chromatography
Temperature, K	Activity coefficient of diethyl ether	uncertainty
322.9	1.56	.078
333	1.76	.088
343.1	1.76	.088

System: isopropyl ether + 1-hexyl-1-methylpyrrolidinium bis(trifluoromethanesulfonyl)imide; phases: Liquid
Fixed: Pressure, kPa = 101
Fixed: Mole fraction of isopropyl ether = 0
Property: Activity coefficient of isopropyl ether (Liquid); method: Chromatography
Temperature, K	Activity coefficient of isopropyl ether	uncertainty
322.9	3.18	.159
333	3.56	.178
343.1	3.53	.1765

System: methane, trichloro- + 1-hexyl-1-methylpyrrolidinium bis(trifluoromethanesulfonyl)imide; phases: Liquid
Fixed: Pressure, kPa = 101
Fixed: Mole fraction of methane, trichloro- = 0
Property: Activity coefficient of methane, trichloro- (Liquid); method: Chromatography
Temperature, K	Activity coefficient of methane, trichloro-	uncertainty
322.9	.68	.034
333	.72	.036
343.1	.74	.037

System: methane, dichloro- + 1-hexyl-1-methylpyrrolidinium bis(trifluoromethanesulfonyl)imide; phases: Liquid
Fixed: Pressure, kPa = 101
Fixed: Mole fraction of methane, dichloro- = 0
Property: Activity coefficient of methane, dichloro- (Liquid); method: Chromatography
Temperature, K	Activity coefficient of methane, dichloro-	uncertainty
322.9	.31	.0155
333	.36	.018
343.1	.35	.0175

System: carbon tetrachloride + 1-hexyl-1-methylpyrrolidinium bis(trifluoromethanesulfonyl)imide; phases: Liquid
Fixed: Pressure, kPa = 101
Fixed: Mole fraction of carbon tetrachloride = 0
Property: Activity coefficient of carbon tetrachloride (Liquid); method: Chromatography
Temperature, K	Activity coefficient of carbon tetrachloride	uncertainty
322.9	1.78	.089
333	1.85	.0925
343.1	1.86	.093

System: cyanomethane + 1-hexyl-1-methylpyrrolidinium bis(trifluoromethanesulfonyl)imide; phases: Liquid
Fixed: Pressure, kPa = 101
Fixed: Mole fraction of cyanomethane = 0
Property: Activity coefficient of cyanomethane (Liquid); method: Chromatography
Temperature, K	Activity coefficient of cyanomethane	uncertainty
322.9	.46	.023
333	.46	.023
343.1	.48	.024

System: NM(nitromethane) + 1-hexyl-1-methylpyrrolidinium bis(trifluoromethanesulfonyl)imide; phases: Liquid
Fixed: Pressure, kPa = 101
Fixed: Mole fraction of NM(nitromethane) = 0
Property: Activity coefficient of NM(nitromethane) (Liquid); method: Chromatography
Temperature, K	Activity coefficient of NM(nitromethane)	uncertainty
322.9	.57	.0285
333	.57	.0285
343.1	.56	.028

System: 1-nitropropane + 1-hexyl-1-methylpyrrolidinium bis(trifluoromethanesulfonyl)imide; phases: Liquid
Fixed: Pressure, kPa = 101
Fixed: Mole fraction of 1-nitropropane = 0
Property: Activity coefficient of 1-nitropropane (Liquid); method: Chromatography
Temperature, K	Activity coefficient of 1-nitropropane	uncertainty
322.9	.66	.033
333	.66	.033
343.1	.65	.0325

System: pyridine + 1-hexyl-1-methylpyrrolidinium bis(trifluoromethanesulfonyl)imide; phases: Liquid
Fixed: Pressure, kPa = 101
Fixed: Mole fraction of pyridine = 0
Property: Activity coefficient of pyridine (Liquid); method: Chromatography
Temperature, K	Activity coefficient of pyridine	uncertainty
322.9	.52	.026
333	.52	.026
343.1	.53	.0265

System: thiophene + 1-hexyl-1-methylpyrrolidinium bis(trifluoromethanesulfonyl)imide; phases: Liquid
Fixed: Pressure, kPa = 101
Fixed: Mole fraction of thiophene = 0
Property: Activity coefficient of thiophene (Liquid); method: Chromatography
Temperature, K	Activity coefficient of thiophene	uncertainty
322.9	.7	.035
333	.71	.0355
343.1	.72	.036

System: n-hexane + 1-methyl-1-octyl-pyrrolidinium bis(trifluoromethylsulfonyl)imide; phases: Liquid
Fixed: Pressure, kPa = 101
Fixed: Mole fraction of n-hexane = 0
Property: Activity coefficient of n-hexane (Liquid); method: Chromatography
Temperature, K	Activity coefficient of n-hexane	uncertainty
323	5.01	.2505
333	4.8	.24
343.1	4.05	.2025

System: pentane, 3-methyl- + 1-methyl-1-octyl-pyrrolidinium bis(trifluoromethylsulfonyl)imide; phases: Liquid
Fixed: Pressure, kPa = 101
Fixed: Mole fraction of pentane, 3-methyl- = 0
Property: Activity coefficient of pentane, 3-methyl- (Liquid); method: Chromatography
Temperature, K	Activity coefficient of pentane, 3-methyl-	uncertainty
323	4.61	.2305
333	4.52	.226
343.1	4.08	.204

System: heptane + 1-methyl-1-octyl-pyrrolidinium bis(trifluoromethylsulfonyl)imide; phases: Liquid
Fixed: Pressure, kPa = 101
Fixed: Mole fraction of heptane = 0
Property: Activity coefficient of heptane (Liquid); method: Chromatography
Temperature, K	Activity coefficient of heptane	uncertainty
323	6.4	.32
333	6.06	.303
343.1	5.13	.2565

System: n-octane + 1-methyl-1-octyl-pyrrolidinium bis(trifluoromethylsulfonyl)imide; phases: Liquid
Fixed: Pressure, kPa = 101
Fixed: Mole fraction of n-octane = 0
Property: Activity coefficient of n-octane (Liquid); method: Chromatography
Temperature, K	Activity coefficient of n-octane	uncertainty
323	8.1	.405
333	7.8	.39
343.1	6.54	.327

System: n-nonane + 1-methyl-1-octyl-pyrrolidinium bis(trifluoromethylsulfonyl)imide; phases: Liquid
Fixed: Pressure, kPa = 101
Fixed: Mole fraction of n-nonane = 0
Property: Activity coefficient of n-nonane (Liquid); method: Chromatography
Temperature, K	Activity coefficient of n-nonane	uncertainty
323	11.27	.5635
333	10.72	.536
343.1	9.14	.457

System: n-decane + 1-methyl-1-octyl-pyrrolidinium bis(trifluoromethylsulfonyl)imide; phases: Liquid
Fixed: Pressure, kPa = 101
Fixed: Mole fraction of n-decane = 0
Property: Activity coefficient of n-decane (Liquid); method: Chromatography
Temperature, K	Activity coefficient of n-decane	uncertainty
323	14.77	.7385
333	12.51	.6255
343.1	10.98	.549

System: undecane + 1-methyl-1-octyl-pyrrolidinium bis(trifluoromethylsulfonyl)imide; phases: Liquid
Fixed: Pressure, kPa = 101
Fixed: Mole fraction of undecane = 0
Property: Activity coefficient of undecane (Liquid); method: Chromatography
Temperature, K	Activity coefficient of undecane	uncertainty
323	16.82	.841
333	15.64	.782
343.1	14.64	.732

System: methylcyclopentane + 1-methyl-1-octyl-pyrrolidinium bis(trifluoromethylsulfonyl)imide; phases: Liquid
Fixed: Pressure, kPa = 101
Fixed: Mole fraction of methylcyclopentane = 0
Property: Activity coefficient of methylcyclopentane (Liquid); method: Chromatography
Temperature, K	Activity coefficient of methylcyclopentane	uncertainty
323	3.13	.1565
333	3.36	.168
343.1	2.84	.142

System: cyclohexane + 1-methyl-1-octyl-pyrrolidinium bis(trifluoromethylsulfonyl)imide; phases: Liquid
Fixed: Pressure, kPa = 101
Fixed: Mole fraction of cyclohexane = 0
Property: Activity coefficient of cyclohexane (Liquid); method: Chromatography
Temperature, K	Activity coefficient of cyclohexane	uncertainty
323	3.45	.1725
333	3.31	.1655
343.1	3.06	.153

System: methylcyclohexane + 1-methyl-1-octyl-pyrrolidinium bis(trifluoromethylsulfonyl)imide; phases: Liquid
Fixed: Pressure, kPa = 101
Fixed: Mole fraction of methylcyclohexane = 0
Property: Activity coefficient of methylcyclohexane (Liquid); method: Chromatography
Temperature, K	Activity coefficient of methylcyclohexane	uncertainty
323	4.22	.211
333	4.04	.202
343.1	3.9	.195

System: cycloheptane + 1-methyl-1-octyl-pyrrolidinium bis(trifluoromethylsulfonyl)imide; phases: Liquid
Fixed: Pressure, kPa = 101
Fixed: Mole fraction of cycloheptane = 0
Property: Activity coefficient of cycloheptane (Liquid); method: Chromatography
Temperature, K	Activity coefficient of cycloheptane	uncertainty
323	8.62	.431
333	12.1	.605
343.1	15.39	.7695

System: benzene + 1-methyl-1-octyl-pyrrolidinium bis(trifluoromethylsulfonyl)imide; phases: Liquid
Fixed: Pressure, kPa = 101
Fixed: Mole fraction of benzene = 0
Property: Activity coefficient of benzene (Liquid); method: Chromatography
Temperature, K	Activity coefficient of benzene	uncertainty
323	.6	.03
333	.62	.031
343.1	.61	.0305

System: phenylmethane + 1-methyl-1-octyl-pyrrolidinium bis(trifluoromethylsulfonyl)imide; phases: Liquid
Fixed: Pressure, kPa = 101
Fixed: Mole fraction of phenylmethane = 0
Property: Activity coefficient of phenylmethane (Liquid); method: Chromatography
Temperature, K	Activity coefficient of phenylmethane	uncertainty
323	.76	.038
333	.78	.039
343.1	.74	.037

System: ethylbenzene + 1-methyl-1-octyl-pyrrolidinium bis(trifluoromethylsulfonyl)imide; phases: Liquid
Fixed: Pressure, kPa = 101
Fixed: Mole fraction of ethylbenzene = 0
Property: Activity coefficient of ethylbenzene (Liquid); method: Chromatography
Temperature, K	Activity coefficient of ethylbenzene	uncertainty
323	1.03	.0515
333	.98	.049
343.1	1.04	.052

System: 1,3-xylene + 1-methyl-1-octyl-pyrrolidinium bis(trifluoromethylsulfonyl)imide; phases: Liquid
Fixed: Pressure, kPa = 101
Fixed: Mole fraction of 1,3-xylene = 0
Property: Activity coefficient of 1,3-xylene (Liquid); method: Chromatography
Temperature, K	Activity coefficient of 1,3-xylene	uncertainty
323	1	.05
333	.84	.042
343.1	1.05	.0525

System: 1,4-dimethylbenzene + 1-methyl-1-octyl-pyrrolidinium bis(trifluoromethylsulfonyl)imide; phases: Liquid
Fixed: Pressure, kPa = 101
Fixed: Mole fraction of 1,4-dimethylbenzene = 0
Property: Activity coefficient of 1,4-dimethylbenzene (Liquid); method: Chromatography
Temperature, K	Activity coefficient of 1,4-dimethylbenzene	uncertainty
323	1.01	.0505
333	.99	.0495
343.1	1.05	.0525

System: benzene, 1,2-dimethyl- + 1-methyl-1-octyl-pyrrolidinium bis(trifluoromethylsulfonyl)imide; phases: Liquid
Fixed: Pressure, kPa = 101
Fixed: Mole fraction of benzene, 1,2-dimethyl- = 0
Property: Activity coefficient of benzene, 1,2-dimethyl- (Liquid); method: Chromatography
Temperature, K	Activity coefficient of benzene, 1,2-dimethyl-	uncertainty
323	.92	.046
333	.87	.0435
343.1	.97	.0485

System: 1-hexene + 1-methyl-1-octyl-pyrrolidinium bis(trifluoromethylsulfonyl)imide; phases: Liquid
Fixed: Pressure, kPa = 101
Fixed: Mole fraction of 1-hexene = 0
Property: Activity coefficient of 1-hexene (Liquid); method: Chromatography
Temperature, K	Activity coefficient of 1-hexene	uncertainty
323	3.17	.1585
333	3.02	.151
343.1	2.58	.129

System: 1-hexyne + 1-methyl-1-octyl-pyrrolidinium bis(trifluoromethylsulfonyl)imide; phases: Liquid
Fixed: Pressure, kPa = 101
Fixed: Mole fraction of 1-hexyne = 0
Property: Activity coefficient of 1-hexyne (Liquid); method: Chromatography
Temperature, K	Activity coefficient of 1-hexyne	uncertainty
323	1.57	.0785
333	1.58	.079
343.1	1.34	.067

System: 1-heptyne + 1-methyl-1-octyl-pyrrolidinium bis(trifluoromethylsulfonyl)imide; phases: Liquid
Fixed: Pressure, kPa = 101
Fixed: Mole fraction of 1-heptyne = 0
Property: Activity coefficient of 1-heptyne (Liquid); method: Chromatography
Temperature, K	Activity coefficient of 1-heptyne	uncertainty
323	1.94	.097
333	1.89	.0945
343.1	1.9	.095

System: butanone + 1-methyl-1-octyl-pyrrolidinium bis(trifluoromethylsulfonyl)imide; phases: Liquid
Fixed: Pressure, kPa = 101
Fixed: Mole fraction of butanone = 0
Property: Activity coefficient of butanone (Liquid); method: Chromatography
Temperature, K	Activity coefficient of butanone	uncertainty
323	.36	.018
333	.34	.017
343.1	.31	.0155

System: methyl n-propyl ketone + 1-methyl-1-octyl-pyrrolidinium bis(trifluoromethylsulfonyl)imide; phases: Liquid
Fixed: Pressure, kPa = 101
Fixed: Mole fraction of methyl n-propyl ketone = 0
Property: Activity coefficient of methyl n-propyl ketone (Liquid); method: Chromatography
Temperature, K	Activity coefficient of methyl n-propyl ketone	uncertainty
323	.49	.0245
333	.51	.0255
343.1	.48	.024

System: diethyl ketone + 1-methyl-1-octyl-pyrrolidinium bis(trifluoromethylsulfonyl)imide; phases: Liquid
Fixed: Pressure, kPa = 101
Fixed: Mole fraction of diethyl ketone = 0
Property: Activity coefficient of diethyl ketone (Liquid); method: Chromatography
Temperature, K	Activity coefficient of diethyl ketone	uncertainty
323	.45	.0225
333	.47	.0235
343.1	.44	.022

System: 1,4-dioxane + 1-methyl-1-octyl-pyrrolidinium bis(trifluoromethylsulfonyl)imide; phases: Liquid
Fixed: Pressure, kPa = 101
Fixed: Mole fraction of 1,4-dioxane = 0
Property: Activity coefficient of 1,4-dioxane (Liquid); method: Chromatography
Temperature, K	Activity coefficient of 1,4-dioxane	uncertainty
323	.32	.016
333	.6	.03
343.1	.31	.0155

System: methanol + 1-methyl-1-octyl-pyrrolidinium bis(trifluoromethylsulfonyl)imide; phases: Liquid
Fixed: Pressure, kPa = 101
Fixed: Mole fraction of methanol = 0
Property: Activity coefficient of methanol (Liquid); method: Chromatography
Temperature, K	Activity coefficient of methanol	uncertainty
323	.97	.0485
333	1.09	.0545
343.1	.71	.0355

System: ethyl alcohol + 1-methyl-1-octyl-pyrrolidinium bis(trifluoromethylsulfonyl)imide; phases: Liquid
Fixed: Pressure, kPa = 101
Fixed: Mole fraction of ethyl alcohol = 0
Property: Activity coefficient of ethyl alcohol (Liquid); method: Chromatography
Temperature, K	Activity coefficient of ethyl alcohol	uncertainty
323	1.33	.0665
333	1.26	.063
343.1	.98	.049

System: propan-1-ol + 1-methyl-1-octyl-pyrrolidinium bis(trifluoromethylsulfonyl)imide; phases: Liquid
Fixed: Pressure, kPa = 101
Fixed: Mole fraction of propan-1-ol = 0
Property: Activity coefficient of propan-1-ol (Liquid); method: Chromatography
Temperature, K	Activity coefficient of propan-1-ol	uncertainty
323	1.49	.0745
333	1.29	.0645
343.1	1.14	.057

System: 2-propanol + 1-methyl-1-octyl-pyrrolidinium bis(trifluoromethylsulfonyl)imide; phases: Liquid
Fixed: Pressure, kPa = 101
Fixed: Mole fraction of 2-propanol = 0
Property: Activity coefficient of 2-propanol (Liquid); method: Chromatography
Temperature, K	Activity coefficient of 2-propanol	uncertainty
323	1.4	.07
333	1.27	.0635
343.1	1.06	.053

System: isobutyl alcohol + 1-methyl-1-octyl-pyrrolidinium bis(trifluoromethylsulfonyl)imide; phases: Liquid
Fixed: Pressure, kPa = 101
Fixed: Mole fraction of isobutyl alcohol = 0
Property: Activity coefficient of isobutyl alcohol (Liquid); method: Chromatography
Temperature, K	Activity coefficient of isobutyl alcohol	uncertainty
323	1.59	.0795
333	1.44	.072
343.1	1.22	.061

System: diethyl ether + 1-methyl-1-octyl-pyrrolidinium bis(trifluoromethylsulfonyl)imide; phases: Liquid
Fixed: Pressure, kPa = 101
Fixed: Mole fraction of diethyl ether = 0
Property: Activity coefficient of diethyl ether (Liquid); method: Chromatography
Temperature, K	Activity coefficient of diethyl ether	uncertainty
323	1.34	.067
333	1.34	.067
343.1	1.14	.057

System: isopropyl ether + 1-methyl-1-octyl-pyrrolidinium bis(trifluoromethylsulfonyl)imide; phases: Liquid
Fixed: Pressure, kPa = 101
Fixed: Mole fraction of isopropyl ether = 0
Property: Activity coefficient of isopropyl ether (Liquid); method: Chromatography
Temperature, K	Activity coefficient of isopropyl ether	uncertainty
323	2.57	.1285
333	2.58	.129
343.1	2.26	.113

System: methane, trichloro- + 1-methyl-1-octyl-pyrrolidinium bis(trifluoromethylsulfonyl)imide; phases: Liquid
Fixed: Pressure, kPa = 101
Fixed: Mole fraction of methane, trichloro- = 0
Property: Activity coefficient of methane, trichloro- (Liquid); method: Chromatography
Temperature, K	Activity coefficient of methane, trichloro-	uncertainty
323	.56	.028
333	.58	.029
343.1	.53	.0265

System: methane, dichloro- + 1-methyl-1-octyl-pyrrolidinium bis(trifluoromethylsulfonyl)imide; phases: Liquid
Fixed: Pressure, kPa = 101
Fixed: Mole fraction of methane, dichloro- = 0
Property: Activity coefficient of methane, dichloro- (Liquid); method: Chromatography
Temperature, K	Activity coefficient of methane, dichloro-	uncertainty
323	.26	.013
333	.27	.0135
343.1	.28	.014

System: carbon tetrachloride + 1-methyl-1-octyl-pyrrolidinium bis(trifluoromethylsulfonyl)imide; phases: Liquid
Fixed: Pressure, kPa = 101
Fixed: Mole fraction of carbon tetrachloride = 0
Property: Activity coefficient of carbon tetrachloride (Liquid); method: Chromatography
Temperature, K	Activity coefficient of carbon tetrachloride	uncertainty
323	1.39	.0695
333	1.3	.065
343.1	1.15	.0575

System: cyanomethane + 1-methyl-1-octyl-pyrrolidinium bis(trifluoromethylsulfonyl)imide; phases: Liquid
Fixed: Pressure, kPa = 101
Fixed: Mole fraction of cyanomethane = 0
Property: Activity coefficient of cyanomethane (Liquid); method: Chromatography
Temperature, K	Activity coefficient of cyanomethane	uncertainty
323	.43	.0215
333	.39	.0195
343.1	.37	.0185

System: NM(nitromethane) + 1-methyl-1-octyl-pyrrolidinium bis(trifluoromethylsulfonyl)imide; phases: Liquid
Fixed: Pressure, kPa = 101
Fixed: Mole fraction of NM(nitromethane) = 0
Property: Activity coefficient of NM(nitromethane) (Liquid); method: Chromatography
Temperature, K	Activity coefficient of NM(nitromethane)	uncertainty
323	.54	.027
333	.51	.0255
343.1	.48	.024

System: 1-nitropropane + 1-methyl-1-octyl-pyrrolidinium bis(trifluoromethylsulfonyl)imide; phases: Liquid
Fixed: Pressure, kPa = 101
Fixed: Mole fraction of 1-nitropropane = 0
Property: Activity coefficient of 1-nitropropane (Liquid); method: Chromatography
Temperature, K	Activity coefficient of 1-nitropropane	uncertainty
323	.55	.0275
333	.52	.026
343.1	.51	.0255

System: pyridine + 1-methyl-1-octyl-pyrrolidinium bis(trifluoromethylsulfonyl)imide; phases: Liquid
Fixed: Pressure, kPa = 101
Fixed: Mole fraction of pyridine = 0
Property: Activity coefficient of pyridine (Liquid); method: Chromatography
Temperature, K	Activity coefficient of pyridine	uncertainty
323	.42	.021
333	.39	.0195
343.1	.41	.0205

System: thiophene + 1-methyl-1-octyl-pyrrolidinium bis(trifluoromethylsulfonyl)imide; phases: Liquid
Fixed: Pressure, kPa = 101
Fixed: Mole fraction of thiophene = 0
Property: Activity coefficient of thiophene (Liquid); method: Chromatography
Temperature, K	Activity coefficient of thiophene	uncertainty
323	.57	.0285
333	.55	.0275
343.1	.53	.0265

System: n-hexane + 1-decyl-1-methylpyrrolidinium bis(trifluoromethylsulfonyl)imide; phases: Liquid
Fixed: Pressure, kPa = 101
Fixed: Mole fraction of n-hexane = 0
Property: Activity coefficient of n-hexane (Liquid); method: Chromatography
Temperature, K	Activity coefficient of n-hexane	uncertainty
322.6	3.97	.1985
332.5	3.78	.189
342.8	3.68	.184

System: pentane, 3-methyl- + 1-decyl-1-methylpyrrolidinium bis(trifluoromethylsulfonyl)imide; phases: Liquid
Fixed: Pressure, kPa = 101
Fixed: Mole fraction of pentane, 3-methyl- = 0
Property: Activity coefficient of pentane, 3-methyl- (Liquid); method: Chromatography
Temperature, K	Activity coefficient of pentane, 3-methyl-	uncertainty
322.6	3.65	.1825
332.5	3.36	.168
342.8	3.4	.17

System: heptane + 1-decyl-1-methylpyrrolidinium bis(trifluoromethylsulfonyl)imide; phases: Liquid
Fixed: Pressure, kPa = 101
Fixed: Mole fraction of heptane = 0
Property: Activity coefficient of heptane (Liquid); method: Chromatography
Temperature, K	Activity coefficient of heptane	uncertainty
322.6	4.91	.2455
332.5	4.75	.2375
342.8	4.62	.231

System: n-octane + 1-decyl-1-methylpyrrolidinium bis(trifluoromethylsulfonyl)imide; phases: Liquid
Fixed: Pressure, kPa = 101
Fixed: Mole fraction of n-octane = 0
Property: Activity coefficient of n-octane (Liquid); method: Chromatography
Temperature, K	Activity coefficient of n-octane	uncertainty
322.6	6.13	.3065
332.5	5.92	.296
342.8	5.76	.288

System: n-nonane + 1-decyl-1-methylpyrrolidinium bis(trifluoromethylsulfonyl)imide; phases: Liquid
Fixed: Pressure, kPa = 101
Fixed: Mole fraction of n-nonane = 0
Property: Activity coefficient of n-nonane (Liquid); method: Chromatography
Temperature, K	Activity coefficient of n-nonane	uncertainty
322.6	8.32	.416
332.5	8.01	.4005
342.8	7.65	.3825

System: n-decane + 1-decyl-1-methylpyrrolidinium bis(trifluoromethylsulfonyl)imide; phases: Liquid
Fixed: Pressure, kPa = 101
Fixed: Mole fraction of n-decane = 0
Property: Activity coefficient of n-decane (Liquid); method: Chromatography
Temperature, K	Activity coefficient of n-decane	uncertainty
322.6	9.42	.471
332.5	9.05	.4525
342.8	8.7	.435

System: undecane + 1-decyl-1-methylpyrrolidinium bis(trifluoromethylsulfonyl)imide; phases: Liquid
Fixed: Pressure, kPa = 101
Fixed: Mole fraction of undecane = 0
Property: Activity coefficient of undecane (Liquid); method: Chromatography
Temperature, K	Activity coefficient of undecane	uncertainty
322.6	11.68	.584
332.5	11.18	.559
342.8	10.66	.533

System: methylcyclopentane + 1-decyl-1-methylpyrrolidinium bis(trifluoromethylsulfonyl)imide; phases: Liquid
Fixed: Pressure, kPa = 101
Fixed: Mole fraction of methylcyclopentane = 0
Property: Activity coefficient of methylcyclopentane (Liquid); method: Chromatography
Temperature, K	Activity coefficient of methylcyclopentane	uncertainty
322.6	2.9	.145
332.5	2.76	.138
342.8	2.66	.133

System: cyclohexane + 1-decyl-1-methylpyrrolidinium bis(trifluoromethylsulfonyl)imide; phases: Liquid
Fixed: Pressure, kPa = 101
Fixed: Mole fraction of cyclohexane = 0
Property: Activity coefficient of cyclohexane (Liquid); method: Chromatography
Temperature, K	Activity coefficient of cyclohexane	uncertainty
322.6	2.81	.1405
332.5	2.71	.1355
342.8	2.62	.131

System: methylcyclohexane + 1-decyl-1-methylpyrrolidinium bis(trifluoromethylsulfonyl)imide; phases: Liquid
Fixed: Pressure, kPa = 101
Fixed: Mole fraction of methylcyclohexane = 0
Property: Activity coefficient of methylcyclohexane (Liquid); method: Chromatography
Temperature, K	Activity coefficient of methylcyclohexane	uncertainty
322.6	3.38	.169
332.5	3.28	.164
342.8	3.15	.1575

System: cycloheptane + 1-decyl-1-methylpyrrolidinium bis(trifluoromethylsulfonyl)imide; phases: Liquid
Fixed: Pressure, kPa = 101
Fixed: Mole fraction of cycloheptane = 0
Property: Activity coefficient of cycloheptane (Liquid); method: Chromatography
Temperature, K	Activity coefficient of cycloheptane	uncertainty
322.6	7	.35
332.5	9.72	.486
342.8	13.35	.6675

System: benzene + 1-decyl-1-methylpyrrolidinium bis(trifluoromethylsulfonyl)imide; phases: Liquid
Fixed: Pressure, kPa = 101
Fixed: Mole fraction of benzene = 0
Property: Activity coefficient of benzene (Liquid); method: Chromatography
Temperature, K	Activity coefficient of benzene	uncertainty
322.6	.62	.031
332.5	.63	.0315
342.8	.64	.032

System: phenylmethane + 1-decyl-1-methylpyrrolidinium bis(trifluoromethylsulfonyl)imide; phases: Liquid
Fixed: Pressure, kPa = 101
Fixed: Mole fraction of phenylmethane = 0
Property: Activity coefficient of phenylmethane (Liquid); method: Chromatography
Temperature, K	Activity coefficient of phenylmethane	uncertainty
322.6	.77	.0385
332.5	.78	.039
342.8	.8	.04

System: ethylbenzene + 1-decyl-1-methylpyrrolidinium bis(trifluoromethylsulfonyl)imide; phases: Liquid
Fixed: Pressure, kPa = 101
Fixed: Mole fraction of ethylbenzene = 0
Property: Activity coefficient of ethylbenzene (Liquid); method: Chromatography
Temperature, K	Activity coefficient of ethylbenzene	uncertainty
322.6	1.01	.0505
332.5	1.04	.052
342.8	1.06	.053

System: 1,3-xylene + 1-decyl-1-methylpyrrolidinium bis(trifluoromethylsulfonyl)imide; phases: Liquid
Fixed: Pressure, kPa = 101
Fixed: Mole fraction of 1,3-xylene = 0
Property: Activity coefficient of 1,3-xylene (Liquid); method: Chromatography
Temperature, K	Activity coefficient of 1,3-xylene	uncertainty
322.6	.99	.0495
332.5	1	.05
342.8	1.03	.0515

System: 1,4-dimethylbenzene + 1-decyl-1-methylpyrrolidinium bis(trifluoromethylsulfonyl)imide; phases: Liquid
Fixed: Pressure, kPa = 101
Fixed: Mole fraction of 1,4-dimethylbenzene = 0
Property: Activity coefficient of 1,4-dimethylbenzene (Liquid); method: Chromatography
Temperature, K	Activity coefficient of 1,4-dimethylbenzene	uncertainty
322.6	1	.05
332.5	1.01	.0505
342.8	1.03	.0515

System: benzene, 1,2-dimethyl- + 1-decyl-1-methylpyrrolidinium bis(trifluoromethylsulfonyl)imide; phases: Liquid
Fixed: Pressure, kPa = 101
Fixed: Mole fraction of benzene, 1,2-dimethyl- = 0
Property: Activity coefficient of benzene, 1,2-dimethyl- (Liquid); method: Chromatography
Temperature, K	Activity coefficient of benzene, 1,2-dimethyl-	uncertainty
322.6	.92	.046
332.5	.94	.047
342.8	.96	.048

System: 1-hexene + 1-decyl-1-methylpyrrolidinium bis(trifluoromethylsulfonyl)imide; phases: Liquid
Fixed: Pressure, kPa = 101
Fixed: Mole fraction of 1-hexene = 0
Property: Activity coefficient of 1-hexene (Liquid); method: Chromatography
Temperature, K	Activity coefficient of 1-hexene	uncertainty
322.6	2.68	.134
332.5	2.62	.131
342.8	2.57	.1285

System: 1-hexyne + 1-decyl-1-methylpyrrolidinium bis(trifluoromethylsulfonyl)imide; phases: Liquid
Fixed: Pressure, kPa = 101
Fixed: Mole fraction of 1-hexyne = 0
Property: Activity coefficient of 1-hexyne (Liquid); method: Chromatography
Temperature, K	Activity coefficient of 1-hexyne	uncertainty
322.6	1.5	.075
332.5	1.48	.074
342.8	1.47	.0735

System: 1-heptyne + 1-decyl-1-methylpyrrolidinium bis(trifluoromethylsulfonyl)imide; phases: Liquid
Fixed: Pressure, kPa = 101
Fixed: Mole fraction of 1-heptyne = 0
Property: Activity coefficient of 1-heptyne (Liquid); method: Chromatography
Temperature, K	Activity coefficient of 1-heptyne	uncertainty
322.6	1.81	.0905
332.5	1.83	.0915
342.8	1.83	.0915

System: butanone + 1-decyl-1-methylpyrrolidinium bis(trifluoromethylsulfonyl)imide; phases: Liquid
Fixed: Pressure, kPa = 101
Fixed: Mole fraction of butanone = 0
Property: Activity coefficient of butanone (Liquid); method: Chromatography
Temperature, K	Activity coefficient of butanone	uncertainty
322.6	.39	.0195
332.5	.37	.0185
342.8	.34	.017

System: methyl n-propyl ketone + 1-decyl-1-methylpyrrolidinium bis(trifluoromethylsulfonyl)imide; phases: Liquid
Fixed: Pressure, kPa = 101
Fixed: Mole fraction of methyl n-propyl ketone = 0
Property: Activity coefficient of methyl n-propyl ketone (Liquid); method: Chromatography
Temperature, K	Activity coefficient of methyl n-propyl ketone	uncertainty
322.6	.52	.026
332.5	.53	.0265
342.8	.54	.027

System: diethyl ketone + 1-decyl-1-methylpyrrolidinium bis(trifluoromethylsulfonyl)imide; phases: Liquid
Fixed: Pressure, kPa = 101
Fixed: Mole fraction of diethyl ketone = 0
Property: Activity coefficient of diethyl ketone (Liquid); method: Chromatography
Temperature, K	Activity coefficient of diethyl ketone	uncertainty
322.6	.47	.0235
332.5	.48	.024
342.8	.5	.025

System: 1,4-dioxane + 1-decyl-1-methylpyrrolidinium bis(trifluoromethylsulfonyl)imide; phases: Liquid
Fixed: Pressure, kPa = 101
Fixed: Mole fraction of 1,4-dioxane = 0
Property: Activity coefficient of 1,4-dioxane (Liquid); method: Chromatography
Temperature, K	Activity coefficient of 1,4-dioxane	uncertainty
322.6	.38	.019
332.5	.35	.0175
342.8	.38	.019

System: methanol + 1-decyl-1-methylpyrrolidinium bis(trifluoromethylsulfonyl)imide; phases: Liquid
Fixed: Pressure, kPa = 101
Fixed: Mole fraction of methanol = 0
Property: Activity coefficient of methanol (Liquid); method: Chromatography
Temperature, K	Activity coefficient of methanol	uncertainty
322.6	1.61	.0805
332.5	1.32	.066
342.8	1.36	.068

System: ethyl alcohol + 1-decyl-1-methylpyrrolidinium bis(trifluoromethylsulfonyl)imide; phases: Liquid
Fixed: Pressure, kPa = 101
Fixed: Mole fraction of ethyl alcohol = 0
Property: Activity coefficient of ethyl alcohol (Liquid); method: Chromatography
Temperature, K	Activity coefficient of ethyl alcohol	uncertainty
322.6	1.46	.073
332.5	1.34	.067
342.8	1.22	.061

System: propan-1-ol + 1-decyl-1-methylpyrrolidinium bis(trifluoromethylsulfonyl)imide; phases: Liquid
Fixed: Pressure, kPa = 101
Fixed: Mole fraction of propan-1-ol = 0
Property: Activity coefficient of propan-1-ol (Liquid); method: Chromatography
Temperature, K	Activity coefficient of propan-1-ol	uncertainty
322.6	1.62	.081
332.5	1.47	.0735
342.8	1.32	.066

System: 2-propanol + 1-decyl-1-methylpyrrolidinium bis(trifluoromethylsulfonyl)imide; phases: Liquid
Fixed: Pressure, kPa = 101
Fixed: Mole fraction of 2-propanol = 0
Property: Activity coefficient of 2-propanol (Liquid); method: Chromatography
Temperature, K	Activity coefficient of 2-propanol	uncertainty
322.6	1.52	.076
332.5	1.38	.069
342.8	1.25	.0625

System: isobutyl alcohol + 1-decyl-1-methylpyrrolidinium bis(trifluoromethylsulfonyl)imide; phases: Liquid
Fixed: Pressure, kPa = 101
Fixed: Mole fraction of isobutyl alcohol = 0
Property: Activity coefficient of isobutyl alcohol (Liquid); method: Chromatography
Temperature, K	Activity coefficient of isobutyl alcohol	uncertainty
322.6	1.7	.085
332.5	1.53	.0765
342.8	1.39	.0695

System: 1-butanol + 1-decyl-1-methylpyrrolidinium bis(trifluoromethylsulfonyl)imide; phases: Liquid
Fixed: Pressure, kPa = 101
Fixed: Mole fraction of 1-butanol = 0
Property: Activity coefficient of 1-butanol (Liquid); method: Chromatography
Temperature, K	Activity coefficient of 1-butanol	uncertainty
322.6	2.2	.11
332.5	1.85	.0925
342.8	1.64	.082

System: diethyl ether + 1-decyl-1-methylpyrrolidinium bis(trifluoromethylsulfonyl)imide; phases: Liquid
Fixed: Pressure, kPa = 101
Fixed: Mole fraction of diethyl ether = 0
Property: Activity coefficient of diethyl ether (Liquid); method: Chromatography
Temperature, K	Activity coefficient of diethyl ether	uncertainty
322.6	1.27	.0635
332.5	1.25	.0625
342.8	1.25	.0625

System: isopropyl ether + 1-decyl-1-methylpyrrolidinium bis(trifluoromethylsulfonyl)imide; phases: Liquid
Fixed: Pressure, kPa = 101
Fixed: Mole fraction of isopropyl ether = 0
Property: Activity coefficient of isopropyl ether (Liquid); method: Chromatography
Temperature, K	Activity coefficient of isopropyl ether	uncertainty
322.6	2.29	.1145
332.5	2.28	.114
342.8	2.26	.113

System: methane, trichloro- + 1-decyl-1-methylpyrrolidinium bis(trifluoromethylsulfonyl)imide; phases: Liquid
Fixed: Pressure, kPa = 101
Fixed: Mole fraction of methane, trichloro- = 0
Property: Activity coefficient of methane, trichloro- (Liquid); method: Chromatography
Temperature, K	Activity coefficient of methane, trichloro-	uncertainty
322.6	.39	.0195
332.5	.39	.0195
342.8	.41	.0205

System: methane, dichloro- + 1-decyl-1-methylpyrrolidinium bis(trifluoromethylsulfonyl)imide; phases: Liquid
Fixed: Pressure, kPa = 101
Fixed: Mole fraction of methane, dichloro- = 0
Property: Activity coefficient of methane, dichloro- (Liquid); method: Chromatography
Temperature, K	Activity coefficient of methane, dichloro-	uncertainty
322.6	.27	.0135
332.5	.3	.015
342.8	.3	.015

System: carbon tetrachloride + 1-decyl-1-methylpyrrolidinium bis(trifluoromethylsulfonyl)imide; phases: Liquid
Fixed: Pressure, kPa = 101
Fixed: Mole fraction of carbon tetrachloride = 0
Property: Activity coefficient of carbon tetrachloride (Liquid); method: Chromatography
Temperature, K	Activity coefficient of carbon tetrachloride	uncertainty
322.6	1.32	.066
332.5	1.12	.056
342.8	1.31	.0655

System: cyanomethane + 1-decyl-1-methylpyrrolidinium bis(trifluoromethylsulfonyl)imide; phases: Liquid
Fixed: Pressure, kPa = 101
Fixed: Mole fraction of cyanomethane = 0
Property: Activity coefficient of cyanomethane (Liquid); method: Chromatography
Temperature, K	Activity coefficient of cyanomethane	uncertainty
322.6	.49	.0245
332.5	.5	.025
342.8	.49	.0245

System: NM(nitromethane) + 1-decyl-1-methylpyrrolidinium bis(trifluoromethylsulfonyl)imide; phases: Liquid
Fixed: Pressure, kPa = 101
Fixed: Mole fraction of NM(nitromethane) = 0
Property: Activity coefficient of NM(nitromethane) (Liquid); method: Chromatography
Temperature, K	Activity coefficient of NM(nitromethane)	uncertainty
322.6	.63	.0315
332.5	.62	.031
342.8	.6	.03

System: 1-nitropropane + 1-decyl-1-methylpyrrolidinium bis(trifluoromethylsulfonyl)imide; phases: Liquid
Fixed: Pressure, kPa = 101
Fixed: Mole fraction of 1-nitropropane = 0
Property: Activity coefficient of 1-nitropropane (Liquid); method: Chromatography
Temperature, K	Activity coefficient of 1-nitropropane	uncertainty
322.6	.62	.031
332.5	.61	.0305
342.8	.6	.03

System: pyridine + 1-decyl-1-methylpyrrolidinium bis(trifluoromethylsulfonyl)imide; phases: Liquid
Fixed: Pressure, kPa = 101
Fixed: Mole fraction of pyridine = 0
Property: Activity coefficient of pyridine (Liquid); method: Chromatography
Temperature, K	Activity coefficient of pyridine	uncertainty
322.6	.47	.0235
332.5	.47	.0235
342.8	.47	.0235

System: thiophene + 1-decyl-1-methylpyrrolidinium bis(trifluoromethylsulfonyl)imide; phases: Liquid
Fixed: Pressure, kPa = 101
Fixed: Mole fraction of thiophene = 0
Property: Activity coefficient of thiophene (Liquid); method: Chromatography
Temperature, K	Activity coefficient of thiophene	uncertainty
322.6	.6	.03
332.5	.6	.03
342.8	.61	.0305
