Measured thermophysical data. Thermophysical Properties of Five Acetate-Based Ionic Liquids
Source: J. Chem. Eng. Data, 2012, 10.1021/je300487n
Compound 1: 1-ethyl-3-methylimidazolium acetate, C8H14N2O2, purity 97%
Compound 2: 1-butyl-3-methylimidazolium acetate, C10H18N2O2, purity 99%
Compound 3: N,N-dimethylethanamine acetate, C6H15NO2, purity 99%
Compound 4: 1-butyl-1-methylpyrrolidinium acetate, C11H23NO2, purity 97%
Compound 5: 1-ethylimidazolium acetate, C7H12N2O2, purity 97%

System: 1-ethyl-3-methylimidazolium acetate; phases: Liquid
Fixed: Pressure, kPa = 101.325
Property: Refractive index (Na D-line) (Liquid); method: Standard Abbe refractometry
Temperature, K	Refractive index (Na D-line)	uncertainty
283.15	1.50402	.00002
288.15	1.50267	.00002
293.15	1.50129	.00002
298.15	1.49992	.00002
303.15	1.49854	.00002
308.15	1.49718	.00002
313.15	1.49581	.00002
318.15	1.49447	.00002
323.15	1.49307	.00002
328.15	1.49171	.00002
333.15	1.49035	.00002
338.15	1.48899	.00002
343.15	1.48756	.00002
348.15	1.48613	.00002
353.15	1.48476	.00002

System: 1-butyl-3-methylimidazolium acetate; phases: Liquid
Fixed: Pressure, kPa = 101.325
Property: Mass density, kg/m3 (Liquid); method: Vibrating tube method
Temperature, K	Mass density, kg/m3	uncertainty
283.15	1062.2	.0005
288.15	1058.9	.0005
293.15	1055.5	.0005
298.15	1052.3	.0005
303.15	1049.2	.0005
308.15	1046.1	.0005
313.15	1043	.0005
318.15	1040	.0005
323.15	1037	.0005
328.15	1034	.0005
333.15	1031	.0005
338.15	1028	.0005
343.15	1025	.0005
348.15	1022.1	.0005
353.15	1019.1	.0005
358.15	1016.2	.0005
363.15	1013.3	.0005

System: 1-butyl-3-methylimidazolium acetate; phases: Liquid
Fixed: Pressure, kPa = 101.325
Property: Viscosity, Pa*s (Liquid); method: Concentric cylinders viscometry
Temperature, K	Viscosity, Pa*s	uncertainty
283.15	1.0372	.0036302
288.15	.65884	.00230594
293.15	.42911	.001501885
298.15	.29739	.001040865
303.15	.20965	.000733775
308.15	.15207	.000532245
313.15	.11223	.000392805
318.15	.08607	.000301245
323.15	.066821	.0002338735
328.15	.052836	.000184926
333.15	.042668	.000149338
338.15	.034655	.0001212925
343.15	.028688	.000100408
348.15	.024044	.000084154
353.15	.020761	.0000726635
358.15	.017445	.0000610575
363.15	.015076	.000052766

System: 1-butyl-3-methylimidazolium acetate; phases: Liquid
Fixed: Pressure, kPa = 101.325
Property: Refractive index (Na D-line) (Liquid); method: Standard Abbe refractometry
Temperature, K	Refractive index (Na D-line)	uncertainty
283.15	1.49269	.00002
288.15	1.49158	.00002
293.15	1.49021	.00002
298.15	1.4889	.00002
303.15	1.48725	.00002
308.15	1.4858	.00002
313.15	1.48438	.00002
318.15	1.48297	.00002
323.15	1.4806	.00002
328.15	1.47915	.00002
333.15	1.4777	.00002
338.15	1.47624	.00002
343.15	1.47463	.00002
348.15	1.47318	.00002
353.15	1.4718	.00002

System: 1-butyl-3-methylimidazolium acetate; phases: Liquid, Gas
Property: Surface tension liquid-gas, N/m (Liquid); method: Drop volume
Temperature, K	Surface tension liquid-gas, N/m	uncertainty
298	.0364	
307.8	.0359	
318	.0355	
328.6	.0351	
339	.0347	

System: N,N-dimethylethanamine acetate; phases: Liquid
Fixed: Pressure, kPa = 101.325
Property: Mass density, kg/m3 (Liquid); method: Vibrating tube method
Temperature, K	Mass density, kg/m3	uncertainty
283.15	1028	.0005
288.15	1024	.0005
293.15	1020.1	.0005
298.15	1016.1	.0005
303.15	1012.2	.0005
308.15	1008.3	.0005
313.15	1004.4	.0005
318.15	1000.5	.0005
323.15	996.8	.0005
328.15	992.9	.0005
333.15	989	.0005
338.15	985	.0005
343.15	981.1	.0005
348.15	977.2	.0005
353.15	973.1	.0005
358.15	969.1	.0005
363.15	965.1	.0005

System: N,N-dimethylethanamine acetate; phases: Liquid
Fixed: Pressure, kPa = 101.325
Property: Viscosity, Pa*s (Liquid); method: Concentric cylinders viscometry
Temperature, K	Viscosity, Pa*s	uncertainty
283.15	.026223	.0000917805
288.15	.020895	.0000731325
293.15	.016361	.0000572635
298.15	.01397	.000048895
303.15	.011679	.0000408765
308.15	.0098875	.00003460625
313.15	.0082747	.00002896145
318.15	.0073164	.0000256074
323.15	.0063813	.00002233455
328.15	.005611	.0000196385
333.15	.004869	.0000170415
338.15	.004427	.0000154945
343.15	.0039699	.00001389465
348.15	.003578	.000012523
353.15	.0031323	.00001096305
358.15	.0029434	.0000103019
363.15	.002691	.0000094185

System: N,N-dimethylethanamine acetate; phases: Liquid
Fixed: Pressure, kPa = 101.325
Property: Refractive index (Na D-line) (Liquid); method: Standard Abbe refractometry
Temperature, K	Refractive index (Na D-line)	uncertainty
283.15	1.42303	.00002
288.15	1.42143	.00002
293.15	1.41983	.00002
298.15	1.41819	.00002
303.15	1.41655	.00002
308.15	1.41492	.00002
313.15	1.41328	.00002
318.15	1.41156	.00002
323.15	1.40991	.00002
328.15	1.4082	.00002
333.15	1.40649	.00002
338.15	1.40476	.00002
343.15	1.40312	.00002
348.15	1.40138	.00002
353.15	1.39963	.00002

System: N,N-dimethylethanamine acetate; phases: Liquid, Gas
Property: Surface tension liquid-gas, N/m (Liquid); method: Drop volume
Temperature, K	Surface tension liquid-gas, N/m	uncertainty
298.2	.0335	
308.1	.0327	
318	.0321	
328.4	.0313	
338.2	.0305	

System: 1-butyl-1-methylpyrrolidinium acetate; phases: Liquid
Fixed: Pressure, kPa = 101.325
Property: Mass density, kg/m3 (Liquid); method: Vibrating tube method
Temperature, K	Mass density, kg/m3	uncertainty
298.15	1021.2	.0005
303.15	1018.1	.0005
308.15	1015.1	.0005
313.15	1012.1	.0005
318.15	1009.2	.0005
323.15	1006.2	.0005
328.15	1003.3	.0005
333.15	1000.4	.0005
338.15	997.8	.0005
343.15	994.9	.0005
348.15	992	.0005
353.15	989.2	.0005
358.15	986.3	.0005
363.15	983.5	.0005

System: 1-butyl-1-methylpyrrolidinium acetate; phases: Liquid
Fixed: Pressure, kPa = 101.325
Property: Viscosity, Pa*s (Liquid); method: Concentric cylinders viscometry
Temperature, K	Viscosity, Pa*s	uncertainty
298.15	.10663	.000373205
303.15	.079923	.0002797305
308.15	.061343	.0002147005
313.15	.048445	.0001695575
318.15	.038338	.000134183
323.15	.031101	.0001088535
328.15	.025611	.0000896385
333.15	.021638	.000075733
338.15	.018052	.000063182
343.15	.015419	.0000539665
348.15	.013298	.000046543
353.15	.011845	.0000414575
358.15	.010161	.0000355635
363.15	.0089829	.00003144015

System: 1-butyl-1-methylpyrrolidinium acetate; phases: Liquid
Fixed: Pressure, kPa = 101.325
Property: Refractive index (Na D-line) (Liquid); method: Standard Abbe refractometry
Temperature, K	Refractive index (Na D-line)	uncertainty
283.15	1.47263	.00002
288.15	1.47144	.00002
293.15	1.47075	.00002
298.15	1.46998	.00002
303.15	1.46868	.00002
308.15	1.46736	.00002
313.15	1.46603	.00002
318.15	1.46461	.00002
323.15	1.4632	.00002
328.15	1.46178	.00002
333.15	1.46042	.00002
338.15	1.459	.00002
343.15	1.45755	.00002
348.15	1.45619	.00002
353.15	1.45479	.00002

System: 1-butyl-1-methylpyrrolidinium acetate; phases: Liquid, Gas
Property: Surface tension liquid-gas, N/m (Liquid); method: Drop volume
Temperature, K	Surface tension liquid-gas, N/m	uncertainty
298.3	.0374	
307.9	.0368	
318	.0364	
328.4	.0361	
338.5	.0356	
343.6	.0344	

System: 1-ethylimidazolium acetate; phases: Liquid
Fixed: Pressure, kPa = 101.325
Property: Mass density, kg/m3 (Liquid); method: Vibrating tube method
Temperature, K	Mass density, kg/m3	uncertainty
283.15	1047.2	.0005
288.15	1042.9	.0005
293.15	1038.5	.0005
298.15	1034.2	.0005
303.15	1029.9	.0005
308.15	1025.6	.0005
313.15	1021.3	.0005
318.15	1017	.0005
323.15	1012.7	.0005
328.15	1008.4	.0005
333.15	1004.1	.0005
338.15	999.8	.0005
343.15	995.8	.0005
348.15	991.5	.0005
353.15	987.2	.0005
358.15	982.8	.0005
363.15	978.5	.0005

System: 1-ethylimidazolium acetate; phases: Liquid
Fixed: Pressure, kPa = 101.325
Property: Viscosity, Pa*s (Liquid); method: Concentric cylinders viscometry
Temperature, K	Viscosity, Pa*s	uncertainty
283.15	.0078801	.00002758035
288.15	.0066691	.00002334185
293.15	.0052907	.00001851745
298.15	.0049548	.0000173418
303.15	.0043365	.00001517775
308.15	.0038282	.0000133987
313.15	.0032247	.00001128645
318.15	.0030506	.0000106771
323.15	.0027495	.00000962325
328.15	.0024917	.00000872095
333.15	.0021713	.00000759955
338.15	.0020776	.0000072716
343.15	.0019099	.00000668465
348.15	.0017616	.0000061656
353.15	.001547	.0000054145
358.15	.0015154	.0000053039
363.15	.0014121	.00000494235

System: 1-ethylimidazolium acetate; phases: Liquid
Fixed: Pressure, kPa = 101.325
Property: Refractive index (Na D-line) (Liquid); method: Standard Abbe refractometry
Temperature, K	Refractive index (Na D-line)	uncertainty
283.15	1.46347	.00002
288.15	1.4616	.00002
293.15	1.45966	.00002
298.15	1.45769	.00002
303.15	1.45576	.00002
308.15	1.45379	.00002
313.15	1.45185	.00002
318.15	1.44985	.00002
323.15	1.44791	.00002
328.15	1.44593	.00002
333.15	1.44395	.00002
338.15	1.44197	.00002
343.15	1.44	.00002
348.15	1.438	.00002
353.15	1.43607	.00002

System: 1-ethylimidazolium acetate; phases: Liquid, Gas
Property: Surface tension liquid-gas, N/m (Liquid); method: Drop volume
Temperature, K	Surface tension liquid-gas, N/m	uncertainty
298.1	.0378	
307.8	.0367	
318.5	.0361	
328.3	.035	
339.9	.0337	
344.2	.0333	
