Measured thermophysical data. Solubilities of Adipic Acid in Acetic Acid + Water Mixtures and Acetic Acid + Cyclohexane Mixtures
Source: J. Chem. Eng. Data, 2013, 10.1021/je301202v
Compound 1: asapic, C6H10O4, purity 99%
Compound 2: ethanoic acid, C2H4O2, purity 99%
Compound 3: cyclohexane, C6H12, purity 99%
Compound 4: water, H2O, purity 99.9%

System: ethanoic acid + asapic + water; phases: Liquid, Crystal
Fixed: Pressure, kPa = 101
Property: Mass fraction of asapic (Liquid); method: Chromatography
Solvent: Mass fraction of ethanoic acid	Temperature, K	Mass fraction of asapic	uncertainty
1	303.2	.058	.00232
1	313.2	.0841	.003364
1	323.2	.1189	.004756
1	333.2	.171	.00684
.9	303.2	.0658	.002632
.9	313.2	.0948	.003792
.9	323.2	.1329	.005316
.9	333.2	.1948	.007792
.8	303.2	.0706	.002824
.8	313.2	.1064	.004256
.8	323.2	.1509	.006036
.8	333.2	.2128	.008512
.7	303.2	.0795	.00318
.7	313.2	.1176	.004704
.7	323.2	.1671	.006684
.7	333.2	.2311	.009244
.6	303.2	.0819	.003276
.6	313.2	.121	.00484
.6	323.2	.1746	.006984
.6	333.2	.24	.0096
.5	303.2	.0862	.003448
.5	313.2	.1249	.004996
.5	323.2	.187	.00748
.5	333.2	.2486	.009944
.4	303.2	.081	.00324
.4	313.2	.1172	.004688
.4	323.2	.1755	.00702
.4	333.2	.2443	.009772
.3	303.2	.0699	.002796
.3	313.2	.1058	.004232
.3	323.2	.165	.0066
.3	333.2	.2358	.009432
.2	303.2	.0578	.002312
.2	313.2	.0873	.003492
.2	323.2	.1405	.00562
.2	333.2	.2121	.008484
.1	303.2	.0439	.001756
.1	313.2	.0709	.002836
.1	323.2	.1199	.004796
.1	333.2	.1864	.007456
0	303.2	.0325	.0013
0	313.2	.0533	.002132
0	323.2	.0798	.003192
0	333.2	.138	.00552

System: ethanoic acid + cyclohexane + asapic; phases: Liquid, Crystal
Fixed: Pressure, kPa = 101
Property: Mass fraction of asapic (Liquid); method: Chromatography
Solvent: Mass fraction of ethanoic acid	Temperature, K	Mass fraction of asapic	uncertainty
1	303.2	.058	.00232
1	313.2	.0841	.003364
1	323.2	.1189	.004756
1	333.2	.171	.00684
1	343.2	.2301	.009204
.9	303.2	.0538	.002152
.9	313.2	.074	.00296
.9	323.2	.1096	.004384
.9	333.2	.1492	.005968
.9	343.2	.2011	.008044
.8	303.2	.0486	.001944
.8	313.2	.0698	.002792
.8	323.2	.098	.00392
.8	333.2	.1329	.005316
.8	343.2	.1809	.007236
.7	303.2	.0403	.001612
.7	313.2	.056	.00224
.7	323.2	.0828	.003312
.7	333.2	.1149	.004596
.7	343.2	.1536	.006144
.6	303.2	.0323	.001292
.6	313.2	.0483	.001932
.6	323.2	.0661	.002644
.6	333.2	.0945	.00378
.6	343.2	.1291	.005164
.5	303.2	.0236	.000944
.5	313.2	.0364	.001456
.5	323.2	.0514	.002056
.5	333.2	.0726	.002904
.5	343.2	.0996	.003984
.4	303.2	.0184	.000736
.4	313.2	.0262	.001048
.4	323.2	.0379	.001516
.4	333.2	.0525	.0021
.4	343.2	.0727	.002908
.3	303.2	.0105	.00042
.3	313.2	.0181	.000724
.3	323.2	.0234	.000936
.3	333.2	.0336	.001344
.3	343.2	.0474	.001896
.2	303.2	.0057	.000228
.2	313.2	.0095	.00038
.2	323.2	.0118	.000472
.2	333.2	.0186	.000744
.2	343.2	.026	.00104
.1	303.2	.0023	.000092
.1	313.2	.0041	.000164
.1	323.2	.0053	.000212
.1	333.2	.0075	.0003
.1	343.2	.0095	.00038

System: ethanoic acid + asapic; phases: Liquid, Crystal
Property: Mass fraction of asapic (Liquid); method: Chromatography
Temperature, K	Pressure, kPa	Mass fraction of asapic	uncertainty
303.2	101	.058	.00232
313.2	101	.0841	.003364
323.2	101	.1189	.004756
333.2	101	.171	.00684
343.2	101	.2301	.009204

System: asapic + water; phases: Liquid, Crystal
Property: Mass fraction of asapic (Liquid); method: Chromatography
Temperature, K	Pressure, kPa	Mass fraction of asapic	uncertainty
303.2	101	.0325	.0013
313.2	101	.0533	.002132
323.2	101	.0798	.003192
333.2	101	.138	.00552
