Measured thermophysical data. Surface Activity and Micellization Parameters of Quaternary Ammonium Surfactants Containing a Hydroxyethyl Group
Source: J. Chem. Eng. Data, 2013, 10.1021/je300873x
Compound 1: N-dodecyl-hydroxyethyl-dimethyl ammonium bromide, C16H36BrNO, purity 99%
Compound 2: N-tetradecyl-hydroxyethyl-dimethyl ammonium bromide, C18H40BrNO, purity 99%
Compound 3: N-cetyl-hydroxyethyl-dimethyl ammonium bromide, C20H44BrNO, purity 99%
Compound 4: dodecyl-di(2-hydroxyethyl)-methylazanium bromide, C17H38BrNO2, purity 99%
Compound 5: tetradecyl- di(2-hydroxyethyl)-methylazanium bromide, C19H42BrNO2, purity 99%
Compound 6: hexadecyl- di(2-hydroxyethyl)-methylazanium bromide, C21H46BrNO2, purity 99%
Compound 7: dodecyl bromide, C12H25Br, purity 98.5%
Compound 8: 1-tetradecyl bromide, C14H29Br, purity 98.5%
Compound 9: n-hexadecyl bromide, C16H33Br, purity 99%
Compound 10: potassium chloride, ClK, purity 99%
Compound 11: 2-dimethylaminoethanol, C4H11NO, purity 99%
Compound 12: N-methyldiethanolamine, C5H13NO2, purity 99%
Compound 13: water, H2O, purity 99.9%

System: N-dodecyl-hydroxyethyl-dimethyl ammonium bromide + water; phases: Liquid, Air at 1 atmosphere
Fixed: Temperature, K = 298.15
Property: Surface tension liquid-gas, N/m (Liquid); method: Pendant drop shape
Molality, mol/kg of N-dodecyl-hydroxyethyl-dimethyl ammonium bromide	Surface tension liquid-gas, N/m	uncertainty
0	.07217	.00001
.001	.06812	.00001
.00201	.06305	.00001
.00402	.05451	.00001
.00602	.04915	.00001
.00803	.04574	.00001
.01004	.04261	.00001
.01205	.03974	.00001
.01305	.03884	.00001
.01506	.03878	.00001
.01707	.0387	.00001
.02009	.03851	.00001
.03014	.0384	.00001
.05027	.03838	.00001

System: N-dodecyl-hydroxyethyl-dimethyl ammonium bromide + water; phases: Liquid, Air at 1 atmosphere
Property: Electrical conductivity, S/m (Liquid); method: Digital conductivity meter
Temperature, K	Molality, mol/kg of N-dodecyl-hydroxyethyl-dimethyl ammonium bromide	Electrical conductivity, S/m	uncertainty
298.15	.00949	.0809	.00005
298.15	.00996	.0847	.00005
298.15	.01049	.0889	.00005
298.15	.01107	.0935	.00005
298.15	.01172	.0987	.00005
298.15	.01246	.1047	.00005
298.15	.01286	.1079	.00005
298.15	.01329	.111	.00005
298.15	.01375	.1138	.00005
298.15	.01424	.116	.00005
298.15	.01476	.1177	.00005
298.15	.01533	.1196	.00005
298.15	.01595	.121	.00005
298.15	.01661	.1226	.00005
298.15	.01733	.1248	.00005
298.15	.01812	.1264	.00005
298.15	.01899	.1281	.00005
298.15	.01994	.1302	.00005
303.15	.00945	.0886	.00005
303.15	.00992	.093	.00005
303.15	.01045	.0974	.00005
303.15	.01103	.1025	.00005
303.15	.01168	.1068	.00005
303.15	.01241	.1148	.00005
303.15	.01281	.1182	.00005
303.15	.01324	.1212	.00005
303.15	.01369	.1246	.00005
303.15	.01418	.128	.00005
303.15	.01471	.1306	.00005
303.15	.01527	.1326	.00005
303.15	.01589	.1346	.00005
303.15	.01655	.1364	.00005
303.15	.01727	.1386	.00005
303.15	.01805	.1407	.00005
303.15	.01892	.1431	.00005
303.15	.01986	.1451	.00005
308.15	.00993	.1022	.00005
308.15	.01046	.1072	.00005
308.15	.01104	.112	.00005
308.15	.01169	.1179	.00005
308.15	.01242	.1251	.00005
308.15	.01282	.1293	.00005
308.15	.01325	.1334	.00005
308.15	.0137	.1371	.00005
308.15	.01419	.1408	.00005
308.15	.01472	.1443	.00005
308.15	.01529	.1472	.00005
308.15	.0159	.1496	.00005
308.15	.01656	.152	.00005
308.15	.01728	.1541	.00005
308.15	.01807	.1567	.00005
308.15	.01893	.1595	.00005
308.15	.01987	.1621	.00005
313.15	.01044	.1171	.00005
313.15	.01102	.1229	.00005
313.15	.01167	.1298	.00005
313.15	.0124	.1376	.00005
313.15	.0128	.1416	.00005
313.15	.01322	.1461	.00005
313.15	.01368	.1507	.00005
313.15	.01417	.1556	.00005
313.15	.01469	.1595	.00005
313.15	.01526	.1638	.00005
313.15	.01587	.1664	.00005
313.15	.01653	.1694	.00005
313.15	.01725	.1723	.00005
313.15	.01803	.1749	.00005
313.15	.01889	.1783	.00005
313.15	.01984	.1813	.00005
318.15	.01042	.127	.00005
318.15	.01099	.134	.00005
318.15	.01164	.1411	.00005
318.15	.01237	.1496	.00005
318.15	.01277	.1543	.00005
318.15	.01319	.1592	.00005
318.15	.01365	.1643	.00005
318.15	.01414	.1694	.00005
318.15	.01466	.174	.00005
318.15	.01523	.1791	.00005
318.15	.01583	.1838	.00005
318.15	.01649	.1877	.00005
318.15	.01721	.1908	.00005
318.15	.018	.1933	.00005
318.15	.01885	.1973	.00005
318.15	.0198	.2012	.00005
323.15	.01039	.1354	.00005
323.15	.01097	.1447	.00005
323.15	.01162	.1524	.00005
323.15	.01234	.1613	.00005
323.15	.01274	.1661	.00005
323.15	.01317	.1716	.00005
323.15	.01362	.1773	.00005
323.15	.01411	.1832	.00005
323.15	.01463	.1896	.00005
323.15	.01519	.1954	.00005
323.15	.0158	.2012	.00005
323.15	.01646	.2061	.00005
323.15	.01717	.21	.00005
323.15	.01795	.2148	.00005
323.15	.01881	.2187	.00005
323.15	.01975	.2216	.00005

System: water + dodecyl-di(2-hydroxyethyl)-methylazanium bromide; phases: Liquid, Air at 1 atmosphere
Fixed: Temperature, K = 298.15
Property: Surface tension liquid-gas, N/m (Liquid); method: Pendant drop shape
Molality, mol/kg of dodecyl-di(2-hydroxyethyl)-methylazanium bromide	Surface tension liquid-gas, N/m	uncertainty
0	.07217	.00001
.00097	.0688	.00001
.00193	.06275	.00001
.00387	.05486	.00001
.0058	.0487	.00001
.00773	.04546	.00001
.00967	.04158	.00001
.0116	.03954	.00001
.01257	.0389	.00001
.0145	.03874	.00001
.01644	.03853	.00001
.01956	.03853	.00001
.0291	.03845	.00001
.04849	.03836	.00001

System: water + dodecyl-di(2-hydroxyethyl)-methylazanium bromide; phases: Liquid, Air at 1 atmosphere
Property: Electrical conductivity, S/m (Liquid); method: Digital conductivity meter
Temperature, K	Molality, mol/kg of dodecyl-di(2-hydroxyethyl)-methylazanium bromide	Electrical conductivity, S/m	uncertainty
298.15	.0095	.0822	.00005
298.15	.00997	.0859	.00005
298.15	.0105	.0903	.00005
298.15	.01108	.0948	.00005
298.15	.01174	.0998	.00005
298.15	.01247	.1051	.00005
298.15	.01287	.1075	.00005
298.15	.0133	.1097	.00005
298.15	.01376	.1114	.00005
298.15	.01425	.1126	.00005
298.15	.01478	.1144	.00005
298.15	.01535	.1155	.00005
298.15	.01596	.1171	.00005
298.15	.01663	.119	.00005
298.15	.01735	.1209	.00005
298.15	.01814	.1227	.00005
298.15	.01901	.1245	.00005
298.15	.01996	.1268	.00005
303.15	.00949	.091	.00005
303.15	.00996	.0952	.00005
303.15	.01049	.0996	.00005
303.15	.01107	.1049	.00005
303.15	.01172	.1117	.00005
303.15	.01245	.1161	.00005
303.15	.01285	.1192	.00005
303.15	.01328	.1216	.00005
303.15	.01374	.1236	.00005
303.15	.01423	.1258	.00005
303.15	.01476	.127	.00005
303.15	.01533	.1296	.00005
303.15	.01594	.1313	.00005
303.15	.01661	.1328	.00005
303.15	.01733	.1347	.00005
303.15	.01812	.1365	.00005
303.15	.01898	.1386	.00005
303.15	.01993	.141	.00005
308.15	.00994	.1048	.00005
308.15	.01047	.1099	.00005
308.15	.01105	.1157	.00005
308.15	.0117	.1216	.00005
308.15	.01243	.1282	.00005
308.15	.01283	.1315	.00005
308.15	.01326	.1349	.00005
308.15	.01372	.1375	.00005
308.15	.01421	.1402	.00005
308.15	.01473	.1421	.00005
308.15	.0153	.1447	.00005
308.15	.01591	.1463	.00005
308.15	.01658	.1485	.00005
308.15	.0173	.151	.00005
308.15	.01809	.153	.00005
308.15	.01895	.1563	.00005
308.15	.0199	.1591	.00005
313.15	.01045	.1198	.00005
313.15	.01103	.1258	.00005
313.15	.01168	.1323	.00005
313.15	.01241	.14	.00005
313.15	.01281	.1439	.00005
313.15	.01324	.1478	.00005
313.15	.01369	.1515	.00005
313.15	.01418	.155	.00005
313.15	.01471	.1577	.00005
313.15	.01527	.1602	.00005
313.15	.01589	.1631	.00005
313.15	.01655	.1654	.00005
313.15	.01727	.168	.00005
313.15	.01805	.1707	.00005
313.15	.01891	.1726	.00005
318.15	.01043	.1298	.00005
318.15	.01101	.1366	.00005
318.15	.01165	.1438	.00005
318.15	.01238	.1522	.00005
318.15	.01278	.1567	.00005
318.15	.01321	.1612	.00005
318.15	.01367	.166	.00005
318.15	.01415	.1704	.00005
318.15	.01468	.1739	.00005
318.15	.01524	.177	.00005
318.15	.01585	.1806	.00005
318.15	.01651	.1838	.00005
318.15	.01723	.1864	.00005
318.15	.01802	.1895	.00005
318.15	.01887	.1932	.00005
318.15	.01983	.1976	.00005
323.15	.0104	.1411	.00005
323.15	.01098	.1472	.00005
323.15	.01163	.1554	.00005
323.15	.01236	.1644	.00005
323.15	.01275	.169	.00005
323.15	.01318	.1743	.00005
323.15	.01363	.1794	.00005
323.15	.01412	.1851	.00005
323.15	.01465	.1902	.00005
323.15	.01521	.1949	.00005
323.15	.01582	.1998	.00005
323.15	.01648	.2018	.00005
323.15	.01719	.2068	.00005
323.15	.01798	.2118	.00005
323.15	.01883	.2128	.00005
323.15	.01977	.2199	.00005

System: water + N-tetradecyl-hydroxyethyl-dimethyl ammonium bromide; phases: Liquid, Air at 1 atmosphere
Fixed: Temperature, K = 298.15
Property: Surface tension liquid-gas, N/m (Liquid); method: Pendant drop shape
Molality, mol/kg of N-tetradecyl-hydroxyethyl-dimethyl ammonium bromide	Surface tension liquid-gas, N/m	uncertainty
0	.07217	.00001
.0003	.06602	.00001
.0006	.06097	.00001
.00081	.05835	.00001
.00101	.05552	.00001
.00151	.04952	.00001
.00201	.04503	.00001
.00252	.04115	.00001
.00302	.03835	.00001
.00403	.03757	.00001
.00503	.03762	.00001
.00604	.03761	.00001
.00806	.03761	.00001

System: water + N-tetradecyl-hydroxyethyl-dimethyl ammonium bromide; phases: Liquid, Air at 1 atmosphere
Property: Electrical conductivity, S/m (Liquid); method: Digital conductivity meter
Temperature, K	Molality, mol/kg of N-tetradecyl-hydroxyethyl-dimethyl ammonium bromide	Electrical conductivity, S/m	uncertainty
298.15	.00258	.0207	.00005
298.15	.00268	.0215	.00005
298.15	.00279	.0223	.00005
298.15	.00291	.0232	.00005
298.15	.00303	.0241	.00005
298.15	.00317	.0251	.00005
298.15	.00332	.0261	.00005
298.15	.00349	.027	.00005
298.15	.00367	.0275	.00005
298.15	.00388	.028	.00005
298.15	.00411	.0285	.00005
298.15	.00436	.029	.00005
298.15	.00465	.0296	.00005
298.15	.00499	.0302	.00005
298.15	.00537	.0309	.00005
298.15	.00582	.0318	.00005
298.15	.00635	.0328	.00005
298.15	.00698	.034	.00005
303.15	.00258	.0231	.00005
303.15	.00268	.024	.00005
303.15	.00279	.0249	.00005
303.15	.0029	.026	.00005
303.15	.00303	.0269	.00005
303.15	.00317	.028	.00005
303.15	.00332	.0292	.00005
303.15	.00348	.0303	.00005
303.15	.00367	.031	.00005
303.15	.00387	.0316	.00005
303.15	.0041	.0322	.00005
303.15	.00436	.0328	.00005
303.15	.00465	.0335	.00005
303.15	.00498	.0342	.00005
303.15	.00536	.035	.00005
303.15	.00581	.036	.00005
303.15	.00634	.0372	.00005
303.15	.00697	.0385	.00005
308.15	.00258	.0254	.00005
308.15	.00268	.0263	.00005
308.15	.00278	.0274	.00005
308.15	.0029	.0283	.00005
308.15	.00303	.0295	.00005
308.15	.00316	.0308	.00005
308.15	.00331	.0321	.00005
308.15	.00348	.0334	.00005
308.15	.00366	.0346	.00005
308.15	.00387	.0352	.00005
308.15	.00409	.0359	.00005
308.15	.00435	.0366	.00005
308.15	.00464	.0374	.00005
308.15	.00497	.0383	.00005
308.15	.00535	.0393	.00005
308.15	.0058	.0404	.00005
308.15	.00633	.0418	.00005
308.15	.00696	.0435	.00005
313.15	.00257	.0278	.00005
313.15	.00267	.0287	.00005
313.15	.00278	.0298	.00005
313.15	.00289	.0311	.00005
313.15	.00302	.0325	.00005
313.15	.00316	.0339	.00005
313.15	.00331	.0354	.00005
313.15	.00347	.037	.00005
313.15	.00366	.0385	.00005
313.15	.00386	.0395	.00005
313.15	.00409	.0405	.00005
313.15	.00434	.0414	.00005
313.15	.00463	.0421	.00005
313.15	.00496	.0431	.00005
318.15	.00257	.0307	.00005
318.15	.00267	.0317	.00005
318.15	.00277	.0329	.00005
318.15	.00289	.0343	.00005
318.15	.00301	.0356	.00005
318.15	.00315	.037	.00005
318.15	.0033	.0385	.00005
318.15	.00347	.0407	.00005
318.15	.00365	.0426	.00005
318.15	.00385	.044	.00005
318.15	.00408	.0454	.00005
318.15	.00433	.0465	.00005
318.15	.00462	.0475	.00005
318.15	.00495	.0488	.00005
323.15	.00256	.0332	.00005
323.15	.00266	.0345	.00005
323.15	.00277	.0357	.00005
323.15	.00288	.0372	.00005
323.15	.00301	.0389	.00005
323.15	.00314	.0404	.00005
323.15	.00329	.0423	.00005
323.15	.00346	.0442	.00005
323.15	.00364	.0465	.00005
323.15	.00384	.0487	.00005
323.15	.00407	.0506	.00005
323.15	.00432	.0522	.00005
323.15	.00461	.0535	.00005
323.15	.00494	.0547	.00005
313.15	.00534	.0441	.00005
313.15	.00579	.0455	.00005
313.15	.00631	.0472	.00005
313.15	.00695	.0491	.00005
318.15	.00533	.0499	.00005
318.15	.00578	.0514	.00005
318.15	.0063	.0531	.00005
318.15	.00693	.0552	.00005
323.15	.00532	.0563	.00005
323.15	.00576	.0581	.00005
323.15	.00629	.0598	.00005
323.15	.00692	.062	.00005

System: water + tetradecyl- di(2-hydroxyethyl)-methylazanium bromide; phases: Liquid, Air at 1 atmosphere
Fixed: Temperature, K = 298.15
Property: Surface tension liquid-gas, N/m (Liquid); method: Pendant drop shape
Molality, mol/kg of tetradecyl- di(2-hydroxyethyl)-methylazanium bromide	Surface tension liquid-gas, N/m	uncertainty
0	.07217	.00001
.0003	.06443	.00001
.00061	.05909	.00001
.00081	.05614	.00001
.00102	.05431	.00001
.00152	.04851	.00001
.00203	.04469	.00001
.00254	.0404	.00001
.00305	.0383	.00001
.00467	.03831	.00001
.00508	.03846	.00001
.00609	.03823	.00001
.00812	.03823	.00001

System: water + tetradecyl- di(2-hydroxyethyl)-methylazanium bromide; phases: Liquid, Air at 1 atmosphere
Property: Electrical conductivity, S/m (Liquid); method: Digital conductivity meter
Temperature, K	Molality, mol/kg of tetradecyl- di(2-hydroxyethyl)-methylazanium bromide	Electrical conductivity, S/m	uncertainty
298.15	.0026	.021	.00005
298.15	.0027	.0218	.00005
298.15	.0028	.0226	.00005
298.15	.00292	.0235	.00005
298.15	.00305	.0242	.00005
298.15	.00319	.025	.00005
298.15	.00334	.0255	.00005
298.15	.00351	.0259	.00005
298.15	.00369	.0262	.00005
298.15	.0039	.0267	.00005
298.15	.00412	.0272	.00005
298.15	.00438	.0277	.00005
298.15	.00467	.0283	.00005
298.15	.00501	.0289	.00005
298.15	.00539	.0298	.00005
298.15	.00584	.0306	.00005
298.15	.00637	.0317	.00005
303.15	.00259	.0232	.00005
303.15	.00269	.024	.00005
303.15	.0028	.025	.00005
303.15	.00292	.0257	.00005
303.15	.00304	.0268	.00005
303.15	.00318	.0278	.00005
303.15	.00333	.0282	.00005
303.15	.0035	.029	.00005
303.15	.00369	.0295	.00005
303.15	.00389	.03	.00005
303.15	.00412	.0305	.00005
303.15	.00438	.0311	.00005
303.15	.00467	.0318	.00005
303.15	.005	.0325	.00005
303.15	.00539	.0334	.00005
303.15	.00584	.0343	.00005
303.15	.00637	.0356	.00005
308.15	.00259	.0256	.00005
308.15	.00269	.0264	.00005
308.15	.0028	.0274	.00005
308.15	.00291	.0285	.00005
308.15	.00304	.0297	.00005
308.15	.00318	.0309	.00005
308.15	.00333	.0318	.00005
308.15	.0035	.0325	.00005
308.15	.00368	.0331	.00005
308.15	.00388	.0336	.00005
308.15	.00411	.0342	.00005
308.15	.00437	.0349	.00005
308.15	.00466	.0357	.00005
308.15	.00499	.0367	.00005
308.15	.00538	.0376	.00005
308.15	.00583	.0387	.00005
308.15	.00636	.0401	.00005
313.15	.00258	.028	.00005
313.15	.00268	.0291	.00005
313.15	.00279	.0303	.00005
313.15	.00291	.0314	.00005
313.15	.00303	.0327	.00005
313.15	.00317	.0341	.00005
313.15	.00332	.0353	.00005
313.15	.00349	.0364	.00005
313.15	.00367	.0373	.00005
313.15	.00388	.038	.00005
313.15	.0041	.0386	.00005
313.15	.00436	.0396	.00005
313.15	.00465	.0403	.00005
313.15	.00498	.0411	.00005
313.15	.00537	.0424	.00005
318.15	.00258	.0307	.00005
318.15	.00268	.0318	.00005
318.15	.00279	.033	.00005
318.15	.0029	.0344	.00005
318.15	.00303	.0355	.00005
318.15	.00317	.0372	.00005
318.15	.00332	.0389	.00005
318.15	.00348	.0407	.00005
318.15	.00367	.0413	.00005
318.15	.00387	.0425	.00005
318.15	.0041	.0436	.00005
318.15	.00435	.0446	.00005
318.15	.00464	.0455	.00005
318.15	.00497	.0467	.00005
318.15	.00536	.0478	.00005
323.15	.00257	.0334	.00005
323.15	.00267	.0347	.00005
323.15	.00278	.0359	.00005
323.15	.0029	.0374	.00005
323.15	.00302	.0388	.00005
323.15	.00316	.0406	.00005
323.15	.00331	.0424	.00005
323.15	.00347	.0444	.00005
323.15	.00366	.0464	.00005
323.15	.00386	.0477	.00005
323.15	.00409	.049	.00005
323.15	.00434	.0502	.00005
323.15	.00463	.0514	.00005
323.15	.00496	.0526	.00005
323.15	.00535	.054	.00005
313.15	.00582	.0437	.00005
313.15	.00634	.0453	.00005
318.15	.0058	.0494	.00005
318.15	.00633	.0511	.00005
323.15	.00579	.0559	.00005
323.15	.00632	.0577	.00005

System: water + N-cetyl-hydroxyethyl-dimethyl ammonium bromide; phases: Liquid, Air at 1 atmosphere
Fixed: Temperature, K = 298.15
Property: Surface tension liquid-gas, N/m (Liquid); method: Pendant drop shape
Molality, mol/kg of N-cetyl-hydroxyethyl-dimethyl ammonium bromide	Surface tension liquid-gas, N/m	uncertainty
0	.07217	.00001
.00016	.06183	.00001
.00033	.05361	.00001
.00049	.04549	.00001
.00059	.04163	.00001
.00069	.03931	.00001
.00074	.03839	.00001
.00078	.03761	.00001
.00083	.03758	.00001
.00088	.0373	.00001
.00098	.03724	.00001
.00108	.03715	.00001
.00118	.03712	.00001

System: water + N-cetyl-hydroxyethyl-dimethyl ammonium bromide; phases: Liquid, Air at 1 atmosphere
Property: Electrical conductivity, S/m (Liquid); method: Digital conductivity meter
Temperature, K	Molality, mol/kg of N-cetyl-hydroxyethyl-dimethyl ammonium bromide	Electrical conductivity, S/m	uncertainty
298.15	.00075	.0068	.00005
298.15	.00078	.007	.00005
298.15	.00081	.0072	.00005
298.15	.00084	.0074	.00005
298.15	.00088	.0076	.00005
298.15	.00092	.0078	.00005
298.15	.00096	.0079	.00005
298.15	.00101	.008	.00005
298.15	.00106	.0082	.00005
298.15	.00112	.0084	.00005
298.15	.00119	.0085	.00005
298.15	.00126	.0087	.00005
298.15	.00135	.0089	.00005
298.15	.00144	.0091	.00005
298.15	.00156	.0094	.00005
298.15	.00169	.0097	.00005
298.15	.00184	.0101	.00005
298.15	.00202	.0105	.00005
303.15	.00075	.0076	.00005
303.15	.00078	.0078	.00005
303.15	.00081	.0081	.00005
303.15	.00084	.0083	.00005
303.15	.00088	.0085	.00005
303.15	.00092	.0088	.00005
303.15	.00096	.009	.00005
303.15	.00101	.0091	.00005
303.15	.00106	.0093	.00005
303.15	.00112	.0095	.00005
303.15	.00119	.0097	.00005
303.15	.00126	.0099	.00005
303.15	.00135	.0101	.00005
303.15	.00144	.0104	.00005
303.15	.00155	.0107	.00005
303.15	.00168	.0111	.00005
303.15	.00184	.0114	.00005
303.15	.00202	.0119	.00005
308.15	.00075	.0083	.00005
308.15	.00078	.0086	.00005
308.15	.00081	.0089	.00005
308.15	.00084	.0092	.00005
308.15	.00088	.0095	.00005
308.15	.00092	.0097	.00005
308.15	.00096	.01	.00005
308.15	.00101	.0102	.00005
308.15	.00106	.0105	.00005
308.15	.00112	.0107	.00005
308.15	.00119	.0108	.00005
308.15	.00126	.0111	.00005
308.15	.00134	.0113	.00005
308.15	.00144	.0117	.00005
308.15	.00155	.012	.00005
308.15	.00168	.0125	.00005
308.15	.00183	.0129	.00005
308.15	.00202	.0134	.00005
313.15	.00077	.0094	.00005
313.15	.0008	.0098	.00005
313.15	.00084	.0101	.00005
313.15	.00087	.0105	.00005
313.15	.00091	.0108	.00005
313.15	.00096	.0111	.00005
313.15	.00101	.0114	.00005
313.15	.00106	.0118	.00005
313.15	.00112	.012	.00005
313.15	.00118	.0123	.00005
313.15	.00126	.0126	.00005
313.15	.00134	.0129	.00005
313.15	.00144	.0133	.00005
313.15	.00155	.0137	.00005
313.15	.00168	.0141	.00005
313.15	.00183	.0147	.00005
313.15	.00201	.0154	.00005
318.15	.00074	.0101	.00005
318.15	.00077	.0104	.00005
318.15	.0008	.0109	.00005
318.15	.00084	.0112	.00005
318.15	.00087	.0116	.00005
318.15	.00091	.0119	.00005
318.15	.00096	.0124	.00005
318.15	.001	.0128	.00005
318.15	.00106	.0132	.00005
318.15	.00112	.0137	.00005
318.15	.00118	.014	.00005
318.15	.00126	.0144	.00005
318.15	.00134	.0148	.00005
318.15	.00143	.0152	.00005
318.15	.00154	.0158	.00005
318.15	.00167	.0164	.00005
318.15	.00183	.0169	.00005
318.15	.00201	.0174	.00005
323.15	.00074	.0107	.00005
323.15	.00077	.0111	.00005
323.15	.0008	.0116	.00005
323.15	.00083	.012	.00005
323.15	.00087	.0124	.00005
323.15	.00091	.0129	.00005
323.15	.00095	.0134	.00005
323.15	.001	.014	.00005
323.15	.00105	.0143	.00005
323.15	.00111	.0151	.00005
323.15	.00118	.0157	.00005
323.15	.00125	.016	.00005
323.15	.00134	.0166	.00005
323.15	.00143	.0171	.00005
323.15	.00154	.0176	.00005
323.15	.00167	.0182	.00005
323.15	.00182	.0189	.00005
323.15	.002	.0196	.00005

System: water + hexadecyl- di(2-hydroxyethyl)-methylazanium bromide; phases: Liquid, Air at 1 atmosphere
Fixed: Temperature, K = 298.15
Property: Surface tension liquid-gas, N/m (Liquid); method: Pendant drop shape
Molality, mol/kg of hexadecyl- di(2-hydroxyethyl)-methylazanium bromide	Surface tension liquid-gas, N/m	uncertainty
0	.07217	.00001
.00011	.06414	.00001
.00021	.05832	.00001
.00032	.05291	.00001
.00042	.04772	.00001
.00053	.04477	.00001
.00063	.04155	.00001
.00074	.03875	.00001
.00079	.0387	.00001
.00084	.03862	.00001
.00089	.03855	.00001
.00095	.03802	.00001
.00105	.03811	.00001
.00116	.03787	.00001
.00126	.03786	.00001

System: water + hexadecyl- di(2-hydroxyethyl)-methylazanium bromide; phases: Liquid, Air at 1 atmosphere
Property: Electrical conductivity, S/m (Liquid); method: Digital conductivity meter
Temperature, K	Molality, mol/kg of hexadecyl- di(2-hydroxyethyl)-methylazanium bromide	Electrical conductivity, S/m	uncertainty
298.15	.00056	.0055	.00005
298.15	.00058	.0057	.00005
298.15	.0006	.0059	.00005
298.15	.00063	.0062	.00005
298.15	.00065	.0064	.00005
298.15	.00068	.0067	.00005
298.15	.00072	.0069	.00005
298.15	.00075	.0072	.00005
298.15	.00079	.0073	.00005
298.15	.00084	.0075	.00005
298.15	.00089	.0077	.00005
298.15	.00094	.0078	.00005
298.15	.001	.0081	.00005
298.15	.00108	.0083	.00005
298.15	.00116	.0086	.00005
298.15	.00126	.0089	.00005
298.15	.00137	.0092	.00005
298.15	.00151	.0094	.00005
303.15	.00032	.0034	.00005
303.15	.00035	.0038	.00005
303.15	.00039	.0042	.00005
303.15	.00043	.0046	.00005
303.15	.0005	.0052	.00005
303.15	.00058	.0061	.00005
303.15	.00063	.0066	.00005
303.15	.00068	.007	.00005
303.15	.00075	.0075	.00005
303.15	.00084	.0081	.00005
303.15	.00094	.0086	.00005
303.15	.001	.0088	.00005
303.15	.00107	.0091	.00005
303.15	.00116	.0094	.00005
303.15	.00125	.0097	.00005
303.15	.00137	.01	.00005
303.15	.0015	.0105	.00005
308.15	.00031	.0037	.00005
308.15	.00035	.004	.00005
308.15	.00038	.0044	.00005
308.15	.00043	.0049	.00005
308.15	.00049	.0057	.00005
308.15	.00058	.0067	.00005
308.15	.00063	.0072	.00005
308.15	.00068	.0078	.00005
308.15	.00075	.0084	.00005
308.15	.00083	.009	.00005
308.15	.00094	.0097	.00005
308.15	.001	.01	.00005
308.15	.00107	.0102	.00005
308.15	.00116	.0106	.00005
308.15	.00125	.0108	.00005
308.15	.00137	.0112	.00005
308.15	.0015	.0117	.00005
313.15	.00058	.0073	.00005
313.15	.0006	.0075	.00005
313.15	.00062	.0078	.00005
313.15	.00065	.0081	.00005
313.15	.00068	.0084	.00005
313.15	.00071	.0088	.00005
313.15	.00075	.009	.00005
313.15	.00079	.0097	.00005
313.15	.00083	.0101	.00005
313.15	.00088	.0105	.00005
313.15	.00094	.0109	.00005
313.15	.001	.0112	.00005
313.15	.00107	.0116	.00005
313.15	.00115	.012	.00005
313.15	.00125	.0124	.00005
313.15	.00136	.0128	.00005
313.15	.0015	.0133	.00005
318.15	.00055	.0075	.00005
318.15	.00058	.0078	.00005
318.15	.0006	.008	.00005
318.15	.00062	.0084	.00005
318.15	.00065	.0087	.00005
318.15	.00068	.0091	.00005
318.15	.00071	.0095	.00005
318.15	.00075	.0099	.00005
318.15	.00079	.0105	.00005
318.15	.00083	.0111	.00005
318.15	.00088	.0116	.00005
318.15	.00093	.0122	.00005
318.15	.001	.0127	.00005
318.15	.00107	.0131	.00005
318.15	.00115	.0135	.00005
318.15	.00125	.0139	.00005
318.15	.00136	.0145	.00005
318.15	.0015	.0152	.00005
323.15	.00055	.008	.00005
323.15	.00057	.0083	.00005
323.15	.0006	.0086	.00005
323.15	.00062	.0089	.00005
323.15	.00065	.0093	.00005
323.15	.00068	.0097	.00005
323.15	.00071	.0101	.00005
323.15	.00075	.0106	.00005
323.15	.00079	.0112	.00005
323.15	.00083	.0117	.00005
323.15	.00088	.0124	.00005
323.15	.00093	.0131	.00005
323.15	.00099	.0137	.00005
323.15	.00107	.0143	.00005
323.15	.00115	.0148	.00005
323.15	.00124	.0154	.00005
323.15	.00136	.0161	.00005
323.15	.00149	.0169	.00005
