Measured thermophysical data. Density and Viscosity Data for Binary Mixtures of 1-Alkyl-3-methylimidazolium Alkylsulfates + Water
Source: J. Chem. Eng. Data, 2012, 10.1021/je300622r
Compound 1: 1-butyl-3-methylimidazolium hydrogen sulfate, C8H16N2O4S, purity 98%
Compound 2: 1-butyl-3-methylimidazolium methylsulfate, C9H18N2O4S, purity 98%
Compound 3: 1-ethyl-3-methylimidazolium ethyl sulfate, C8H16N2O4S, purity 98%
Compound 4: 1-ethyl-3-methylimazolium methylsulfate, C7H14N2O4S, purity 98%
Compound 5: water, H2O

System: water + 1-butyl-3-methylimidazolium hydrogen sulfate; phases: Liquid
Fixed: Pressure, kPa = 101
Property: Mass density, kg/m3 (Liquid); method: Vibrating tube method
Mole fraction of water	Temperature, K	Mass density, kg/m3	uncertainty
.0083	303.15	1276	.0005
.0083	313.15	1269.9	.0005
.0083	323.15	1263.9	.0005
.0083	333.15	1258	.0005
.0083	343.15	1252.2	.0005
.095	303.15	1274.3	.0005
.095	313.15	1268	.0005
.095	323.15	1261.7	.0005
.095	333.15	1255.5	.0005
.095	343.15	1249.7	.0005
.2013	313.15	1265.2	.0005
.2013	303.15	1271.6	.0005
.2013	323.15	1258.8	.0005
.2013	333.15	1252.7	.0005
.2013	343.15	1246.8	.0005
.3903	313.15	1257.3	.0005
.3903	323.15	1251.1	.0005
.3903	303.15	1263.9	.0005
.3903	333.15	1245	.0005
.3903	343.15	1238.9	.0005
.5924	323.15	1235.5	.0005
.5924	313.15	1241.9	.0005
.5924	333.15	1229	.0005
.5924	303.15	1248.4	.0005
.5924	343.15	1222.6	.0005
.7934	303.15	1210.1	.0005
.7934	313.15	1203.2	.0005
.7934	323.15	1196.2	.0005
.7934	333.15	1189.3	.0005
.7934	343.15	1182.4	.0005
.8988	333.15	1136.2	.0005
.8988	303.15	1157.5	.0005
.8988	313.15	1150.4	.0005
.8988	323.15	1143.3	.0005
.8988	343.15	1129	.0005

System: water + 1-butyl-3-methylimidazolium hydrogen sulfate; phases: Liquid
Fixed: Pressure, kPa = 101
Property: Viscosity, Pa*s (Liquid); method: Concentric cylinders viscometry
Temperature, K	Mole fraction of water	Viscosity, Pa*s	uncertainty
303.15	.0083	3.4648	.0121268
313.15	.0083	1.6284	.0056994
323.15	.0083	.84829	.002969015
333.15	.0083	.47963	.001678705
343.15	.0083	.29047	.001016645
303.15	.095	2.1885	.00765975
313.15	.095	1.0702	.0037457
323.15	.095	.57442	.00201047
333.15	.095	.33316	.00116606
343.15	.095	.20627	.000721945
313.15	.2013	.6867	.00240345
303.15	.2013	1.351	.0047285
323.15	.2013	.38033	.001331155
333.15	.2013	.22651	.000792785
343.15	.2013	.14338	.00050183
313.15	.3903	.28325	.000991375
323.15	.3903	.16726	.00058541
303.15	.3903	.51676	.00180866
333.15	.3903	.10513	.000367955
343.15	.3903	.06971	.000243985
323.15	.5924	.053969	.0001888915
313.15	.5924	.08398	.00029393
333.15	.5924	.036546	.000127911
303.15	.5924	.13881	.000485835
343.15	.5924	.025786	.000090251
303.15	.7934	.021845	.0000764575
313.15	.7934	.015114	.000052899
323.15	.7934	.010938	.000038283
333.15	.7934	.008219	.0000287665
343.15	.7934	.006356	.000022246
333.15	.8988	.002724	.000009534
303.15	.8988	.005838	.000020433
313.15	.8988	.004375	.0000153125
323.15	.8988	.003401	.0000119035
343.15	.8988	.002234	.000007819

System: water + 1-butyl-3-methylimidazolium methylsulfate; phases: Liquid
Fixed: Pressure, kPa = 101
Property: Mass density, kg/m3 (Liquid); method: Vibrating tube method
Mole fraction of water	Temperature, K	Mass density, kg/m3	uncertainty
.0004	283.15	1225	.0005
.0004	293.15	1217.9	.0005
.0004	303.15	1211.1	.0005
.0004	313.15	1204.5	.0005
.0004	323.15	1198	.0005
.0004	333.15	1191.6	.0005
.0004	343.15	1185.2	.0005
.0999	283.15	1223.7	.0005
.0999	293.15	1216.7	.0005
.0999	303.15	1209.9	.0005
.0999	313.15	1203.3	.0005
.0999	323.15	1196.8	.0005
.0999	333.15	1190.3	.0005
.0999	343.15	1183.9	.0005
.194	283.15	1221.9	.0005
.194	303.15	1208.2	.0005
.194	293.15	1215	.0005
.194	313.15	1201.7	.0005
.194	323.15	1195.2	.0005
.194	333.15	1188.9	.0005
.194	343.15	1182.5	.0005
.3979	283.15	1216.8	.0005
.3979	313.15	1196.5	.0005
.3979	293.15	1209.9	.0005
.3979	323.15	1189.8	.0005
.3979	303.15	1203.2	.0005
.3979	333.15	1183.2	.0005
.3979	343.15	1176.3	.0005
.6025	313.15	1184.4	.0005
.6025	283.15	1205.2	.0005
.6025	323.15	1177.6	.0005
.6025	293.15	1198.2	.0005
.6025	333.15	1170.8	.0005
.6025	303.15	1191.3	.0005
.6025	343.15	1164	.0005
.8005	303.15	1162	.0005
.8005	323.15	1147.7	.0005
.8005	283.15	1176.3	.0005
.8005	313.15	1154.9	.0005
.8005	333.15	1140.5	.0005
.8005	293.15	1169.1	.0005
.8005	343.15	1133.2	.0005
.8993	293.15	1129.5	.0005
.8993	323.15	1108.6	.0005
.8993	333.15	1101.4	.0005
.8993	283.15	1134.3	.0005
.8993	313.15	1115.7	.0005
.8993	303.15	1122.6	.0005
.8993	343.15	1094.2	.0005

System: water + 1-butyl-3-methylimidazolium methylsulfate; phases: Liquid
Fixed: Pressure, kPa = 101
Property: Viscosity, Pa*s (Liquid); method: Concentric cylinders viscometry
Temperature, K	Mole fraction of water	Viscosity, Pa*s	uncertainty
283.15	.0004	.52653	.001842855
293.15	.0004	.27381	.000958335
303.15	.0004	.15347	.000537145
313.15	.0004	.09311	.000325885
323.15	.0004	.06024	.00021084
333.15	.0004	.041067	.0001437345
343.15	.0004	.029299	.0001025465
283.15	.0999	.43208	.00151228
293.15	.0999	.22928	.00080248
303.15	.0999	.13283	.000464905
313.15	.0999	.082621	.0002891735
323.15	.0999	.054527	.0001908445
333.15	.0999	.037805	.0001323175
343.15	.0999	.027725	.0000970375
283.15	.194	.35622	.00124677
303.15	.194	.11453	.000400855
293.15	.194	.19365	.000677775
313.15	.194	.072553	.0002539355
323.15	.194	.048653	.0001702855
333.15	.194	.03425	.000119875
343.15	.194	.025135	.0000879725
283.15	.3979	.18206	.00063721
313.15	.3979	.042474	.000148659
293.15	.3979	.1043	.00036505
323.15	.3979	.029476	.000103166
303.15	.3979	.064514	.000225799
333.15	.3979	.021442	.000075047
343.15	.3979	.016875	.0000590625
313.15	.6025	.017835	.0000624225
283.15	.6025	.06313	.000220955
323.15	.6025	.01297	.000045395
293.15	.6025	.038932	.000136262
333.15	.6025	.009806	.000034321
303.15	.6025	.025652	.000089782
343.15	.6025	.008289	.0000290115
303.15	.8005	.009056	.000031696
323.15	.8005	.005006	.000017521
283.15	.8005	.019722	.000069027
313.15	.8005	.006609	.0000231315
333.15	.8005	.003929	.0000137515
293.15	.8005	.013006	.000045521
343.15	.8005	.003175	.0000111125
293.15	.8993	.005646	.000019761
323.15	.8993	.002483	.0000086905
333.15	.8993	.002029	.0000071015
283.15	.8993	.008179	.0000286265
313.15	.8993	.003137	.0000109795
303.15	.8993	.004113	.0000143955
343.15	.8993	.001707	.0000059745

System: water + 1-ethyl-3-methylimidazolium ethyl sulfate; phases: Liquid
Fixed: Pressure, kPa = 101
Property: Mass density, kg/m3 (Liquid); method: Vibrating tube method
Temperature, K	Mole fraction of water	Mass density, kg/m3	uncertainty
283.15	.0023	1250.3	.0005
283.15	.1225	1247.8	.0005
283.15	.1966	1246.2	.0005
283.15	.427	1237.9	.0005
283.15	.6124	1224.6	.0005
283.15	.798	1192.9	.0005
283.15	.8983	1145.8	.0005
293.15	.0023	1243.2	.0005
293.15	.1225	1240.8	.0005
293.15	.1966	1239.2	.0005
293.15	.427	1230.8	.0005
293.15	.6124	1217.5	.0005
293.15	.798	1185.7	.0005
293.15	.8983	1139.2	.0005
303.15	.0023	1236.4	.0005
303.15	.1225	1234	.0005
303.15	.1966	1232.3	.0005
303.15	.427	1223.8	.0005
303.15	.6124	1210.4	.0005
303.15	.798	1178.5	.0005
303.15	.8983	1132.5	.0005
313.15	.0023	1229.6	.0005
313.15	.1225	1227.1	.0005
313.15	.1966	1225.4	.0005
313.15	.427	1216.9	.0005
313.15	.6124	1203.3	.0005
313.15	.798	1171.2	.0005
313.15	.8983	1125.6	.0005
323.15	.0023	1222.8	.0005
323.15	.1225	1220.4	.0005
323.15	.1966	1218.6	.0005
323.15	.427	1210	.0005
323.15	.6124	1196.3	.0005
323.15	.798	1164	.0005
323.15	.8983	1118.6	.0005
333.15	.0023	1216.2	.0005
333.15	.1225	1213.7	.0005
333.15	.1966	1212	.0005
333.15	.427	1203.2	.0005
333.15	.6124	1189.4	.0005
333.15	.798	1156.7	.0005
333.15	.8983	1111.6	.0005
343.15	.0023	1209.6	.0005
343.15	.1225	1207.2	.0005
343.15	.1966	1205.3	.0005
343.15	.427	1196.5	.0005
343.15	.6124	1182.4	.0005
343.15	.798	1149.4	.0005
343.15	.8983	1104.3	.0005

System: water + 1-ethyl-3-methylimidazolium ethyl sulfate; phases: Liquid
Fixed: Pressure, kPa = 101
Property: Viscosity, Pa*s (Liquid); method: Concentric cylinders viscometry
Temperature, K	Mole fraction of water	Viscosity, Pa*s	uncertainty
283.15	.0023	.24232	.00084812
293.15	.0023	.13392	.00046872
303.15	.0023	.080978	.000283423
313.15	.0023	.052623	.0001841805
323.15	.0023	.03624	.00012684
333.15	.0023	.026161	.0000915635
343.15	.0023	.019634	.000068719
283.15	.1225	.17128	.00059948
293.15	.1225	.099101	.0003468535
303.15	.1225	.062109	.0002173815
313.15	.1225	.041507	.0001452745
323.15	.1225	.029171	.0001020985
333.15	.1225	.021464	.000075124
343.15	.1225	.016366	.000057281
283.15	.1966	.13687	.000479045
303.15	.1966	.052094	.000182329
293.15	.1966	.081341	.0002846935
313.15	.1966	.035415	.0001239525
323.15	.1966	.025295	.0000885325
333.15	.1966	.018814	.000065849
343.15	.1966	.014469	.0000506415
283.15	.427	.06249	.000218715
313.15	.427	.019525	.0000683375
293.15	.427	.040028	.000140098
323.15	.427	.014566	.000050981
303.15	.427	.027263	.0000954205
333.15	.427	.01124	.00003934
343.15	.427	.008918	.000031213
313.15	.6124	.011335	.0000396725
283.15	.6124	.032646	.000114261
323.15	.6124	.008663	.0000303205
293.15	.6124	.021816	.000076356
333.15	.6124	.006824	.000023884
303.15	.6124	.015378	.000053823
343.15	.6124	.005518	.000019313
303.15	.798	.00724	.00002534
323.15	.798	.004246	.000014861
283.15	.798	.014523	.0000508305
313.15	.798	.005453	.0000190855
333.15	.798	.003402	.000011907
293.15	.798	.010006	.000035021
343.15	.798	.002791	.0000097685
293.15	.8983	.004853	.0000169855
323.15	.8983	.002221	.0000077735
333.15	.8983	.001813	.0000063455
283.15	.8983	.006801	.0000238035
313.15	.8983	.002793	.0000097755
303.15	.8983	.003618	.000012663
343.15	.8983	.001518	.000005313

System: water + 1-ethyl-3-methylimazolium methylsulfate; phases: Liquid
Fixed: Pressure, kPa = 101
Property: Mass density, kg/m3 (Liquid); method: Vibrating tube method
Temperature, K	Mole fraction of water	Mass density, kg/m3	uncertainty
278.15	.0023	1301.4	.0005
278.15	.0887	1299.2	.0005
278.15	.2235	1294.9	.0005
278.15	.4163	1285.1	.0005
278.15	.6106	1265.8	.0005
278.15	.7999	1219.5	.0005
278.15	.8948	1164.8	.0005
288.15	.0023	1294.2	.0005
288.15	.0887	1292.1	.0005
288.15	.2235	1287.9	.0005
288.15	.4163	1278	.0005
288.15	.6106	1258.7	.0005
288.15	.7999	1212.5	.0005
288.15	.8948	1158.5	.0005
298.15	.0023	1287.3	.0005
298.15	.0887	1285.2	.0005
298.15	.2235	1280.9	.0005
298.15	.4163	1271	.0005
298.15	.6106	1251.7	.0005
298.15	.7999	1205.6	.0005
298.15	.8948	1152.2	.0005
308.15	.0023	1280.4	.0005
308.15	.0887	1278.3	.0005
308.15	.2235	1274.1	.0005
308.15	.4163	1264.1	.0005
308.15	.6106	1244.7	.0005
308.15	.7999	1198.6	.0005
308.15	.8948	1145.7	.0005
318.15	.0023	1273.6	.0005
318.15	.0887	1271.5	.0005
318.15	.2235	1267.3	.0005
318.15	.4163	1257.2	.0005
318.15	.6106	1237.8	.0005
318.15	.7999	1191.6	.0005
318.15	.8948	1139.1	.0005
328.15	.0023	1266.9	.0005
328.15	.0887	1264.8	.0005
328.15	.2235	1260.6	.0005
328.15	.4163	1250.5	.0005
328.15	.6106	1230.9	.0005
328.15	.7999	1184.5	.0005
328.15	.8948	1132.3	.0005
338.15	.0023	1260.3	.0005
338.15	.0887	1258.3	.0005
338.15	.2235	1254.1	.0005
338.15	.4163	1243.8	.0005
338.15	.6106	1224	.0005
338.15	.7999	1177.4	.0005
338.15	.8948	1125.4	.0005

System: water + 1-ethyl-3-methylimazolium methylsulfate; phases: Liquid
Fixed: Pressure, kPa = 101
Property: Viscosity, Pa*s (Liquid); method: Concentric cylinders viscometry
Temperature, K	Mole fraction of water	Viscosity, Pa*s	uncertainty
278.15	.0023	.24626	.00086191
288.15	.0023	.13767	.000481845
298.15	.0023	.083885	.0002935975
308.15	.0023	.054766	.000191681
318.15	.0023	.037809	.0001323315
328.15	.0023	.027336	.000095676
338.15	.0023	.020533	.0000718655
278.15	.0887	.22597	.000790895
288.15	.0887	.12924	.00045234
298.15	.0887	.080206	.000280721
308.15	.0887	.053071	.0001857485
318.15	.0887	.037008	.000129528
328.15	.0887	.026982	.000094437
338.15	.0887	.020417	.0000714595
278.15	.2235	.16456	.00057596
298.15	.2235	.062406	.000218421
288.15	.2235	.097731	.0003420585
308.15	.2235	.042265	.0001479275
318.15	.2235	.030097	.0001053395
328.15	.2235	.022428	.000078498
338.15	.2235	.017928	.000062748
278.15	.4163	.081878	.000286573
308.15	.4163	.024358	.000085253
288.15	.4163	.051528	.000180348
318.15	.4163	.017941	.0000627935
298.15	.4163	.034537	.0001208795
328.15	.4163	.013716	.000048006
338.15	.4163	.01089	.000038115
308.15	.6106	.012399	.0000433965
278.15	.6106	.036748	.000128618
318.15	.6106	.0094039	.00003291365
288.15	.6106	.024284	.000084994
328.15	.6106	.0073624	.0000257684
298.15	.6106	.016966	.000059381
338.15	.6106	.0059236	.0000207326
298.15	.7999	.00721	.000025235
318.15	.7999	.004222	.000014777
278.15	.7999	.014468	.000050638
308.15	.7999	.005427	.0000189945
328.15	.7999	.003378	.000011823
288.15	.7999	.009971	.0000348985
338.15	.7999	.002767	.0000096845
288.15	.8948	.004861	.0000170135
318.15	.8948	.002247	.0000078645
328.15	.8948	.001836	.000006426
278.15	.8948	.006791	.0000237685
308.15	.8948	.002817	.0000098595
298.15	.8948	.003635	.0000127225
338.15	.8948	.001534	.000005369
