Measured thermophysical data. Solubilities of 3-Methoxy-N-phenylaniline and 3-(Methylthio)-N-phenylaniline in Five Organic Solvents (285 K to 333.75 K)
Source: J. Chem. Eng. Data, 2012, 10.1021/je3001816
Compound 1: benzenamine, 3-methoxy-N-phenyl-, C13H13NO
Compound 2: 3-(methylthio)-N-phenyl-benzenamine, C13H13NS
Compound 3: methanol, CH4O
Compound 4: acetone, C3H6O
Compound 5: ethyl ethanoate, C4H8O2
Compound 6: freon 20, CHCl3
Compound 7: R-150, C2H4Cl2

System: methanol + benzenamine, 3-methoxy-N-phenyl-; phases: Liquid, Crystal
Fixed: Pressure, kPa = 101
Property: Mole fraction of benzenamine, 3-methoxy-N-phenyl- (Liquid); method: Laser Monitering Observation
Temperature, K	Mole fraction of benzenamine, 3-methoxy-N-phenyl-	uncertainty
287.25	.0134	.000201
291.95	.0174	.000261
296.65	.0214	.000321
301.15	.0268	.000402
305.35	.0339	.0005085
311.85	.0478	.000717
316.25	.0579	.0008685
321.25	.0724	.001086
327.15	.0972	.001458

System: benzenamine, 3-methoxy-N-phenyl- + ethyl ethanoate; phases: Liquid, Crystal
Fixed: Pressure, kPa = 101
Property: Mole fraction of benzenamine, 3-methoxy-N-phenyl- (Liquid); method: Laser Monitering Observation
Temperature, K	Mole fraction of benzenamine, 3-methoxy-N-phenyl-	uncertainty
287.15	.195	.002925
291.05	.2246	.003369
295.55	.2538	.003807
300.18	.2831	.0042465
306.35	.3288	.004932
311.25	.3661	.0054915
316.25	.4075	.0061125
321.35	.4423	.0066345
326.25	.5003	.0075045
330.15	.5432	.008148

System: acetone + benzenamine, 3-methoxy-N-phenyl-; phases: Liquid, Crystal
Fixed: Pressure, kPa = 101
Property: Mole fraction of benzenamine, 3-methoxy-N-phenyl- (Liquid); method: Laser Monitering Observation
Temperature, K	Mole fraction of benzenamine, 3-methoxy-N-phenyl-	uncertainty
287.25	.2375	.0035625
292.85	.2643	.0039645
298.95	.3	.0045
303.05	.3272	.004908
308.15	.3608	.005412
313.05	.4074	.006111
317.55	.4562	.006843
321.75	.5134	.007701

System: benzenamine, 3-methoxy-N-phenyl- + R-150; phases: Liquid, Crystal
Fixed: Pressure, kPa = 101
Property: Mole fraction of benzenamine, 3-methoxy-N-phenyl- (Liquid); method: Laser Monitering Observation
Temperature, K	Mole fraction of benzenamine, 3-methoxy-N-phenyl-	uncertainty
287.65	.1489	.0022335
292.3	.1821	.0027315
297.35	.2162	.003243
302.55	.2581	.0038715
308.65	.3122	.004683
313.15	.3554	.005331
318.85	.4014	.006021
324.25	.4433	.0066495
329.55	.5018	.007527
333.75	.5446	.008169

System: freon 20 + benzenamine, 3-methoxy-N-phenyl-; phases: Liquid, Crystal
Fixed: Pressure, kPa = 101
Property: Mole fraction of benzenamine, 3-methoxy-N-phenyl- (Liquid); method: Laser Monitering Observation
Temperature, K	Mole fraction of benzenamine, 3-methoxy-N-phenyl-	uncertainty
290.25	.1807	.0027105
295.25	.2176	.003264
300.55	.258	.00387
306.15	.3083	.0046245
311.5	.35041	.00525615
315.5	.3861	.0057915
319.8	.424	.00636
323.13	.4556	.006834

System: methanol + 3-(methylthio)-N-phenyl-benzenamine; phases: Liquid, Crystal
Fixed: Pressure, kPa = 101
Property: Mole fraction of 3-(methylthio)-N-phenyl-benzenamine (Liquid); method: Laser Monitering Observation
Temperature, K	Mole fraction of 3-(methylthio)-N-phenyl-benzenamine	uncertainty
287.65	.0115	.0001725
291.55	.016	.00024
297.15	.0235	.0003525
302.4	.0342	.000513
307.25	.046	.00069
311.95	.0608	.000912
316.35	.0761	.0011415
321.25	.0951	.0014265
327.15	.1209	.0018135

System: ethyl ethanoate + 3-(methylthio)-N-phenyl-benzenamine; phases: Liquid, Crystal
Fixed: Pressure, kPa = 101
Property: Mole fraction of 3-(methylthio)-N-phenyl-benzenamine (Liquid); method: Laser Monitering Observation
Temperature, K	Mole fraction of 3-(methylthio)-N-phenyl-benzenamine	uncertainty
287.85	.2309	.0034635
292.95	.281	.004215
297.25	.311	.004665
302.15	.3573	.0053595
306.65	.4033	.0060495
311.25	.4522	.006783
316.45	.5163	.0077445
321.35	.5732	.008598
325.85	.6435	.0096525
330.15	.7112	.010668

System: acetone + 3-(methylthio)-N-phenyl-benzenamine; phases: Liquid, Crystal
Fixed: Pressure, kPa = 101
Property: Mole fraction of 3-(methylthio)-N-phenyl-benzenamine (Liquid); method: Laser Monitering Observation
Temperature, K	Mole fraction of 3-(methylthio)-N-phenyl-benzenamine	uncertainty
287.45	.2543	.0038145
292.55	.3058	.004587
296.15	.3431	.0051465
300.35	.3808	.005712
305.45	.4384	.006576
310.65	.4996	.007494
315.15	.5513	.0082695
321.75	.6434	.009651

System: R-150 + 3-(methylthio)-N-phenyl-benzenamine; phases: Liquid, Crystal
Fixed: Pressure, kPa = 101
Property: Mole fraction of 3-(methylthio)-N-phenyl-benzenamine (Liquid); method: Laser Monitering Observation
Temperature, K	Mole fraction of 3-(methylthio)-N-phenyl-benzenamine	uncertainty
287.65	.1891	.0028365
292.3	.2314	.003471
296.85	.2784	.004176
300.95	.3114	.004671
305.35	.3602	.005403
310.45	.4154	.006231
315.15	.4658	.006987
319.75	.5148	.007722
324.25	.5622	.008433
329.55	.615	.009225
333.75	.6544	.009816

System: freon 20 + 3-(methylthio)-N-phenyl-benzenamine; phases: Liquid, Crystal
Fixed: Pressure, kPa = 101
Property: Mole fraction of 3-(methylthio)-N-phenyl-benzenamine (Liquid); method: Laser Monitering Observation
Temperature, K	Mole fraction of 3-(methylthio)-N-phenyl-benzenamine	uncertainty
288.85	.226	.00339
293.35	.263	.003945
297.05	.296	.00444
302	.3378	.005067
307.55	.3912	.005868
313.25	.4487	.0067305
318.75	.5114	.007671
323.13	.5575	.0083625
