Measured thermophysical data. Solubility and Diffusivity of CO2 in [hxmim][NTf2], [omim][NTf2], and [dcmim][NTf2] at T = (298.15, 308.15, and 323.15) K and Pressures up to 20 bar
Source: J. Chem. Eng. Data, 2014, 10.1021/je4001944
Compound 1: carbon dioxide, CO2, purity 99.999%
Compound 2: 1-hexyl-3-methylimidazolium 1,1,1-trifluoro-N-[(trifluoromethyl)sulfonyl]methanesulfonamide, C12H19F6N3O4S2, purity 99%
Compound 3: 1-octyl-3-methylimidazolium 1,1,1-trifluoro-N-[(trifluoromethyl)sulfonyl]methanesulfonamide, C14H23F6N3O4S2, purity 99%
Compound 4: 1-decyl-3-methylimidazolium bis(trifluoromethylsulfonyl)amide, C16H27F6N3O4S2, purity 99%

System: 1-hexyl-3-methylimidazolium 1,1,1-trifluoro-N-[(trifluoromethyl)sulfonyl]methanesulfonamide; phases: Liquid
Property: Mass density, kg/m3 (Liquid); method: Buoyancy - hydrostatic balance with magnetic suspension - one sinker
Pressure, kPa	Temperature, K	Mass density, kg/m3	uncertainty
101.325	298.15	1391	2
101.325	308.15	1373	2
101.325	323.15	1340	2

System: 1-octyl-3-methylimidazolium 1,1,1-trifluoro-N-[(trifluoromethyl)sulfonyl]methanesulfonamide; phases: Liquid
Property: Mass density, kg/m3 (Liquid); method: Buoyancy - hydrostatic balance with magnetic suspension - one sinker
Pressure, kPa	Temperature, K	Mass density, kg/m3	uncertainty
101.325	298.15	1343	2
101.325	308.15	1323	2
101.325	323.15	1287	2

System: 1-decyl-3-methylimidazolium bis(trifluoromethylsulfonyl)amide; phases: Liquid
Property: Mass density, kg/m3 (Liquid); method: Buoyancy - hydrostatic balance with magnetic suspension - one sinker
Pressure, kPa	Temperature, K	Mass density, kg/m3	uncertainty
101.325	298.15	1284	2
101.325	308.15	1256	2
101.325	323.15	1221	2

System: carbon dioxide + 1-hexyl-3-methylimidazolium 1,1,1-trifluoro-N-[(trifluoromethyl)sulfonyl]methanesulfonamide; phases: Liquid, Gas
Property: Mole fraction of carbon dioxide (Liquid); method: P change on absorption
Pressure, kPa	Temperature, K	Mole fraction of carbon dioxide	uncertainty
100	298.15	.032	.005
500	298.15	.145	.005
1000	298.15	.26	.005
1500	298.15	.35	.005
2000	298.15	.415	.005
100	308.15	.027	.005
500	308.15	.13	.005
1000	308.15	.234	.005
1500	308.15	.313	.005
2000	308.15	.376	.005
100	323.15	.024	.005
500	323.15	.107	.005
1000	323.15	.196	.005
1500	323.15	.276	.005
2000	323.15	.329	.005

System: carbon dioxide + 1-octyl-3-methylimidazolium 1,1,1-trifluoro-N-[(trifluoromethyl)sulfonyl]methanesulfonamide; phases: Liquid, Gas
Property: Mole fraction of carbon dioxide (Liquid); method: P change on absorption
Pressure, kPa	Temperature, K	Mole fraction of carbon dioxide	uncertainty
100	298.15	.032	.005
500	298.15	.149	.005
1000	298.15	.269	.005
1500	298.15	.361	.005
2000	298.15	.428	.005
100	308.15	.028	.005
500	308.15	.133	.005
1000	308.15	.24	.005
1500	308.15	.326	.005
2000	308.15	.389	.005
100	323.15	.025	.005
500	323.15	.11	.005
1000	323.15	.199	.005
1500	323.15	.277	.005
2000	323.15	.34	.005

System: carbon dioxide + 1-decyl-3-methylimidazolium bis(trifluoromethylsulfonyl)amide; phases: Liquid, Gas
Property: Mole fraction of carbon dioxide (Liquid); method: P change on absorption
Pressure, kPa	Temperature, K	Mole fraction of carbon dioxide	uncertainty
100	298.15	.035	.005
500	298.15	.155	.005
1000	298.15	.276	.005
1500	298.15	.369	.005
2000	298.15	.443	.005
100	308.15	.029	.005
500	308.15	.135	.005
1000	308.15	.243	.005
1500	308.15	.332	.005
2000	308.15	.401	.005
100	323.15	.026	.005
500	323.15	.117	.005
1000	323.15	.209	.005
1500	323.15	.288	.005
2000	323.15	.351	.005
