Measured thermophysical data. Ambient Temperature Vapor Pressure and Adsorption Capacity for (Perfluorooctyl) Ethylene, 3-(Perfluorobutyl)propanol, Perfluorohexanoic Acid, Ethyl Perfluorooctanoate, and Perfluoro-3,6-dioxaheptanoic Acid
Source: J. Chem. Eng. Data, 2013, 10.1021/je400205g
Compound 1: 3-(perfluorobutyl)propanol, C7H7F9O, purity 97.5%
Compound 2: 3,3,4,4,5,5,6,6,7,7,8,8,9,9,10,10,10-heptadecafluoro-1-decene, C10H3F17, purity 99%
Compound 3: perfluorohexanoic acid, C6HF11O2, purity 98%
Compound 4: ethyl perfluorooctanoate, C10H5F15O2, purity 99.7%
Compound 5: 2,2-difluoro-2-[1,1,2,2-tetrafluoro-2-(trifluoromethoxy)ethoxy] acetic acid, C5HF9O4, purity 99.6%

System: 3-(perfluorobutyl)propanol; phases: Liquid, Gas
Property: Vapor or sublimation pressure, kPa (Liquid); method: Transpiration method
Temperature, K	Vapor or sublimation pressure, kPa	uncertainty
255.65	.00087	.000004524
273.15	.00765	.00003978
282.45	.02121	.000110292
293.15	.05717	.000297284
309.15	.21695	.00112814

System: 3,3,4,4,5,5,6,6,7,7,8,8,9,9,10,10,10-heptadecafluoro-1-decene; phases: Liquid, Gas
Property: Vapor or sublimation pressure, kPa (Liquid); method: Transpiration method
Temperature, K	Vapor or sublimation pressure, kPa	uncertainty
254.15	.01269	.000065988
272.45	.06823	.000354796
290.75	.28432	.001478464
309.15	.97796	.005085392

System: perfluorohexanoic acid; phases: Crystal, Gas
Property: Vapor or sublimation pressure, kPa (Crystal); method: Transpiration method
Temperature, K	Vapor or sublimation pressure, kPa	uncertainty
263.15	.00126	.00052
270.15	.00294	.00052
278.15	.00791	.00052
283.15	.0134	.00052
285.15	.01726	.00052
290.15	.03551	.00052

System: perfluorohexanoic acid; phases: Liquid, Gas
Property: Vapor or sublimation pressure, kPa (Liquid); method: Transpiration method
Temperature, K	Vapor or sublimation pressure, kPa	uncertainty
293.15	.044	.00052
300.15	.08434	.00052
308.15	.16558	.00052

System: ethyl perfluorooctanoate; phases: Liquid, Gas
Property: Vapor or sublimation pressure, kPa (Liquid); method: Transpiration method
Temperature, K	Vapor or sublimation pressure, kPa	uncertainty
263.15	.00516	.00052
278.15	.02313	.00052
293.15	.08988	.00052
308.15	.26494	.00052

System: 2,2-difluoro-2-[1,1,2,2-tetrafluoro-2-(trifluoromethoxy)ethoxy] acetic acid; phases: Liquid, Gas
Property: Vapor or sublimation pressure, kPa (Liquid); method: Transpiration method
Temperature, K	Vapor or sublimation pressure, kPa	uncertainty
263.15	.00451	.00052
278.15	.02238	.00052
293.15	.09288	.00052
308.15	.3168	.00052
