Measured thermophysical data. Solubility of KH2PO4 in KCl, H3PO4, and Their Mixture Solutions
Source: J. Chem. Eng. Data, 2014, 10.1021/je400911m
Compound 1: potassium chloride, ClK, purity 99.5%
Compound 2: potassium dihydrogen phosphate (KH2PO4), H2KO4P, purity 99.5%
Compound 3: phosphoric acid, H3O4P, purity 85%
Compound 4: water, H2O, purity 99.9%

System: potassium chloride + water + potassium dihydrogen phosphate (KH2PO4); phases: Liquid, Crystal
Fixed: Pressure, kPa = 101
Property: Molality, mol/kg of potassium dihydrogen phosphate (KH2PO4) (Liquid); method: spectrometrt
Temperature, K	Molality, mol/kg of potassium chloride	Molality, mol/kg of potassium dihydrogen phosphate (KH2PO4)	uncertainty
288.2	0	1.24	.0248
288.2	.333	.97	.0194
288.2	.825	.7	.014
288.2	1.65	.46	.0092
288.2	2.05	.38	.0076
288.2	2.31	.33	.0066
298.2	0	1.46	.0292
298.2	.45	1.18	.0236
298.2	.883	.97	.0194
298.2	1.73	.63	.0126
298.2	2.2	.53	.0106
298.2	2.48	.47	.0094
308.2	0	1.72	.0344
308.2	.325	1.42	.0284
308.2	.8	1.12	.0224
308.2	1.59	.77	.0154
308.2	2	.65	.013
308.2	2.26	.57	.0114

System: potassium chloride + water + potassium dihydrogen phosphate (KH2PO4); phases: Liquid, Crystal, Crystal
Fixed: Pressure, kPa = 101
Property: Molality, mol/kg of potassium dihydrogen phosphate (KH2PO4) (Liquid); method: spectrometry
Temperature, K	Molality, mol/kg of potassium dihydrogen phosphate (KH2PO4)	uncertainty
288.2	.23	.0046
298.2	.27	.0054
308.2	.33	.0066

System: potassium chloride + water + potassium dihydrogen phosphate (KH2PO4); phases: Liquid, Crystal, Crystal
Fixed: Pressure, kPa = 101
Property: Molality, mol/kg of potassium chloride (Liquid); method: spectrometry
Temperature, K	Molality, mol/kg of potassium chloride	uncertainty
288.2	3.02	.0302
298.2	3.26	.0326
308.2	3.58	.0358

System: phosphoric acid + water + potassium dihydrogen phosphate (KH2PO4); phases: Liquid, Crystal
Fixed: Pressure, kPa = 101
Property: Molality, mol/kg of potassium dihydrogen phosphate (KH2PO4) (Liquid); method: spectrometry
Temperature, K	Molality, mol/kg of phosphoric acid	Molality, mol/kg of potassium dihydrogen phosphate (KH2PO4)	uncertainty
288.2	0	1.24	.0248
288.2	.093	1.32	.0264
288.2	.197	1.37	.0274
288.2	.49	1.47	.0294
288.2	.76	1.58	.0316
288.2	1.03	1.67	.0334
288.2	1.33	1.76	.0352
288.2	1.72	1.86	.0372
298.2	0	1.46	.0292
298.2	.062	1.51	.0302
298.2	.148	1.54	.0308
298.2	.205	1.55	.031
298.2	.46	1.65	.033
298.2	.72	1.72	.0344
298.2	1.02	1.79	.0358
298.2	1.29	1.89	.0378
298.2	1.68	1.98	.0396
308.2	0	1.72	.0344
308.2	.088	1.75	.035
308.2	.253	1.79	.0358
308.2	.51	1.82	.0364
308.2	.73	1.92	.0384
308.2	1.02	2.01	.0402
308.2	1.32	2.08	.0416
308.2	1.68	2.2	.044

System: water + potassium dihydrogen phosphate (KH2PO4); phases: Liquid, Crystal
Property: Molality, mol/kg of potassium dihydrogen phosphate (KH2PO4) (Liquid); method: spectrometrt
Temperature, K	Pressure, kPa	Molality, mol/kg of potassium dihydrogen phosphate (KH2PO4)	uncertainty
288.2	101	1.24	.0248
298.2	101	1.46	.0292
308.2	101	1.72	.0344
