Measured thermophysical data. Solubility of Aloe-Emodin in Five Imidazolium-Based Ionic Liquids
Source: J. Chem. Eng. Data, 2013, 10.1021/je400028k
Compound 1: 1,8-dihydroxy-3-(hydroxymethyl)anthracene-9,10-dione, C15H10O5, purity 98.5%
Compound 2: 1-decyl-3-methylimidazolium chloride, C14H27ClN2
Compound 3: 1-hexyl-3-methylimidazolium hexafluorophosphate, C10H19F6N2P
Compound 4: 1-butyl-3-methylimidazolium tetrafluoroborate, C8H15BF4N2
Compound 5: 1-hexyl-3-methylimidazolium tetrafluoroborate, C10H19BF4N2
Compound 6: 1-butyl-3-methylimidazolium 1,1,1-trifluoro-N-[(trifluoromethyl)sulfonyl]methanesulfonamide, C10H15F6N3O4S2

System: 1,8-dihydroxy-3-(hydroxymethyl)anthracene-9,10-dione + 1-decyl-3-methylimidazolium chloride; phases: Liquid, Crystal
Property: Mole fraction of 1,8-dihydroxy-3-(hydroxymethyl)anthracene-9,10-dione (Liquid); method: Other
Temperature, K	Pressure, kPa	Mole fraction of 1,8-dihydroxy-3-(hydroxymethyl)anthracene-9,10-dione	uncertainty
307.15	101.325	.000193	.00000386
310.85	101.325	.000222	.00000444
314.05	101.325	.000244	.00000488
317.55	101.325	.000267	.00000534
321.25	101.325	.000284	.00000568
325.15	101.325	.000326	.00000652
334.05	101.325	.000398	.00000796
340.35	101.325	.000483	.00000966
349.65	101.325	.00058	.0000116

System: 1,8-dihydroxy-3-(hydroxymethyl)anthracene-9,10-dione + 1-hexyl-3-methylimidazolium hexafluorophosphate; phases: Liquid, Crystal
Property: Mole fraction of 1,8-dihydroxy-3-(hydroxymethyl)anthracene-9,10-dione (Liquid); method: Other
Temperature, K	Pressure, kPa	Mole fraction of 1,8-dihydroxy-3-(hydroxymethyl)anthracene-9,10-dione	uncertainty
304.15	101.325	.000172	.00000344
308.05	101.325	.000203	.00000406
313.55	101.325	.000246	.00000492
317.15	101.325	.00025	.000005
321.15	101.325	.00028	.0000056
327.25	101.325	.000315	.0000063
332.75	101.325	.000332	.00000664
347.25	101.325	.000424	.00000848

System: 1,8-dihydroxy-3-(hydroxymethyl)anthracene-9,10-dione + 1-butyl-3-methylimidazolium tetrafluoroborate; phases: Liquid, Crystal
Property: Mole fraction of 1,8-dihydroxy-3-(hydroxymethyl)anthracene-9,10-dione (Liquid); method: Other
Temperature, K	Pressure, kPa	Mole fraction of 1,8-dihydroxy-3-(hydroxymethyl)anthracene-9,10-dione	uncertainty
300.55	101.325	.000217	.00000434
306.35	101.325	.00025	.000005
311.85	101.325	.000285	.0000057
317.05	101.325	.00032	.0000064
321.35	101.325	.000353	.00000706
325.15	101.325	.000381	.00000762
331.35	101.325	.000464	.00000928
343.35	101.325	.000549	.00001098
363.55	101.325	.000789	.00001578

System: 1,8-dihydroxy-3-(hydroxymethyl)anthracene-9,10-dione + 1-hexyl-3-methylimidazolium tetrafluoroborate; phases: Liquid, Crystal
Property: Mole fraction of 1,8-dihydroxy-3-(hydroxymethyl)anthracene-9,10-dione (Liquid); method: Other
Temperature, K	Pressure, kPa	Mole fraction of 1,8-dihydroxy-3-(hydroxymethyl)anthracene-9,10-dione	uncertainty
311.35	101.325	.000247	.00000494
314.75	101.325	.000282	.00000564
318.15	101.325	.000321	.00000642
322.25	101.325	.000392	.00000784
326.95	101.325	.000462	.00000924
333.35	101.325	.000551	.00001102
338.15	101.325	.000652	.00001304
341.75	101.325	.000706	.00001412
352.55	101.325	.001014	.00002028

System: 1,8-dihydroxy-3-(hydroxymethyl)anthracene-9,10-dione + 1-butyl-3-methylimidazolium 1,1,1-trifluoro-N-[(trifluoromethyl)sulfonyl]methanesulfonamide; phases: Liquid, Crystal
Property: Mole fraction of 1,8-dihydroxy-3-(hydroxymethyl)anthracene-9,10-dione (Liquid); method: Other
Temperature, K	Pressure, kPa	Mole fraction of 1,8-dihydroxy-3-(hydroxymethyl)anthracene-9,10-dione	uncertainty
295.55	101.325	.001013	.00002026
311.35	101.325	.001694	.00003388
324.95	101.325	.002409	.00004818
335.65	101.325	.003058	.00006116
343.55	101.325	.00375	.000075
352.05	101.325	.004419	.00008838
360.75	101.325	.005194	.00010388
