Measured thermophysical data. Densities and Viscosities of Binary Mixtures Containing 1,3-Dimethylimidazolium Dimethylphosphate and Alcohols
Source: J. Chem. Eng. Data, 2014, 10.1021/je401124t
Compound 1: 1,3-dimethylimidazolium dimethylphosphate, C7H15N2O4P, purity 98%
Compound 2: methanol, CH4O, purity 99.9%
Compound 3: ethanol, C2H6O, purity 99.9%
Compound 4: 1-propanol, C3H8O, purity 99.9%
Compound 5: isopropanol, C3H8O, purity 99.9%

System: 1,3-dimethylimidazolium dimethylphosphate; phases: Liquid
Property: Mass density, kg/m3 (Liquid); method: Vibrating tube method
Temperature, K	Pressure, kPa	Mass density, kg/m3	uncertainty
293.15	101	1264.88	1
298.15	101	1261.31	1
303.15	101	1257.8	1
308.15	101	1254.4	1
313.15	101	1250.99	1
318.15	101	1247.59	1
323.15	101	1244.19	1

System: 1,3-dimethylimidazolium dimethylphosphate; phases: Liquid
Property: Viscosity, Pa*s (Liquid); method: Falling or rolling sphere viscometry
Temperature, K	Pressure, kPa	Viscosity, Pa*s	uncertainty
293.15	101	.4159	.004159
298.15	101	.2908	.002908
303.15	101	.2101	.002101
308.15	101	.1556	.001556
313.15	101	.1192	.001192
318.15	101	.09277	.0009277
323.15	101	.07424	.0007424

System: methanol; phases: Liquid
Property: Mass density, kg/m3 (Liquid); method: Vibrating tube method
Temperature, K	Pressure, kPa	Mass density, kg/m3	uncertainty
293.15	101	792.12	1
298.15	101	787.43	1
303.15	101	782.68	1
308.15	101	777.91	1
313.15	101	773.14	1
318.15	101	768.32	1
323.15	101	763.47	1

System: methanol; phases: Liquid
Property: Viscosity, Pa*s (Liquid); method: Falling or rolling sphere viscometry
Temperature, K	Pressure, kPa	Viscosity, Pa*s	uncertainty
293.15	101	.000586	.00000586
298.15	101	.000552	.00000552
303.15	101	.000521	.00000521
308.15	101	.000491	.00000491
313.15	101	.000465	.00000465
318.15	101	.00044	.0000044
323.15	101	.000418	.00000418

System: ethanol; phases: Liquid
Property: Mass density, kg/m3 (Liquid); method: Vibrating tube method
Temperature, K	Pressure, kPa	Mass density, kg/m3	uncertainty
293.15	101	789.86	1
298.15	101	785.57	1
303.15	101	782.16	1
308.15	101	777.82	1
313.15	101	773.42	1
318.15	101	768.99	1
323.15	101	764.49	1

System: ethanol; phases: Liquid
Property: Viscosity, Pa*s (Liquid); method: Falling or rolling sphere viscometry
Temperature, K	Pressure, kPa	Viscosity, Pa*s	uncertainty
293.15	101	.001192	.00001192
298.15	101	.001085	.00001085
303.15	101	.00099	.0000099
308.15	101	.000906	.00000906
313.15	101	.000831	.00000831
318.15	101	.000764	.00000764
323.15	101	.000704	.00000704

System: 1-propanol; phases: Liquid
Property: Mass density, kg/m3 (Liquid); method: Vibrating tube method
Temperature, K	Pressure, kPa	Mass density, kg/m3	uncertainty
293.15	101	803.65	1
298.15	101	799.67	1
303.15	101	795.87	1
308.15	101	791.83	1
313.15	101	787.72	1
318.15	101	783.56	1
323.15	101	779.36	1

System: 1-propanol; phases: Liquid
Property: Viscosity, Pa*s (Liquid); method: Falling or rolling sphere viscometry
Temperature, K	Pressure, kPa	Viscosity, Pa*s	uncertainty
293.15	101	.002188	.00002188
298.15	101	.001974	.00001974
303.15	101	.001761	.00001761
308.15	101	.001575	.00001575
313.15	101	.001416	.00001416
318.15	101	.001273	.00001273
323.15	101	.00115	.0000115

System: isopropanol; phases: Liquid
Property: Mass density, kg/m3 (Liquid); method: Vibrating tube method
Temperature, K	Pressure, kPa	Mass density, kg/m3	uncertainty
293.15	101	785.3	1
298.15	101	781.09	1
303.15	101	776.8	1
308.15	101	772.43	1
313.15	101	767.99	1
318.15	101	763.47	1
323.15	101	758.85	1

System: isopropanol; phases: Liquid
Property: Viscosity, Pa*s (Liquid); method: Falling or rolling sphere viscometry
Temperature, K	Pressure, kPa	Viscosity, Pa*s	uncertainty
293.15	101	.002439	.00002439
298.15	101	.002134	.00002134
303.15	101	.001845	.00001845
308.15	101	.001603	.00001603
313.15	101	.0014	.000014
318.15	101	.001228	.00001228
323.15	101	.001083	.00001083

System: methanol + 1,3-dimethylimidazolium dimethylphosphate; phases: Liquid
Fixed: Pressure, kPa = 101
Property: Mass density, kg/m3 (Liquid); method: Vibrating tube method
Temperature, K	Mole fraction of 1,3-dimethylimidazolium dimethylphosphate	Mass density, kg/m3	uncertainty
293.15	0	792.12	1
293.15	.1002	964.73	1
293.15	.1998	1061.98	1
293.15	.2973	1118.07	1
293.15	.3982	1157.92	1
293.15	.4972	1187.25	1
293.15	.6016	1210.88	1
293.15	.7023	1228.61	1
293.15	.7991	1242.65	1
293.15	.8946	1254.09	1
293.15	1	1264.88	1
298.15	0	787.43	1
298.15	.1002	960.59	1
298.15	.1998	1058.07	1
298.15	.2973	1114.3	1
298.15	.3982	1154.21	1
298.15	.4972	1183.62	1
298.15	.6016	1207.3	1
298.15	.7023	1225.09	1
298.15	.7991	1239.17	1
298.15	.8946	1250.56	1
298.15	1	1261.31	1
303.15	0	782.68	1
303.15	.1002	956.44	1
303.15	.1998	1054.14	1
303.15	.2973	1110.51	1
303.15	.3982	1150.51	1
303.15	.4972	1179.99	1
303.15	.6016	1203.74	1
303.15	.7023	1221.58	1
303.15	.7991	1235.69	1
303.15	.8946	1247.12	1
303.15	1	1257.8	1
308.15	0	777.91	1
308.15	.1002	952.29	1
308.15	.1998	1050.23	1
308.15	.2973	1106.73	1
308.15	.3982	1146.83	1
308.15	.4972	1176.38	1
308.15	.6016	1200.17	1
308.15	.7023	1218.07	1
308.15	.7991	1232.2	1
308.15	.8946	1243.66	1
308.15	1	1254.4	1
313.15	0	773.14	1
313.15	.1002	948.14	1
313.15	.1998	1046.34	1
313.15	.2973	1102.96	1
313.15	.3982	1143.14	1
313.15	.4972	1172.77	1
313.15	.6016	1196.61	1
313.15	.7023	1214.55	1
313.15	.7991	1228.71	1
313.15	.8946	1240.2	1
313.15	1	1250.99	1
318.15	0	768.32	1
318.15	.1002	944.01	1
318.15	.1998	1042.45	1
318.15	.2973	1099.21	1
318.15	.3982	1139.47	1
318.15	.4972	1169.18	1
318.15	.6016	1193.07	1
318.15	.7023	1211.04	1
318.15	.7991	1225.24	1
318.15	.8946	1236.76	1
318.15	1	1247.59	1
323.15	0	763.47	1
323.15	.1002	939.85	1
323.15	.1998	1038.56	1
323.15	.2973	1095.46	1
323.15	.3982	1135.83	1
323.15	.4972	1165.6	1
323.15	.6016	1189.53	1
323.15	.7023	1207.56	1
323.15	.7991	1221.79	1
323.15	.8946	1233.33	1
323.15	1	1244.19	1

System: methanol + 1,3-dimethylimidazolium dimethylphosphate; phases: Liquid
Fixed: Pressure, kPa = 101
Property: Viscosity, Pa*s (Liquid); method: Falling or rolling sphere viscometry
Temperature, K	Mole fraction of 1,3-dimethylimidazolium dimethylphosphate	Viscosity, Pa*s	uncertainty
293.15	0	.000586	.00000586
293.15	.1002	.001927	.00001927
293.15	.1998	.004904	.00004904
293.15	.2973	.01021	.0001021
293.15	.3982	.02002	.0002002
293.15	.4972	.03625	.0003625
293.15	.6016	.06803	.0006803
293.15	.7023	.1115	.001115
293.15	.7991	.1748	.001748
293.15	.8946	.2781	.002781
293.15	1	.4159	.004159
298.15	0	.000552	.00000552
298.15	.1002	.001776	.00001776
298.15	.1998	.004419	.00004419
298.15	.2973	.009015	.00009015
298.15	.3982	.01707	.0001707
298.15	.4972	.0299	.000299
298.15	.6016	.05416	.0005416
298.15	.7023	.08622	.0008622
298.15	.7991	.1219	.001219
298.15	.8946	.2011	.002011
298.15	1	.2908	.002908
303.15	0	.000521	.00000521
303.15	.1002	.001642	.00001642
303.15	.1998	.004006	.00004006
303.15	.2973	.00801	.0000801
303.15	.3982	.0147	.000147
303.15	.4972	.02498	.0002498
303.15	.6016	.04395	.0004395
303.15	.7023	.06794	.0006794
303.15	.7991	.0953	.000953
303.15	.8946	.1497	.001497
303.15	1	.2101	.002101
308.15	0	.000491	.00000491
308.15	.1002	.001523	.00001523
308.15	.1998	.00365	.0000365
308.15	.2973	.007158	.00007158
308.15	.3982	.01281	.0001281
308.15	.4972	.0211	.000211
308.15	.6016	.03627	.0003627
308.15	.7023	.05442	.0005442
308.15	.7991	.07538	.0007538
308.15	.8946	.1143	.001143
308.15	1	.1556	.001556
313.15	0	.000465	.00000465
313.15	.1002	.001416	.00001416
313.15	.1998	.003336	.00003336
313.15	.2973	.006442	.00006442
313.15	.3982	.01125	.0001125
313.15	.4972	.01806	.0001806
313.15	.6016	.03038	.0003038
313.15	.7023	.044392	.00044392
313.15	.7991	.06047	.0006047
313.15	.8946	.08937	.0008937
313.15	1	.1192	.001192
318.15	0	.00044	.0000044
318.15	.1002	.001322	.00001322
318.15	.1998	.003061	.00003061
318.15	.2973	.005826	.00005826
318.15	.3982	.009959	.00009959
318.15	.4972	.01562	.0001562
318.15	.6016	.0258	.000258
318.15	.7023	.03686	.0003686
318.15	.7991	.04923	.0004923
318.15	.8946	.07148	.0007148
318.15	1	.09277	.0009277
323.15	0	.000418	.00000418
323.15	.1002	.001243	.00001243
323.15	.1998	.00282	.0000282
323.15	.2973	.005299	.00005299
323.15	.3982	.008882	.00008882
323.15	.4972	.01363	.0001363
323.15	.6016	.02216	.0002216
323.15	.7023	.03101	.0003101
323.15	.7991	.04066	.0004066
323.15	.8946	.05826	.0005826
323.15	1	.07424	.0007424

System: ethanol + 1,3-dimethylimidazolium dimethylphosphate; phases: Liquid
Fixed: Pressure, kPa = 101
Property: Mass density, kg/m3 (Liquid); method: Vibrating tube method
Temperature, K	Mole fraction of 1,3-dimethylimidazolium dimethylphosphate	Mass density, kg/m3	uncertainty
293.15	0	789.86	1
293.15	.1	919.06	1
293.15	.2001	1004.77	1
293.15	.3008	1068.23	1
293.15	.4	1115.63	1
293.15	.4972	1152.11	1
293.15	.5926	1181.83	1
293.15	.6991	1208.82	1
293.15	.7972	1229.95	1
293.15	.9001	1249.78	1
293.15	1	1264.88	1
298.15	0	785.57	1
298.15	.1	915.18	1
298.15	.2001	1000.97	1
298.15	.3008	1064.51	1
298.15	.4	1111.94	1
298.15	.4972	1148.5	1
298.15	.5926	1178.27	1
298.15	.6991	1205.25	1
298.15	.7972	1226.56	1
298.15	.9001	1246.23	1
298.15	1	1261.31	1
303.15	0	782.16	1
303.15	.1	911.12	1
303.15	.2001	997.36	1
303.15	.3008	1060.79	1
303.15	.4	1108.29	1
303.15	.4972	1144.82	1
303.15	.5926	1174.7	1
303.15	.6991	1201.7	1
303.15	.7972	1223.1	1
303.15	.9001	1242.78	1
303.15	1	1257.8	1
308.15	0	777.82	1
308.15	.1	907.09	1
308.15	.2001	993.34	1
308.15	.3008	1057.09	1
308.15	.4	1104.66	1
308.15	.4972	1141.24	1
308.15	.5926	1171.16	1
308.15	.6991	1198.22	1
308.15	.7972	1219.65	1
308.15	.9001	1239.37	1
308.15	1	1254.4	1
313.15	0	773.42	1
313.15	.1	903.08	1
313.15	.2001	989.55	1
313.15	.3008	1053.4	1
313.15	.4	1101.04	1
313.15	.4972	1137.69	1
313.15	.5926	1167.65	1
313.15	.6991	1194.72	1
313.15	.7972	1216.22	1
313.15	.9001	1235.94	1
313.15	1	1250.99	1
318.15	0	768.99	1
318.15	.1	899.07	1
318.15	.2001	985.77	1
318.15	.3008	1049.71	1
318.15	.4	1097.45	1
318.15	.4972	1134.17	1
318.15	.5926	1164.17	1
318.15	.6991	1191.25	1
318.15	.7972	1212.78	1
318.15	.9001	1232.52	1
318.15	1	1247.59	1
323.15	0	764.49	1
323.15	.1	895.06	1
323.15	.2001	982	1
323.15	.3008	1046.04	1
323.15	.4	1093.85	1
323.15	.4972	1130.66	1
323.15	.5926	1160.7	1
323.15	.6991	1187.79	1
323.15	.7972	1209.35	1
323.15	.9001	1229.1	1
323.15	1	1244.19	1

System: ethanol + 1,3-dimethylimidazolium dimethylphosphate; phases: Liquid
Fixed: Pressure, kPa = 101
Property: Viscosity, Pa*s (Liquid); method: Falling or rolling sphere viscometry
Temperature, K	Mole fraction of 1,3-dimethylimidazolium dimethylphosphate	Viscosity, Pa*s	uncertainty
293.15	0	.001192	.00001192
293.15	.1	.003118	.00003118
293.15	.2001	.006287	.00006287
293.15	.3008	.01376	.0001376
293.15	.4	.02437	.0002437
293.15	.4972	.03773	.0003773
293.15	.5926	.07766	.0007766
293.15	.6991	.1343	.001343
293.15	.7972	.2462	.002462
293.15	.9001	.3387	.003387
293.15	1	.4159	.004159
298.15	0	.001085	.00001085
298.15	.1	.002824	.00002824
298.15	.2001	.005596	.00005596
298.15	.3008	.01197	.0001197
298.15	.4	.02118	.0002118
298.15	.4972	.03076	.0003076
298.15	.5926	.06087	.0006087
298.15	.6991	.09873	.0009873
298.15	.7972	.1825	.001825
298.15	.9001	.238	.00238
298.15	1	.2908	.002908
303.15	0	.00099	.0000099
303.15	.1	.002567	.00002567
303.15	.2001	.005011	.00005011
303.15	.3008	.0105	.000105
303.15	.4	.01808	.0001808
303.15	.4972	.02578	.0002578
303.15	.5926	.04867	.0004867
303.15	.6991	.07854	.0007854
303.15	.7972	.1385	.001385
303.15	.9001	.1737	.001737
303.15	1	.2101	.002101
308.15	0	.000906	.00000906
308.15	.1	.002341	.00002341
308.15	.2001	.004509	.00004509
308.15	.3008	.009292	.00009292
308.15	.4	.01559	.0001559
308.15	.4972	.02192	.0002192
308.15	.5926	.03962	.0003962
308.15	.6991	.06293	.0006293
308.15	.7972	.1068	.001068
308.15	.9001	.1307	.001307
308.15	1	.1556	.001556
313.15	0	.000831	.00000831
313.15	.1	.002143	.00002143
313.15	.2001	.004077	.00004077
313.15	.3008	.008271	.00008271
313.15	.4	.01359	.0001359
313.15	.4972	.01894	.0001894
313.15	.5926	.03273	.0003273
313.15	.6991	.05103	.0005103
313.15	.7972	.08396	.0008396
313.15	.9001	.1008	.001008
313.15	1	.1192	.001192
318.15	0	.000764	.00000764
318.15	.1	.00197	.0000197
318.15	.2001	.003702	.00003702
318.15	.3008	.007412	.00007412
318.15	.4	.01188	.0001188
318.15	.4972	.01642	.0001642
318.15	.5926	.02744	.0002744
318.15	.6991	.04198	.0004198
318.15	.7972	.06702	.0006702
318.15	.9001	.07912	.0007912
318.15	1	.09277	.0009277
323.15	0	.000704	.00000704
323.15	.1	.001819	.00001819
323.15	.2001	.003378	.00003378
323.15	.3008	.006679	.00006679
323.15	.4	.01051	.0001051
323.15	.4972	.01435	.0001435
323.15	.5926	.0233	.000233
323.15	.6991	.03506	.0003506
323.15	.7972	.05442	.0005442
323.15	.9001	.06369	.0006369
323.15	1	.07424	.0007424

System: 1-propanol + 1,3-dimethylimidazolium dimethylphosphate; phases: Liquid
Fixed: Pressure, kPa = 101
Property: Mass density, kg/m3 (Liquid); method: Vibrating tube method
Temperature, K	Mole fraction of 1,3-dimethylimidazolium dimethylphosphate	Mass density, kg/m3	uncertainty
293.15	0	803.65	1
293.15	.1002	904.22	1
293.15	.201	980.42	1
293.15	.3005	1040.52	1
293.15	.4004	1090.1	1
293.15	.4998	1131.02	1
293.15	.6	1166.12	1
293.15	.6982	1195.55	1
293.15	.8007	1222.04	1
293.15	.902	1244.74	1
293.15	1	1264.88	1
298.15	0	799.67	1
298.15	.1002	900.4	1
298.15	.201	976.68	1
298.15	.3005	1036.82	1
298.15	.4004	1086.47	1
298.15	.4998	1127.42	1
298.15	.6	1162.59	1
298.15	.6982	1192.02	1
298.15	.8007	1218.6	1
298.15	.902	1241.18	1
298.15	1	1261.31	1
303.15	0	795.87	1
303.15	.1002	896.57	1
303.15	.201	972.95	1
303.15	.3005	1033.13	1
303.15	.4004	1082.85	1
303.15	.4998	1123.85	1
303.15	.6	1159.07	1
303.15	.6982	1188.5	1
303.15	.8007	1215.12	1
303.15	.902	1237.81	1
303.15	1	1257.8	1
308.15	0	791.83	1
308.15	.1002	892.72	1
308.15	.201	969.2	1
308.15	.3005	1029.46	1
308.15	.4004	1079.23	1
308.15	.4998	1120.28	1
308.15	.6	1155.54	1
308.15	.6982	1185	1
308.15	.8007	1211.62	1
308.15	.902	1234.38	1
308.15	1	1254.4	1
313.15	0	787.72	1
313.15	.1002	888.86	1
313.15	.201	965.46	1
313.15	.3005	1025.8	1
313.15	.4004	1075.62	1
313.15	.4998	1116.72	1
313.15	.6	1151.99	1
313.15	.6982	1181.5	1
313.15	.8007	1208.15	1
313.15	.902	1230.92	1
313.15	1	1250.99	1
318.15	0	783.56	1
318.15	.1002	884.98	1
318.15	.201	961.73	1
318.15	.3005	1022.14	1
318.15	.4004	1072.03	1
318.15	.4998	1113.16	1
318.15	.6	1148.44	1
318.15	.6982	1178.01	1
318.15	.8007	1204.7	1
318.15	.902	1227.46	1
318.15	1	1247.59	1
323.15	0	779.36	1
323.15	.1002	881.1	1
323.15	.201	957.99	1
323.15	.3005	1018.5	1
323.15	.4004	1068.44	1
323.15	.4998	1109.63	1
323.15	.6	1144.92	1
323.15	.6982	1174.52	1
323.15	.8007	1201.24	1
323.15	.902	1224.02	1
323.15	1	1244.19	1

System: 1-propanol + 1,3-dimethylimidazolium dimethylphosphate; phases: Liquid
Fixed: Pressure, kPa = 101
Property: Viscosity, Pa*s (Liquid); method: Falling or rolling sphere viscometry
Temperature, K	Mole fraction of 1,3-dimethylimidazolium dimethylphosphate	Viscosity, Pa*s	uncertainty
293.15	0	.002188	.00002188
293.15	.1002	.004441	.00004441
293.15	.201	.009787	.00009787
293.15	.3005	.01753	.0001753
293.15	.4004	.02952	.0002952
293.15	.4998	.05076	.0005076
293.15	.6	.0852	.000852
293.15	.6982	.1169	.001169
293.15	.8007	.2108	.002108
293.15	.902	.2963	.002963
293.15	1	.4159	.004159
298.15	0	.001974	.00001974
298.15	.1002	.003929	.00003929
298.15	.201	.008626	.00008626
298.15	.3005	.01517	.0001517
298.15	.4004	.02538	.0002538
298.15	.4998	.04159	.0004159
298.15	.6	.06693	.0006693
298.15	.6982	.09302	.0009302
298.15	.8007	.1541	.001541
298.15	.902	.2151	.002151
298.15	1	.2908	.002908
303.15	0	.001761	.00001761
303.15	.1002	.003492	.00003492
303.15	.201	.007612	.00007612
303.15	.3005	.01316	.0001316
303.15	.4004	.02148	.0002148
303.15	.4998	.03418	.0003418
303.15	.6	.05356	.0005356
303.15	.6982	.07405	.0007405
303.15	.8007	.1159	.001159
303.15	.902	.159	.00159
303.15	1	.2101	.002101
308.15	0	.001575	.00001575
308.15	.1002	.003118	.00003118
308.15	.201	.00676	.0000676
308.15	.3005	.01151	.0001151
308.15	.4004	.01835	.0001835
308.15	.4998	.02852	.0002852
308.15	.6	.04367	.0004367
308.15	.6982	.05948	.0005948
308.15	.8007	.0901	.000901
308.15	.902	.1211	.001211
308.15	1	.1556	.001556
313.15	0	.001416	.00001416
313.15	.1002	.002795	.00002795
313.15	.201	.006036	.00006036
313.15	.3005	.01013	.0001013
313.15	.4004	.01582	.0001582
313.15	.4998	.02402	.0002402
313.15	.6	.0361	.000361
313.15	.6982	.04846	.0004846
313.15	.8007	.07122	.0007122
313.15	.902	.09394	.0009394
313.15	1	.1192	.001192
318.15	0	.001273	.00001273
318.15	.1002	.002516	.00002516
318.15	.201	.005417	.00005417
318.15	.3005	.008972	.00008972
318.15	.4004	.01379	.0001379
318.15	.4998	.0205	.000205
318.15	.6	.03015	.0003015
318.15	.6982	.03992	.0003992
318.15	.8007	.05778	.0005778
318.15	.902	.07477	.0007477
318.15	1	.09277	.0009277
323.15	0	.00115	.0000115
323.15	.1002	.002273	.00002273
323.15	.201	.004882	.00004882
323.15	.3005	.007996	.00007996
323.15	.4004	.01211	.0001211
323.15	.4998	.01768	.0001768
323.15	.6	.02567	.0002567
323.15	.6982	.03341	.0003341
323.15	.8007	.04777	.0004777
323.15	.902	.06089	.0006089
323.15	1	.07424	.0007424

System: isopropanol + 1,3-dimethylimidazolium dimethylphosphate; phases: Liquid
Fixed: Pressure, kPa = 101
Property: Mass density, kg/m3 (Liquid); method: Vibrating tube method
Temperature, K	Mole fraction of 1,3-dimethylimidazolium dimethylphosphate	Mass density, kg/m3	uncertainty
293.15	0	785.3	1
293.15	.0987	888.43	1
293.15	.2003	966.91	1
293.15	.2991	1028.9	1
293.15	.4	1081.33	1
293.15	.4998	1124.67	1
293.15	.598	1160.54	1
293.15	.699	1192.59	1
293.15	.7968	1219.13	1
293.15	.9001	1243.78	1
293.15	1	1264.88	1
298.15	0	781.09	1
298.15	.0987	884.54	1
298.15	.2003	963.17	1
298.15	.2991	1025.23	1
298.15	.4	1077.75	1
298.15	.4998	1121.1	1
298.15	.598	1157.03	1
298.15	.699	1189.11	1
298.15	.7968	1215.73	1
298.15	.9001	1240.23	1
298.15	1	1261.31	1
303.15	0	776.8	1
303.15	.0987	880.6	1
303.15	.2003	959.43	1
303.15	.2991	1021.66	1
303.15	.4	1074.17	1
303.15	.4998	1117.56	1
303.15	.598	1153.54	1
303.15	.699	1185.64	1
303.15	.7968	1212.28	1
303.15	.9001	1236.79	1
303.15	1	1257.8	1
308.15	0	772.43	1
308.15	.0987	876.67	1
308.15	.2003	955.65	1
308.15	.2991	1018.05	1
308.15	.4	1070.57	1
308.15	.4998	1114.02	1
308.15	.598	1150.06	1
308.15	.699	1182.18	1
308.15	.7968	1208.83	1
308.15	.9001	1233.4	1
308.15	1	1254.4	1
313.15	0	767.99	1
313.15	.0987	872.68	1
313.15	.2003	951.87	1
313.15	.2991	1014.43	1
313.15	.4	1066.96	1
313.15	.4998	1110.47	1
313.15	.598	1146.57	1
313.15	.699	1178.71	1
313.15	.7968	1205.4	1
313.15	.9001	1230	1
313.15	1	1250.99	1
318.15	0	763.47	1
318.15	.0987	868.64	1
318.15	.2003	948.09	1
318.15	.2991	1010.72	1
318.15	.4	1063.38	1
318.15	.4998	1106.92	1
318.15	.598	1143.05	1
318.15	.699	1175.25	1
318.15	.7968	1201.97	1
318.15	.9001	1226.59	1
318.15	1	1247.59	1
323.15	0	758.85	1
323.15	.0987	864.58	1
323.15	.2003	944.32	1
323.15	.2991	1006.92	1
323.15	.4	1059.8	1
323.15	.4998	1103.4	1
323.15	.598	1139.57	1
323.15	.699	1171.8	1
323.15	.7968	1198.56	1
323.15	.9001	1223.19	1
323.15	1	1244.19	1

System: isopropanol + 1,3-dimethylimidazolium dimethylphosphate; phases: Liquid
Fixed: Pressure, kPa = 101
Property: Viscosity, Pa*s (Liquid); method: Falling or rolling sphere viscometry
Temperature, K	Mole fraction of 1,3-dimethylimidazolium dimethylphosphate	Viscosity, Pa*s	uncertainty
293.15	0	.002439	.00002439
293.15	.0987	.005773	.00005773
293.15	.2003	.01144	.0001144
293.15	.2991	.0213	.000213
293.15	.4	.03835	.0003835
293.15	.4998	.06705	.0006705
293.15	.598	.09173	.0009173
293.15	.699	.1731	.001731
293.15	.7968	.2535	.002535
293.15	.9001	.3575	.003575
293.15	1	.4159	.004159
298.15	0	.002134	.00002134
298.15	.0987	.005002	.00005002
298.15	.2003	.009867	.00009867
298.15	.2991	.01798	.0001798
298.15	.4	.03153	.0003153
298.15	.4998	.05334	.0005334
298.15	.598	.07526	.0007526
298.15	.699	.1299	.001299
298.15	.7968	.183	.00183
298.15	.9001	.2526	.002526
298.15	1	.2908	.002908
303.15	0	.001845	.00001845
303.15	.0987	.004361	.00004361
303.15	.2003	.008593	.00008593
303.15	.2991	.01537	.0001537
303.15	.4	.0262	.000262
303.15	.4998	.04328	.0004328
303.15	.598	.06105	.0006105
303.15	.699	.09979	.0009979
303.15	.7968	.1362	.001362
303.15	.9001	.1842	.001842
303.15	1	.2101	.002101
308.15	0	.001603	.00001603
308.15	.0987	.003819	.00003819
308.15	.2003	.007538	.00007538
308.15	.2991	.01326	.0001326
308.15	.4	.02205	.0002205
308.15	.4998	.03562	.0003562
308.15	.598	.04967	.0004967
308.15	.699	.07836	.0007836
308.15	.7968	.105	.00105
308.15	.9001	.1382	.001382
308.15	1	.1556	.001556
313.15	0	.0014	.000014
313.15	.0987	.003359	.00003359
313.15	.2003	.006644	.00006644
313.15	.2991	.01154	.0001154
313.15	.4	.01874	.0001874
313.15	.4998	.02978	.0002978
313.15	.598	.04099	.0004099
313.15	.699	.06307	.0006307
313.15	.7968	.08223	.0008223
313.15	.9001	.1066	.001066
313.15	1	.1192	.001192
318.15	0	.001228	.00001228
318.15	.0987	.002969	.00002969
318.15	.2003	.005894	.00005894
318.15	.2991	.01013	.0001013
318.15	.4	.01613	.0001613
318.15	.4998	.02515	.0002515
318.15	.598	.03395	.0003395
318.15	.699	.05145	.0005145
318.15	.7968	.06614	.0006614
318.15	.9001	.08279	.0008279
318.15	1	.09277	.0009277
323.15	0	.001083	.00001083
323.15	.0987	.002638	.00002638
323.15	.2003	.005253	.00005253
323.15	.2991	.008944	.00008944
323.15	.4	.01403	.0001403
323.15	.4998	.0215	.000215
323.15	.598	.02866	.0002866
323.15	.699	.04288	.0004288
323.15	.7968	.05396	.0005396
323.15	.9001	.06642	.0006642
323.15	1	.07424	.0007424
