Measured thermophysical data. On the High-Pressure Solubilities of Carbon Dioxide in Several Ionic Liquids
Source: J. Chem. Eng. Data, 2013, 10.1021/je400542b
Compound 1: carbon dioxide, CO2, purity 99.9%
Compound 2: 1-ethyl-3-methylimidazolium thiocyanate, C7H11N3S, purity 99%
Compound 3: 1-ethyl-3-methylimidazolium hydrogen sulfate, C6H12N2O4S, purity 98%
Compound 4: 1-ethyl-3-methylimidazolium methylsulfate, C7H14N2O4S, purity 99%
Compound 5: 1-ethyl-3-methylimidazolium methanesulfonate, C7H14N2O3S, purity 99%
Compound 6: 1-ethyl-3-methylimidazolium diethylphosphate, C10H21N2O4P, purity 99%
Compound 7: tributylethylphosphonium diethylphosphate, C18H42O4P2, purity 99%
Compound 8: trihexyl(tetradecyl)phosphonium bis(trifluoromethylsulfonyl)imide, C34H68F6NO4PS2, purity 99%
Compound 9: 1-(2-hydroxyethyl)-3-methylimidazolium trifluoroacetate, C8H11F3N2O3, purity 99%
Compound 10: 1-hexyl-3-methylimidazolium trifluoromethanesulfonate, C11H19F3N2O3S, purity 99%

System: carbon dioxide + 1-ethyl-3-methylimidazolium thiocyanate; phases: Liquid, Gas
Property: Mole fraction of carbon dioxide (Liquid); method: pressure drop on dissolution
Temperature, K	Pressure, kPa	Mole fraction of carbon dioxide	uncertainty
299.4	1090	.08	.01
299.5	1340	.14	.01
298.8	2200	.21	.01
299	3340	.27	.02
298.6	4270	.33	.02
313.3	1690	.14	.01
313.3	3030	.23	.02
313.3	4280	.3	.02
313.3	5670	.34	.02

System: carbon dioxide + 1-ethyl-3-methylimidazolium thiocyanate; phases: Liquid, Gas
Property: Molar volume, m3/mol (Liquid); method: pressure drop on dissolution
Temperature, K	Pressure, kPa	Molar volume, m3/mol	uncertainty
299.4	98	.000155	.000002
299.4	1090	.000147	.000002
299.5	1340	.000137	.000004
298.8	2200	.000128	.000004
299	3340	.000119	.000006
298.6	4270	.000112	.000008
313	99.5	.000159	.000002
313.3	1690	.00014	.000004
313.3	3030	.000128	.000006
313.3	4280	.000118	.000008
313.3	5670	.000082	.000008

System: carbon dioxide + 1-ethyl-3-methylimidazolium hydrogen sulfate; phases: Liquid, Gas
Property: Mole fraction of carbon dioxide (Liquid); method: pressure drop on dissolution
Temperature, K	Pressure, kPa	Mole fraction of carbon dioxide	uncertainty
313.3	1650	.24	.01
313.3	2920	.36	.01
313.3	4180	.47	.02
313.3	5820	.56	.02
313.3	7010	.62	.02
313.3	8290	.69	.02
333.6	1440	.2	.01
333.6	2870	.31	.01
333.6	4200	.38	.02
333.6	5590	.43	.02
332.8	7610	.51	.02
332.8	8290	.54	.02
332.8	9700	.6	.02

System: carbon dioxide + 1-ethyl-3-methylimidazolium hydrogen sulfate; phases: Liquid, Gas
Property: Molar volume, m3/mol (Liquid); method: pressure drop on dissolution
Temperature, K	Pressure, kPa	Molar volume, m3/mol	uncertainty
313.3	99.9	.000159	
313.3	1650	.000121	.000006
313.3	2920	.000103	.000008
313.3	4180	.000084	.000008
313.3	5820	.000071	.000008
313.3	7010	.000061	.000008
313.3	8290	.000051	.000008
333.6	98.5	.000161	
333.6	1440	.000128	.000006
333.6	2870	.000113	.000008
333.6	4200	.000101	.000008
333.6	5590	.000093	.00001
332.8	7610	.000083	.000012
332.8	8290	.000076	.000012
332.8	9700	.000066	.000012

System: carbon dioxide + 1-ethyl-3-methylimidazolium methylsulfate; phases: Liquid, Gas
Property: Mole fraction of carbon dioxide (Liquid); method: pressure drop on dissolution
Temperature, K	Pressure, kPa	Mole fraction of carbon dioxide	uncertainty
299.5	1130	.15	.01
299.6	2470	.29	.01
299.6	3860	.41	.02
299.6	5210	.51	.02
313.2	1330	.03	.01
313.2	2590	.16	.01
313.2	3770	.24	.02
313.3	4850	.29	.02
313.3	6140	.34	.02
313.3	7480	.38	.02
333	1310	.01	.01
333	2650	.08	.01
333	4070	.14	.02
333	5200	.23	.02
333	6730	.29	.02
333	7930	.34	.02

System: carbon dioxide + 1-ethyl-3-methylimidazolium methylsulfate; phases: Liquid, Gas
Property: Molar volume, m3/mol (Liquid); method: pressure drop on dissolution
Temperature, K	Pressure, kPa	Molar volume, m3/mol	uncertainty
299.5	98.6	.000177	
299.5	1130	.000155	.000006
299.6	2470	.000133	.000008
299.6	3860	.000113	.00001
299.6	5210	.000096	.000012
313.3	99.1	.000179	
313.2	1330	.000176	.000008
313.2	2590	.000155	.000012
313.2	3770	.000143	.000014
313.3	4850	.000135	.000018
313.3	6140	.000129	.000022
313.3	7480	.000122	.00003
332.9	99.6	.000179	
333	1310	.000182	.000008
333	2650	.00017	.000014
333	4070	.000161	.000018
333	5200	.000145	.00002
333	6730	.000137	.000024
333	7930	.000129	.000028

System: carbon dioxide + 1-ethyl-3-methylimidazolium methanesulfonate; phases: Liquid, Gas
Property: Mole fraction of carbon dioxide (Liquid); method: pressure drop on dissolution
Temperature, K	Pressure, kPa	Mole fraction of carbon dioxide	uncertainty
298.7	1240	.12	.01
298.7	2060	.22	.01
298.6	3180	.27	.02
298.5	4180	.3	.02
298.4	5170	.33	.02
314.1	1420	.05	.01
313.4	2840	.15	.01
313.3	4430	.26	.02
313.3	5560	.32	.02

System: carbon dioxide + 1-ethyl-3-methylimidazolium methanesulfonate; phases: Liquid, Gas
Property: Molar volume, m3/mol (Liquid); method: pressure drop on dissolution
Temperature, K	Pressure, kPa	Molar volume, m3/mol	uncertainty
298.7	99	.000166	
298.7	1240	.000152	.000004
298.7	2060	.000137	.000006
298.6	3180	.000131	.00001
298.5	4180	.000128	.000012
298.4	5170	.000125	.000016
313.5	98.9	.000168	
314.1	1420	.000162	.000004
313.4	2840	.000149	.000006
313.3	4430	.000133	.000008
313.3	5560	.000126	.00001

System: carbon dioxide + 1-ethyl-3-methylimidazolium diethylphosphate; phases: Liquid, Gas
Property: Mole fraction of carbon dioxide (Liquid); method: pressure drop on dissolution
Temperature, K	Pressure, kPa	Mole fraction of carbon dioxide	uncertainty
298.4	1200	.22	.01
298.5	2460	.41	.01
298.6	3310	.49	.02
298.6	4890	.61	.02
298.7	5470	.65	.02
313.8	1300	.19	.01
313.7	2540	.3	.01
313.7	3590	.39	.02
313.7	4600	.46	.02
313.7	5790	.54	.02
313.7	7120	.6	.02
333.3	1220	.11	.01
333.3	2590	.19	.01
333.3	4010	.3	.02
333.3	4810	.37	.02
333.2	5570	.41	.02

System: carbon dioxide + 1-ethyl-3-methylimidazolium diethylphosphate; phases: Liquid, Gas
Property: Molar volume, m3/mol (Liquid); method: pressure drop on dissolution
Temperature, K	Pressure, kPa	Molar volume, m3/mol	uncertainty
298.3	99.5	.000238	
298.4	1200	.000189	.000012
298.5	2460	.000146	.000012
298.6	3310	.000131	.000014
298.6	4890	.000104	.000014
298.7	5470	.000097	.000014
313.8	98.1	.000242	
313.8	1300	.000198	.000012
313.7	2540	.000175	.000016
313.7	3590	.000157	.000018
313.7	4600	.000141	.00002
313.7	5790	.000125	.00002
313.7	7120	.000111	.000022
333.3	98.7	.000241	
333.3	1220	.000218	.000012
333.3	2590	.000202	.00002
333.3	4010	.000179	.000024
333.3	4810	.000161	.000024
333.2	5570	.000155	.000026

System: carbon dioxide + tributylethylphosphonium diethylphosphate; phases: Liquid, Gas
Property: Mole fraction of carbon dioxide (Liquid); method: pressure drop on dissolution
Temperature, K	Pressure, kPa	Mole fraction of carbon dioxide	uncertainty
298.8	1130	.2	
299	1960	.37	
299.1	2760	.46	
299.2	3530	.52	
299.3	4320	.59	
299.4	5110	.65	
313.3	1230	.24	
313.3	2550	.38	
313.3	3810	.48	
313.3	4740	.54	
313.3	6010	.62	
313.3	7370	.71	
333.7	1310	.1	
333.7	2710	.28	
333.6	3640	.37	
333.7	4890	.42	
333.7	6080	.47	
333.7	7500	.56	
333.7	8410	.61	

System: carbon dioxide + tributylethylphosphonium diethylphosphate; phases: Liquid, Gas
Property: Molar volume, m3/mol (Liquid); method: pressure drop on dissolution
Temperature, K	Pressure, kPa	Molar volume, m3/mol	uncertainty
298.6	98.5	.00039	
298.8	1130	.000316	.000016
299	1960	.000256	.000018
299.1	2760	.000224	.00002
299.2	3530	.000202	.000022
299.3	4320	.000179	.000022
299.4	5110	.00016	.000022
313.3	99.8	.000394	
313.3	1230	.000304	.000026
313.3	2550	.000256	.000032
313.3	3810	.000224	.000036
313.3	4740	.000203	.000038
313.3	6010	.000173	.000038
313.3	7370	.000139	.000034
333.7	99.5	.000396	
333.7	1310	.000363	.000032
333.7	2710	.000295	.000038
333.6	3640	.000264	.00004
333.7	4890	.000247	.000048
333.7	6080	.000232	.000054
333.7	7500	.000194	.000052
333.7	8410	.000173	.00005

System: carbon dioxide + trihexyl(tetradecyl)phosphonium bis(trifluoromethylsulfonyl)imide; phases: Liquid, Gas
Property: Mole fraction of carbon dioxide (Liquid); method: pressure drop on dissolution
Temperature, K	Pressure, kPa	Mole fraction of carbon dioxide	uncertainty
298.1	1570	.52	.01
298.1	2920	.68	.01
298.1	4270	.79	.02
298.1	5770	.85	.02
298.2	1600	.53	.01
298.2	2930	.7	.01
298.2	4280	.79	.02
298.2	5790	.85	.02
313.2	1670	.46	.01
313.2	2990	.6	.01
313.2	4370	.69	.02
313.2	5750	.77	.02
313.2	7290	.83	.02
313.2	1680	.47	.01
313.2	3070	.59	.02
313.2	4500	.68	.02
313.2	5900	.76	.02
313.2	7310	.82	.02
333.1	1650	.39	.01
333.1	3090	.52	.02
333.1	4500	.6	.02
333.1	5920	.68	.02
333.1	7280	.75	.02
333.1	1720	.37	.01
333.1	3170	.51	.02
333.1	4590	.61	.02
333.2	6030	.7	.02
333.1	7290	.76	.02

System: carbon dioxide + trihexyl(tetradecyl)phosphonium bis(trifluoromethylsulfonyl)imide; phases: Liquid, Gas
Property: Molar volume, m3/mol (Liquid); method: pressure drop on dissolution
Temperature, K	Pressure, kPa	Molar volume, m3/mol	uncertainty
298.1	99.9	.000754	
298.1	1570	.000372	.000056
298.1	2920	.000259	.000048
298.1	4270	.00018	.000034
298.1	5770	.000139	.000032
298.2	99.1	.000741	
298.2	1600	.000359	.000054
298.2	2930	.000241	.000042
298.2	4280	.000173	.000032
298.2	5790	.000132	.00003
313.2	99.4	.000747	
313.2	1670	.000421	.000076
313.2	2990	.000321	.000074
313.2	4370	.000258	.00007
313.2	5750	.000202	.00006
313.2	7290	.000155	.000052
313.2	99.1	.000763	
313.2	1680	.000426	.000082
313.2	3070	.000334	.000086
313.2	4500	.000274	.000086
313.2	5900	.000214	.000074
313.2	7310	.000164	.000062
333.1	99.2	.000762	
333.1	1650	.000479	.000076
333.1	3090	.000384	.000082
333.1	4500	.000329	.000088
333.1	5920	.000267	.00008
333.1	7280	.000216	.000068
333.1	99.3	.000754	
333.1	1720	.000485	.0001
333.1	3170	.000394	.00011
333.1	4590	.00032	.000106
333.2	6030	.000259	.000094
333.1	7290	.000208	.000078

System: carbon dioxide + 1-(2-hydroxyethyl)-3-methylimidazolium trifluoroacetate; phases: Liquid, Gas
Property: Mole fraction of carbon dioxide (Liquid); method: pressure drop on dissolution
Temperature, K	Pressure, kPa	Mole fraction of carbon dioxide	uncertainty
299.2	1190	.26	.01
299.3	2400	.38	.01
299.4	3840	.5	.02
299.4	5310	.58	.02
313.8	1310	.13	.01
313	2460	.24	.01
313.1	3900	.34	.02
313.4	5290	.46	.02
313.4	6670	.54	.02
314.2	8120	.63	.02
333.6	1140	.09	.01
333.5	2490	.22	.01
333.6	3970	.32	.02
333.5	5370	.41	.02
333.4	6860	.49	.02
333.6	8230	.61	.02

System: carbon dioxide + 1-(2-hydroxyethyl)-3-methylimidazolium trifluoroacetate; phases: Liquid, Gas
Property: Molar volume, m3/mol (Liquid); method: pressure drop on dissolution
Temperature, K	Pressure, kPa	Molar volume, m3/mol	uncertainty
299.2	99.5	.000181	
299.2	1190	.000136	.000006
299.3	2400	.000118	.000008
299.4	3840	.000098	.000008
299.4	5310	.000087	.00001
313.3	98.9	.00018	
313.8	1310	.000162	.000008
313	2460	.000145	.00001
313.1	3900	.000129	.000012
313.4	5290	.000109	.000012
313.4	6670	.000096	.000014
314.2	8120	.00008	.000014
333.6	98.4	.000187	
333.6	1140	.000172	.000008
333.5	2490	.000151	.00001
333.6	3970	.000134	.000012
333.5	5370	.000119	.000014
333.4	6860	.000106	.000014
333.6	8230	.000082	.000012

System: carbon dioxide + 1-hexyl-3-methylimidazolium trifluoromethanesulfonate; phases: Liquid, Gas
Property: Mole fraction of carbon dioxide (Liquid); method: pressure drop on dissolution
Temperature, K	Pressure, kPa	Mole fraction of carbon dioxide	uncertainty
298.1	1200	.33	.01
298.2	2310	.47	.01
298.3	3550	.6	.02
298.4	4990	.68	.02
298.2	5960	.76	.02
313.1	1040	.05	.01
313.1	2370	.24	.01
313.1	3290	.3	.02
313.1	4350	.43	.02
313.1	5930	.49	.02
313.1	8020	.6	.02

System: carbon dioxide + 1-hexyl-3-methylimidazolium trifluoromethanesulfonate; phases: Liquid, Gas
Property: Molar volume, m3/mol (Liquid); method: pressure drop on dissolution
Temperature, K	Pressure, kPa	Molar volume, m3/mol	uncertainty
297.8	98.8	.00027	
298.1	1200	.000189	.000014
298.2	2310	.000155	.000016
298.3	3550	.000124	.000016
298.4	4990	.000105	.000016
298.2	5960	.000086	.000014
313.1	98	.000268	
313.1	1040	.000262	.00002
313.1	2370	.000218	.000026
313.1	3290	.000205	.00003
313.1	4350	.000173	.00003
313.1	5930	.000163	.000038
313.1	8020	.000134	.000046
