Measured thermophysical data. Synthesis and Thermophysical Properties of Imidazolium-Based Bronsted Acidic Ionic Liquids
Source: J. Chem. Eng. Data, 2014, 10.1021/je400243j
Compound 1: 1-methyl-3-(3-sulfopropyl)-imidazolium hydrogensulfate, C7H14N2O7S2, purity 99%
Compound 2: 1-butyl-3-(3-sulfopropyl)-imidazolium hydrogensulfate, C10H20N2O7S2, purity 99%
Compound 3: 1-methyl-3-(4-sulfobutyl)-imidazolium hydrogensulfate, C8H16N2O7S2, purity 99%
Compound 4: 1-butyl-3-(4-sulfobutyl)-imidazolium hydrogensulfate, C11H22N2O7S2, purity 99%

System: 1-methyl-3-(3-sulfopropyl)-imidazolium hydrogensulfate; phases: Liquid
Fixed: Pressure, kPa = 101.325
Property: Mass density, kg/m3 (Liquid); method: Vibrating tube method
Temperature, K	Mass density, kg/m3	uncertainty
293.15	1501.7	.3

System: 1-methyl-3-(3-sulfopropyl)-imidazolium hydrogensulfate; phases: Liquid
Fixed: Pressure, kPa = 101.325
Property: Viscosity, Pa*s (Liquid); method: Concentric cylinders viscometry
Temperature, K	Viscosity, Pa*s	uncertainty
293.15	1.296	.005184

System: 1-butyl-3-(3-sulfopropyl)-imidazolium hydrogensulfate; phases: Liquid
Fixed: Pressure, kPa = 101.325
Property: Mass density, kg/m3 (Liquid); method: Vibrating tube method
Temperature, K	Mass density, kg/m3	uncertainty
293.15	1346.9	.3

System: 1-butyl-3-(3-sulfopropyl)-imidazolium hydrogensulfate; phases: Liquid
Fixed: Pressure, kPa = 101.325
Property: Viscosity, Pa*s (Liquid); method: Concentric cylinders viscometry
Temperature, K	Viscosity, Pa*s	uncertainty
293.15	1	.004

System: 1-methyl-3-(4-sulfobutyl)-imidazolium hydrogensulfate; phases: Liquid
Fixed: Pressure, kPa = 101.325
Property: Mass density, kg/m3 (Liquid); method: Vibrating tube method
Temperature, K	Mass density, kg/m3	uncertainty
293.15	1464.7	.3

System: 1-methyl-3-(4-sulfobutyl)-imidazolium hydrogensulfate; phases: Liquid
Fixed: Pressure, kPa = 101.325
Property: Viscosity, Pa*s (Liquid); method: Concentric cylinders viscometry
Temperature, K	Viscosity, Pa*s	uncertainty
293.15	1.427	.005708

System: 1-butyl-3-(4-sulfobutyl)-imidazolium hydrogensulfate; phases: Liquid
Fixed: Pressure, kPa = 101.325
Property: Mass density, kg/m3 (Liquid); method: Vibrating tube method
Temperature, K	Mass density, kg/m3	uncertainty
293.15	1361.1	.3

System: 1-butyl-3-(4-sulfobutyl)-imidazolium hydrogensulfate; phases: Liquid
Fixed: Pressure, kPa = 101.325
Property: Viscosity, Pa*s (Liquid); method: Concentric cylinders viscometry
Temperature, K	Viscosity, Pa*s	uncertainty
293.15	1.592	.006368
