Measured thermophysical data. Determination of the Molar Enthalpy of Solution for Ionic Liquid [C5mim][OAc](1-pentyl-3-methylimidazolium acetate) in the Temperature Range from 288.15 to 308.15 K
Source: J. Chem. Eng. Data, 2014, 10.1021/je4010432
Compound 1: water, H2O
Compound 2: 1-methyl-3-pentylimidazolium acetate, C11H20N2O2, purity 99%

System: water + 1-methyl-3-pentylimidazolium acetate; phases: Liquid
Fixed: Pressure, kPa = 100
Property: Molar enthalpy of solution, kJ/mol (Liquid); method: Isoperibol calorimetry
Temperature, K	Molality, mol/kg of 1-methyl-3-pentylimidazolium acetate	Molar enthalpy of solution, kJ/mol	uncertainty
288.15	.01585	51.93	
288.15	.02167	51.72	
288.15	.02339	51.63	
288.15	.02666	51.49	
288.15	.02887	51.38	
288.15	.0315	51.24	
288.15	.03438	51.13	
288.15	.03559	51.06	
288.15	.03791	50.92	
288.15	.04064	50.82	
288.15	.04459	50.61	
288.15	.04663	50.48	
293.15	.01827	50.21	
293.15	.02166	50.14	
293.15	.0235	50.07	
293.15	.02606	49.98	
293.15	.02852	49.85	
293.15	.03258	49.63	
293.15	.03529	49.53	
293.15	.03762	49.41	
293.15	.03926	49.3	
293.15	.04188	49.17	
293.15	.04499	49.03	
293.15	.04657	48.96	
298.15	.01996	49.1	
298.15	.02598	48.81	
298.15	.02706	48.76	
298.15	.02938	48.65	
298.15	.03181	48.53	
298.15	.03484	48.39	
298.15	.03658	48.31	
298.15	.03789	48.24	
298.15	.04088	48.1	
298.15	.04251	48.02	
298.15	.04541	47.89	
298.15	.05018	47.66	
303.15	.01943	48.02	
303.15	.02114	47.95	
303.15	.02475	47.84	
303.15	.02553	47.7	
303.15	.02906	47.58	
303.15	.03111	47.43	
303.15	.03382	47.3	
303.15	.03685	47.17	
303.15	.04078	47.03	
303.15	.04273	46.87	
303.15	.04498	46.9	
303.15	.05247	46.48	
308.15	.0209	46.76	
308.15	.02358	46.67	
308.15	.026	46.56	
308.15	.02808	46.48	
308.15	.03067	46.31	
308.15	.03242	46.27	
308.15	.03502	46.07	
308.15	.03807	45.93	
308.15	.0402	45.82	
308.15	.04223	45.7	
308.15	.04583	45.51	
308.15	.04985	45.39	
