Measured thermophysical data. Apparent Molar Volumes and Expansivities of Ionic Liquids Based on N-Alkyl-N-methylmorpholinium Cations in Acetonitrile
Source: J. Chem. Eng. Data, 2014, 10.1021/je400790d
Compound 1: acetonitrile, C2H3N, purity 99.9%
Compound 2: N-ethyl-N-methylmorpholinium bis(trifluoromethanesulfonyl)imide, C9H16F6N2O5S2
Compound 3: N-butyl-N-methylmorpholinium bis(trifluoromethanesulfonyl)imide, C11H20F6N2O5S2
Compound 4: N-decyl-N-methylmorpholinium bis(trifluoromethanesulfonyl)-imide, C17H32F6N2O5S2
Compound 5: N-methyl-N-octylmorpholinium bis(trifluoromethanesulfonyl)imide, C15H28F6N2O5S2

System: acetonitrile + N-ethyl-N-methylmorpholinium bis(trifluoromethanesulfonyl)imide; phases: Liquid
Fixed: Pressure, kPa = 100
Property: Mass density, kg/m3 (Liquid); method: Vibrating tube method
Molality, mol/kg of N-ethyl-N-methylmorpholinium bis(trifluoromethanesulfonyl)imide	Temperature, K	Mass density, kg/m3	uncertainty
.009434	298.15	778.145	.08
.01654	298.15	779.333	.08
.02652	298.15	780.985	.08
.03788	298.15	782.85	.08
.05256	298.15	785.24	.08
.06858	298.15	787.81	.08
.08695	298.15	790.74	.08
.1078	298.15	794.037	.08
.1316	298.15	797.714	.08
.1634	298.15	802.54	.08
.009434	303.15	772.716	.08
.01654	303.15	773.905	.08
.02652	303.15	775.56	.08
.03788	303.15	777.429	.08
.05256	303.15	779.815	.08
.06858	303.15	782.385	.08
.08695	303.15	785.318	.08
.1078	303.15	788.611	.08
.1316	303.15	792.286	.08
.1634	303.15	797.108	.08
.009434	308.15	767.263	.08
.01654	308.15	768.452	.08
.02652	308.15	770.11	.08
.03788	308.15	771.974	.08
.05256	308.15	774.365	.08
.06858	308.15	776.944	.08
.08695	308.15	779.877	.08
.1078	308.15	783.146	.08
.1316	308.15	786.836	.08
.1634	308.15	791.661	.08
.009434	313.15	761.774	.08
.01654	313.15	762.964	.08
.02652	313.15	764.619	.08
.03788	313.15	766.483	.08
.05256	313.15	768.876	.08
.06858	313.15	771.442	.08
.08695	313.15	774.373	.08
.1078	313.15	777.657	.08
.1316	313.15	781.334	.08
.1634	313.15	786.155	.08
.009434	318.15	756.247	.08
.01654	318.15	757.44	.08
.02652	318.15	759.113	.08
.03788	318.15	760.976	.08
.05256	318.15	763.372	.08
.06858	318.15	765.945	.08
.08695	318.15	768.855	.08
.1078	318.15	772.158	.08
.1316	318.15	775.832	.08
.1634	318.15	780.648	.08

System: acetonitrile + N-butyl-N-methylmorpholinium bis(trifluoromethanesulfonyl)imide; phases: Liquid
Fixed: Pressure, kPa = 100
Property: Mass density, kg/m3 (Liquid); method: Vibrating tube method
Molality, mol/kg of N-butyl-N-methylmorpholinium bis(trifluoromethanesulfonyl)imide	Temperature, K	Mass density, kg/m3	uncertainty
.00879	298.15	778.005	.08
.01653	298.15	779.272	.08
.02761	298.15	781.074	.08
.03802	298.15	782.759	.08
.05226	298.15	785.036	.08
.06737	298.15	787.436	.08
.08642	298.15	790.427	.08
.1101	298.15	794.115	.08
.13	298.15	797.144	.08
.1623	298.15	802.019	.08
.00879	303.15	772.575	.08
.01653	303.15	773.845	.08
.02761	303.15	775.647	.08
.03802	303.15	777.331	.08
.05226	303.15	779.607	.08
.06737	303.15	781.999	.08
.08642	303.15	784.994	.08
.1101	303.15	788.679	.08
.13	303.15	791.717	.08
.1623	303.15	796.577	.08
.00879	308.15	767.12	.08
.01653	308.15	768.39	.08
.02761	308.15	770.192	.08
.03802	308.15	771.873	.08
.05226	308.15	774.153	.08
.06737	308.15	776.549	.08
.08642	308.15	779.543	.08
.1101	308.15	783.226	.08
.13	308.15	786.253	.08
.1623	308.15	791.135	.08
.00879	313.15	761.631	.08
.01653	313.15	762.901	.08
.02761	313.15	764.703	.08
.03802	313.15	766.385	.08
.05226	313.15	768.667	.08
.06737	313.15	771.064	.08
.08642	313.15	774.057	.08
.1101	313.15	777.74	.08
.13	313.15	780.771	.08
.1623	313.15	785.644	.08
.00879	318.15	756.103	.08
.01653	318.15	757.375	.08
.02761	318.15	759.178	.08
.03802	318.15	760.862	.08
.05226	318.15	763.147	.08
.06737	318.15	765.551	.08
.08642	318.15	768.552	.08
.1101	318.15	772.235	.08
.13	318.15	775.257	.08
.1623	318.15	780.136	.08

System: acetonitrile + N-decyl-N-methylmorpholinium bis(trifluoromethanesulfonyl)-imide; phases: Liquid
Fixed: Pressure, kPa = 100
Property: Mass density, kg/m3 (Liquid); method: Vibrating tube method
Molality, mol/kg of N-decyl-N-methylmorpholinium bis(trifluoromethanesulfonyl)-imide	Temperature, K	Mass density, kg/m3	uncertainty
.00864	298.15	778.032	.08
.01594	298.15	779.27	.08
.02524	298.15	780.834	.08
.03724	298.15	782.84	.08
.05062	298.15	785.053	.08
.06563	298.15	787.516	.08
.0868	298.15	790.942	.08
.1038	298.15	793.66	.08
.1292	298.15	797.655	.08
.1576	298.15	802.048	.08
.00864	303.15	772.604	.08
.01594	303.15	773.845	.08
.02524	303.15	775.414	.08
.03724	303.15	777.423	.08
.05062	303.15	779.637	.08
.06563	303.15	782.098	.08
.0868	303.15	785.532	.08
.1038	303.15	788.255	.08
.1292	303.15	792.26	.08
.1576	303.15	796.655	.08
.00864	308.15	767.15	.08
.01594	308.15	768.392	.08
.02524	308.15	769.962	.08
.03724	308.15	771.972	.08
.05062	308.15	774.191	.08
.06563	308.15	776.655	.08
.0868	308.15	780.089	.08
.1038	308.15	782.815	.08
.1292	308.15	786.817	.08
.1576	308.15	791.206	.08
.00864	313.15	761.661	.08
.01594	313.15	762.906	.08
.02524	313.15	764.479	.08
.03724	313.15	766.49	.08
.05062	313.15	768.712	.08
.06563	313.15	771.18	.08
.0868	313.15	774.615	.08
.1038	313.15	777.346	.08
.1292	313.15	781.35	.08
.1576	313.15	785.752	.08
.00864	318.15	756.135	.08
.01594	318.15	757.382	.08
.02524	318.15	758.957	.08
.03724	318.15	760.974	.08
.05062	318.15	763.2	.08
.06563	318.15	765.666	.08
.0868	318.15	769.109	.08
.1038	318.15	771.842	.08
.1292	318.15	775.861	.08
.1576	318.15	780.271	.08

System: acetonitrile + N-methyl-N-octylmorpholinium bis(trifluoromethanesulfonyl)imide; phases: Liquid
Fixed: Pressure, kPa = 100
Property: Mass density, kg/m3 (Liquid); method: Vibrating tube method
Molality, mol/kg of N-methyl-N-octylmorpholinium bis(trifluoromethanesulfonyl)imide	Temperature, K	Mass density, kg/m3	uncertainty
.00838	298.15	777.974	.08
.01564	298.15	779.195	.08
.02472	298.15	780.71	.08
.03714	298.15	782.766	.08
.05106	298.15	785.044	.08
.06653	298.15	787.549	.08
.08502	298.15	790.507	.08
.1052	298.15	793.696	.08
.1294	298.15	797.448	.08
.1609	298.15	802.25	.08
.00838	303.15	772.547	.08
.01564	303.15	773.77	.08
.02472	303.15	775.289	.08
.03714	303.15	777.348	.08
.05106	303.15	779.63	.08
.06653	303.15	782.14	.08
.08502	303.15	785.101	.08
.1052	303.15	788.29	.08
.1294	303.15	792.039	.08
.1609	303.15	796.85	.08
.00838	308.15	767.094	.08
.01564	308.15	768.318	.08
.02472	308.15	769.839	.08
.03714	308.15	771.899	.08
.05106	308.15	774.185	.08
.06653	308.15	776.698	.08
.08502	308.15	779.664	.08
.1052	308.15	782.856	.08
.1294	308.15	786.61	.08
.1609	308.15	791.423	.08
.00838	313.15	761.606	.08
.01564	313.15	762.833	.08
.02472	313.15	764.357	.08
.03714	313.15	766.421	.08
.05106	313.15	768.71	.08
.06653	313.15	771.222	.08
.08502	313.15	774.189	.08
.1052	313.15	777.385	.08
.1294	313.15	781.149	.08
.1609	313.15	785.97	.08
.00838	318.15	756.08	.08
.01564	318.15	757.311	.08
.02472	318.15	758.838	.08
.03714	318.15	760.906	.08
.05106	318.15	763.198	.08
.06653	318.15	765.716	.08
.08502	318.15	768.695	.08
.1052	318.15	771.901	.08
.1294	318.15	775.667	.08
.1609	318.15	780.493	.08
