Measured thermophysical data. Boiling Points of Short-Chain Partial Acylglycerols and Tocopherols at Low Pressures by the Differential Scanning Calorimetry Technique
Source: J. Chem. Eng. Data, 2014, 10.1021/je401080p
Compound 1: glycerol 1,3-dicaprylate, C19H36O5, purity 99%
Compound 2: 2-hydroxypropane-1,3-diyl bis(decanoate), C23H44O5, purity 99%
Compound 3: decanoic acid, 2,3-dihydroxypropyl ester, C13H26O4, purity 99%
Compound 4: 2,3-dihydroxypropyl octanoate, C11H22O4, purity 99%
Compound 5: (+)-.alpha.-tocopherol, C29H50O2, purity 99%
Compound 6: (R,R,R)-.beta.-tocopherol, C28H48O2, purity 99%
Compound 7: .omega.-tocopherol, C27H46O2, purity 99%
Compound 8: (R,R,R)-.gamma.-tocopherol, C28H48O2, purity 99%

System: glycerol 1,3-dicaprylate; phases: Liquid, Gas
Property: Vapor or sublimation pressure, kPa (Liquid); method: Rate of evaporation
Temperature, K	Vapor or sublimation pressure, kPa	uncertainty
511.93	1.1	.05
517.23	1.5	.05
529.42	2.5	.05
533.36	3.1	.08
538.14	3.6	.05
541.18	4.3	.06
552.59	6.8	.07
560.35	10.1	.12
567.73	13.2	.24

System: 2-hydroxypropane-1,3-diyl bis(decanoate); phases: Liquid, Gas
Property: Vapor or sublimation pressure, kPa (Liquid); method: Rate of evaporation
Temperature, K	Vapor or sublimation pressure, kPa	uncertainty
535.66	1	.05
538.32	1.1	.05
544.06	1.5	.05
554.25	2.5	.05
558.74	3.1	.08
562.37	3.6	.05
565.39	4.3	.06

System: decanoic acid, 2,3-dihydroxypropyl ester; phases: Liquid, Gas
Property: Vapor or sublimation pressure, kPa (Liquid); method: Rate of evaporation
Temperature, K	Vapor or sublimation pressure, kPa	uncertainty
478.69	1.1	.05
482.79	1.5	.05
491.77	2.5	.05
497.13	3.1	.08
498.31	3.6	.05
501.31	4.3	.06
511.21	6.8	.07
519.1	10.1	.12
524.41	13.2	.24

System: 2,3-dihydroxypropyl octanoate; phases: Liquid, Gas
Property: Vapor or sublimation pressure, kPa (Liquid); method: Rate of evaporation
Temperature, K	Vapor or sublimation pressure, kPa	uncertainty
462.66	1.1	.05
468.91	1.5	.05
479.02	2.5	.05
484.24	3.1	.08
485.63	3.6	.05
490.19	4.3	.06
498.91	6.8	.07
507.96	10.1	.12
514.64	13.2	.24

System: (+)-.alpha.-tocopherol; phases: Liquid, Gas
Property: Boiling temperature at pressure P, K (Liquid); method: Rate of evaporation
Pressure, kPa	Boiling temperature at pressure P, K	uncertainty
1.1	549.26	4.03

System: (R,R,R)-.beta.-tocopherol; phases: Liquid, Gas
Property: Boiling temperature at pressure P, K (Liquid); method: DSC
Pressure, kPa	Boiling temperature at pressure P, K	uncertainty
1.1	552.73	.87

System: .omega.-tocopherol; phases: Liquid, Gas
Property: Boiling temperature at pressure P, K (Liquid); method: DSC
Pressure, kPa	Boiling temperature at pressure P, K	uncertainty
1.1	552.6	3.1

System: (R,R,R)-.gamma.-tocopherol; phases: Liquid, Gas
Property: Boiling temperature at pressure P, K (Liquid); method: DSC
Pressure, kPa	Boiling temperature at pressure P, K	uncertainty
1.1	547.85	2.02
