Measured thermophysical data. Volumetric and Viscometric Studies on Saccharide-Disodium Tetraborate (Borax) Interactions in Aqueous Solutions
Source: J. Chem. Eng. Data, 2013, 10.1021/je400264a
Compound 1: xylose, C5H10O5, purity 99%
Compound 2: D-(-)-arabinose, C5H10O5, purity 99%
Compound 3: D-(-)-ribose, C5H10O5, purity 99%
Compound 4: L-1,3,4,5,6-pentahydroxyhexan-2-one, C6H12O6, purity 98%
Compound 5: levulose, C6H12O6, purity 99%
Compound 6: D-(+)-galactose, C6H12O6, purity 98%
Compound 7: D(+)-glucose, C6H12O6, purity 99%
Compound 8: D-(+)-mannose (mixture of anomers), C6H12O6, purity 99%
Compound 9: D-glucose, 4-O-.beta.-D-glucopyranosyl-, C12H22O11, purity 98%
Compound 10: D-sucrose, C12H22O11, purity 99%
Compound 11: melibiose, C12H22O11, purity 99%
Compound 12: D-(+)-lactose monohydrate, C12H24O12, purity 99%
Compound 13: D-(+)-maltose monohydrate, C12H24O12, purity 95%
Compound 14: O-.alpha.-glucopyranosyl-(1,3)-O-.beta.-D- fructofuranosyl-(2,1)-.alpha.-D-glucopyranoside, C18H32O16, purity 99%
Compound 15: trehalose, dihydrate, C12H26O13, purity 99%
Compound 16: D-raffinose, pentahydrate, C18H42O21, purity 99%
Compound 17: sodium tetraborate, B4Na2O7, purity 99%
Compound 18: water, H2O, purity 98%

System: xylose + sodium tetraborate + water; phases: Liquid
Fixed: Pressure, kPa = 101
Property: Mass density, kg/m3 (Liquid); method: Vibrating tube method
Temperature, K	Solvent: Molality, mol/kg of sodium tetraborate	Molality, mol/kg of xylose	Mass density, kg/m3	uncertainty
288.15	.05	0	1009.275	.0037
288.15	.05	.05475	1011.303	.0037
288.15	.05	.07445	1012.03	.0037
288.15	.05	.09686	1012.856	.0037
288.15	.05	.13472	1014.248	.0037
288.15	.05	.15522	1015.001	.0037
298.15	.05	0	1006.923	.0037
298.15	.05	.05475	1008.872	.0037
298.15	.05	.07445	1009.572	.0037
298.15	.05	.09686	1010.365	.0037
298.15	.05	.13472	1011.702	.0037
298.15	.05	.15522	1012.423	.0037
308.15	.05	0	1003.768	.0037
308.15	.05	.05475	1005.64	.0037
308.15	.05	.07445	1006.311	.0037
308.15	.05	.09686	1007.074	.0037
308.15	.05	.13472	1008.36	.0037
308.15	.05	.15522	1009.054	.0037
318.15	.05	0	999.796	.0037
318.15	.05	.05475	1001.602	.0037
318.15	.05	.07445	1002.25	.0037
318.15	.05	.09686	1002.986	.0037
318.15	.05	.13472	1004.226	.0037
318.15	.05	.15522	1004.895	.0037
288.15	.1	0	1018.646	.0037
288.15	.1	.04318	1020.062	.0037
288.15	.1	.07681	1021.161	.0037
288.15	.1	.10172	1021.973	.0037
288.15	.1	.13338	1023.003	.0037
288.15	.1	.15215	1023.61	.0037
298.15	.1	0	1016.136	.0037
298.15	.1	.04318	1017.481	.0037
298.15	.1	.07681	1018.526	.0037
298.15	.1	.10172	1019.299	.0037
298.15	.1	.13338	1020.28	.0037
298.15	.1	.15215	1020.86	.0037
308.15	.1	0	1012.828	.0037
308.15	.1	.04318	1014.111	.0037
308.15	.1	.07681	1015.108	.0037
308.15	.1	.10172	1015.845	.0037
308.15	.1	.13338	1016.781	.0037
308.15	.1	.15215	1017.336	.0037
318.15	.1	0	1008.736	.0037
318.15	.1	.04318	1009.956	.0037
318.15	.1	.07681	1010.903	.0037
318.15	.1	.10172	1011.602	.0037
318.15	.1	.13338	1012.489	.0037
318.15	.1	.15215	1013.013	.0037
298.15	.12	0	1019.668	.0037
298.15	.12	.06698	1021.675	.0037
298.15	.12	.07575	1021.937	.0037
298.15	.12	.09953	1022.646	.0037
298.15	.12	.13388	1023.67	.0037
298.15	.12	.16004	1024.449	.0037
308.15	.12	0	1016.334	.0037
308.15	.12	.06698	1018.209	.0037
308.15	.12	.07575	1018.455	.0037
308.15	.12	.09953	1019.119	.0037
308.15	.12	.13388	1020.077	.0037
308.15	.12	.16004	1020.805	.0037
318.15	.12	0	1012.205	.0037
318.15	.12	.06698	1013.957	.0037
318.15	.12	.07575	1014.186	.0037
318.15	.12	.09953	1014.807	.0037
318.15	.12	.13388	1015.702	.0037
318.15	.12	.16004	1016.385	.0037
298.15	.15	0	1025.014	.0037
298.15	.15	.05407	1026.53	.0037
298.15	.15	.07105	1027.007	.0037
298.15	.15	.10316	1027.907	.0037
298.15	.15	.13981	1028.936	.0037
298.15	.15	.15003	1029.222	.0037
308.15	.15	0	1021.572	.0037
308.15	.15	.05407	1022.951	.0037
308.15	.15	.07105	1023.384	.0037
308.15	.15	.10316	1024.201	.0037
308.15	.15	.13981	1025.13	.0037
308.15	.15	.15003	1025.388	.0037
318.15	.15	0	1017.375	.0037
318.15	.15	.05407	1018.629	.0037
318.15	.15	.07105	1019.023	.0037
318.15	.15	.10316	1019.767	.0037
318.15	.15	.13981	1020.616	.0037
318.15	.15	.15003	1020.855	.0037

System: xylose + sodium tetraborate + water; phases: Liquid
Fixed: Pressure, kPa = 101
Property: Viscosity, Pa*s (Liquid); method: Capillary tube (Ostwald; Ubbelohde) method
Temperature, K	Solvent: Molality, mol/kg of sodium tetraborate	Molality, mol/kg of xylose	Viscosity, Pa*s	uncertainty
288.15	.05	0	.0011876	.000002
288.15	.05	.05475	.0012542	.000002
288.15	.05	.07445	.0012785	.000002
288.15	.05	.09686	.0013055	.000002
288.15	.05	.13472	.001351	.000002
288.15	.05	.15522	.0013754	.000002
298.15	.05	0	.0009284	.000002
298.15	.05	.05475	.0009767	.000002
298.15	.05	.07445	.0009939	.000002
298.15	.05	.09686	.001014	.000002
298.15	.05	.13472	.0010465	.000002
298.15	.05	.15522	.0010641	.000002
308.15	.05	0	.0007526	.000002
308.15	.05	.05475	.0007905	.000002
308.15	.05	.07445	.0008039	.000002
308.15	.05	.09686	.0008194	.000002
308.15	.05	.13472	.0008449	.000002
308.15	.05	.15522	.0008587	.000002
318.15	.05	0	.0006216	.000002
318.15	.05	.05475	.0006501	.000002
318.15	.05	.07445	.0006602	.000002
318.15	.05	.09686	.0006718	.000002
318.15	.05	.13472	.0006911	.000002
318.15	.05	.15522	.0007015	.000002
288.15	.1	0	.0012451	.000002
288.15	.1	.04318	.0013029	.000002
288.15	.1	.07681	.0013474	.000002
288.15	.1	.10172	.0013806	.000002
288.15	.1	.13338	.0014217	.000002
288.15	.1	.15215	.0014461	.000002
298.15	.1	0	.0009681	.000002
298.15	.1	.04318	.0010114	.000002
298.15	.1	.07681	.001045	.000002
298.15	.1	.10172	.0010694	.000002
298.15	.1	.13338	.0011003	.000002
298.15	.1	.15215	.0011186	.000002
308.15	.1	0	.0007823	.000002
308.15	.1	.04318	.0008143	.000002
308.15	.1	.07681	.000839	.000002
308.15	.1	.10172	.0008575	.000002
308.15	.1	.13338	.0008802	.000002
308.15	.1	.15215	.0008935	.000002
298.15	.12	0	.0009845	.000002
298.15	.12	.06698	.0010547	.000002
298.15	.12	.07575	.001064	.000002
298.15	.12	.09953	.001089	.000002
298.15	.12	.13388	.0011242	.000002
298.15	.12	.16004	.001151	.000002
308.15	.12	0	.0007945	.000002
308.15	.12	.06698	.0008472	.000002
308.15	.12	.07575	.0008538	.000002
308.15	.12	.09953	.0008723	.000002
308.15	.12	.13388	.0008987	.000002
308.15	.12	.16004	.0009187	.000002
318.15	.12	0	.0006626	.000002
318.15	.12	.06698	.0007027	.000002
318.15	.12	.07575	.000708	.000002
318.15	.12	.09953	.0007221	.000002
318.15	.12	.13388	.0007424	.000002
318.15	.12	.16004	.0007576	.000002
318.15	.1	0	.0006508	.000002
318.15	.1	.04318	.0006749	.000002
318.15	.1	.07681	.0006935	.000002
318.15	.1	.10172	.0007072	.000002
318.15	.1	.13338	.0007245	.000002
318.15	.1	.15215	.0007346	.000002
298.15	.15	0	.0010081	.000002
298.15	.15	.05407	.0010702	.000002
298.15	.15	.07105	.0010897	.000002
298.15	.15	.10316	.0011257	.000002
298.15	.15	.13981	.0011669	.000002
298.15	.15	.15003	.0011783	.000002
308.15	.15	0	.0008122	.000002
308.15	.15	.05407	.0008576	.000002
308.15	.15	.07105	.0008717	.000002
308.15	.15	.10316	.0008985	.000002
308.15	.15	.13981	.0009283	.000002
308.15	.15	.15003	.0009367	.000002
318.15	.15	0	.0006806	.000002
318.15	.15	.05407	.0007149	.000002
318.15	.15	.07105	.0007258	.000002
318.15	.15	.10316	.0007461	.000002
318.15	.15	.13981	.0007688	.000002
318.15	.15	.15003	.0007751	.000002

System: sodium tetraborate + water + D-(-)-arabinose; phases: Liquid
Fixed: Pressure, kPa = 101
Property: Mass density, kg/m3 (Liquid); method: Vibrating tube method
Temperature, K	Solvent: Molality, mol/kg of sodium tetraborate	Molality, mol/kg of D-(-)-arabinose	Mass density, kg/m3	uncertainty
288.15	.05	.05261	1011.414	.0037
288.15	.05	.07191	1012.197	.0037
288.15	.05	.09427	1013.101	.0037
288.15	.05	.13549	1014.764	.0037
298.15	.05	.05261	1008.971	.0037
298.15	.05	.07191	1009.719	.0037
298.15	.05	.09427	1010.585	.0037
298.15	.05	.13549	1012.175	.0037
308.15	.05	.05261	1005.725	.0037
308.15	.05	.07191	1006.442	.0037
308.15	.05	.09427	1007.269	.0037
308.15	.05	.13549	1008.792	.0037
318.15	.05	.05261	1001.658	.0037
318.15	.05	.07191	1002.338	.0037
318.15	.05	.09427	1003.126	.0037
318.15	.05	.13549	1004.575	.0037
288.15	.1	.05048	1020.491	.0037
288.15	.1	.06912	1021.17	.0037
288.15	.1	.09103	1021.968	.0037
288.15	.1	.13208	1023.458	.0037
298.15	.1	.05048	1017.891	.0037
298.15	.1	.06912	1018.538	.0037
298.15	.1	.09103	1019.296	.0037
298.15	.1	.13208	1020.716	.0037
308.15	.1	.05048	1014.494	.0037
308.15	.1	.06912	1015.108	.0037
308.15	.1	.09103	1015.829	.0037
308.15	.1	.13208	1017.175	.0037
318.15	.1	.05048	1010.304	.0037
318.15	.1	.06912	1010.882	.0037
318.15	.1	.09103	1011.559	.0037
318.15	.1	.13208	1012.826	.0037
298.15	.12	.05644	1021.563	.0037
298.15	.12	.07541	1022.198	.0037
298.15	.12	.10708	1023.254	.0037
298.15	.12	.15886	1024.975	.0037
308.15	.12	.05644	1018.113	.0037
308.15	.12	.07541	1018.71	.0037
308.15	.12	.10708	1019.704	.0037
308.15	.12	.15886	1021.323	.0037
318.15	.12	.05644	1013.859	.0037
318.15	.12	.07541	1014.413	.0037
318.15	.12	.10708	1015.337	.0037
318.15	.12	.15886	1016.846	.0037
298.15	.15	.05914	1026.865	.0037
298.15	.15	.0746	1027.346	.0037
298.15	.15	.08949	1027.809	.0037
298.15	.15	.14141	1029.417	.0037
308.15	.15	.05914	1023.297	.0037
308.15	.15	.0746	1023.745	.0037
308.15	.15	.08949	1024.178	.0037
308.15	.15	.14141	1025.677	.0037
318.15	.15	.05914	1018.972	.0037
318.15	.15	.0746	1019.389	.0037
318.15	.15	.08949	1019.791	.0037
318.15	.15	.14141	1021.193	.0037

System: sodium tetraborate + water + D-(-)-arabinose; phases: Liquid
Fixed: Pressure, kPa = 101
Property: Viscosity, Pa*s (Liquid); method: Capillary tube (Ostwald; Ubbelohde) method
Temperature, K	Solvent: Molality, mol/kg of sodium tetraborate	Molality, mol/kg of D-(-)-arabinose	Viscosity, Pa*s	uncertainty
288.15	.05	.05261	.0012478	.000002
288.15	.05	.07191	.0012693	.000002
288.15	.05	.09427	.001295	.000002
288.15	.05	.13549	.0013418	.000002
298.15	.05	.05261	.0009736	.000002
298.15	.05	.07191	.0009894	.000002
298.15	.05	.09427	.0010081	.000002
298.15	.05	.13549	.0010422	.000002
308.15	.05	.05261	.0007871	.000002
308.15	.05	.07191	.0007998	.000002
308.15	.05	.09427	.0008142	.000002
308.15	.05	.13549	.0008408	.000002
318.15	.05	.05261	.0006466	.000002
318.15	.05	.07191	.0006557	.000002
318.15	.05	.09427	.0006662	.000002
318.15	.05	.13549	.0006854	.000002
288.15	.1	.05046	.0013093	.000002
288.15	.1	.06912	.0013334	.000002
288.15	.1	.09103	.0013608	.000002
288.15	.1	.13208	.0014127	.000002
298.15	.1	.05046	.0010148	.000002
298.15	.1	.06912	.0010315	.000002
298.15	.1	.09103	.0010518	.000002
298.15	.1	.13208	.0010892	.000002
308.15	.1	.05046	.0008179	.000002
308.15	.1	.06912	.0008309	.000002
308.15	.1	.09103	.0008461	.000002
308.15	.1	.13208	.0008744	.000002
318.15	.1	.05046	.0006774	.000002
318.15	.1	.06912	.0006871	.000002
318.15	.1	.09103	.0006986	.000002
318.15	.1	.13208	.0007199	.000002
298.15	.12	.05644	.0010411	.000002
298.15	.12	.07541	.0010601	.000002
298.15	.12	.10708	.0010915	.000002
298.15	.12	.15886	.0011424	.000002
308.15	.12	.05644	.000836	.000002
308.15	.12	.07541	.00085	.000002
308.15	.12	.10708	.000873	.000002
308.15	.12	.15886	.0009103	.000002
318.15	.12	.05644	.0006946	.000002
318.15	.12	.07541	.0007053	.000002
318.15	.12	.10708	.0007232	.000002
318.15	.12	.15886	.000752	.000002
298.15	.15	.05914	.0010716	.000002
298.15	.15	.0773	.0010906	.000002
298.15	.15	.08949	.0011035	.000002
298.15	.15	.14141	.0011576	.000002
308.15	.15	.05914	.0008578	.000002
308.15	.15	.0773	.0008717	.000002
308.15	.15	.08949	.0008809	.000002
308.15	.15	.14141	.0009201	.000002
318.15	.15	.05914	.0007162	.000002
318.15	.15	.0773	.0007269	.000002
318.15	.15	.08949	.0007344	.000002
318.15	.15	.14141	.0007653	.000002

System: D-(-)-ribose + sodium tetraborate + water; phases: Liquid
Fixed: Pressure, kPa = 101
Property: Mass density, kg/m3 (Liquid); method: Vibrating tube method
Temperature, K	Solvent: Molality, mol/kg of sodium tetraborate	Molality, mol/kg of D-(-)-ribose	Mass density, kg/m3	uncertainty
288.15	.05	.04972	1011.236	.0037
288.15	.05	.06903	1011.995	.0037
288.15	.05	.09341	1012.953	.0037
288.15	.05	.12838	1014.323	.0037
298.15	.05	.04972	1008.812	.0037
298.15	.05	.06903	1009.543	.0037
298.15	.05	.09341	1010.467	.0037
298.15	.05	.12838	1011.786	.0037
308.15	.05	.04972	1005.545	.0037
308.15	.05	.06903	1006.234	.0037
308.15	.05	.09341	1007.104	.0037
308.15	.05	.12838	1008.348	.0037
318.15	.05	.04972	1001.453	.0037
318.15	.05	.06903	1002.095	.0037
318.15	.05	.09341	1002.904	.0037
318.15	.05	.12838	1004.062	.0037
288.15	.1	.05039	1020.574	.0037
288.15	.1	.07032	1021.333	.0037
288.15	.1	.09271	1022.185	.0037
288.15	.1	.11939	1023.196	.0037
298.15	.1	.05039	1017.977	.0037
298.15	.1	.07032	1018.701	.0037
298.15	.1	.09271	1019.513	.0037
298.15	.1	.11939	1020.475	.0037
308.15	.1	.05039	1014.566	.0037
308.15	.1	.07032	1015.252	.0037
308.15	.1	.09271	1016.022	.0037
308.15	.1	.11939	1016.939	.0037
318.15	.1	.05048	1010.304	.0037
318.15	.1	.06912	1010.882	.0037
318.15	.1	.09103	1011.559	.0037
318.15	.1	.13208	1012.826	.0037

System: D-(-)-ribose + sodium tetraborate + water; phases: Liquid
Fixed: Pressure, kPa = 101
Property: Viscosity, Pa*s (Liquid); method: Capillary tube (Ostwald; Ubbelohde) method
Temperature, K	Solvent: Molality, mol/kg of sodium tetraborate	Molality, mol/kg of D-(-)-ribose	Viscosity, Pa*s	uncertainty
288.15	.05	.04972	.0012496	.000002
288.15	.05	.06903	.0012731	.000002
288.15	.05	.09341	.0013042	.000002
288.15	.05	.12838	.001346	.000002
298.15	.05	.04972	.0009742	.000002
298.15	.05	.06903	.0009921	.000002
298.15	.05	.09341	.0010143	.000002
298.15	.05	.12838	.001046	.000002
308.15	.05	.04972	.0007862	.000002
308.15	.05	.06903	.0007991	.000002
308.15	.05	.09341	.0008154	.000002
308.15	.05	.12838	.0008388	.000002
318.15	.05	.04972	.0006474	.000002
318.15	.05	.06903	.0006576	.000002
318.15	.05	.09341	.0006701	.000002
318.15	.05	.12838	.0006879	.000002
288.15	.1	.05039	.001314	.000002
288.15	.1	.07032	.0013404	.000002
288.15	.1	.09271	.0013707	.000002
288.15	.1	.11939	.0014065	.000002
298.15	.1	.05039	.0010182	.000002
298.15	.1	.07032	.0010384	.000002
298.15	.1	.09271	.0010607	.000002
298.15	.1	.11939	.0010865	.000002
308.15	.1	.05039	.0008196	.000002
308.15	.1	.07032	.0008342	.000002
308.15	.1	.09271	.0008506	.000002
308.15	.1	.11939	.00087	.000002
318.15	.1	.05039	.0006796	.000002
318.15	.1	.07032	.0006907	.000002
318.15	.1	.09271	.0007033	.000002
318.15	.1	.11939	.0007181	.000002
298.15	.12	.04673	.0010344	.000002
298.15	.12	.07432	.0010637	.000002
298.15	.12	.08871	.0010787	.000002
298.15	.12	.11937	.001111	.000002
308.15	.12	.04673	.0008311	.000002
308.15	.12	.07432	.0008526	.000002
308.15	.12	.08871	.0008636	.000002
308.15	.12	.11937	.0008872	.000002
318.15	.12	.04673	.0006915	.000002
318.15	.12	.07432	.0007085	.000002
318.15	.12	.08871	.0007172	.000002
318.15	.12	.11937	.0007358	.000002
298.15	.15	.04763	.0010626	.000002
298.15	.15	.07189	.0010903	.000002
298.15	.15	.08301	.0011029	.000002
298.15	.15	.12862	.0011541	.000002
308.15	.15	.04763	.0008521	.000002
308.15	.15	.07189	.0008721	.000002
308.15	.15	.08301	.0008813	.000002
308.15	.15	.12862	.0009188	.000002
318.15	.15	.04763	.000711	.000002
318.15	.15	.07189	.0007264	.000002
318.15	.15	.08301	.0007333	.000002
318.15	.15	.12862	.0007619	.000002

System: L-1,3,4,5,6-pentahydroxyhexan-2-one + sodium tetraborate + water; phases: Liquid
Fixed: Pressure, kPa = 101
Property: Mass density, kg/m3 (Liquid); method: Vibrating tube method
Temperature, K	Solvent: Molality, mol/kg of sodium tetraborate	Molality, mol/kg of L-1,3,4,5,6-pentahydroxyhexan-2-one	Mass density, kg/m3	uncertainty
288.15	.05	.05336	1012.019	.0037
288.15	.05	.0765	1013.202	.0037
288.15	.05	.09199	1013.992	.0037
288.15	.05	.10844	1014.827	.0037
298.15	.05	.05336	1009.56	.0037
298.15	.05	.0765	1010.698	.0037
298.15	.05	.09199	1011.459	.0037
298.15	.05	.10844	1012.264	.0037
308.15	.05	.05336	1006.318	.0037
308.15	.05	.0765	1007.417	.0037
308.15	.05	.09199	1008.153	.0037
308.15	.05	.10844	1008.93	.0037
318.15	.05	.05336	1002.255	.0037
318.15	.05	.0765	1003.317	.0037
318.15	.05	.09199	1004.027	.0037
318.15	.05	.10844	1004.779	.0037
288.15	.05	.11823	1015.326	.0037
288.15	.05	.14686	1016.777	.0037
298.15	.05	.11823	1012.744	.0037
298.15	.05	.14686	1014.141	.0037
308.15	.05	.11823	1009.395	.0037
308.15	.05	.14686	1010.743	.0037
318.15	.05	.11823	1005.224	.0037
318.15	.05	.14686	1006.531	.0037
298.15	.12	.05209	1021.927	.0037
298.15	.12	.07355	1022.853	.0037
298.15	.12	.08817	1023.484	.0037
298.15	.12	.10955	1024.401	.0037
298.15	.12	.12544	1025.079	.0037
298.15	.12	.15417	1026.306	.0037
308.15	.12	.05209	1018.493	.0037
308.15	.12	.07355	1019.379	.0037
308.15	.12	.08817	1019.982	.0037
308.15	.12	.10955	1020.86	.0037
308.15	.12	.12544	1021.51	.0037
308.15	.12	.15417	1022.685	.0037
318.15	.12	.05209	1014.288	.0037
318.15	.12	.07355	1015.141	.0037
318.15	.12	.08817	1015.72	.0037
318.15	.12	.10955	1016.563	.0037
318.15	.12	.12544	1017.192	.0037
318.15	.12	.15417	1018.318	.0037
298.15	.15	.05271	1027.164	.0037
298.15	.15	.08194	1028.35	.0037
298.15	.15	.08887	1028.63	.0037
298.15	.15	.1037	1029.23	.0037
298.15	.15	.12448	1030.069	.0037
298.15	.15	.14236	1030.788	.0037
308.15	.15	.05271	1023.611	.0037
308.15	.15	.08194	1024.736	.0037
308.15	.15	.08887	1025.004	.0037
308.15	.15	.1037	1025.574	.0037
308.15	.15	.12448	1026.374	.0037
308.15	.15	.14236	1027.059	.0037
318.15	.15	.05271	1019.32	.0037
318.15	.15	.08194	1020.392	.0037
318.15	.15	.08887	1020.645	.0037
318.15	.15	.1037	1021.189	.0037
318.15	.15	.12448	1021.948	.0037
318.15	.15	.14236	1022.599	.0037

System: L-1,3,4,5,6-pentahydroxyhexan-2-one + sodium tetraborate + water; phases: Liquid
Fixed: Pressure, kPa = 101
Property: Viscosity, Pa*s (Liquid); method: Capillary tube (Ostwald; Ubbelohde) method
Temperature, K	Solvent: Molality, mol/kg of sodium tetraborate	Molality, mol/kg of L-1,3,4,5,6-pentahydroxyhexan-2-one	Viscosity, Pa*s	uncertainty
288.15	.05	.05336	.0012625	.000002
288.15	.05	.0765	.0012946	.000002
288.15	.05	.09199	.0013161	.000002
288.15	.05	.10844	.0013388	.000002
288.15	.05	.11823	.0013522	.000002
288.15	.05	.14686	.0013913	.000002
298.15	.05	.05336	.0009843	.000002
298.15	.05	.0765	.0010082	.000002
298.15	.05	.09199	.0010241	.000002
298.15	.05	.10844	.001041	.000002
298.15	.05	.11823	.001051	.000002
298.15	.05	.14686	.0010802	.000002
308.15	.05	.05336	.0007932	.000002
308.15	.05	.0765	.0008106	.000002
308.15	.05	.09199	.0008221	.000002
308.15	.05	.10844	.0008344	.000002
308.15	.05	.11823	.0008417	.000002
308.15	.05	.14686	.0008629	.000002
318.15	.05	.05336	.0006529	.000002
318.15	.05	.0765	.0006663	.000002
318.15	.05	.09199	.0006752	.000002
318.15	.05	.10844	.0006847	.000002
318.15	.05	.11823	.0006903	.000002
318.15	.05	.14686	.0007066	.000002
288.15	.1	.05379	.0013285	.000002
288.15	.1	.07988	.0013562	.000002
288.15	.1	.08749	.0013848	.000002
288.15	.1	.09764	.0014164	.000002
288.15	.1	.12268	.0014351	.000002
288.15	.1	.14915	.001468	.000002
298.15	.1	.05379	.0010292	.000002
298.15	.1	.07988	.0010485	.000002
298.15	.1	.08749	.0010699	.000002
298.15	.1	.09764	.0010924	.000002
298.15	.1	.12268	.0011073	.000002
298.15	.1	.14915	.0011305	.000002
308.15	.1	.05379	.0008279	.000002
308.15	.1	.07988	.0008422	.000002
308.15	.1	.08749	.0008579	.000002
308.15	.1	.09764	.0008745	.000002
308.15	.1	.12268	.0008852	.000002
308.15	.1	.14915	.0009028	.000002
318.15	.1	.05379	.0006856	.000002
318.15	.1	.07988	.0006966	.000002
318.15	.1	.08749	.0007083	.000002
318.15	.1	.09764	.000721	.000002
318.15	.1	.12268	.0007292	.000002
318.15	.1	.14915	.0007426	.000002
298.15	.12	.05209	.0010472	.000002
298.15	.12	.07355	.0010674	.000002
298.15	.12	.08817	.0010914	.000002
298.15	.12	.10955	.0011068	.000002
298.15	.12	.12544	.0011277	.000002
298.15	.12	.15417	.0011554	.000002
308.15	.12	.05209	.0008408	.000002
308.15	.12	.07355	.0008552	.000002
308.15	.12	.08817	.0008731	.000002
308.15	.12	.10955	.0008844	.000002
308.15	.12	.12544	.0008998	.000002
308.15	.12	.15417	.0009201	.000002
318.15	.12	.05209	.0006978	.000002
318.15	.12	.07355	.000709	.000002
318.15	.12	.08817	.0007226	.000002
318.15	.12	.10955	.0007312	.000002
318.15	.12	.12544	.0007429	.000002
318.15	.12	.15417	.0007584	.000002
298.15	.15	.05271	.001076	.000002
298.15	.15	.08194	.0010968	.000002
298.15	.15	.08887	.0011153	.000002
298.15	.15	.1037	.0011293	.000002
298.15	.15	.12448	.0011611	.000002
298.15	.15	.14236	.0011954	.000002
308.15	.15	.05271	.0008612	.000002
308.15	.15	.08194	.0008767	.000002
308.15	.15	.08887	.0008901	.000002
308.15	.15	.1037	.0009002	.000002
308.15	.15	.12448	.0009234	.000002
308.15	.15	.14236	.0009482	.000002
318.15	.15	.05271	.0007188	.000002
318.15	.15	.08194	.0007308	.000002
318.15	.15	.08887	.0007416	.000002
318.15	.15	.1037	.0007493	.000002
318.15	.15	.12448	.0007673	.000002
318.15	.15	.14236	.0007867	.000002

System: levulose + sodium tetraborate + water; phases: Liquid
Fixed: Pressure, kPa = 101
Property: Mass density, kg/m3 (Liquid); method: Vibrating tube method
Temperature, K	Solvent: Molality, mol/kg of sodium tetraborate	Molality, mol/kg of levulose	Mass density, kg/m3	uncertainty
288.15	.05	.05105	1011.791	.0037
288.15	.05	.06829	1012.636	.0037
288.15	.05	.08972	1013.682	.0037
288.15	.05	.09913	1014.14	.0037
288.15	.05	.1191	1015.111	.0037
288.15	.05	.14091	1016.165	.0037
298.15	.05	.05105	1009.333	.0037
298.15	.05	.06829	1010.143	.0037
298.15	.05	.08972	1011.147	.0037
298.15	.05	.09913	1011.588	.0037
298.15	.05	.1191	1012.52	.0037
298.15	.05	.14091	1013.534	.0037
308.15	.05	.05105	1006.077	.0037
308.15	.05	.06829	1006.853	.0037
308.15	.05	.08972	1007.814	.0037
308.15	.05	.09913	1008.236	.0037
308.15	.05	.1191	1009.13	.0037
308.15	.05	.14091	1010.104	.0037
318.15	.05	.05105	1002.01	.0037
318.15	.05	.06829	1002.755	.0037
318.15	.05	.08972	1003.677	.0037
318.15	.05	.09913	1004.083	.0037
318.15	.05	.1191	1004.941	.0037
318.15	.05	.14091	1005.876	.0037
288.15	.1	.05063	1020.896	.0037
288.15	.1	.0714	1021.814	.0037
288.15	.1	.08858	1022.57	.0037
288.15	.1	.10285	1023.197	.0037
288.15	.1	.11292	1023.638	.0037
288.15	.1	.13764	1024.718	.0037
298.15	.1	.05063	1018.279	.0037
298.15	.1	.0714	1019.155	.0037
298.15	.1	.08858	1019.877	.0037
298.15	.1	.10285	1020.475	.0037
298.15	.1	.11292	1020.897	.0037
298.15	.1	.13764	1021.928	.0037
308.15	.1	.05063	1014.864	.0037
308.15	.1	.0714	1015.696	.0037
308.15	.1	.08858	1016.382	.0037
308.15	.1	.10285	1016.951	.0037
308.15	.1	.11292	1017.354	.0037
308.15	.1	.13764	1018.336	.0037
318.15	.1	.05063	1010.675	.0037
318.15	.1	.0714	1011.465	.0037
318.15	.1	.08858	1012.116	.0037
318.15	.1	.10285	1012.656	.0037
318.15	.1	.11292	1013.036	.0037
318.15	.1	.13764	1013.966	.0037
298.15	.12	.05283	1021.776	.0037
298.15	.12	.0708	1022.49	.0037
298.15	.12	.09041	1023.269	.0037
298.15	.12	.09896	1023.607	.0037
298.15	.12	.11877	1024.39	.0037
298.15	.12	.13658	1025.092	.0037
308.15	.12	.05283	1018.313	.0037
308.15	.12	.0708	1018.983	.0037
308.15	.12	.09041	1019.712	.0037
308.15	.12	.09896	1020.028	.0037
308.15	.12	.11877	1020.761	.0037
308.15	.12	.13658	1021.417	.0037
318.15	.12	.05283	1014.078	.0037
318.15	.12	.0708	1014.713	.0037
318.15	.12	.09041	1015.405	.0037
318.15	.12	.09896	1015.706	.0037
318.15	.12	.11877	1016.403	.0037
318.15	.12	.13658	1017.029	.0037
298.15	.15	.05403	1026.932	.0037
298.15	.15	.0704	1027.51	.0037
298.15	.15	.09005	1028.202	.0037
298.15	.15	.10446	1028.707	.0037
298.15	.15	.12123	1029.295	.0037
298.15	.15	.13818	1029.886	.0037
308.15	.15	.05403	1023.352	.0037
308.15	.15	.0704	1023.888	.0037
308.15	.15	.09005	1024.529	.0037
308.15	.15	.10446	1024.997	.0037
308.15	.15	.12123	1025.54	.0037
308.15	.15	.13818	1026.088	.0037
318.15	.15	.05403	1019.037	.0037
318.15	.15	.0704	1019.539	.0037
318.15	.15	.09005	1020.141	.0037
318.15	.15	.10446	1020.582	.0037
318.15	.15	.12123	1021.096	.0037
318.15	.15	.13818	1021.616	.0037

System: levulose + sodium tetraborate + water; phases: Liquid
Fixed: Pressure, kPa = 101
Property: Viscosity, Pa*s (Liquid); method: Capillary tube (Ostwald; Ubbelohde) method
Temperature, K	Solvent: Molality, mol/kg of sodium tetraborate	Molality, mol/kg of levulose	Viscosity, Pa*s	uncertainty
288.15	.05	.05105	.0012615	.000002
288.15	.05	.06829	.0012858	.000002
288.15	.05	.08972	.0013165	.000002
288.15	.05	.09913	.00133	.000002
288.15	.05	.1191	.001358	.000002
288.15	.05	.14091	.001389	.000002
298.15	.05	.05105	.000983	.000002
298.15	.05	.06829	.0010012	.000002
298.15	.05	.08972	.0010237	.000002
298.15	.05	.09913	.0010337	.000002
298.15	.05	.1191	.0010546	.000002
298.15	.05	.14091	.0010773	.000002
288.15	.1	.05063	.0013267	.000002
288.15	.1	.0714	.0013869	.000002
288.15	.1	.08858	.0014039	.000002
288.15	.1	.10285	.0014096	.000002
288.15	.1	.11292	.0014255	.000002
288.15	.1	.13764	.0014645	.000002
298.15	.1	.05063	.0010276	.000002
298.15	.1	.0714	.001072	.000002
298.15	.1	.08858	.0010845	.000002
298.15	.1	.10285	.0010886	.000002
298.15	.1	.11292	.0011001	.000002
298.15	.1	.13764	.0011285	.000002
308.15	.1	.05063	.0008274	.000002
308.15	.1	.0714	.0008612	.000002
308.15	.1	.08858	.0008702	.000002
308.15	.1	.10285	.0008734	.000002
308.15	.1	.11292	.0008821	.000002
308.15	.1	.13764	.0009036	.000002
318.15	.1	.05063	.0006854	.000002
318.15	.1	.0714	.000711	.000002
318.15	.1	.08858	.0007184	.000002
318.15	.1	.10285	.0007206	.000002
318.15	.1	.11292	.0007273	.000002
318.15	.1	.13764	.0007438	.000002
298.15	.12	.05283	.0010498	.000002
298.15	.12	.0708	.0010716	.000002
298.15	.12	.09041	.0010957	.000002
298.15	.12	.09896	.0011063	.000002
298.15	.12	.11877	.0011298	.000002
298.15	.12	.13658	.0011514	.000002
308.15	.12	.05283	.000844	.000002
308.15	.12	.0708	.0008604	.000002
308.15	.12	.09041	.0008785	.000002
308.15	.12	.09896	.0008865	.000002
308.15	.12	.11877	.0009042	.000002
308.15	.12	.13658	.0009206	.000002
318.15	.12	.05283	.0007005	.000002
318.15	.12	.0708	.000713	.000002
318.15	.12	.09041	.000727	.000002
318.15	.12	.09896	.0007331	.000002
318.15	.12	.11877	.000747	.000002
318.15	.12	.13658	.0007593	.000002
298.15	.15	.05403	.0010789	.000002
298.15	.15	.0704	.0011001	.000002
298.15	.15	.09005	.0011253	.000002
298.15	.15	.10158	.0011401	.000002
298.15	.15	.12123	.0011652	.000002
298.15	.15	.13818	.0011867	.000002
308.15	.15	.05403	.0008656	.000002
308.15	.15	.0704	.0008819	.000002
308.15	.15	.09005	.0009009	.000002
308.15	.15	.10158	.0009121	.000002
308.15	.15	.12123	.0009311	.000002
308.15	.15	.13818	.0009474	.000002
318.15	.15	.05403	.0007214	.000002
318.15	.15	.0704	.0007333	.000002
318.15	.15	.09005	.0007482	.000002
318.15	.15	.10158	.0007567	.000002
318.15	.15	.12123	.0007711	.000002
318.15	.15	.13818	.0007835	.000002

System: D-(+)-galactose + sodium tetraborate + water; phases: Liquid
Fixed: Pressure, kPa = 101
Property: Mass density, kg/m3 (Liquid); method: Vibrating tube method
Temperature, K	Solvent: Molality, mol/kg of sodium tetraborate	Molality, mol/kg of D-(+)-galactose	Mass density, kg/m3	uncertainty
288.15	.05	.06148	1012.278	.0037
288.15	.05	.07419	1012.899	.0037
288.15	.05	.09175	1013.754	.0037
288.15	.05	.10701	1014.497	.0037
288.15	.05	.12237	1015.245	.0037
288.15	.05	.14538	1016.366	.0037
298.15	.05	.06148	1009.805	.0037
298.15	.05	.07419	1010.399	.0037
298.15	.05	.09175	1011.22	.0037
298.15	.05	.10701	1011.928	.0037
298.15	.05	.12237	1012.643	.0037
298.15	.05	.14538	1013.711	.0037
308.15	.05	.06148	1006.544	.0037
308.15	.05	.07419	1007.116	.0037
308.15	.05	.09175	1007.907	.0037
308.15	.05	.10701	1008.592	.0037
308.15	.05	.12237	1009.283	.0037
308.15	.05	.14538	1010.314	.0037
318.15	.05	.06148	1002.466	.0037
318.15	.05	.07419	1003.018	.0037
318.15	.05	.09175	1003.779	.0037
318.15	.05	.10701	1004.441	.0037
318.15	.05	.12237	1005.108	.0037
318.15	.05	.14538	1006.107	.0037
288.15	.1	.05849	1021.227	.0037
288.15	.1	.07271	1021.853	.0037
288.15	.1	.09024	1022.621	.0037
288.15	.1	.10562	1023.295	.0037
288.15	.1	.12217	1024.018	.0037
288.15	.1	.14322	1024.936	.0037
298.15	.1	.05849	1018.598	.0037
298.15	.1	.07271	1019.194	.0037
298.15	.1	.09024	1019.927	.0037
298.15	.1	.10562	1020.568	.0037
298.15	.1	.12217	1021.255	.0037
298.15	.1	.14322	1022.129	.0037
308.15	.1	.05849	1015.18	.0037
308.15	.1	.07271	1015.75	.0037
308.15	.1	.09024	1016.451	.0037
308.15	.1	.10562	1017.065	.0037
308.15	.1	.12217	1017.724	.0037
308.15	.1	.14322	1018.559	.0037
318.15	.1	.05849	1010.975	.0037
318.15	.1	.07271	1011.517	.0037
318.15	.1	.09024	1012.182	.0037
318.15	.1	.10562	1012.764	.0037
318.15	.1	.12217	1013.389	.0037
318.15	.1	.14322	1014.181	.0037
298.15	.12	.05343	1021.791	.0037
298.15	.12	.0715	1022.504	.0037
298.15	.12	.09013	1023.238	.0037
298.15	.12	.10293	1023.741	.0037
298.15	.12	.12015	1024.418	.0037
298.15	.12	.14123	1025.244	.0037
308.15	.12	.05343	1018.327	.0037
308.15	.12	.0715	1018.998	.0037
308.15	.12	.09013	1019.687	.0037
308.15	.12	.10293	1020.16	.0037
308.15	.12	.12015	1020.798	.0037
308.15	.12	.14123	1021.574	.0037
318.15	.12	.05343	1014.071	.0037
318.15	.12	.0715	1014.7	.0037
318.15	.12	.09013	1015.345	.0037
318.15	.12	.10293	1015.787	.0037
318.15	.12	.12015	1016.381	.0037
318.15	.12	.14123	1017.106	.0037
298.15	.15	.05246	1026.886	.0037
298.15	.15	.07233	1027.591	.0037
298.15	.15	.09055	1028.235	.0037
298.15	.15	.10198	1028.638	.0037
298.15	.15	.11745	1029.181	.0037
298.15	.15	.14391	1030.11	.0037
308.15	.15	.05246	1023.308	.0037
308.15	.15	.07233	1023.962	.0037
308.15	.15	.09055	1024.56	.0037
308.15	.15	.10198	1024.935	.0037
308.15	.15	.11745	1025.44	.0037
308.15	.15	.14391	1026.303	.0037
318.15	.15	.05246	1018.986	.0037
318.15	.15	.07233	1019.593	.0037
318.15	.15	.09055	1020.148	.0037
318.15	.15	.10198	1020.495	.0037
318.15	.15	.11745	1020.967	.0037
318.15	.15	.14391	1021.767	.0037

System: D-(+)-galactose + sodium tetraborate + water; phases: Liquid
Fixed: Pressure, kPa = 101
Property: Viscosity, Pa*s (Liquid); method: Capillary tube (Ostwald; Ubbelohde) method
Temperature, K	Solvent: Molality, mol/kg of sodium tetraborate	Molality, mol/kg of D-(+)-galactose	Viscosity, Pa*s	uncertainty
288.15	.05	.06148	.0012782	.000002
288.15	.05	.07419	.0012973	.000002
288.15	.05	.09174	.0013224	.000002
288.15	.05	.10808	.001346	.000002
288.15	.05	.12151	.0013655	.000002
288.15	.05	.14538	.0013998	.000002
298.15	.05	.06148	.0009956	.000002
298.15	.05	.07419	.0010094	.000002
298.15	.05	.09174	.0010281	.000002
298.15	.05	.10808	.0010457	.000002
298.15	.05	.12151	.0010601	.000002
298.15	.05	.14538	.0010857	.000002
308.15	.05	.06148	.0008042	.000002
308.15	.05	.07419	.0008147	.000002
308.15	.05	.09174	.0008296	.000002
308.15	.05	.10808	.0008431	.000002
308.15	.05	.12151	.0008544	.000002
308.15	.05	.14538	.0008738	.000002
318.15	.05	.06148	.0006623	.000002
318.15	.05	.07419	.0006705	.000002
318.15	.05	.09174	.0006818	.000002
318.15	.05	.10808	.0006924	.000002
318.15	.05	.12151	.000701	.000002
318.15	.05	.14538	.0007164	.000002
288.15	.1	.0585	.0013408	.000002
288.15	.1	.07271	.001364	.000002
288.15	.1	.09024	.0013923	.000002
288.15	.1	.10562	.001417	.000002
288.15	.1	.12217	.0014436	.000002
288.15	.1	.14322	.0014768	.000002
298.15	.1	.0585	.0010392	.000002
298.15	.1	.07271	.0010563	.000002
298.15	.1	.09024	.0010771	.000002
298.15	.1	.10562	.0010957	.000002
298.15	.1	.12217	.0011153	.000002
298.15	.1	.14322	.0011402	.000002
308.15	.1	.0585	.0008364	.000002
308.15	.1	.07271	.0008495	.000002
308.15	.1	.09024	.0008655	.000002
308.15	.1	.10562	.0008794	.000002
308.15	.1	.12217	.0008946	.000002
308.15	.1	.14322	.0009136	.000002
318.15	.1	.0585	.0006928	.000002
318.15	.1	.07271	.0007028	.000002
318.15	.1	.09024	.000715	.000002
318.15	.1	.10562	.000726	.000002
318.15	.1	.12217	.0007376	.000002
318.15	.1	.14322	.0007523	.000002
298.15	.12	.05343	.0010524	.000002
298.15	.12	.0715	.0010752	.000002
298.15	.12	.09013	.0010985	.000002
298.15	.12	.10293	.0011145	.000002
298.15	.12	.12015	.0011356	.000002
298.15	.12	.14123	.001162	.000002
308.15	.12	.05343	.0008459	.000002
308.15	.12	.0715	.0008631	.000002
308.15	.12	.09013	.0008809	.000002
308.15	.12	.10293	.0008929	.000002
308.15	.12	.12015	.0009091	.000002
308.15	.12	.14123	.0009287	.000002
318.15	.12	.05343	.0007026	.000002
318.15	.12	.0715	.000716	.000002
318.15	.12	.09013	.0007297	.000002
318.15	.12	.10293	.0007393	.000002
318.15	.12	.12015	.0007517	.000002
318.15	.12	.14123	.000767	.000002
298.15	.15	.05042	.0010749	.000002
298.15	.15	.07016	.0011011	.000002
298.15	.15	.09209	.0011299	.000002
298.15	.15	.09977	.0011397	.000002
298.15	.15	.12046	.0011666	.000002
298.15	.15	.14831	.0012021	.000002
308.15	.15	.05042	.0008626	.000002
308.15	.15	.07016	.0008822	.000002
308.15	.15	.09209	.0009038	.000002
308.15	.15	.09977	.0009113	.000002
308.15	.15	.12046	.0009313	.000002
308.15	.15	.14831	.0009586	.000002
318.15	.15	.05042	.0007203	.000002
318.15	.15	.07016	.0007356	.000002
318.15	.15	.09209	.0007526	.000002
318.15	.15	.09977	.0007585	.000002
318.15	.15	.12046	.0007743	.000002
318.15	.15	.14831	.0007956	.000002

System: D(+)-glucose + sodium tetraborate + water; phases: Liquid
Fixed: Pressure, kPa = 101
Property: Mass density, kg/m3 (Liquid); method: Vibrating tube method
Temperature, K	Solvent: Molality, mol/kg of sodium tetraborate	Molality, mol/kg of D(+)-glucose	Mass density, kg/m3	uncertainty
288.15	.05	.0493	1011.618	.0037
288.15	.05	.07255	1012.719	.0037
288.15	.05	.08894	1013.491	.0037
288.15	.05	.09837	1013.935	.0037
288.15	.05	.12051	1014.976	.0037
288.15	.05	.1419	1015.978	.0037
298.15	.05	.0493	1009.151	.0037
298.15	.05	.07255	1010.197	.0037
298.15	.05	.08894	1010.932	.0037
298.15	.05	.09837	1011.355	.0037
298.15	.05	.12051	1012.344	.0037
298.15	.05	.1419	1013.299	.0037
308.15	.05	.0493	1005.908	.0037
308.15	.05	.07255	1006.912	.0037
308.15	.05	.08894	1007.618	.0037
308.15	.05	.09837	1008.023	.0037
308.15	.05	.12051	1008.973	.0037
308.15	.05	.1419	1009.889	.0037
318.15	.05	.0493	1001.865	.0037
318.15	.05	.07255	1002.836	.0037
318.15	.05	.08894	1003.519	.0037
318.15	.05	.09837	1003.911	.0037
318.15	.05	.12051	1004.829	.0037
318.15	.05	.1419	1005.713	.0037
288.15	.1	.04859	1020.752	.0037
288.15	.1	.07275	1021.792	.0037
288.15	.1	.08623	1022.371	.0037
288.15	.1	.09968	1022.948	.0037
288.15	.1	.11929	1023.787	.0037
288.15	.1	.14181	1024.748	.0037
298.15	.1	.04859	1018.124	.0037
298.15	.1	.07275	1019.108	.0037
298.15	.1	.08623	1019.656	.0037
298.15	.1	.09968	1020.2	.0037
298.15	.1	.11929	1020.995	.0037
298.15	.1	.14181	1021.901	.0037
308.15	.1	.04859	1014.711	.0037
308.15	.1	.07275	1015.642	.0037
308.15	.1	.08623	1016.161	.0037
308.15	.1	.09968	1016.677	.0037
308.15	.1	.11929	1017.426	.0037
308.15	.1	.14181	1018.285	.0037
318.15	.1	.04859	1010.518	.0037
318.15	.1	.07275	1011.4	.0037
318.15	.1	.08623	1011.89	.0037
318.15	.1	.09968	1012.378	.0037
318.15	.1	.11929	1013.087	.0037
318.15	.1	.14181	1013.899	.0037
298.15	.12	.05242	1021.69	.0037
298.15	.12	.06847	1022.306	.0037
298.15	.12	.08824	1023.064	.0037
298.15	.12	.10262	1023.614	.0037
298.15	.12	.11964	1024.264	.0037
298.15	.12	.14075	1025.068	.0037
308.15	.12	.05242	1018.226	.0037
308.15	.12	.06847	1018.804	.0037
308.15	.12	.08824	1019.512	.0037
308.15	.12	.10262	1020.028	.0037
308.15	.12	.11964	1020.636	.0037
308.15	.12	.14075	1021.389	.0037
318.15	.12	.05242	1013.995	.0037
318.15	.12	.06847	1014.541	.0037
318.15	.12	.08824	1015.213	.0037
318.15	.12	.10262	1015.701	.0037
318.15	.12	.11964	1016.277	.0037
318.15	.12	.14075	1016.992	.0037
298.15	.15	.05042	1026.863	.0037
298.15	.15	.07016	1027.584	.0037
298.15	.15	.09209	1028.383	.0037
298.15	.15	.09977	1028.662	.0037
298.15	.15	.12046	1029.415	.0037
298.15	.15	.14831	1030.423	.0037
308.15	.15	.05042	1023.288	.0037
308.15	.15	.07016	1023.956	.0037
308.15	.15	.09209	1024.699	.0037
308.15	.15	.09977	1024.958	.0037
308.15	.15	.12046	1025.657	.0037
308.15	.15	.14831	1026.595	.0037
318.15	.15	.05042	1018.991	.0037
318.15	.15	.07016	1019.62	.0037
318.15	.15	.09209	1020.318	.0037
318.15	.15	.09977	1020.561	.0037
318.15	.15	.12046	1021.214	.0037
318.15	.15	.14831	1022.093	.0037

System: D(+)-glucose + sodium tetraborate + water; phases: Liquid
Fixed: Pressure, kPa = 101
Property: Viscosity, Pa*s (Liquid); method: Capillary tube (Ostwald; Ubbelohde) method
Temperature, K	Solvent: Molality, mol/kg of sodium tetraborate	Molality, mol/kg of D(+)-glucose	Viscosity, Pa*s	uncertainty
288.15	.05	.0493	.0012597	.000002
288.15	.05	.07255	.0012933	.000002
288.15	.05	.08894	.0013167	.000002
288.15	.05	.09837	.0013303	.000002
288.15	.05	.12051	.0013621	.000002
288.15	.05	.1419	.0013925	.000002
288.15	.1	.04859	.0013249	.000002
288.15	.1	.07275	.0013643	.000002
288.15	.1	.08623	.0013859	.000002
288.15	.1	.09968	.001408	.000002
288.15	.1	.11929	.0014392	.000002
288.15	.1	.14181	.0014752	.000002
298.15	.05	.0493	.000982	.000002
298.15	.05	.07255	.0010069	.000002
298.15	.05	.08894	.0010247	.000002
298.15	.05	.09837	.0010346	.000002
298.15	.05	.12051	.0010581	.000002
298.15	.05	.1419	.0010807	.000002
298.15	.1	.04859	.0010276	.000002
298.15	.1	.07275	.001057	.000002
298.15	.1	.08623	.0010732	.000002
298.15	.1	.09968	.0010892	.000002
298.15	.1	.11929	.0011128	.000002
298.15	.1	.14181	.0011396	.000002
298.15	.12	.05242	.00105	.000002
298.15	.12	.06847	.0010699	.000002
298.15	.12	.08824	.0010942	.000002
298.15	.12	.10262	.0011118	.000002
298.15	.12	.11964	.0011325	.000002
298.15	.12	.14075	.0011583	.000002
298.15	.15	.05042	.0010749	.000002
298.15	.15	.07016	.0011011	.000002
298.15	.15	.09209	.0011299	.000002
298.15	.15	.09977	.0011397	.000002
298.15	.15	.12046	.0011666	.000002
298.15	.15	.14831	.0012021	.000002
308.15	.05	.0493	.0007934	.000002
308.15	.05	.07255	.0008124	.000002
308.15	.05	.08894	.0008257	.000002
308.15	.05	.09837	.0008335	.000002
308.15	.05	.12051	.0008514	.000002
308.15	.05	.1419	.0008686	.000002
308.15	.1	.04859	.0008266	.000002
308.15	.1	.07275	.0008481	.000002
308.15	.1	.08623	.0008603	.000002
308.15	.1	.09968	.0008722	.000002
308.15	.1	.11929	.0008896	.000002
308.15	.1	.14181	.0009094	.000002
308.15	.12	.05242	.0008438	.000002
308.15	.12	.06847	.0008588	.000002
308.15	.12	.08824	.0008771	.000002
308.15	.12	.10262	.0008905	.000002
308.15	.12	.11964	.000906	.000002
308.15	.12	.14075	.0009253	.000002
308.15	.15	.05042	.0008626	.000002
308.15	.15	.07016	.0008822	.000002
308.15	.15	.09209	.0009038	.000002
308.15	.15	.09977	.0009113	.000002
308.15	.15	.12046	.0009313	.000002
308.15	.15	.14831	.0009586	.000002
318.15	.05	.0493	.0006532	.000002
318.15	.05	.07255	.0006679	.000002
318.15	.05	.08894	.0006782	.000002
318.15	.05	.09837	.0006842	.000002
318.15	.05	.12051	.0006979	.000002
318.15	.05	.1419	.0007113	.000002
318.15	.1	.04859	.0006852	.000002
318.15	.1	.07275	.000702	.000002
318.15	.1	.08623	.0007115	.000002
318.15	.1	.09968	.0007208	.000002
318.15	.1	.11929	.0007344	.000002
318.15	.1	.14181	.0007498	.000002
318.15	.12	.05242	.0007016	.000002
318.15	.12	.06847	.0007136	.000002
318.15	.12	.08824	.0007281	.000002
318.15	.12	.10262	.0007387	.000002
318.15	.12	.11964	.0007509	.000002
318.15	.12	.14075	.0007662	.000002
318.15	.15	.05042	.0007203	.000002
318.15	.15	.07016	.0007356	.000002
318.15	.15	.09209	.0007526	.000002
318.15	.15	.09977	.0007585	.000002
318.15	.15	.12046	.0007743	.000002
318.15	.15	.14831	.0007956	.000002

System: D-glucose, 4-O-.beta.-D-glucopyranosyl- + sodium tetraborate + water; phases: Liquid
Fixed: Pressure, kPa = 101
Property: Mass density, kg/m3 (Liquid); method: Vibrating tube method
Temperature, K	Solvent: Molality, mol/kg of sodium tetraborate	Molality, mol/kg of D-glucose, 4-O-.beta.-D-glucopyranosyl-	Mass density, kg/m3	uncertainty
288.15	.05	.05071	1015.613	.0037
288.15	.05	.07347	1018.416	.0037
288.15	.05	.09266	1020.761	.0037
288.15	.05	.12318	1024.455	.0037
288.15	.05	.13533	1025.914	.0037
298.15	.05	.05071	1013.178	.0037
298.15	.05	.07347	1015.945	.0037
298.15	.05	.09266	1018.258	.0037
298.15	.05	.12318	1021.903	.0037
298.15	.05	.13533	1023.342	.0037
308.15	.05	.05071	1009.936	.0037
308.15	.05	.07347	1012.664	.0037
308.15	.05	.09266	1014.944	.0037
308.15	.05	.12318	1018.537	.0037
308.15	.05	.13533	1019.955	.0037
318.15	.05	.05071	1005.863	.0037
318.15	.05	.07347	1008.546	.0037
318.15	.05	.09266	1010.788	.0037
318.15	.05	.12318	1014.318	.0037
318.15	.05	.13533	1015.711	.0037
288.15	.1	.04603	1024.286	.0037
288.15	.1	.07141	1027.351	.0037
288.15	.1	.0952	1030.197	.0037
288.15	.1	.11779	1032.876	.0037
288.15	.1	.13533	1034.939	.0037
298.15	.1	.04603	1021.74	.0037
298.15	.1	.07141	1024.786	.0037
298.15	.1	.0952	1027.616	.0037
298.15	.1	.11779	1030.278	.0037
298.15	.1	.13533	1032.328	.0037
308.15	.1	.04603	1018.362	.0037
308.15	.1	.07141	1021.37	.0037
308.15	.1	.0952	1024.163	.0037
308.15	.1	.11779	1026.79	.0037
308.15	.1	.13533	1028.815	.0037
318.15	.1	.04603	1014.184	.0037
318.15	.1	.07141	1017.146	.0037
318.15	.1	.0952	1019.897	.0037
318.15	.1	.11779	1022.485	.0037
318.15	.1	.13533	1024.482	.0037
298.15	.12	.04795	1025.451	.0037
298.15	.12	.06805	1027.843	.0037
298.15	.12	.09196	1030.665	.0037
298.15	.12	.11898	1033.825	.0037
298.15	.12	.14417	1036.738	.0037
308.15	.12	.04795	1022.041	.0037
308.15	.12	.06805	1024.4	.0037
308.15	.12	.09196	1027.18	.0037
308.15	.12	.11898	1030.289	.0037
308.15	.12	.14417	1033.155	.0037
318.15	.12	.04795	1017.819	.0037
318.15	.12	.06805	1020.14	.0037
318.15	.12	.09196	1022.876	.0037
318.15	.12	.11898	1025.938	.0037
318.15	.12	.14417	1028.76	.0037
298.15	.15	.05105	1031.065	.0037
298.15	.15	.07088	1033.383	.0037
298.15	.15	.09046	1035.654	.0037
298.15	.15	.10437	1037.256	.0037
298.15	.15	.1498	1042.433	.0037
308.15	.15	.05105	1027.534	.0037
308.15	.15	.07088	1029.818	.0037
308.15	.15	.09046	1032.056	.0037
308.15	.15	.10437	1033.64	.0037
308.15	.15	.1498	1038.743	.0037
318.15	.15	.05105	1023.212	.0037
318.15	.15	.07088	1025.447	.0037
318.15	.15	.09046	1027.638	.0037
318.15	.15	.10437	1029.185	.0037
318.15	.15	.1498	1034.175	.0037

System: D-glucose, 4-O-.beta.-D-glucopyranosyl- + sodium tetraborate + water; phases: Liquid
Fixed: Pressure, kPa = 101
Property: Viscosity, Pa*s (Liquid); method: Capillary tube (Ostwald; Ubbelohde) method
Temperature, K	Solvent: Molality, mol/kg of sodium tetraborate	Molality, mol/kg of D-glucose, 4-O-.beta.-D-glucopyranosyl-	Viscosity, Pa*s	uncertainty
288.15	.05	.05071	.0012777	.000002
288.15	.05	.07347	.0013178	.000002
288.15	.05	.09266	.0013509	.000002
288.15	.05	.12318	.0014033	.000002
298.15	.05	.05071	.0009961	.000002
298.15	.05	.07347	.001026	.000002
298.15	.05	.09266	.0010509	.000002
298.15	.05	.12318	.0010901	.000002
308.15	.05	.05071	.0008049	.000002
308.15	.05	.07347	.0008279	.000002
308.15	.05	.09266	.0008474	.000002
308.15	.05	.12318	.0008777	.000002
318.15	.05	.05071	.0006629	.000002
318.15	.05	.07347	.0006811	.000002
318.15	.05	.09266	.0006964	.000002
318.15	.05	.12318	.0007204	.000002
288.15	.1	.04603	.0013342	.000002
288.15	.1	.07141	.0013826	.000002
288.15	.1	.0952	.0014275	.000002
288.15	.1	.11779	.0014695	.000002
298.15	.1	.04603	.0010345	.000002
298.15	.1	.07141	.0010704	.000002
298.15	.1	.0952	.0011039	.000002
298.15	.1	.11779	.0011354	.000002
308.15	.1	.04603	.0008335	.000002
308.15	.1	.07141	.0008613	.000002
308.15	.1	.0952	.000887	.000002
308.15	.1	.11779	.0009114	.000002
318.15	.1	.04603	.0006916	.000002
318.15	.1	.07141	.0007138	.000002
318.15	.1	.0952	.0007344	.000002
318.15	.1	.11779	.0007536	.000002
298.15	.12	.04795	.0010569	.000002
298.15	.12	.06805	.001085	.000002
298.15	.12	.09196	.0011198	.000002
298.15	.12	.11898	.0011584	.000002
308.15	.12	.04795	.0008501	.000002
308.15	.12	.06805	.0008731	.000002
308.15	.12	.09196	.0008984	.000002
308.15	.12	.11898	.0009281	.000002
318.15	.12	.04795	.0007069	.000002
318.15	.12	.06805	.0007253	.000002
318.15	.12	.09196	.0007469	.000002
318.15	.12	.11898	.0007691	.000002
298.15	.15	.05105	.0010884	.000002
298.15	.15	.07088	.0011192	.000002
298.15	.15	.09046	.0011491	.000002
298.15	.15	.10437	.0011704	.000002
308.15	.15	.05105	.0008746	.000002
308.15	.15	.07088	.0008985	.000002
308.15	.15	.09046	.0009217	.000002
308.15	.15	.10437	.0009382	.000002
318.15	.15	.05105	.0007303	.000002
318.15	.15	.07088	.0007495	.000002
318.15	.15	.09046	.0007679	.000002
318.15	.15	.10437	.0007813	.000002

System: D-sucrose + sodium tetraborate + water; phases: Liquid
Fixed: Pressure, kPa = 101
Property: Mass density, kg/m3 (Liquid); method: Vibrating tube method
Temperature, K	Solvent: Molality, mol/kg of sodium tetraborate	Molality, mol/kg of D-sucrose	Mass density, kg/m3	uncertainty
288.15	.05	.04932	1015.408	.0037
288.15	.05	.0731	1018.322	.0037
288.15	.05	.08905	1020.261	.0037
288.15	.05	.09766	1021.303	.0037
288.15	.05	.12226	1024.261	.0037
288.15	.05	.13598	1025.899	.0037
298.15	.05	.04932	1012.991	.0037
298.15	.05	.0731	1015.874	.0037
298.15	.05	.08905	1017.793	.0037
298.15	.05	.09766	1018.824	.0037
298.15	.05	.12226	1021.748	.0037
298.15	.05	.13598	1023.367	.0037
308.15	.05	.04932	1009.757	.0037
308.15	.05	.0731	1012.601	.0037
308.15	.05	.08905	1014.493	.0037
308.15	.05	.09766	1015.509	.0037
308.15	.05	.12226	1018.393	.0037
308.15	.05	.13598	1019.989	.0037
318.15	.05	.04932	1005.69	.0037
318.15	.05	.0731	1008.489	.0037
318.15	.05	.08905	1010.351	.0037
318.15	.05	.09766	1011.352	.0037
318.15	.05	.12226	1014.191	.0037
318.15	.05	.13598	1015.764	.0037
288.15	.1	.05068	1024.846	.0037
288.15	.1	.06925	1027.087	.0037
288.15	.1	.08942	1029.502	.0037
288.15	.1	.09979	1030.737	.0037
288.15	.1	.11842	1032.943	.0037
288.15	.1	.14416	1035.964	.0037
298.15	.1	.05068	1022.215	.0037
298.15	.1	.06925	1024.41	.0037
298.15	.1	.08942	1026.777	.0037
298.15	.1	.09979	1027.985	.0037
298.15	.1	.11842	1030.145	.0037
298.15	.1	.14416	1033.103	.0037
308.15	.1	.05068	1018.795	.0037
308.15	.1	.06925	1020.95	.0037
308.15	.1	.08942	1023.274	.0037
308.15	.1	.09979	1024.461	.0037
308.15	.1	.11842	1026.58	.0037
308.15	.1	.14416	1029.482	.0037
318.15	.1	.05068	1014.58	.0037
318.15	.1	.06925	1016.69	.0037
318.15	.1	.08942	1018.964	.0037
318.15	.1	.09979	1020.126	.0037
318.15	.1	.11842	1022.2	.0037
318.15	.1	.14416	1025.043	.0037
298.15	.12	.04741	1025.303	.0037
298.15	.12	.06868	1027.795	.0037
298.15	.12	.08981	1030.248	.0037
298.15	.12	.10319	1031.791	.0037
298.15	.12	.12109	1033.842	.0037
298.15	.12	.13356	1035.262	.0037
308.15	.12	.04741	1021.855	.0037
308.15	.12	.06868	1024.298	.0037
308.15	.12	.08981	1026.703	.0037
308.15	.12	.10319	1028.216	.0037
308.15	.12	.12109	1030.226	.0037
308.15	.12	.13356	1031.618	.0037
318.15	.12	.04741	1017.594	.0037
318.15	.12	.06868	1019.978	.0037
318.15	.12	.08981	1022.323	.0037
318.15	.12	.10319	1023.799	.0037
318.15	.12	.12109	1025.76	.0037
318.15	.12	.13356	1027.117	.0037
298.15	.15	.05154	1031.036	.0037
298.15	.15	.07145	1033.329	.0037
298.15	.15	.08962	1035.406	.0037
298.15	.15	.09919	1036.493	.0037
298.15	.15	.11968	1038.808	.0037
298.15	.15	.13506	1040.532	.0037
308.15	.15	.05154	1027.461	.0037
308.15	.15	.07145	1029.702	.0037
308.15	.15	.08962	1031.731	.0037
308.15	.15	.09919	1032.793	.0037
308.15	.15	.11968	1035.054	.0037
308.15	.15	.13506	1036.737	.0037
318.15	.15	.05154	1023.118	.0037
318.15	.15	.07145	1025.304	.0037
318.15	.15	.08962	1027.282	.0037
318.15	.15	.09919	1028.318	.0037
318.15	.15	.11968	1030.523	.0037
318.15	.15	.13506	1032.164	.0037

System: D-sucrose + sodium tetraborate + water; phases: Liquid
Fixed: Pressure, kPa = 101
Property: Viscosity, Pa*s (Liquid); method: Capillary tube (Ostwald; Ubbelohde) method
Temperature, K	Solvent: Molality, mol/kg of sodium tetraborate	Molality, mol/kg of D-sucrose	Viscosity, Pa*s	uncertainty
288.15	.05	.04932	.0012804	.000002
288.15	.05	.0731	.0013289	.000002
288.15	.05	.08905	.0013718	.000002
288.15	.05	.09766	.0013822	.000002
288.15	.05	.12226	.0014028	.000002
288.15	.05	.13598	.0014548	.000002
298.15	.05	.04932	.0009981	.000002
298.15	.05	.0731	.0010346	.000002
298.15	.05	.08905	.0010671	.000002
298.15	.05	.09766	.0010746	.000002
298.15	.05	.12226	.00109	.000002
298.15	.05	.13598	.0011291	.000002
308.15	.05	.04932	.0008062	.000002
308.15	.05	.0731	.0008341	.000002
308.15	.05	.08905	.0008589	.000002
308.15	.05	.09766	.000865	.000002
308.15	.05	.12226	.0008768	.000002
308.15	.05	.13598	.0009067	.000002
318.15	.05	.04932	.0006641	.000002
318.15	.05	.0731	.0006861	.000002
318.15	.05	.08905	.000706	.000002
318.15	.05	.09766	.0007107	.000002
318.15	.05	.12226	.0007201	.000002
318.15	.05	.13598	.0007439	.000002
288.15	.1	.05068	.0013509	.000002
288.15	.1	.06925	.0013893	.000002
288.15	.1	.08942	.0014304	.000002
288.15	.1	.09979	.0014514	.000002
288.15	.1	.11842	.0014889	.000002
288.15	.1	.14416	.0015403	.000002
298.15	.1	.05068	.0010468	.000002
298.15	.1	.06925	.0010754	.000002
298.15	.1	.08942	.0011059	.000002
298.15	.1	.09979	.0011214	.000002
298.15	.1	.11842	.0011492	.000002
298.15	.1	.14416	.0011876	.000002
308.15	.1	.05068	.0008431	.000002
308.15	.1	.06925	.0008651	.000002
308.15	.1	.08942	.0008889	.000002
308.15	.1	.09979	.0009009	.000002
308.15	.1	.11842	.0009225	.000002
308.15	.1	.14416	.0009519	.000002
318.15	.1	.05068	.0006992	.000002
318.15	.1	.06925	.0007167	.000002
318.15	.1	.08942	.0007353	.000002
318.15	.1	.09979	.000745	.000002
318.15	.1	.11842	.0007622	.000002
318.15	.1	.14416	.0007855	.000002
298.15	.12	.04741	.0010615	.000002
298.15	.12	.06868	.0010957	.000002
298.15	.12	.08981	.0011293	.000002
298.15	.12	.10319	.0011505	.000002
298.15	.12	.12109	.0011784	.000002
298.15	.12	.13356	.0011978	.000002
308.15	.12	.04741	.0008542	.000002
308.15	.12	.06868	.0008805	.000002
308.15	.12	.08981	.0009065	.000002
308.15	.12	.10319	.0009229	.000002
308.15	.12	.12109	.0009445	.000002
308.15	.12	.13356	.0009595	.000002
318.15	.12	.04741	.0007102	.000002
318.15	.12	.06868	.0007312	.000002
318.15	.12	.08981	.0007519	.000002
318.15	.12	.10319	.0007647	.000002
318.15	.12	.12109	.0007822	.000002
318.15	.12	.13356	.0007941	.000002
298.15	.15	.05154	.0010979	.000002
298.15	.15	.07145	.0011321	.000002
298.15	.15	.08962	.001163	.000002
298.15	.15	.09919	.0011794	.000002
298.15	.15	.11968	.0012137	.000002
298.15	.15	.13506	.0012393	.000002
308.15	.15	.05154	.0008814	.000002
308.15	.15	.07145	.0009078	.000002
308.15	.15	.08962	.0009313	.000002
308.15	.15	.09919	.0009443	.000002
308.15	.15	.11968	.0009704	.000002
308.15	.15	.13506	.0009903	.000002
318.15	.15	.05154	.000736	.000002
318.15	.15	.07145	.000757	.000002
318.15	.15	.08962	.0007762	.000002
318.15	.15	.09919	.000786	.000002
318.15	.15	.11968	.0008072	.000002
318.15	.15	.13506	.000823	.000002

System: melibiose + sodium tetraborate + water; phases: Liquid
Fixed: Pressure, kPa = 101
Property: Mass density, kg/m3 (Liquid); method: Vibrating tube method
Temperature, K	Solvent: Molality, mol/kg of sodium tetraborate	Molality, mol/kg of melibiose	Mass density, kg/m3	uncertainty
288.15	.05	.04901	1015.435	.0037
288.15	.05	.07096	1018.157	.0037
288.15	.05	.09712	1021.372	.0037
288.15	.05	.12158	1024.349	.0037
288.15	.05	.14788	1027.52	.0037
298.15	.05	.04901	1013.011	.0037
298.15	.05	.07096	1015.701	.0037
298.15	.05	.09712	1018.88	.0037
298.15	.05	.12158	1021.83	.0037
298.15	.05	.14788	1024.969	.0037
308.15	.05	.04901	1009.777	.0037
308.15	.05	.07096	1012.433	.0037
308.15	.05	.09712	1015.572	.0037
308.15	.05	.12158	1018.48	.0037
308.15	.05	.14788	1021.58	.0037
318.15	.05	.04901	1005.73	.0037
318.15	.05	.07096	1008.354	.0037
318.15	.05	.09712	1011.454	.0037
318.15	.05	.12158	1014.327	.0037
318.15	.05	.14788	1017.389	.0037
288.15	.1	.04769	1024.565	.0037
288.15	.1	.07182	1027.517	.0037
288.15	.1	.09527	1030.359	.0037
288.15	.1	.12207	1033.574	.0037
288.15	.1	.14486	1036.281	.0037
298.15	.1	.04769	1021.984	.0037
298.15	.1	.07182	1024.902	.0037
298.15	.1	.09527	1027.714	.0037
298.15	.1	.12207	1030.896	.0037
298.15	.1	.14486	1033.579	.0037
308.15	.1	.04769	1018.609	.0037
308.15	.1	.07182	1021.495	.0037
308.15	.1	.09527	1024.275	.0037
308.15	.1	.12207	1027.421	.0037
308.15	.1	.14486	1030.073	.0037
318.15	.1	.04769	1014.437	.0037
318.15	.1	.07182	1017.281	.0037
318.15	.1	.09527	1020.022	.0037
318.15	.1	.12207	1023.119	.0037
318.15	.1	.14486	1025.728	.0037
298.15	.12	.04992	1025.743	.0037
298.15	.12	.07205	1028.397	.0037
298.15	.12	.09607	1031.251	.0037
298.15	.12	.11942	1033.998	.0037
298.15	.12	.15814	1038.496	.0037
308.15	.12	.04992	1022.33	.0037
308.15	.12	.07205	1024.95	.0037
308.15	.12	.09607	1027.765	.0037
308.15	.12	.11942	1030.478	.0037
308.15	.12	.15814	1034.917	.0037
318.15	.12	.04992	1018.126	.0037
318.15	.12	.07205	1020.711	.0037
318.15	.12	.09607	1023.493	.0037
318.15	.12	.11942	1026.168	.0037
318.15	.12	.15814	1030.551	.0037
298.15	.15	.05283	1031.323	.0037
298.15	.15	.07395	1033.808	.0037
298.15	.15	.09672	1036.463	.0037
298.15	.15	.11848	1038.978	.0037
298.15	.15	.14237	1041.717	.0037
308.15	.15	.05283	1027.799	.0037
308.15	.15	.07395	1030.252	.0037
308.15	.15	.09672	1032.872	.0037
308.15	.15	.11848	1035.352	.0037
308.15	.15	.14237	1038.05	.0037
318.15	.15	.05283	1023.514	.0037
318.15	.15	.07395	1025.933	.0037
318.15	.15	.09672	1028.516	.0037
318.15	.15	.11848	1030.962	.0037
318.15	.15	.14237	1033.623	.0037

System: melibiose + sodium tetraborate + water; phases: Liquid
Fixed: Pressure, kPa = 101
Property: Viscosity, Pa*s (Liquid); method: Capillary tube (Ostwald; Ubbelohde) method
Temperature, K	Solvent: Molality, mol/kg of sodium tetraborate	Molality, mol/kg of melibiose	Viscosity, Pa*s	uncertainty
288.15	.05	.04901	.0012751	.000002
288.15	.05	.07096	.0013141	.000002
288.15	.05	.09712	.0013606	.000002
288.15	.05	.12158	.0014034	.000002
288.15	.05	.14788	.0014499	.000002
298.15	.05	.04901	.0009936	.000002
298.15	.05	.07096	.0010229	.000002
298.15	.05	.09712	.0010572	.000002
298.15	.05	.12158	.0010894	.000002
298.15	.05	.14788	.0011239	.000002
308.15	.05	.04901	.0008031	.000002
308.15	.05	.07096	.000826	.000002
308.15	.05	.09712	.0008531	.000002
308.15	.05	.12158	.000878	.000002
308.15	.05	.14788	.0009048	.000002
318.15	.05	.04901	.0006619	.000002
318.15	.05	.07096	.0006798	.000002
318.15	.05	.09712	.0007012	.000002
318.15	.05	.12158	.0007211	.000002
318.15	.05	.14788	.0007424	.000002
288.15	.1	.04769	.0013374	.000002
288.15	.1	.07182	.0013842	.000002
288.15	.1	.09527	.0014288	.000002
288.15	.1	.12207	.0014798	.000002
288.15	.1	.14486	.0015235	.000002
298.15	.1	.04769	.0010366	.000002
298.15	.1	.07182	.0010712	.000002
298.15	.1	.09527	.0011047	.000002
298.15	.1	.12207	.0011427	.000002
298.15	.1	.14486	.0011751	.000002
308.15	.1	.04769	.0008356	.000002
308.15	.1	.07182	.0008623	.000002
308.15	.1	.09527	.0008883	.000002
308.15	.1	.12207	.0009179	.000002
308.15	.1	.14486	.000943	.000002
318.15	.1	.04769	.0006932	.000002
318.15	.1	.07182	.0007149	.000002
318.15	.1	.09527	.0007353	.000002
318.15	.1	.12207	.0007588	.000002
318.15	.1	.14486	.0007789	.000002
298.15	.12	.04992	.0010595	.000002
298.15	.12	.07205	.0010924	.000002
298.15	.12	.09607	.0011284	.000002
298.15	.12	.11942	.0011632	.000002
298.15	.12	.15814	.0012205	.000002
308.15	.12	.04992	.0008531	.000002
308.15	.12	.07205	.0008786	.000002
308.15	.12	.09607	.0009063	.000002
308.15	.12	.11942	.0009335	.000002
308.15	.12	.15814	.0009781	.000002
318.15	.12	.04992	.0007092	.000002
318.15	.12	.07205	.0007297	.000002
318.15	.12	.09607	.0007519	.000002
318.15	.12	.11942	.0007735	.000002
318.15	.12	.15814	.000809	.000002
298.15	.15	.05283	.0010922	.000002
298.15	.15	.07395	.0011247	.000002
298.15	.15	.09672	.0011607	.000002
298.15	.15	.11848	.0011948	.000002
298.15	.15	.14237	.001232	.000002
308.15	.15	.05283	.0008773	.000002
308.15	.15	.07395	.0009032	.000002
308.15	.15	.09672	.0009309	.000002
308.15	.15	.11848	.0009578	.000002
308.15	.15	.14237	.0009866	.000002
318.15	.15	.05283	.0007326	.000002
318.15	.15	.07395	.0007533	.000002
318.15	.15	.09672	.0007754	.000002
318.15	.15	.11848	.0007964	.000002
318.15	.15	.14237	.0008197	.000002

System: sodium tetraborate + water + D-(+)-lactose monohydrate; phases: Liquid
Fixed: Pressure, kPa = 101
Property: Mass density, kg/m3 (Liquid); method: Vibrating tube method
Temperature, K	Solvent: Molality, mol/kg of sodium tetraborate	Molality, mol/kg of D-(+)-lactose monohydrate	Mass density, kg/m3	uncertainty
288.15	.05	.07096	1018.157	.0037
288.15	.05	.09712	1021.372	.0037
288.15	.05	.12158	1024.349	.0037
288.15	.05	.14788	1027.52	.0037
288.15	.05	.04901	1015.435	.0037
298.15	.05	.07096	1015.701	.0037
298.15	.05	.09712	1018.88	.0037
298.15	.05	.12158	1021.83	.0037
298.15	.05	.14788	1024.969	.0037
298.15	.05	.04901	1013.011	.0037
308.15	.05	.07096	1012.433	.0037
308.15	.05	.09712	1015.572	.0037
308.15	.05	.12158	1018.48	.0037
308.15	.05	.14788	1021.58	.0037
308.15	.05	.04901	1009.777	.0037
318.15	.05	.07096	1008.354	.0037
318.15	.05	.09712	1011.454	.0037
318.15	.05	.12158	1014.327	.0037
318.15	.05	.14788	1017.389	.0037
318.15	.05	.04901	1005.73	.0037
288.15	.05	.05095	1015.637	.0037
288.15	.05	.06405	1017.251	.0037
288.15	.05	.08995	1020.414	.0037
288.15	.05	.09768	1021.352	.0037
288.15	.05	.11638	1023.607	.0037
288.15	.05	.12963	1025.193	.0037
298.15	.05	.05095	1013.193	.0037
298.15	.05	.06405	1014.783	.0037
298.15	.05	.08995	1017.899	.0037
298.15	.05	.09768	1018.822	.0037
298.15	.05	.11638	1021.044	.0037
298.15	.05	.12963	1022.606	.0037
308.15	.05	.05095	1009.954	.0037
308.15	.05	.06405	1011.523	.0037
308.15	.05	.08995	1014.6	.0037
308.15	.05	.09768	1015.514	.0037
308.15	.05	.11638	1017.709	.0037
308.15	.05	.12963	1019.254	.0037
318.15	.05	.05095	1005.894	.0037
318.15	.05	.06405	1007.439	.0037
318.15	.05	.08995	1010.47	.0037
318.15	.05	.09768	1011.367	.0037
318.15	.05	.11638	1013.527	.0037
318.15	.05	.12963	1015.046	.0037
288.15	.1	.04877	1024.482	.0037
288.15	.1	.07043	1027.035	.0037
288.15	.1	.08904	1029.208	.0037
288.15	.1	.09851	1030.307	.0037
288.15	.1	.11955	1032.734	.0037
288.15	.1	.13621	1034.641	.0037
298.15	.1	.04877	1021.874	.0037
298.15	.1	.07043	1024.382	.0037
298.15	.1	.08904	1026.518	.0037
298.15	.1	.09851	1027.597	.0037
298.15	.1	.11955	1029.981	.0037
298.15	.1	.13621	1031.853	.0037
308.15	.1	.04877	1018.468	.0037
308.15	.1	.07043	1020.933	.0037
308.15	.1	.08904	1023.032	.0037
308.15	.1	.09851	1024.093	.0037
308.15	.1	.11955	1026.436	.0037
308.15	.1	.13621	1028.275	.0037
318.15	.1	.04877	1014.285	.0037
318.15	.1	.07043	1016.711	.0037
318.15	.1	.08904	1018.776	.0037
318.15	.1	.09851	1019.821	.0037
318.15	.1	.11955	1022.125	.0037
318.15	.1	.13621	1023.936	.0037
298.15	.12	.0502	1025.498	.0037
298.15	.12	.06912	1027.661	.0037
298.15	.12	.08902	1029.916	.0037
298.15	.12	.09936	1031.08	.0037
298.15	.12	.12243	1033.658	.0037
298.15	.12	.13914	1035.509	.0037
308.15	.12	.0502	1022.071	.0037
308.15	.12	.06912	1024.199	.0037
308.15	.12	.08902	1026.419	.0037
308.15	.12	.09936	1027.564	.0037
308.15	.12	.12243	1030.101	.0037
308.15	.12	.13914	1031.924	.0037
318.15	.12	.0502	1017.833	.0037
318.15	.12	.06912	1019.92	.0037
318.15	.12	.08902	1022.096	.0037
318.15	.12	.09936	1023.22	.0037
318.15	.12	.12243	1025.705	.0037
318.15	.12	.13914	1027.489	.0037
298.15	.15	.05083	1030.821	.0037
298.15	.15	.07017	1032.997	.0037
298.15	.15	.08643	1034.811	.0037
298.15	.15	.09869	1036.17	.0037
298.15	.15	.11863	1038.366	.0037
298.15	.15	.13646	1040.313	.0037
308.15	.15	.05083	1027.291	.0037
308.15	.15	.07017	1029.433	.0037
308.15	.15	.08643	1031.221	.0037
308.15	.15	.09869	1032.559	.0037
308.15	.15	.11863	1034.722	.0037
308.15	.15	.13646	1036.639	.0037
318.15	.15	.05083	1022.981	.0037
318.15	.15	.07017	1025.08	.0037
318.15	.15	.08643	1026.833	.0037
318.15	.15	.09869	1028.145	.0037
318.15	.15	.11863	1030.264	.0037
318.15	.15	.13646	1032.144	.0037

System: sodium tetraborate + water + D-(+)-lactose monohydrate; phases: Liquid
Fixed: Pressure, kPa = 101
Property: Viscosity, Pa*s (Liquid); method: Capillary tube (Ostwald; Ubbelohde) method
Temperature, K	Solvent: Molality, mol/kg of sodium tetraborate	Molality, mol/kg of D-(+)-lactose monohydrate	Viscosity, Pa*s	uncertainty
288.15	.05	.05095	.001289	.000002
288.15	.05	.06405	.001315	.000002
288.15	.05	.08995	.0013654	.000002
288.15	.05	.09768	.0013799	.000002
288.15	.05	.11638	.0014163	.000002
288.15	.05	.12963	.0014416	.000002
298.15	.05	.05095	.0010044	.000002
298.15	.05	.06405	.0010237	.000002
298.15	.05	.08995	.0010613	.000002
298.15	.05	.09768	.0010726	.000002
298.15	.05	.11638	.0010995	.000002
298.15	.05	.12963	.0011184	.000002
308.15	.05	.05095	.0008121	.000002
308.15	.05	.06405	.0008276	.000002
308.15	.05	.08995	.0008569	.000002
308.15	.05	.09768	.0008661	.000002
308.15	.05	.11638	.0008871	.000002
308.15	.05	.12963	.0009017	.000002
318.15	.05	.05095	.0006685	.000002
318.15	.05	.06405	.0006803	.000002
318.15	.05	.08995	.0007036	.000002
318.15	.05	.09768	.0007104	.000002
318.15	.05	.11638	.000727	.000002
318.15	.05	.12963	.0007386	.000002
288.15	.1	.04877	.001354	.000002
288.15	.1	.07043	.0014016	.000002
288.15	.1	.08904	.0014423	.000002
288.15	.1	.09851	.0014626	.000002
288.15	.1	.11955	.0015077	.000002
288.15	.1	.13621	.0015432	.000002
298.15	.1	.04877	.0010493	.000002
298.15	.1	.07043	.0010844	.000002
298.15	.1	.08904	.0011147	.000002
298.15	.1	.09851	.00113	.000002
298.15	.1	.11955	.0011636	.000002
298.15	.1	.13621	.0011899	.000002
308.15	.1	.04877	.0008456	.000002
308.15	.1	.07043	.0008731	.000002
308.15	.1	.08904	.0008967	.000002
308.15	.1	.09851	.0009086	.000002
308.15	.1	.11955	.0009348	.000002
308.15	.1	.13621	.0009553	.000002
318.15	.1	.04877	.0007014	.000002
318.15	.1	.07043	.0007232	.000002
318.15	.1	.08904	.0007418	.000002
318.15	.1	.09851	.0007519	.000002
318.15	.1	.11955	.0007725	.000002
318.15	.1	.13621	.0007888	.000002
298.15	.12	.0502	.0010705	.000002
298.15	.12	.06912	.0011024	.000002
298.15	.12	.08902	.0011357	.000002
298.15	.12	.09936	.0011527	.000002
298.15	.12	.12243	.0011909	.000002
298.15	.12	.13914	.001218	.000002
308.15	.12	.0502	.0008615	.000002
308.15	.12	.06912	.0008864	.000002
308.15	.12	.08902	.0009122	.000002
308.15	.12	.09936	.0009257	.000002
308.15	.12	.12243	.0009552	.000002
308.15	.12	.13914	.0009764	.000002
318.15	.12	.0502	.0007161	.000002
318.15	.12	.06912	.0007361	.000002
318.15	.12	.08902	.0007566	.000002
318.15	.12	.09936	.0007673	.000002
318.15	.12	.12243	.0007909	.000002
318.15	.12	.13914	.0008078	.000002
298.15	.15	.05083	.0011007	.000002
298.15	.15	.07017	.0011355	.000002
298.15	.15	.08643	.0011641	.000002
298.15	.15	.09869	.0011859	.000002
298.15	.15	.11863	.0012208	.000002
298.15	.15	.13646	.0012518	.000002
308.15	.15	.05083	.0008842	.000002
308.15	.15	.07017	.0009111	.000002
308.15	.15	.08643	.0009336	.000002
308.15	.15	.09869	.0009505	.000002
308.15	.15	.11863	.0009775	.000002
308.15	.15	.13646	.0010015	.000002
318.15	.15	.05083	.0007385	.000002
318.15	.15	.07017	.00076	.000002
318.15	.15	.08643	.0007781	.000002
318.15	.15	.09869	.0007917	.000002
318.15	.15	.11863	.0008133	.000002
318.15	.15	.13646	.0008326	.000002

System: sodium tetraborate + trehalose, dihydrate + water; phases: Liquid
Fixed: Pressure, kPa = 101
Property: Mass density, kg/m3 (Liquid); method: Vibrating tube method
Temperature, K	Solvent: Molality, mol/kg of sodium tetraborate	Molality, mol/kg of trehalose, dihydrate	Mass density, kg/m3	uncertainty
288.15	.05	.05089	1015.564	.0037
288.15	.05	.06831	1017.686	.0037
288.15	.05	.09165	1020.503	.0037
288.15	.05	.11305	1023.064	.0037
288.15	.05	.13225	1025.341	.0037
298.15	.05	.05089	1013.13	.0037
298.15	.05	.06831	1015.222	.0037
298.15	.05	.09165	1018	.0037
298.15	.05	.11305	1020.524	.0037
298.15	.05	.13225	1022.767	.0037
308.15	.05	.05089	1009.881	.0037
308.15	.05	.06831	1011.941	.0037
308.15	.05	.09165	1014.673	.0037
308.15	.05	.11305	1017.152	.0037
308.15	.05	.13225	1019.357	.0037
318.15	.05	.05089	1005.823	.0037
318.15	.05	.06831	1007.854	.0037
318.15	.05	.09165	1010.549	.0037
318.15	.05	.11305	1012.994	.0037
318.15	.05	.13225	1015.169	.0037
288.15	.1	.05064	1024.667	.0037
288.15	.1	.07009	1026.94	.0037
288.15	.1	.08463	1028.625	.0037
288.15	.1	.12719	1033.489	.0037
288.15	.1	.14541	1035.541	.0037
298.15	.1	.05064	1022.053	.0037
298.15	.1	.07009	1024.287	.0037
298.15	.1	.08463	1025.944	.0037
298.15	.1	.12719	1030.727	.0037
298.15	.1	.14541	1032.745	.0037
308.15	.1	.05064	1018.658	.0037
308.15	.1	.07009	1020.86	.0037
308.15	.1	.08463	1022.493	.0037
308.15	.1	.12719	1027.21	.0037
308.15	.1	.14541	1029.205	.0037
318.15	.1	.05064	1014.468	.0037
318.15	.1	.07009	1016.632	.0037
318.15	.1	.08463	1018.237	.0037
318.15	.1	.12719	1022.87	.0037
318.15	.1	.14541	1024.826	.0037
298.15	.12	.04931	1025.352	.0037
298.15	.12	.07222	1027.946	.0037
298.15	.12	.0912	1030.074	.0037
298.15	.12	.12353	1033.655	.0037
298.15	.12	.14541	1036.049	.0037
308.15	.12	.04931	1021.922	.0037
308.15	.12	.07222	1024.472	.0037
308.15	.12	.0912	1026.563	.0037
308.15	.12	.12353	1030.081	.0037
308.15	.12	.14541	1032.432	.0037
318.15	.12	.04931	1017.707	.0037
318.15	.12	.07222	1020.218	.0037
318.15	.12	.0912	1022.278	.0037
318.15	.12	.12353	1025.744	.0037
318.15	.12	.14541	1028.06	.0037
298.15	.15	.04619	1030.253	.0037
298.15	.15	.06413	1032.257	.0037
298.15	.15	.08185	1034.219	.0037
298.15	.15	.09443	1035.603	.0037
298.15	.15	.13766	1040.294	.0037
308.15	.15	.04619	1026.716	.0037
308.15	.15	.06413	1028.683	.0037
308.15	.15	.08185	1030.608	.0037
308.15	.15	.09443	1031.964	.0037
308.15	.15	.13766	1036.564	.0037
318.15	.15	.04619	1022.528	.0037
318.15	.15	.06413	1024.498	.0037
318.15	.15	.08185	1026.427	.0037
318.15	.15	.09443	1027.788	.0037
318.15	.15	.13766	1032.403	.0037

System: sodium tetraborate + trehalose, dihydrate + water; phases: Liquid
Fixed: Pressure, kPa = 101
Property: Viscosity, Pa*s (Liquid); method: Capillary tube (Ostwald; Ubbelohde) method
Temperature, K	Solvent: Molality, mol/kg of sodium tetraborate	Molality, mol/kg of trehalose, dihydrate	Viscosity, Pa*s	uncertainty
288.15	.05	.05089	.0013078	.000002
288.15	.05	.06831	.001348	.000002
288.15	.05	.09165	.0014017	.000002
288.15	.05	.11305	.0014503	.000002
288.15	.1	.05064	.0013731	.000002
288.15	.1	.07009	.0014213	.000002
288.15	.1	.08463	.001457	.000002
288.15	.1	.12719	.0015602	.000002
288.15	.1	.14541	.0013731	.000002
298.15	.05	.05089	.0010189	.000002
298.15	.05	.06831	.0010496	.000002
298.15	.05	.09165	.0010903	.000002
298.15	.05	.11305	.0011269	.000002
298.15	.1	.05064	.001064	.000002
298.15	.1	.07009	.0011002	.000002
298.15	.1	.08463	.001127	.000002
298.15	.1	.12719	.0012043	.000002
298.15	.1	.14541	.001064	.000002
298.15	.12	.04931	.0010815	.000002
298.15	.12	.07222	.0011257	.000002
298.15	.12	.0912	.0011618	.000002
298.15	.12	.12353	.0012228	.000002
298.15	.12	.14541	.0012638	.000002
298.15	.15	.04619	.0011039	.000002
298.15	.15	.06413	.0011405	.000002
298.15	.15	.08185	.0011764	.000002
298.15	.15	.09443	.0012015	.000002
298.15	.15	.13766	.0012867	.000002
308.15	.05	.05089	.0008236	.000002
308.15	.05	.06831	.0008474	.000002
308.15	.05	.09165	.000879	.000002
308.15	.05	.11305	.0009077	.000002
308.15	.1	.05064	.0008563	.000002
308.15	.1	.07009	.0008841	.000002
308.15	.1	.08463	.0009049	.000002
308.15	.1	.12719	.0009646	.000002
308.15	.1	.14541	.0008563	.000002
308.15	.12	.04931	.0008705	.000002
308.15	.12	.07222	.000905	.000002
308.15	.12	.0912	.0009336	.000002
308.15	.12	.12353	.0009814	.000002
308.15	.12	.14541	.0010133	.000002
308.15	.15	.04619	.0008869	.000002
308.15	.15	.06413	.0009157	.000002
308.15	.15	.08185	.0009434	.000002
308.15	.15	.09443	.000963	.000002
308.15	.15	.13766	.0010296	.000002
318.15	.05	.05089	.0006778	.000002
318.15	.05	.06831	.0006967	.000002
318.15	.05	.09165	.0007219	.000002
318.15	.05	.11305	.0007444	.000002
318.15	.1	.05064	.0007109	.000002
318.15	.1	.07009	.0007336	.000002
318.15	.1	.08463	.0007504	.000002
318.15	.1	.12719	.0007989	.000002
318.15	.1	.14541	.0007109	.000002
318.15	.12	.04931	.0007234	.000002
318.15	.12	.07222	.0007511	.000002
318.15	.12	.0912	.0007738	.000002
318.15	.12	.12353	.000812	.000002
318.15	.12	.14541	.0008374	.000002
318.15	.15	.04619	.000741	.000002
318.15	.15	.06413	.0007641	.000002
318.15	.15	.08185	.0007866	.000002
318.15	.15	.09443	.0008026	.000002
318.15	.15	.13766	.0008564	.000002

System: sodium tetraborate + D-(+)-maltose monohydrate + water; phases: Liquid
Fixed: Pressure, kPa = 101
Property: Mass density, kg/m3 (Liquid); method: Vibrating tube method
Temperature, K	Solvent: Molality, mol/kg of sodium tetraborate	Molality, mol/kg of D-(+)-maltose monohydrate	Mass density, kg/m3	uncertainty
288.15	.05	.0534	1015.872	.0037
288.15	.05	.07033	1017.933	.0037
288.15	.05	.0908	1020.406	.0037
288.15	.05	.09804	1021.277	.0037
288.15	.05	.118	1023.66	.0037
288.15	.05	.13538	1025.72	.0037
298.15	.05	.0534	1013.418	.0037
298.15	.05	.07033	1015.447	.0037
298.15	.05	.0908	1017.883	.0037
298.15	.05	.09804	1018.739	.0037
298.15	.05	.118	1021.088	.0037
298.15	.05	.13538	1023.119	.0037
308.15	.05	.0534	1010.144	.0037
308.15	.05	.07033	1012.134	.0037
308.15	.05	.0908	1014.522	.0037
308.15	.05	.09804	1015.362	.0037
308.15	.05	.118	1017.662	.0037
308.15	.05	.13538	1019.651	.0037
318.15	.05	.0534	1006.066	.0037
318.15	.05	.07033	1008.024	.0037
318.15	.05	.0908	1010.372	.0037
318.15	.05	.09804	1011.198	.0037
318.15	.05	.118	1013.46	.0037
318.15	.05	.13538	1015.413	.0037
288.15	.1	.05109	1024.636	.0037
288.15	.1	.07381	1027.256	.0037
288.15	.1	.08459	1028.492	.0037
288.15	.1	.0993	1030.167	.0037
288.15	.1	.12242	1032.776	.0037
288.15	.1	.13933	1034.668	.0037
298.15	.1	.05109	1022.032	.0037
298.15	.1	.07381	1024.613	.0037
298.15	.1	.08459	1025.828	.0037
298.15	.1	.0993	1027.478	.0037
298.15	.1	.12242	1030.049	.0037
298.15	.1	.13933	1031.915	.0037
308.15	.1	.05109	1018.634	.0037
308.15	.1	.07381	1021.176	.0037
308.15	.1	.08459	1022.377	.0037
308.15	.1	.0993	1024.001	.0037
308.15	.1	.12242	1026.536	.0037
308.15	.1	.13933	1028.375	.0037
318.15	.1	.05109	1014.454	.0037
318.15	.1	.07381	1016.957	.0037
318.15	.1	.08459	1018.137	.0037
318.15	.1	.0993	1019.737	.0037
318.15	.1	.12242	1022.229	.0037
318.15	.1	.13933	1024.037	.0037
298.15	.12	.0481	1025.143	.0037
298.15	.12	.06942	1027.534	.0037
298.15	.12	.0875	1029.545	.0037
298.15	.12	.10003	1030.928	.0037
298.15	.12	.12041	1033.165	.0037
298.15	.12	.13678	1034.952	.0037
308.15	.12	.0481	1021.723	.0037
308.15	.12	.06942	1024.075	.0037
308.15	.12	.0875	1026.056	.0037
308.15	.12	.10003	1027.418	.0037
308.15	.12	.12041	1029.617	.0037
308.15	.12	.13678	1031.371	.0037
318.15	.12	.0481	1017.51	.0037
318.15	.12	.06942	1019.826	.0037
318.15	.12	.0875	1021.775	.0037
318.15	.12	.10003	1023.116	.0037
318.15	.12	.12041	1025.283	.0037
318.15	.12	.13678	1027.009	.0037
298.15	.15	.0502	1030.635	.0037
298.15	.15	.06916	1032.727	.0037
298.15	.15	.09084	1035.1	.0037
298.15	.15	.09989	1036.086	.0037
298.15	.15	.11944	1038.198	.0037
298.15	.15	.14214	1040.631	.0037
308.15	.15	.0502	1027.079	.0037
308.15	.15	.06916	1029.128	.0037
308.15	.15	.09084	1031.451	.0037
308.15	.15	.09989	1032.415	.0037
308.15	.15	.11944	1034.481	.0037
308.15	.15	.14214	1036.86	.0037
318.15	.15	.0502	1022.768	.0037
318.15	.15	.06916	1024.772	.0037
318.15	.15	.09084	1027.044	.0037
318.15	.15	.09989	1027.987	.0037
318.15	.15	.11944	1030.007	.0037
318.15	.15	.14214	1032.331	.0037

System: sodium tetraborate + D-(+)-maltose monohydrate + water; phases: Liquid
Fixed: Pressure, kPa = 101
Property: Viscosity, Pa*s (Liquid); method: Capillary tube (Ostwald; Ubbelohde) method
Temperature, K	Solvent: Molality, mol/kg of sodium tetraborate	Molality, mol/kg of D-(+)-maltose monohydrate	Viscosity, Pa*s	uncertainty
288.15	.05	.0534	.0012982	.000002
288.15	.05	.07033	.001333	.000002
288.15	.05	.0908	.0013741	.000002
288.15	.05	.09804	.0013885	.000002
288.15	.05	.118	.0014284	.000002
288.15	.05	.13538	.0014628	.000002
298.15	.05	.0534	.001012	.000002
298.15	.05	.07033	.001038	.000002
298.15	.05	.0908	.0010694	.000002
298.15	.05	.09804	.0010803	.000002
298.15	.05	.118	.0011104	.000002
298.15	.05	.13538	.0011364	.000002
308.15	.05	.0534	.0008176	.000002
308.15	.05	.07033	.0008379	.000002
308.15	.05	.0908	.0008623	.000002
308.15	.05	.09804	.000871	.000002
308.15	.05	.118	.0008942	.000002
308.15	.05	.13538	.0009144	.000002
318.15	.05	.0534	.0006731	.000002
318.15	.05	.07033	.000689	.000002
318.15	.05	.0908	.0007083	.000002
318.15	.05	.09804	.000715	.000002
318.15	.05	.118	.0007336	.000002
318.15	.05	.13538	.0007495	.000002
288.15	.1	.05109	.0013613	.000002
288.15	.1	.07381	.0014121	.000002
288.15	.1	.08459	.0014361	.000002
288.15	.1	.0993	.0014685	.000002
288.15	.1	.12242	.001519	.000002
288.15	.1	.13933	.0015556	.000002
298.15	.1	.05109	.001055	.000002
298.15	.1	.07381	.001093	.000002
298.15	.1	.08459	.0011111	.000002
298.15	.1	.0993	.0011351	.000002
298.15	.1	.12242	.0011729	.000002
298.15	.1	.13933	.0012002	.000002
308.15	.1	.05109	.00085	.000002
308.15	.1	.07381	.0008799	.000002
308.15	.1	.08459	.0008939	.000002
308.15	.1	.0993	.0009128	.000002
308.15	.1	.12242	.0009424	.000002
308.15	.1	.13933	.0009636	.000002
318.15	.1	.05109	.000705	.000002
318.15	.1	.07381	.0007284	.000002
318.15	.1	.08459	.0007396	.000002
318.15	.1	.0993	.0007546	.000002
318.15	.1	.12242	.0007781	.000002
318.15	.1	.12242	.0007951	.000002
298.15	.12	.0481	.0010693	.000002
298.15	.12	.06942	.0011064	.000002
298.15	.12	.0875	.0011373	.000002
298.15	.12	.10003	.0011585	.000002
298.15	.12	.12041	.0011931	.000002
298.15	.12	.13678	.0012205	.000002
308.15	.12	.0481	.0008608	.000002
308.15	.12	.06942	.0008896	.000002
308.15	.12	.0875	.0009139	.000002
308.15	.12	.10003	.0009305	.000002
308.15	.12	.12041	.0009575	.000002
308.15	.12	.13678	.000979	.000002
318.15	.12	.0481	.0007157	.000002
318.15	.12	.06942	.0007388	.000002
318.15	.12	.0875	.0007581	.000002
318.15	.12	.10003	.0007717	.000002
318.15	.12	.12041	.0007931	.000002
318.15	.12	.13678	.0008103	.000002
298.15	.15	.0502	.0011013	.000002
298.15	.15	.06916	.001136	.000002
298.15	.15	.09084	.0011751	.000002
298.15	.15	.09989	.0011915	.000002
298.15	.15	.11944	.0012266	.000002
298.15	.15	.14214	.0012664	.000002
308.15	.15	.0502	.0008853	.000002
308.15	.15	.06916	.0009125	.000002
308.15	.15	.09084	.0009431	.000002
308.15	.15	.09989	.000956	.000002
308.15	.15	.11944	.0009832	.000002
308.15	.15	.14214	.0010146	.000002
318.15	.15	.0502	.0007394	.000002
318.15	.15	.06916	.0007614	.000002
318.15	.15	.09084	.0007861	.000002
318.15	.15	.09989	.0007965	.000002
318.15	.15	.11944	.0008184	.000002
318.15	.15	.14214	.0008437	.000002

System: O-.alpha.-glucopyranosyl-(1,3)-O-.beta.-D- fructofuranosyl-(2,1)-.alpha.-D-glucopyranoside + sodium tetraborate + water; phases: Liquid
Fixed: Pressure, kPa = 101
Property: Mass density, kg/m3 (Liquid); method: Vibrating tube method
Temperature, K	Solvent: Molality, mol/kg of sodium tetraborate	Molality, mol/kg of O-.alpha.-glucopyranosyl-(1,3)-O-.beta.-D- fructofuranosyl-(2,1)-.alpha.-D-glucopyranoside	Mass density, kg/m3	uncertainty
288.15	.05	.04796	1017.876	.0037
288.15	.05	.0643	1020.748	.0037
288.15	.05	.09428	1025.944	.0037
288.15	.05	.11819	1030.021	.0037
288.15	.1	.04562	1026.681	.0037
288.15	.1	.07167	1031.166	.0037
288.15	.1	.0935	1034.869	.0037
288.15	.1	.1192	1039.163	.0037
298.15	.05	.04796	1015.443	.0037
298.15	.05	.0643	1018.288	.0037
298.15	.05	.09428	1023.432	.0037
298.15	.05	.11819	1027.467	.0037
298.15	.1	.04562	1024.101	.0037
298.15	.1	.07167	1028.549	.0037
298.15	.1	.0935	1032.224	.0037
298.15	.1	.1192	1036.487	.0037
308.15	.05	.04796	1012.197	.0037
308.15	.05	.0643	1015.012	.0037
308.15	.05	.09428	1020.107	.0037
308.15	.05	.11819	1024.105	.0037
308.15	.1	.04562	1020.701	.0037
308.15	.1	.07167	1025.096	.0037
308.15	.1	.0935	1028.725	.0037
308.15	.1	.1192	1032.937	.0037
318.15	.05	.04796	1008.12	.0037
318.15	.05	.0643	1010.901	.0037
318.15	.05	.09428	1015.93	.0037
318.15	.05	.11819	1019.877	.0037
318.15	.1	.04562	1016.503	.0037
318.15	.1	.07167	1020.838	.0037
318.15	.1	.0935	1024.419	.0037
318.15	.1	.1192	1028.572	.0037
298.15	.12	.05425	1029.045	.0037
298.15	.12	.06854	1031.462	.0037
298.15	.12	.08986	1035.028	.0037
298.15	.12	.12364	1040.586	.0037
308.15	.12	.05425	1025.605	.0037
308.15	.12	.06854	1027.995	.0037
308.15	.12	.08986	1031.522	.0037
308.15	.12	.12364	1037.014	.0037
318.15	.12	.05425	1021.336	.0037
318.15	.12	.06854	1023.69	.0037
318.15	.12	.08986	1027.164	.0037
318.15	.12	.12364	1032.572	.0037
298.15	.15	.05362	1034.131	.0037
298.15	.15	.07468	1037.627	.0037
298.15	.15	.10156	1042.023	.0037
298.15	.15	.12568	1045.907	.0037
308.15	.15	.05362	1030.602	.0037
308.15	.15	.07468	1034.065	.0037
308.15	.15	.10156	1038.419	.0037
308.15	.15	.12568	1042.265	.0037
318.15	.15	.05362	1026.291	.0037
318.15	.15	.07468	1029.711	.0037
318.15	.15	.10156	1034.009	.0037
318.15	.15	.12568	1037.807	.0037

System: O-.alpha.-glucopyranosyl-(1,3)-O-.beta.-D- fructofuranosyl-(2,1)-.alpha.-D-glucopyranoside + sodium tetraborate + water; phases: Liquid
Fixed: Pressure, kPa = 101
Property: Viscosity, Pa*s (Liquid); method: Capillary tube (Ostwald; Ubbelohde) method
Temperature, K	Solvent: Molality, mol/kg of sodium tetraborate	Molality, mol/kg of O-.alpha.-glucopyranosyl-(1,3)-O-.beta.-D- fructofuranosyl-(2,1)-.alpha.-D-glucopyranoside	Viscosity, Pa*s	uncertainty
288.15	.05	.04796	.0012941	.000002
288.15	.05	.0643	.0013298	.000002
288.15	.05	.09428	.0013941	.000002
288.15	.05	.11819	.0014445	.000002
298.15	.05	.04796	.0010083	.000002
298.15	.05	.0643	.0010351	.000002
298.15	.05	.09428	.0010833	.000002
298.15	.05	.11819	.0011211	.000002
308.15	.05	.04796	.000815	.000002
308.15	.05	.0643	.0008358	.000002
308.15	.05	.09428	.0008734	.000002
308.15	.05	.11819	.0009029	.000002
318.15	.05	.04796	.0006711	.000002
318.15	.05	.0643	.0006876	.000002
318.15	.05	.09428	.0007175	.000002
318.15	.05	.11819	.0007409	.000002
288.15	.1	.04562	.0013545	.000002
288.15	.1	.07167	.0014157	.000002
288.15	.1	.0935	.001466	.000002
288.15	.1	.1192	.0015244	.000002
298.15	.1	.04562	.0010498	.000002
298.15	.1	.07167	.0010953	.000002
298.15	.1	.0935	.0011329	.000002
298.15	.1	.1192	.0011764	.000002
308.15	.1	.04562	.0008455	.000002
308.15	.1	.07167	.0008808	.000002
308.15	.1	.0935	.0009099	.000002
308.15	.1	.1192	.0009437	.000002
318.15	.1	.04562	.0007012	.000002
318.15	.1	.07167	.0007294	.000002
318.15	.1	.0935	.0007526	.000002
318.15	.1	.1192	.0007795	.000002
298.15	.12	.05425	.001085	.000002
298.15	.12	.06854	.0011109	.000002
298.15	.12	.08986	.0011491	.000002
298.15	.12	.12364	.0012086	.000002
308.15	.12	.05425	.0008727	.000002
308.15	.12	.06854	.0008928	.000002
308.15	.12	.08986	.0009224	.000002
308.15	.12	.12364	.0009687	.000002
318.15	.12	.05425	.0007253	.000002
318.15	.12	.06854	.0007414	.000002
318.15	.12	.08986	.0007652	.000002
318.15	.12	.12364	.0008023	.000002
298.15	.15	.05351	.0011112	.000002
298.15	.15	.07048	.0011433	.000002
298.15	.15	.08869	.0011775	.000002
298.15	.15	.12405	.0012419	.000002
308.15	.15	.05351	.0008919	.000002
308.15	.15	.07048	.0009166	.000002
308.15	.15	.08869	.000943	.000002
308.15	.15	.12405	.0009928	.000002
318.15	.15	.05351	.0007448	.000002
318.15	.15	.07048	.0007647	.000002
318.15	.15	.08869	.000786	.000002
318.15	.15	.12405	.000826	.000002

System: sodium tetraborate + water + D-raffinose, pentahydrate; phases: Liquid
Fixed: Pressure, kPa = 101
Property: Mass density, kg/m3 (Liquid); method: Vibrating tube method
Temperature, K	Solvent: Molality, mol/kg of sodium tetraborate	Molality, mol/kg of D-raffinose, pentahydrate	Mass density, kg/m3	uncertainty
288.15	.05	.05305	1019.405	.0037
288.15	.05	.06903	1022.38	.0037
288.15	.05	.09039	1026.302	.0037
288.15	.05	.11482	1030.712	.0037
288.15	.05	.14231	1035.582	.0037
298.15	.05	.05305	1016.939	.0037
298.15	.05	.06903	1019.878	.0037
298.15	.05	.09039	1023.751	.0037
298.15	.05	.11482	1028.11	.0037
298.15	.05	.14231	1032.923	.0037
308.15	.05	.05305	1013.672	.0037
308.15	.05	.06903	1016.576	.0037
308.15	.05	.09039	1020.403	.0037
308.15	.05	.11482	1024.704	.0037
308.15	.05	.14231	1029.452	.0037
318.15	.05	.05305	1009.62	.0037
318.15	.05	.06903	1012.501	.0037
318.15	.05	.09039	1016.296	.0037
318.15	.05	.11482	1020.563	.0037
318.15	.05	.14231	1025.271	.0037
288.15	.1	.05181	1028.252	.0037
288.15	.1	.06956	1031.454	.0037
288.15	.1	.09045	1035.166	.0037
288.15	.1	.11674	1039.757	.0037
288.15	.1	.15921	1046.979	.0037
298.15	.1	.05181	1025.623	.0037
298.15	.1	.06956	1028.785	.0037
298.15	.1	.09045	1032.451	.0037
298.15	.1	.11674	1036.981	.0037
298.15	.1	.15921	1044.109	.0037
308.15	.1	.05181	1022.21	.0037
308.15	.1	.06956	1025.339	.0037
308.15	.1	.09045	1028.967	.0037
308.15	.1	.11674	1033.456	.0037
308.15	.1	.15921	1040.518	.0037
318.15	.1	.05181	1018.019	.0037
318.15	.1	.06956	1021.112	.0037
318.15	.1	.09045	1024.699	.0037
318.15	.1	.11674	1029.131	.0037
318.15	.1	.15921	1036.106	.0037
298.15	.12	.05121	1028.916	.0037
298.15	.12	.07318	1032.771	.0037
298.15	.12	.09076	1035.811	.0037
298.15	.12	.10993	1039.08	.0037
298.15	.12	.14688	1045.244	.0037
308.15	.12	.05121	1025.467	.0037
308.15	.12	.07318	1029.274	.0037
308.15	.12	.09076	1032.275	.0037
308.15	.12	.10993	1035.499	.0037
308.15	.12	.14688	1041.587	.0037
318.15	.12	.05121	1021.244	.0037
318.15	.12	.07318	1025.01	.0037
318.15	.12	.09076	1027.978	.0037
318.15	.12	.10993	1031.167	.0037
318.15	.12	.14688	1037.183	.0037
298.15	.15	.04976	1033.821	.0037
298.15	.15	.06754	1036.884	.0037
298.15	.15	.08946	1040.601	.0037
298.15	.15	.11652	1045.105	.0037
298.15	.15	.13764	1048.556	.0037
308.15	.15	.04976	1030.271	.0037
308.15	.15	.06754	1033.296	.0037
308.15	.15	.08946	1036.967	.0037
308.15	.15	.11652	1041.411	.0037
308.15	.15	.13764	1044.817	.0037
318.15	.15	.04976	1025.99	.0037
318.15	.15	.06754	1028.984	.0037
318.15	.15	.08946	1032.618	.0037
318.15	.15	.11652	1037.018	.0037
318.15	.15	.13764	1040.389	.0037

System: sodium tetraborate + water + D-raffinose, pentahydrate; phases: Liquid
Fixed: Pressure, kPa = 101
Property: Viscosity, Pa*s (Liquid); method: Capillary tube (Ostwald; Ubbelohde) method
Temperature, K	Solvent: Molality, mol/kg of sodium tetraborate	Molality, mol/kg of D-raffinose, pentahydrate	Viscosity, Pa*s	uncertainty
288.15	.05	.05305	.0013118	.000002
288.15	.05	.06903	.0013483	.000002
288.15	.05	.09039	.0013963	.000002
288.15	.05	.11482	.0014502	.000002
298.15	.05	.05305	.0010215	.000002
298.15	.05	.06903	.0010487	.000002
298.15	.05	.09039	.0010847	.000002
298.15	.05	.11482	.001125	.000002
308.15	.05	.05305	.0008256	.000002
308.15	.05	.06903	.0008471	.000002
308.15	.05	.09039	.0008752	.000002
308.15	.05	.11482	.0009069	.000002
318.15	.05	.05305	.0006791	.000002
318.15	.05	.06903	.0006959	.000002
318.15	.05	.09039	.0007181	.000002
318.15	.05	.11482	.0007431	.000002
288.15	.1	.05181	.001375	.000002
288.15	.1	.06956	.0014182	.000002
288.15	.1	.09045	.0014683	.000002
288.15	.1	.11674	.0015302	.000002
298.15	.1	.05181	.0010646	.000002
298.15	.1	.06956	.0010968	.000002
298.15	.1	.09045	.001134	.000002
298.15	.1	.11674	.0011801	.000002
308.15	.1	.05181	.0008575	.000002
308.15	.1	.06956	.0008825	.000002
308.15	.1	.09045	.0009116	.000002
308.15	.1	.11674	.0009474	.000002
318.15	.1	.05181	.0007105	.000002
318.15	.1	.06956	.0007303	.000002
318.15	.1	.09045	.0007534	.000002
318.15	.1	.11674	.0007818	.000002
298.15	.12	.05121	.0010844	.000002
298.15	.12	.07318	.0011261	.000002
298.15	.12	.09076	.0011588	.000002
298.15	.12	.10993	.001194	.000002
308.15	.12	.05121	.0008725	.000002
308.15	.12	.07318	.0009049	.000002
308.15	.12	.09076	.0009305	.000002
308.15	.12	.10993	.000958	.000002
318.15	.12	.05121	.0007244	.000002
318.15	.12	.07318	.0007501	.000002
318.15	.12	.09076	.0007704	.000002
318.15	.12	.10993	.0007922	.000002
298.15	.15	.04976	.0011097	.000002
298.15	.15	.06754	.0011451	.000002
298.15	.15	.08946	.0011879	.000002
298.15	.15	.11652	.0012398	.000002
308.15	.15	.04976	.0008912	.000002
308.15	.15	.06754	.0009188	.000002
308.15	.15	.08946	.0009521	.000002
308.15	.15	.11652	.0009924	.000002
318.15	.15	.04976	.0007439	.000002
318.15	.15	.06754	.0007659	.000002
318.15	.15	.08946	.0007926	.000002
318.15	.15	.11652	.0008248	.000002

System: sodium tetraborate + D-(+)-mannose (mixture of anomers) + water; phases: Liquid
Fixed: Pressure, kPa = 101
Property: Mass density, kg/m3 (Liquid); method: Vibrating tube method
Temperature, K	Solvent: Molality, mol/kg of sodium tetraborate	Molality, mol/kg of D-(+)-mannose (mixture of anomers)	Mass density, kg/m3	uncertainty
288.15	.05	.0478	1011.582	.0037
288.15	.05	.07084	1012.688	.0037
288.15	.05	.08951	1013.581	.0037
288.15	.05	.09907	1014.037	.0037
288.15	.05	.11374	1014.736	.0037
288.15	.05	.15089	1016.502	.0037
298.15	.05	.0478	1009.151	.0037
298.15	.05	.07084	1010.218	.0037
298.15	.05	.08951	1011.079	.0037
298.15	.05	.09907	1011.518	.0037
298.15	.05	.11374	1012.191	.0037
298.15	.05	.15089	1013.885	.0037
308.15	.05	.0478	1005.908	.0037
308.15	.05	.07084	1006.932	.0037
308.15	.05	.08951	1007.759	.0037
308.15	.05	.09907	1008.181	.0037
308.15	.05	.11374	1008.828	.0037
308.15	.05	.15089	1010.457	.0037
318.15	.05	.0478	1001.852	.0037
318.15	.05	.07084	1002.837	.0037
318.15	.05	.08951	1003.631	.0037
318.15	.05	.09907	1004.038	.0037
318.15	.05	.11374	1004.659	.0037
318.15	.05	.15089	1006.227	.0037
288.15	.1	.04996	1020.858	.0037
288.15	.1	.06937	1021.712	.0037
288.15	.1	.08803	1022.533	.0037
288.15	.1	.09976	1023.046	.0037
288.15	.1	.11494	1023.712	.0037
288.15	.1	.13848	1024.736	.0037
298.15	.1	.04996	1018.225	.0037
298.15	.1	.06937	1019.031	.0037
298.15	.1	.08803	1019.804	.0037
298.15	.1	.09976	1020.288	.0037
298.15	.1	.11494	1020.916	.0037
298.15	.1	.13848	1021.885	.0037
308.15	.1	.04996	1014.79	.0037
308.15	.1	.06937	1015.548	.0037
308.15	.1	.08803	1016.273	.0037
308.15	.1	.09976	1016.728	.0037
308.15	.1	.11494	1017.316	.0037
308.15	.1	.13848	1018.223	.0037
318.15	.1	.04996	1010.556	.0037
318.15	.1	.06937	1011.259	.0037
318.15	.1	.08803	1011.932	.0037
318.15	.1	.09976	1012.354	.0037
318.15	.1	.11494	1012.899	.0037
318.15	.1	.13848	1013.739	.0037
298.15	.12	.05526	1021.824	.0037
298.15	.12	.07008	1022.4	.0037
298.15	.12	.08713	1023.06	.0037
298.15	.12	.09879	1023.511	.0037
298.15	.12	.11657	1024.197	.0037
298.15	.12	.13515	1024.911	.0037
308.15	.12	.05526	1018.319	.0037
308.15	.12	.07008	1018.849	.0037
308.15	.12	.08713	1019.459	.0037
308.15	.12	.09879	1019.877	.0037
308.15	.12	.11657	1020.511	.0037
308.15	.12	.13515	1021.174	.0037
318.15	.12	.05526	1014.018	.0037
318.15	.12	.07008	1014.502	.0037
318.15	.12	.08713	1015.058	.0037
318.15	.12	.09879	1015.437	.0037
318.15	.12	.11657	1016.016	.0037
318.15	.12	.13515	1016.62	.0037
298.15	.15	.05035	1026.785	.0037
298.15	.15	.06945	1027.455	.0037
298.15	.15	.08917	1028.145	.0037
298.15	.15	.09827	1028.465	.0037
298.15	.15	.11934	1029.201	.0037
298.15	.15	.14164	1029.979	.0037
308.15	.15	.05035	1023.163	.0037
308.15	.15	.06945	1023.765	.0037
308.15	.15	.08917	1024.384	.0037
308.15	.15	.09827	1024.669	.0037
308.15	.15	.11934	1025.331	.0037
308.15	.15	.14164	1026.029	.0037
318.15	.15	.05035	1018.779	.0037
318.15	.15	.06945	1019.311	.0037
318.15	.15	.08917	1019.858	.0037
318.15	.15	.09827	1020.11	.0037
318.15	.15	.11934	1020.692	.0037
318.15	.15	.14164	1021.309	.0037

System: sodium tetraborate + D-(+)-mannose (mixture of anomers) + water; phases: Liquid
Fixed: Pressure, kPa = 101
Property: Viscosity, Pa*s (Liquid); method: Capillary tube (Ostwald; Ubbelohde) method
Temperature, K	Solvent: Molality, mol/kg of sodium tetraborate	Molality, mol/kg of D-(+)-mannose (mixture of anomers)	Viscosity, Pa*s	uncertainty
288.15	.05	.0478	.0012604	.000002
288.15	.05	.07084	.001295	.000002
288.15	.05	.08951	.0013229	.000002
288.15	.05	.09907	.0013371	.000002
288.15	.05	.11374	.001359	.000002
288.15	.05	.15089	.0014138	.000002
298.15	.05	.0478	.000982	.000002
298.15	.05	.07084	.0010075	.000002
298.15	.05	.08951	.0010281	.000002
298.15	.05	.09907	.0010386	.000002
298.15	.05	.11374	.0010549	.000002
298.15	.05	.15089	.0010951	.000002
308.15	.05	.0478	.0007938	.000002
308.15	.05	.07084	.0008136	.000002
308.15	.05	.08951	.0008295	.000002
308.15	.05	.09907	.0008375	.000002
308.15	.05	.11374	.0008499	.000002
308.15	.05	.15089	.0008809	.000002
318.15	.05	.0478	.000654	.000002
318.15	.05	.07084	.0006697	.000002
318.15	.05	.08951	.0006822	.000002
318.15	.05	.09907	.0006886	.000002
318.15	.05	.11374	.0006985	.000002
318.15	.05	.15089	.0007229	.000002
288.15	.1	.04996	.0013284	.000002
288.15	.1	.06937	.0013613	.000002
288.15	.1	.08803	.0013918	.000002
288.15	.1	.10004	.0014118	.000002
288.15	.1	.11461	.0014351	.000002
288.15	.1	.13848	.0014739	.000002
298.15	.1	.04996	.0010299	.000002
298.15	.1	.06937	.0010535	.000002
298.15	.1	.08803	.0010758	.000002
298.15	.1	.10004	.0010909	.000002
298.15	.1	.11461	.0011076	.000002
298.15	.1	.13848	.0011363	.000002
308.15	.1	.04996	.0008296	.000002
308.15	.1	.06937	.0008477	.000002
308.15	.1	.08803	.0008652	.000002
308.15	.1	.10004	.0008764	.000002
308.15	.1	.11461	.0008899	.000002
308.15	.1	.13848	.0009121	.000002
318.15	.1	.04996	.0006883	.000002
318.15	.1	.06937	.0007027	.000002
318.15	.1	.08803	.0007165	.000002
318.15	.1	.10004	.0007256	.000002
318.15	.1	.11461	.0007361	.000002
318.15	.1	.13848	.0007534	.000002
298.15	.12	.05526	.0010559	.000002
298.15	.12	.07008	.0010748	.000002
298.15	.12	.08713	.0010964	.000002
298.15	.12	.09879	.0011112	.000002
298.15	.12	.11657	.0011338	.000002
298.15	.12	.13515	.0011569	.000002
308.15	.12	.05526	.0008486	.000002
308.15	.12	.07008	.000863	.000002
308.15	.12	.08713	.0008793	.000002
308.15	.12	.09879	.0008906	.000002
308.15	.12	.11657	.0009076	.000002
308.15	.12	.13515	.0009254	.000002
318.15	.12	.05526	.0007057	.000002
318.15	.12	.07008	.0007173	.000002
318.15	.12	.08713	.0007305	.000002
318.15	.12	.09879	.0007395	.000002
318.15	.12	.11657	.0007532	.000002
318.15	.12	.13515	.0007674	.000002
298.15	.15	.05035	.0010775	.000002
298.15	.15	.06945	.0011033	.000002
298.15	.15	.08917	.00113	.000002
298.15	.15	.09827	.0011423	.000002
298.15	.15	.11934	.0011705	.000002
298.15	.15	.14164	.0012002	.000002
308.15	.15	.05035	.0008642	.000002
308.15	.15	.06945	.0008838	.000002
308.15	.15	.08917	.0009039	.000002
308.15	.15	.09827	.000913	.000002
308.15	.15	.11934	.0009342	.000002
308.15	.15	.14164	.0009564	.000002
318.15	.15	.05035	.0007219	.000002
318.15	.15	.06945	.0007372	.000002
318.15	.15	.08917	.0007533	.000002
318.15	.15	.09827	.0007606	.000002
318.15	.15	.11934	.0007774	.000002
318.15	.15	.14164	.0007951	.000002

System: sodium tetraborate + water; phases: Liquid
Property: Mass density, kg/m3 (Liquid); method: Vibrating tube method
Temperature, K	Molality, mol/kg of sodium tetraborate	Pressure, kPa	Mass density, kg/m3	uncertainty
288.15	.05	101	1009.275	.0037
298.15	.05	101	1006.923	.0037
308.15	.05	101	1003.768	.0037
318.15	.05	101	999.796	.0037
288.15	.1	101	1018.646	.0037
298.15	.1	101	1016.136	.0037
308.15	.1	101	1012.828	.0037
318.15	.1	101	1008.736	.0037
298.15	.12	101	1019.668	.0037
308.15	.12	101	1016.334	.0037
318.15	.12	101	1012.205	.0037
298.15	.15	101	1025.014	.0037
308.15	.15	101	1021.572	.0037
318.15	.15	101	1017.375	.0037

System: sodium tetraborate + water; phases: Liquid
Property: Viscosity, Pa*s (Liquid); method: Capillary tube (Ostwald; Ubbelohde) method
Temperature, K	Molality, mol/kg of sodium tetraborate	Pressure, kPa	Viscosity, Pa*s	uncertainty
288.15	.05	101	.0011876	.000002
298.15	.05	101	.0009284	.000002
308.15	.05	101	.0007526	.000002
318.15	.05	101	.0006216	.000002
288.15	.1	101	.0012451	.000002
298.15	.1	101	.0009681	.000002
308.15	.1	101	.0007823	.000002
298.15	.12	101	.0009845	.000002
308.15	.12	101	.0007945	.000002
318.15	.12	101	.0006626	.000002
318.15	.1	101	.0006508	.000002
298.15	.15	101	.0010081	.000002
308.15	.15	101	.0008122	.000002
318.15	.15	101	.0006806	.000002
