Measured thermophysical data. Liquid Liquid Equilibria for the Ternary Systems of Perfluorohexane or Perfluamine + Hydrofluoroether + Tetrahydrofuran at 298.15 K or 273.15 K
Source: J. Chem. Eng. Data, 2013, 10.1021/je400227m
Compound 1: perfluoro-n-hexane, C6F14, purity 99%
Compound 2: perfluorotripropylamine, C9F21N, purity 98%
Compound 3: 1-ethoxy-nonafluorobutane, C6H5F9O, purity 99%
Compound 4: 1,1,1,2,2,3,4,5,5,5-decafluoro-3-methosy-4-(trifluoromethyl)-pentane, C7H3F13O, purity 99%
Compound 5: 2-trifluoromethyl-3-ethoxydodecafluorohexane, C9H5F15O, purity 99%
Compound 6: oxacyclopentane, C4H8O, purity 99%

System: oxacyclopentane + perfluoro-n-hexane + 1-ethoxy-nonafluorobutane; phases: Liquid mixture 2, Liquid mixture 1
Fixed: Pressure, kPa = 101.325
Property: Mole fraction of 1-ethoxy-nonafluorobutane (Liquid mixture 2); method: Chromatography
Property: Mole fraction of 1-ethoxy-nonafluorobutane (Liquid mixture 1); method: Chromatography
Property: Mole fraction of perfluoro-n-hexane (Liquid mixture 1); method: Chromatography
Temperature, K	Mole fraction of perfluoro-n-hexane	Mole fraction of 1-ethoxy-nonafluorobutane	uncertainty	Mole fraction of 1-ethoxy-nonafluorobutane	uncertainty	Mole fraction of perfluoro-n-hexane	uncertainty
298.15	.8084	.0149	.001	.0046	.001	.0115	.001
298.15	.7635	.0423	.001	.0141	.001	.0135	.001
298.15	.7202	.0668	.001	.024	.001	.0182	.001
298.15	.682	.0878	.001	.0333	.001	.0219	.001
298.15	.6317	.1069	.001	.044	.001	.0256	.001
298.15	.5864	.1277	.001	.0563	.001	.0334	.001
298.15	.5426	.1441	.001	.068	.001	.0387	.001
298.15	.4714	.1657	.001	.0897	.001	.0554	.001
298.15	.4168	.1755	.001	.1076	.001	.0735	.001
273.15	.822	.0523	.001	.0157	.001	.0066	.001
273.15	.7669	.0849	.001	.0288	.001	.0101	.001
273.15	.702	.1226	.001	.0449	.001	.0138	.001
273.15	.6525	.1457	.001	.0578	.001	.0183	.001
273.15	.5822	.1772	.001	.0767	.001	.0242	.001
273.15	.5303	.1965	.001	.0928	.001	.0307	.001
273.15	.4855	.2116	.001	.1083	.001	.0379	.001
273.15	.4356	.2239	.001	.1263	.001	.0486	.001
273.15	.3877	.231	.001	.1402	.001	.0608	.001

System: oxacyclopentane + perfluoro-n-hexane + 1,1,1,2,2,3,4,5,5,5-decafluoro-3-methosy-4-(trifluoromethyl)-pentane; phases: Liquid mixture 1, Liquid mixture 2
Fixed: Pressure, kPa = 101.325
Property: Mole fraction of perfluoro-n-hexane (Liquid mixture 1); method: Chromatography
Property: Mole fraction of perfluoro-n-hexane (Liquid mixture 2); method: Chromatography
Property: Mole fraction of 1,1,1,2,2,3,4,5,5,5-decafluoro-3-methosy-4-(trifluoromethyl)-pentane (Liquid mixture 2); method: Chromatography
Temperature, K	Mole fraction of 1,1,1,2,2,3,4,5,5,5-decafluoro-3-methosy-4-(trifluoromethyl)-pentane	Mole fraction of perfluoro-n-hexane	uncertainty	Mole fraction of perfluoro-n-hexane	uncertainty	Mole fraction of 1,1,1,2,2,3,4,5,5,5-decafluoro-3-methosy-4-(trifluoromethyl)-pentane	uncertainty
298.15	.0068	.0102	.001	.7647	.001	.052	.001
298.15	.0145	.0131	.001	.6808	.001	.0977	.001
298.15	.021	.0146	.001	.6188	.001	.1303	.001
298.15	.03	.0183	.001	.5439	.001	.1637	.001
298.15	.0389	.0203	.001	.4732	.001	.1895	.001
298.15	.0458	.0233	.001	.4277	.001	.2015	.001
298.15	.0562	.0267	.001	.3771	.001	.2144	.001
298.15	.0646	.0322	.001	.3254	.001	.2219	.001
298.15	.0767	.0386	.001	.281	.001	.2245	.001
273.15	.0054	.0055	.001	.8292	.001	.0562	.001
273.15	.0102	.006	.001	.7614	.001	.0997	.001
273.15	.0162	.0069	.001	.6778	.001	.1477	.001
273.15	.0236	.0086	.001	.5889	.001	.1964	.001
273.15	.0299	.0095	.001	.5232	.001	.228	.001
273.15	.0395	.0114	.001	.4352	.001	.2638	.001
273.15	.0507	.0133	.001	.3531	.001	.2885	.001
273.15	.0555	.0143	.001	.327	.001	.2927	.001
273.15	.0689	.0177	.001	.2615	.001	.3012	.001

System: oxacyclopentane + perfluoro-n-hexane + 2-trifluoromethyl-3-ethoxydodecafluorohexane; phases: Liquid mixture 1, Liquid mixture 2
Fixed: Pressure, kPa = 101.325
Property: Mole fraction of perfluoro-n-hexane (Liquid mixture 1); method: Chromatography
Property: Mole fraction of perfluoro-n-hexane (Liquid mixture 2); method: Chromatography
Property: Mole fraction of 2-trifluoromethyl-3-ethoxydodecafluorohexane (Liquid mixture 2); method: Chromatography
Temperature, K	Mole fraction of 2-trifluoromethyl-3-ethoxydodecafluorohexane	Mole fraction of perfluoro-n-hexane	uncertainty	Mole fraction of perfluoro-n-hexane	uncertainty	Mole fraction of 2-trifluoromethyl-3-ethoxydodecafluorohexane	uncertainty
298.15	.0023	.0115	.001	.7997	.001	.0223	.001
298.15	.0058	.0113	.001	.7401	.001	.0531	.001
298.15	.0095	.0132	.001	.6825	.001	.0849	.001
298.15	.0166	.0152	.001	.5823	.001	.1336	.001
298.15	.0216	.0165	.001	.5158	.001	.162	.001
298.15	.0271	.0186	.001	.4564	.001	.1844	.001
298.15	.0381	.022	.001	.3641	.001	.2147	.001
298.15	.0441	.0257	.001	.3189	.001	.2211	.001
298.15	.0561	.0299	.001	.2648	.001	.2268	.001
273.15	.0025	.0054	.001	.8463	.001	.0377	.001
273.15	.0058	.0051	.001	.774	.001	.0817	.001
273.15	.0093	.0066	.001	.6956	.001	.1271	.001
273.15	.0125	.0067	.001	.6218	.001	.168	.001
273.15	.0169	.0069	.001	.5337	.001	.2116	.001
273.15	.0225	.0086	.001	.439	.001	.2556	.001
273.15	.0278	.0092	.001	.3598	.001	.2856	.001
273.15	.0322	.0094	.001	.3057	.001	.3039	.001
273.15	.0435	.0105	.001	.2183	.001	.314	.001

System: oxacyclopentane + perfluorotripropylamine + 1,1,1,2,2,3,4,5,5,5-decafluoro-3-methosy-4-(trifluoromethyl)-pentane; phases: Liquid mixture 1, Liquid mixture 2
Fixed: Pressure, kPa = 101.325
Property: Mole fraction of perfluorotripropylamine (Liquid mixture 1); method: Chromatography
Property: Mole fraction of perfluorotripropylamine (Liquid mixture 2); method: Chromatography
Property: Mole fraction of 1,1,1,2,2,3,4,5,5,5-decafluoro-3-methosy-4-(trifluoromethyl)-pentane (Liquid mixture 2); method: Chromatography
Temperature, K	Mole fraction of 1,1,1,2,2,3,4,5,5,5-decafluoro-3-methosy-4-(trifluoromethyl)-pentane	Mole fraction of perfluorotripropylamine	uncertainty	Mole fraction of perfluorotripropylamine	uncertainty	Mole fraction of 1,1,1,2,2,3,4,5,5,5-decafluoro-3-methosy-4-(trifluoromethyl)-pentane	uncertainty
298.15	.0099	.0036	.001	.7265	.001	.085	.001
298.15	.02	.0047	.001	.6283	.001	.1512	.001
298.15	.0289	.0058	.001	.5429	.001	.1946	.001
298.15	.036	.0068	.001	.4908	.001	.2239	.001
298.15	.0425	.0076	.001	.4419	.001	.2449	.001
298.15	.0562	.0098	.001	.3527	.001	.2734	.001
298.15	.0696	.0125	.001	.2874	.001	.2856	.001
298.15	.0845	.0158	.001	.2306	.001	.2885	.001
298.15	.0966	.0183	.001	.1936	.001	.287	.001
273.15	.0079	.0013	.001	.777	.001	.094	.001
273.15	.0141	.0016	.001	.6918	.001	.153	.001
273.15	.0201	.0019	.001	.6146	.001	.2018	.001
273.15	.0256	.0022	.001	.5522	.001	.2391	.001
273.15	.0328	.0027	.001	.477	.001	.2783	.001
273.15	.0398	.0031	.001	.4184	.001	.306	.001
273.15	.0477	.0038	.001	.3563	.001	.3305	.001
273.15	.0583	.0046	.001	.2912	.001	.351	.001
273.15	.0688	.0057	.001	.2412	.001	.3573	.001

System: oxacyclopentane + perfluoro-n-hexane; phases: Liquid mixture 1, Liquid mixture 2
Fixed: Pressure, kPa = 101.325
Property: Mole fraction of perfluoro-n-hexane (Liquid mixture 1); method: Chromatography
Temperature, K	Mole fraction of perfluoro-n-hexane	uncertainty
298.15	.01	
273.15	.0049	

System: oxacyclopentane + perfluoro-n-hexane; phases: Liquid mixture 2, Liquid mixture 1
Fixed: Pressure, kPa = 101.325
Property: Mole fraction of perfluoro-n-hexane (Liquid mixture 2); method: Chromatography
Temperature, K	Mole fraction of perfluoro-n-hexane	uncertainty
298.15	.8387	
273.15	.8984	

System: oxacyclopentane + perfluorotripropylamine; phases: Liquid mixture 1, Liquid mixture 2
Fixed: Pressure, kPa = 101.325
Property: Mole fraction of perfluorotripropylamine (Liquid mixture 1); method: Chromatography
Temperature, K	Mole fraction of perfluorotripropylamine	uncertainty
298.15	.0027	
273.15	.001	

System: oxacyclopentane + perfluorotripropylamine; phases: Liquid mixture 2, Liquid mixture 1
Fixed: Pressure, kPa = 101.325
Property: Mole fraction of perfluorotripropylamine (Liquid mixture 2); method: Chromatography
Temperature, K	Mole fraction of perfluorotripropylamine	uncertainty
298.15	.8558	
273.15	.8993	

System: oxacyclopentane + perfluorotripropylamine + 2-trifluoromethyl-3-ethoxydodecafluorohexane; phases: Liquid mixture 1, Liquid mixture 2
Fixed: Pressure, kPa = 101.325
Property: Mole fraction of perfluorotripropylamine (Liquid mixture 1); method: Chromatography
Property: Mole fraction of perfluorotripropylamine (Liquid mixture 2); method: Chromatography
Property: Mole fraction of 2-trifluoromethyl-3-ethoxydodecafluorohexane (Liquid mixture 2); method: Chromatography
Temperature, K	Mole fraction of 2-trifluoromethyl-3-ethoxydodecafluorohexane	Mole fraction of perfluorotripropylamine	uncertainty	Mole fraction of perfluorotripropylamine	uncertainty	Mole fraction of 2-trifluoromethyl-3-ethoxydodecafluorohexane	uncertainty
298.15	.0061	.0034	.001	.721	.001	.0733	.001
298.15	.012	.0042	.001	.6213	.001	.131	.001
298.15	.016	.0047	.001	.5614	.001	.1656	.001
298.15	.0196	.0052	.001	.5084	.001	.1883	.001
298.15	.0269	.0059	.001	.427	.001	.2243	.001
298.15	.0342	.0068	.001	.356	.001	.2484	.001
298.15	.0391	.008	.001	.3157	.001	.26	.001
298.15	.0469	.0094	.001	.26	.001	.2663	.001
298.15	.0622	.0124	.001	.1893	.001	.2639	.001
273.15	.0025	.0011	.001	.831	.001	.048	.001
273.15	.0045	.0011	.001	.7837	.001	.0848	.001
273.15	.0078	.0012	.001	.698	.001	.142	.001
273.15	.0113	.0014	.001	.614	.001	.1951	.001
273.15	.0126	.0014	.001	.5734	.001	.2226	.001
273.15	.0156	.0015	.001	.5195	.001	.2491	.001
273.15	.0189	.0017	.001	.453	.001	.2822	.001
273.15	.0212	.0018	.001	.4127	.001	.3047	.001
273.15	.0241	.0019	.001	.3673	.001	.3234	.001
