Measured thermophysical data. Effect of Substituent Groups in Anions on Some Physicochemical Properties of 1-Butyl-3-methylimidazolium Carboxylate Ionic Liquids
Source: J. Chem. Eng. Data, 2013, 10.1021/je4004299
Compound 1: 1-butyl-3-methylimidazolium lactate, C11H20N2O3
Compound 2: 3-butyl-1-methyl-1H-imidazol-3-ium benzoate, C15H20N2O2
Compound 3: 1-butyl-3-methylimidazolium glycolate, C10H18N2O3
Compound 4: 1-butyl-3-methyl-1H-imidazol-3-ium glycinate, C10H19N3O2

System: 1-butyl-3-methylimidazolium lactate; phases: Liquid
Fixed: Pressure, kPa = 101.325
Property: Mass density, kg/m3 (Liquid); method: Vibrating tube method
Temperature, K	Mass density, kg/m3	uncertainty
298.15	1100.2	.01
303.15	1096.63	.01
313.15	1089.79	.01
323.15	1083.17	.01
333.15	1076.42	.01
343.15	1069.75	.01

System: 1-butyl-3-methylimidazolium lactate; phases: Liquid, Air at 1 atmosphere
Property: Surface tension liquid-gas, N/m (Liquid); method: Pendant drop shape
Temperature, K	Surface tension liquid-gas, N/m	uncertainty
298.15	.0427	.0001
303.15	.0423	.0001
313.15	.0419	.0001
323.15	.0413	.0001
333.15	.0406	.0001
343.15	.04	.0001

System: 3-butyl-1-methyl-1H-imidazol-3-ium benzoate; phases: Liquid
Fixed: Pressure, kPa = 101.325
Property: Mass density, kg/m3 (Liquid); method: Vibrating tube method
Temperature, K	Mass density, kg/m3	uncertainty
298.15	1105.25	.01
303.15	1102.19	.01
313.15	1095.87	.01
323.15	1089.66	.01
333.15	1083.46	.01
343.15	1077.22	.01

System: 3-butyl-1-methyl-1H-imidazol-3-ium benzoate; phases: Liquid, Air at 1 atmosphere
Property: Surface tension liquid-gas, N/m (Liquid); method: Pendant drop shape
Temperature, K	Surface tension liquid-gas, N/m	uncertainty
298.15	.0401	.0001
303.15	.0397	.0001
313.15	.0391	.0001
323.15	.0387	.0001
333.15	.0383	.0001
343.15	.0378	.0001

System: 1-butyl-3-methylimidazolium glycolate; phases: Liquid
Fixed: Pressure, kPa = 101.325
Property: Mass density, kg/m3 (Liquid); method: Vibrating tube method
Temperature, K	Mass density, kg/m3	uncertainty
298.15	1129.32	.01
303.15	1125.95	.01
313.15	1118.97	.01
323.15	1111.78	.01
333.15	1104.3	.01
343.15	1097.73	.01

System: 1-butyl-3-methylimidazolium glycolate; phases: Liquid, Air at 1 atmosphere
Property: Surface tension liquid-gas, N/m (Liquid); method: Pendant drop shape
Temperature, K	Surface tension liquid-gas, N/m	uncertainty
298.15	.0497	.0001
303.15	.0492	.0001
313.15	.0484	.0001
323.15	.0476	.0001
333.15	.0468	.0001
343.15	.0461	.0001

System: 1-butyl-3-methyl-1H-imidazol-3-ium glycinate; phases: Liquid
Fixed: Pressure, kPa = 101.325
Property: Mass density, kg/m3 (Liquid); method: Vibrating tube method
Temperature, K	Mass density, kg/m3	uncertainty
298.15	1128.47	.01
303.15	1125.91	.01
313.15	1119.35	.01
323.15	1112.78	.01
333.15	1107.1	.01
343.15	1100.5	.01

System: 1-butyl-3-methyl-1H-imidazol-3-ium glycinate; phases: Liquid, Air at 1 atmosphere
Property: Surface tension liquid-gas, N/m (Liquid); method: Pendant drop shape
Temperature, K	Surface tension liquid-gas, N/m	uncertainty
298.15	.0545	.0001
303.15	.0536	.0001
313.15	.0519	.0001
323.15	.0505	.0001
333.15	.0484	.0001
343.15	.0468	.0001
