Measured thermophysical data. Determination of Vapor Pressures for Organophosphate Esters
Source: J. Chem. Eng. Data, 2014, 10.1021/je401026a
Compound 1: tris(2-chloroethyl) phosphate, C6H12Cl3O4P, purity 97%
Compound 2: tris(1-chloro-2-propyl) phosphate, C9H18Cl3O4P
Compound 3: tris(1,3-dichloro-2-propanol) phosphate, C9H15Cl6O4P, purity 96%
Compound 4: tris(2-butoxyethyl) phosphate, C18H39O7P, purity 94%
Compound 5: phosphoric acid, tris(2-ethylhexyl) ester, C24H51O4P, purity 97%
Compound 6: phosphoric acid, triphenyl ester, C18H15O4P, purity 98%
Compound 7: 2-ethylhexyl diphenyl phosphate, C20H27O4P, purity 91%
Compound 8: tris(2-(1-methylethyl)-phenol) phosphate, C27H33O4P
Compound 9: tri-2-tolyl phosphate, C21H21O4P, purity 98%
Compound 10: tri-(3-methylphenyl) phosphate, C21H21O4P, purity 97%
Compound 11: phosphoric acid, tri-p-cresyl ester, C21H21O4P, purity 98%

System: tris(2-chloroethyl) phosphate; phases: Liquid, Gas
Property: Vapor or sublimation pressure, kPa (Liquid); method: Gas chromatography
Temperature, K	Vapor or sublimation pressure, kPa	uncertainty
298	.000048	.000011

System: tris(2-chloroethyl) phosphate; phases: Liquid, Gas
Property: Molar enthalpy of vaporization or sublimation, kJ/mol (Liquid); method: Correlation gas chromatography
Temperature, K	Molar enthalpy of vaporization or sublimation, kJ/mol	uncertainty
348	82	10.2

System: tris(1-chloro-2-propyl) phosphate; phases: Liquid, Gas
Property: Vapor or sublimation pressure, kPa (Liquid); method: Gas chromatography
Temperature, K	Vapor or sublimation pressure, kPa	uncertainty
298	.000035	.0000083

System: tris(1-chloro-2-propyl) phosphate; phases: Liquid, Gas
Property: Molar enthalpy of vaporization or sublimation, kJ/mol (Liquid); method: Correlation gas chromatography
Temperature, K	Molar enthalpy of vaporization or sublimation, kJ/mol	uncertainty
348	85.2	10.6

System: tris(1,3-dichloro-2-propanol) phosphate; phases: Liquid, Gas
Property: Vapor or sublimation pressure, kPa (Liquid); method: Gas chromatography
Temperature, K	Vapor or sublimation pressure, kPa	uncertainty
298	.00000041	.00000014

System: tris(1,3-dichloro-2-propanol) phosphate; phases: Liquid, Gas
Property: Molar enthalpy of vaporization or sublimation, kJ/mol (Liquid); method: Correlation gas chromatography
Temperature, K	Molar enthalpy of vaporization or sublimation, kJ/mol	uncertainty
398	91.3	3.2

System: tris(2-butoxyethyl) phosphate; phases: Liquid, Gas
Property: Vapor or sublimation pressure, kPa (Liquid); method: Gas chromatography
Temperature, K	Vapor or sublimation pressure, kPa	uncertainty
298	.000000049	.000000018

System: tris(2-butoxyethyl) phosphate; phases: Liquid, Gas
Property: Molar enthalpy of vaporization or sublimation, kJ/mol (Liquid); method: Correlation gas chromatography
Temperature, K	Molar enthalpy of vaporization or sublimation, kJ/mol	uncertainty
398	102.6	3.6

System: phosphoric acid, tris(2-ethylhexyl) ester; phases: Liquid, Gas
Property: Vapor or sublimation pressure, kPa (Liquid); method: Gas chromatography
Temperature, K	Vapor or sublimation pressure, kPa	uncertainty
298	.000000021	.0000000081

System: phosphoric acid, tris(2-ethylhexyl) ester; phases: Liquid, Gas
Property: Molar enthalpy of vaporization or sublimation, kJ/mol (Liquid); method: Correlation gas chromatography
Temperature, K	Molar enthalpy of vaporization or sublimation, kJ/mol	uncertainty
398	106	3.7

System: phosphoric acid, triphenyl ester; phases: Liquid, Gas
Property: Vapor or sublimation pressure, kPa (Liquid); method: Gas chromatography
Temperature, K	Vapor or sublimation pressure, kPa	uncertainty
298	.00000027	.000000097

System: phosphoric acid, triphenyl ester; phases: Liquid, Gas
Property: Molar enthalpy of vaporization or sublimation, kJ/mol (Liquid); method: Correlation gas chromatography
Temperature, K	Molar enthalpy of vaporization or sublimation, kJ/mol	uncertainty
398	92.8	3.2

System: 2-ethylhexyl diphenyl phosphate; phases: Liquid, Gas
Property: Vapor or sublimation pressure, kPa (Liquid); method: Gas chromatography
Temperature, K	Vapor or sublimation pressure, kPa	uncertainty
298	.000000089	.000000031

System: 2-ethylhexyl diphenyl phosphate; phases: Liquid, Gas
Property: Molar enthalpy of vaporization or sublimation, kJ/mol (Liquid); method: Correlation gas chromatography
Temperature, K	Molar enthalpy of vaporization or sublimation, kJ/mol	uncertainty
398	99.9	3.5

System: tris(2-(1-methylethyl)-phenol) phosphate; phases: Liquid, Gas
Property: Vapor or sublimation pressure, kPa (Liquid); method: Gas chromatography
Temperature, K	Vapor or sublimation pressure, kPa	uncertainty
298	.000000006	.0000000025

System: tris(2-(1-methylethyl)-phenol) phosphate; phases: Liquid, Gas
Property: Molar enthalpy of vaporization or sublimation, kJ/mol (Liquid); method: Correlation gas chromatography
Temperature, K	Molar enthalpy of vaporization or sublimation, kJ/mol	uncertainty
398	108.5	3.8

System: tri-2-tolyl phosphate; phases: Liquid, Gas
Property: Vapor or sublimation pressure, kPa (Liquid); method: Gas chromatography
Temperature, K	Vapor or sublimation pressure, kPa	uncertainty
298	.000000051	.000000012

System: tri-2-tolyl phosphate; phases: Liquid, Gas
Property: Molar enthalpy of vaporization or sublimation, kJ/mol (Liquid); method: Correlation gas chromatography
Temperature, K	Molar enthalpy of vaporization or sublimation, kJ/mol	uncertainty
398	99.3	3.5

System: tri-(3-methylphenyl) phosphate; phases: Liquid, Gas
Property: Vapor or sublimation pressure, kPa (Liquid); method: Gas chromatography
Temperature, K	Vapor or sublimation pressure, kPa	uncertainty
298	.000000021	.0000000081

System: tri-(3-methylphenyl) phosphate; phases: Liquid, Gas
Property: Molar enthalpy of vaporization or sublimation, kJ/mol (Liquid); method: Correlation gas chromatography
Temperature, K	Molar enthalpy of vaporization or sublimation, kJ/mol	uncertainty
398	103.7	3.6

System: phosphoric acid, tri-p-cresyl ester; phases: Liquid, Gas
Property: Vapor or sublimation pressure, kPa (Liquid); method: Gas chromatography
Temperature, K	Vapor or sublimation pressure, kPa	uncertainty
298	.000000011	.0000000045

System: phosphoric acid, tri-p-cresyl ester; phases: Liquid, Gas
Property: Molar enthalpy of vaporization or sublimation, kJ/mol (Liquid); method: Correlation gas chromatography
Temperature, K	Molar enthalpy of vaporization or sublimation, kJ/mol	uncertainty
398	105.7	3.7
