Measured thermophysical data. Thermodynamic Properties and Detonation Characterization of 3,3-Dinitroazetidinium Hydrochloride
Source: J. Chem. Eng. Data, 2013, 10.1021/je400470q
Compound 1: 3,3-dinitroazetidinium hydrochloride, C3H6ClN3O4, purity 99.8%

System: 3,3-dinitroazetidinium hydrochloride; phases: Crystal
Fixed: Pressure, kPa = 101.325
Property: Molar heat capacity at constant pressure, J/K/mol (Crystal); method: Small sample (50 mg) DSC
Temperature, K	Molar heat capacity at constant pressure, J/K/mol	uncertainty
283	12.8874811	
293	13.2357914	
303	13.6081231	
313	13.9804548	
323	14.3527865	
333	14.7010968	
343	15.0013643	
353	15.2415783	
