Measured thermophysical data. Calorimetric Studies of the Interactions between Several Aminophosphonic Acids and Urea in Aqueous Solutions at 298.15 K
Source: J. Chem. Eng. Data, 2014, 10.1021/je400900h
Compound 1: (1-aminobutyl)phosphonic acid, C4H12NO3P, purity 99%
Compound 2: (1-amino-2-methylpropyl)phosphonic acid, C4H12NO3P, purity 99%
Compound 3: (1-amino-3-(methylthio)propyl)phosphonic acid, C4H12NO3PS, purity 99%
Compound 4: (1-(methylamino)propyl)phosphonic acid, C4H12NO3P, purity 99%
Compound 5: (1-(dimethylamino)propyl)phosphonic acid, C5H14NO3P, purity 99%
Compound 6: water, H2O, purity 99.9%
Compound 7: urea, CH4N2O, purity 99.5%

System: urea + water + (1-amino-2-methylpropyl)phosphonic acid; phases: Liquid
Fixed: Pressure, kPa = 101
Fixed: Temperature, K = 298.15
Property: Molar enthalpy of solution, kJ/mol (Liquid); method: Isoperibol calorimetry
Molality, mol/kg of urea	Molality, mol/kg of (1-amino-2-methylpropyl)phosphonic acid	Molar enthalpy of solution, kJ/mol	uncertainty
0	.001312	-.15	.02
0	.001438	-.1	.02
0	.001453	-.12	.02
0	.001551	-.1	.02
0	.001175	-.09	.02
0	.001659	-.08	.02
1	.000865	-.7	.02
1	.00154	-.66	.02
1	.001594	-.66	.02
1	.001757	-.69	.02
1	.001819	-.71	.02
2	.001031	-1.23	.02
2	.001091	-1.11	.02
2	.001298	-1.09	.02
2	.001328	-1.18	.02
2	.001488	-1.25	.02
3	.000861	-2.37	.02
3	.000922	-2.32	.02
3	.001252	-2.26	.02
3	.001385	-2.26	.02
3	.001433	-2.19	.02
4	.0013	-2.19	.02
4	.0014	-2.3	.02
4	.001441	-2.32	.02
4	.001486	-2.12	.02
4	.001561	-2.16	.02

System: urea + water + (1-aminobutyl)phosphonic acid; phases: Liquid
Fixed: Pressure, kPa = 101
Fixed: Temperature, K = 298.15
Property: Molar enthalpy of solution, kJ/mol (Liquid); method: Isoperibol calorimetry
Molality, mol/kg of urea	Molality, mol/kg of (1-aminobutyl)phosphonic acid	Molar enthalpy of solution, kJ/mol	uncertainty
0	.000783	-1.98	.02
0	.00081	-1.99	.02
0	.00086	-2.18	.02
0	.000893	-2.17	.02
0	.000957	-2.19	.02
.5	.000939	-2.33	.02
.5	.000937	-2.33	.02
.5	.001074	-2.35	.02
.5	.001095	-2.4	.02
.5	.001157	-2.35	.02
1	.000731	-2.69	.02
1	.000853	-2.81	.02
1	.000865	-2.64	.02
1	.000951	-2.65	.02
1	.001157	-2.82	.02
2	.00078	-3.47	.02
2	.000928	-3.58	.02
2	.000986	-3.54	.02
2	.001045	-3.44	.02
2	.001141	-3.56	.02
2.5	.000961	-3.73	.02
2.5	.001081	-3.62	.02
2.5	.001094	-3.61	.02
2.5	.001125	-3.69	.02
2.5	.001162	-3.6	.02
3	.000957	-3.65	.02
3	.001022	-3.81	.02
3	.000635	-3.69	.02
3	.001159	-3.79	.02
3	.001229	-3.82	.02

System: urea + water + (1-amino-3-(methylthio)propyl)phosphonic acid; phases: Liquid
Fixed: Pressure, kPa = 101
Fixed: Temperature, K = 298.15
Property: Molar enthalpy of solution, kJ/mol (Liquid); method: Isoperibol calorimetry
Molality, mol/kg of urea	Molality, mol/kg of (1-amino-3-(methylthio)propyl)phosphonic acid	Molar enthalpy of solution, kJ/mol	uncertainty
0	.000677	11.69	.02
0	.000694	11.85	.02
0	.000775	11.66	.02
0	.000849	11.7	.02
0	.001032	11.75	.02
0	.001043	11.68	.02
1	.000599	11.15	.02
1	.000815	10.75	.02
1	.000988	11.02	.02
1	.001033	10.86	.02
1	.001066	11.1	.02
1	.001083	10.8	.02
2.5	.000507	8.97	.02
2.5	.000626	8.95	.02
2.5	.000688	8.87	.02
2.5	.000777	8.9	.02
2.5	.001003	8.97	.02
3	.000614	8.43	.02
3	.000752	8.42	.02
3	.000836	8.39	.02
3	.000891	8.38	.02
3	.000957	8.29	.02

System: urea + water + (1-(methylamino)propyl)phosphonic acid; phases: Liquid
Fixed: Pressure, kPa = 101
Fixed: Temperature, K = 298.15
Property: Molar enthalpy of solution, kJ/mol (Liquid); method: Isoperibol calorimetry
Molality, mol/kg of urea	Molality, mol/kg of (1-(methylamino)propyl)phosphonic acid	Molar enthalpy of solution, kJ/mol	uncertainty
0	.000548	-7.16	.02
0	.000864	-7	.02
0	.000996	-7.23	.02
0	.001029	-6.98	.02
0	.001118	-7.08	.02
0	.001133	-7.05	.02
1	.000852	-7.94	.02
1	.000897	-8	.02
1	.000954	-7.93	.02
1	.001023	-8.1	.02
1	.001139	-7.96	.02
1	.001188	-8.05	.02
1.5	.000845	-7.99	.02
1.5	.000908	-8.17	.02
1.5	.000963	-8.04	.02
1.5	.00108	-7.99	.02
1.5	.001188	-8.09	.02
2	.000931	-8.08	.02
2	.001027	-8.1	.02
2	.001049	-8.1	.02
2	.001091	-8.26	.02
2	.001157	-8.03	.02
3	.00088	-8.33	.02
3	.001005	-8.4	.02
3	.001089	-8.32	.02
3	.001091	-8.33	.02
3	.001212	-8.3	.02

System: urea + water + (1-(dimethylamino)propyl)phosphonic acid; phases: Liquid
Fixed: Pressure, kPa = 101
Fixed: Temperature, K = 298.15
Property: Molar enthalpy of solution, kJ/mol (Liquid); method: Isoperibol calorimetry
Molality, mol/kg of urea	Molality, mol/kg of (1-(dimethylamino)propyl)phosphonic acid	Molar enthalpy of solution, kJ/mol	uncertainty
0	.000502	-7.13	.02
0	.000969	-7.18	.02
0	.000855	-7.15	.02
0	.00102	-7.14	.02
0	.00105	-7.17	.02
1	.001135	-8.3	.02
1	.000846	-8.29	.02
1	.000791	-8.33	.02
1	.000875	-8.38	.02
1	.000879	-8.39	.02
1	.001069	-8.35	.02
1.5	.000563	-8.52	.02
1.5	.000576	-8.56	.02
1.5	.000657	-8.55	.02
1.5	.000828	-8.52	.02
1.5	.001019	-8.51	.02
1.5	.001218	-8.69	.02
2	.000841	-8.78	.02
2	.000849	-8.63	.02
2	.000924	-8.59	.02
2	.000925	-8.72	.02
2	.00099	-8.54	.02
2	.001	-8.71	.02
2.5	.000886	-8.67	.02
2.5	.000844	-8.65	.02
2.5	.000935	-8.67	.02
2.5	.000936	-8.67	.02
2.5	.001026	-8.65	.02
2.5	.001105	-8.65	.02
3	.000647	-9.88	.02
3	.000921	-9.81	.02
3	.000946	-9.86	.02
3	.001018	-9.88	.02
3	.001021	-9.87	.02
3	.001064	-9.68	.02

System: water + (1-amino-2-methylpropyl)phosphonic acid; phases: Liquid
Property: Molar enthalpy of solution, kJ/mol (Liquid); method: Isoperibol calorimetry
Molality, mol/kg of (1-amino-2-methylpropyl)phosphonic acid	Pressure, kPa	Temperature, K	Molar enthalpy of solution, kJ/mol	uncertainty
.001312	101	298.15	-.15	.02
.001438	101	298.15	-.1	.02
.001453	101	298.15	-.12	.02
.001551	101	298.15	-.1	.02
.001175	101	298.15	-.09	.02
.001659	101	298.15	-.08	.02

System: water + (1-aminobutyl)phosphonic acid; phases: Liquid
Property: Molar enthalpy of solution, kJ/mol (Liquid); method: Isoperibol calorimetry
Molality, mol/kg of (1-aminobutyl)phosphonic acid	Pressure, kPa	Temperature, K	Molar enthalpy of solution, kJ/mol	uncertainty
.000783	101	298.15	-1.98	.02
.00081	101	298.15	-1.99	.02
.00086	101	298.15	-2.18	.02
.000893	101	298.15	-2.17	.02
.000957	101	298.15	-2.19	.02

System: water + (1-amino-3-(methylthio)propyl)phosphonic acid; phases: Liquid
Property: Molar enthalpy of solution, kJ/mol (Liquid); method: Isoperibol calorimetry
Molality, mol/kg of (1-amino-3-(methylthio)propyl)phosphonic acid	Pressure, kPa	Temperature, K	Molar enthalpy of solution, kJ/mol	uncertainty
.000677	101	298.15	11.69	.02
.000694	101	298.15	11.85	.02
.000775	101	298.15	11.66	.02
.000849	101	298.15	11.7	.02
.001032	101	298.15	11.75	.02
.001043	101	298.15	11.68	.02

System: water + (1-(methylamino)propyl)phosphonic acid; phases: Liquid
Property: Molar enthalpy of solution, kJ/mol (Liquid); method: Isoperibol calorimetry
Molality, mol/kg of (1-(methylamino)propyl)phosphonic acid	Pressure, kPa	Temperature, K	Molar enthalpy of solution, kJ/mol	uncertainty
.000548	101	298.15	-7.16	.02
.000864	101	298.15	-7	.02
.000996	101	298.15	-7.23	.02
.001029	101	298.15	-6.98	.02
.001118	101	298.15	-7.08	.02
.001133	101	298.15	-7.05	.02

System: water + (1-(dimethylamino)propyl)phosphonic acid; phases: Liquid
Property: Molar enthalpy of solution, kJ/mol (Liquid); method: Isoperibol calorimetry
Molality, mol/kg of (1-(dimethylamino)propyl)phosphonic acid	Pressure, kPa	Temperature, K	Molar enthalpy of solution, kJ/mol	uncertainty
.000502	101	298.15	-7.13	.02
.000969	101	298.15	-7.18	.02
.000855	101	298.15	-7.15	.02
.00102	101	298.15	-7.14	.02
.00105	101	298.15	-7.17	.02
