Measured thermophysical data. Thermal Properties of Cyano-Based Ionic Liquids
Source: J. Chem. Eng. Data, 2013, 10.1021/je400140n
Compound 1: 1-ethyl-3-methylimidazolium dicyanamide, C8H11N5, purity .98%
Compound 2: 1-butyl-3-methylimidazolium dicyanamide, C10H15N5, purity .98%
Compound 3: 1-ethyl-3-methylimidazolium thiocyanate, C7H11N3S, purity .98%
Compound 4: 1-butyl-3-methylimidazolium thiocyanate, C9H15N3S, purity .98%
Compound 5: 1-ethyl-3-methyl-1H-imidazolium tricyanomethanide, C10H11N5, purity .98%
Compound 6: tetramethylene sulfone, C4H8O2S, purity .99%

System: 1-ethyl-3-methylimidazolium dicyanamide; phases: Liquid
Fixed: Pressure, kPa = 101.325
Property: Molar heat capacity at constant pressure, J/K/mol (Liquid); method: Small sample (50 mg) DSC
Temperature, K	Molar heat capacity at constant pressure, J/K/mol	uncertainty
296.2	323.75653128	1.7720664
300.2	325.88301096	1.7720664
304.2	328.00949064	1.7720664
308.2	329.95876368	1.7720664
312.2	332.43965664	1.7720664
316.2	334.21172304	1.7720664
320.2	335.8065828	1.7720664
324.2	337.75585584	1.7720664
328.2	340.2367488	1.7720664
332.2	342.8948484	1.7720664
336.2	345.552948	1.7720664
340.2	348.2110476	1.7720664
344.2	351.22356048	1.7720664
348.2	354.41328	1.7720664
352.2	357.78020616	1.7720664
356.2	361.14713232	1.7720664
360.2	364.86847176	1.7720664
364.2	368.5898112	1.7720664
368.2	372.48835728	1.7720664
372.2	376.74131664	1.7720664

System: 1-butyl-3-methylimidazolium dicyanamide; phases: Liquid
Fixed: Pressure, kPa = 101.325
Property: Molar heat capacity at constant pressure, J/K/mol (Liquid); method: Small sample (50 mg) DSC
Temperature, K	Molar heat capacity at constant pressure, J/K/mol	uncertainty
296.2	359.4099098	2.052598
300.2	361.8730274	2.052598
304.2	363.1045862	2.052598
308.2	364.336145	2.052598
312.2	365.9782234	2.052598
316.2	367.2097822	2.052598
320.2	368.6466008	2.052598
324.2	370.0834194	2.052598
328.2	372.1360174	2.052598
332.2	374.3938752	2.052598
336.2	377.4727722	2.052598
340.2	380.3464094	2.052598
344.2	383.6305662	2.052598
348.2	386.7094632	2.052598
352.2	390.4041396	2.052598
356.2	394.5093356	2.052598
360.2	398.8197914	2.052598
364.2	403.335507	2.052598
368.2	408.2617422	2.052598
372.2	413.598497	2.052598

System: 1-ethyl-3-methylimidazolium thiocyanate; phases: Liquid
Fixed: Pressure, kPa = 101.325
Property: Molar heat capacity at constant pressure, J/K/mol (Liquid); method: Small sample (50 mg) DSC
Temperature, K	Molar heat capacity at constant pressure, J/K/mol	uncertainty
296.2	340.69714998	1.6924846
300.2	343.74362226	1.6924846
304.2	346.62084608	1.6924846
308.2	349.32882144	1.6924846
312.2	352.37529372	1.6924846
316.2	354.91402062	1.6924846
320.2	357.1142506	1.6924846
324.2	359.31448058	1.6924846
328.2	362.02245594	1.6924846
332.2	365.06892822	1.6924846
336.2	368.45389742	1.6924846
340.2	371.66961816	1.6924846
344.2	375.22383582	1.6924846
348.2	378.60880502	1.6924846
352.2	382.67076806	1.6924846
356.2	386.90197956	1.6924846
360.2	390.9639426	1.6924846
364.2	395.1951541	1.6924846
368.2	399.76486252	1.6924846
372.2	404.67306786	1.6924846

System: 1-butyl-3-methylimidazolium thiocyanate; phases: Liquid
Fixed: Pressure, kPa = 101.325
Property: Molar heat capacity at constant pressure, J/K/mol (Liquid); method: Small sample (50 mg) DSC
Temperature, K	Molar heat capacity at constant pressure, J/K/mol	uncertainty
296.2	382.96244442	1.9730162
300.2	387.6976833	1.9730162
304.2	392.03831894	1.9730162
308.2	395.39244648	1.9730162
312.2	398.94387564	1.9730162
316.2	401.90339994	1.9730162
320.2	404.07371776	1.9730162
324.2	407.03324206	1.9730162
328.2	410.3873696	1.9730162
332.2	414.13610038	1.9730162
336.2	417.88483116	1.9730162
340.2	421.83086356	1.9730162
344.2	425.77689596	1.9730162
348.2	429.72292836	1.9730162
352.2	433.86626238	1.9730162
356.2	437.61499316	1.9730162
360.2	442.54753366	1.9730162
364.2	447.28277254	1.9730162
368.2	452.21531304	1.9730162
372.2	457.34515516	1.9730162

System: 1-ethyl-3-methyl-1H-imidazolium tricyanomethanide; phases: Liquid
Fixed: Pressure, kPa = 101.325
Property: Molar heat capacity at constant pressure, J/K/mol (Liquid); method: Small sample (50 mg) DSC
Temperature, K	Molar heat capacity at constant pressure, J/K/mol	uncertainty
296.2	357.179771	2.0122804
300.2	360.1981916	2.0122804
304.2	362.41170004	2.0122804
308.2	363.82029632	2.0122804
312.2	365.83257672	2.0122804
316.2	367.44240104	2.0122804
320.2	368.85099732	2.0122804
324.2	370.2595936	2.0122804
328.2	372.07064596	2.0122804
332.2	374.48538244	2.0122804
336.2	376.90011892	2.0122804
340.2	379.3148554	2.0122804
344.2	381.72959188	2.0122804
348.2	384.3455564	2.0122804
352.2	387.16274896	2.0122804
356.2	390.18116956	2.0122804
360.2	392.99836212	2.0122804
364.2	396.21801076	2.0122804
368.2	399.23643136	2.0122804
372.2	403.05976412	2.0122804

System: tetramethylene sulfone; phases: Liquid
Fixed: Pressure, kPa = 101.325
Property: Molar heat capacity at constant pressure, J/K/mol (Liquid); method: Small sample (50 mg) DSC
Temperature, K	Molar heat capacity at constant pressure, J/K/mol	uncertainty
308.2	182.41976016	1.2017112
312.2	183.50130024	1.2017112
316.2	184.70301144	1.2017112
320.2	185.90472264	1.2017112
324.2	187.10643384	1.2017112
328.2	188.78882952	1.2017112
332.2	190.4712252	1.2017112
336.2	192.39396312	1.2017112
340.2	194.31670104	1.2017112
344.2	196.35961008	1.2017112
348.2	198.52269024	1.2017112
352.2	200.80594152	1.2017112
356.2	203.20936392	1.2017112
360.2	205.73295744	1.2017112
364.2	208.25655096	1.2017112
368.2	210.9003156	1.2017112
372.2	213.66425136	1.2017112
