Measured thermophysical data. Distribution of a Monovalent Anion in Various Ionic Liquid/Water Biphasic Systems: Relationship of the Distribution Ratio of Picrate Ions with the Aqueous Solubility of Ionic Liquids
Source: J. Chem. Eng. Data, 2014, 10.1021/je400726y
Compound 1: 1-hexyl-3-methylimidazolium hexafluorophosphate, C10H19F6N2P, purity 98%
Compound 2: 1-hexyl-3-methylimidazolium bis[(trifluoromethyl)sulfonyl]amide, C12H19F6N3O4S2, purity 98%
Compound 3: 1-methyl-3-octylimidazolium hexafluorophosphate, C12H23F6N2P, purity 98%
Compound 4: 1-octyl-3-methylimidazolium bis(perfluoroethylsulfonyl)imide, C16H23F10N3O4S2, purity 98%
Compound 5: 1-butyl-2,3-dimethyl-1H-imidazolium bis(trifluoromethylsulfonyl)amide, C11H17F6N3O4S2, purity 98%
Compound 6: 3-butyl-1H-imidazol-3-ium bis((trifluoromethyl)sulfonyl)amide, C9H13F6N3O4S2, purity 98%
Compound 7: 1-butylpyrrolidinium bis(trifluoromethylsulfonyl)amide, C10H18F6N2O4S2, purity 98%
Compound 8: water, H2O, purity 99.8%

System: water + 1-hexyl-3-methylimidazolium hexafluorophosphate; phases: Liquid mixture 1, Liquid mixture 2
Fixed: Pressure, kPa = 101
Property: Mole fraction of 1-hexyl-3-methylimidazolium hexafluorophosphate (Liquid mixture 1); method: picrate formation
Temperature, K	Mole fraction of 1-hexyl-3-methylimidazolium hexafluorophosphate	uncertainty
298.2	.000455	.000003

System: water + 1-hexyl-3-methylimidazolium bis[(trifluoromethyl)sulfonyl]amide; phases: Liquid mixture 1, Liquid mixture 2
Fixed: Pressure, kPa = 101
Property: Mole fraction of 1-hexyl-3-methylimidazolium bis[(trifluoromethyl)sulfonyl]amide (Liquid mixture 1); method: picrate formation
Temperature, K	Mole fraction of 1-hexyl-3-methylimidazolium bis[(trifluoromethyl)sulfonyl]amide	uncertainty
298.2	.0000862	.0000003

System: water + 1-methyl-3-octylimidazolium hexafluorophosphate; phases: Liquid mixture 1, Liquid mixture 2
Fixed: Pressure, kPa = 101
Property: Mole fraction of 1-methyl-3-octylimidazolium hexafluorophosphate (Liquid mixture 1); method: picrate formation
Temperature, K	Mole fraction of 1-methyl-3-octylimidazolium hexafluorophosphate	uncertainty
298.2	.000146	.000001

System: water + 1-octyl-3-methylimidazolium bis(perfluoroethylsulfonyl)imide; phases: Liquid mixture 1, Liquid mixture 2
Fixed: Pressure, kPa = 101
Property: Mole fraction of 1-octyl-3-methylimidazolium bis(perfluoroethylsulfonyl)imide (Liquid mixture 1); method: picrate formation
Temperature, K	Mole fraction of 1-octyl-3-methylimidazolium bis(perfluoroethylsulfonyl)imide	uncertainty
298.2	.000005298	.000000008

System: water + 1-butyl-2,3-dimethyl-1H-imidazolium bis(trifluoromethylsulfonyl)amide; phases: Liquid mixture 1, Liquid mixture 2
Fixed: Pressure, kPa = 101
Property: Mole fraction of 1-butyl-2,3-dimethyl-1H-imidazolium bis(trifluoromethylsulfonyl)amide (Liquid mixture 1); method: picrate formation
Temperature, K	Mole fraction of 1-butyl-2,3-dimethyl-1H-imidazolium bis(trifluoromethylsulfonyl)amide	uncertainty
298.2	.0001987	.0000008

System: water + 3-butyl-1H-imidazol-3-ium bis((trifluoromethyl)sulfonyl)amide; phases: Liquid mixture 1, Liquid mixture 2
Fixed: Pressure, kPa = 101
Property: Mole fraction of 3-butyl-1H-imidazol-3-ium bis((trifluoromethyl)sulfonyl)amide (Liquid mixture 1); method: picrate formation
Temperature, K	Mole fraction of 3-butyl-1H-imidazol-3-ium bis((trifluoromethyl)sulfonyl)amide	uncertainty
298.2	.0008159	.0000006

System: water + 1-butylpyrrolidinium bis(trifluoromethylsulfonyl)amide; phases: Liquid mixture 1, Liquid mixture 2
Fixed: Pressure, kPa = 101
Property: Mole fraction of 1-butylpyrrolidinium bis(trifluoromethylsulfonyl)amide (Liquid mixture 1); method: picrate formation
Temperature, K	Mole fraction of 1-butylpyrrolidinium bis(trifluoromethylsulfonyl)amide	uncertainty
298.2	.000574	.000002
