Measured thermophysical data. Liquid Liquid Equilibrium Data of the Ternary Systems Containing 1-Propanol/2-Propanol + Dipotassium Tartrate/Potassium Sodium Tartrate + Water at T = 298.15 K
Source: J. Chem. Eng. Data, 2013, 10.1021/je4000197
Compound 1: n-propyl alcohol, C3H8O, purity 99.5%
Compound 2: isopropanol, C3H8O, purity 99.5%
Compound 3: dipotassium tartrate, C4H4K2O6, purity 99%
Compound 4: potassium sodium tartrate, C4H4KNaO6, purity 99%
Compound 5: water, H2O

System: n-propyl alcohol + dipotassium tartrate + water; phases: Liquid mixture 1, Liquid mixture 2
Fixed: Pressure, kPa = 101
Fixed: Temperature, K = 298.15
Property: Mass fraction of dipotassium tartrate (Liquid mixture 1); method: Titration method
Mass fraction of n-propyl alcohol	Mass fraction of dipotassium tartrate	uncertainty
.574	.0099	.01
.4586	.0312	.01
.3454	.0541	.01
.3056	.0654	.01
.2636	.0771	.01
.2144	.0942	.01
.172	.1093	.01
.0845	.158	.01

System: n-propyl alcohol + dipotassium tartrate + water; phases: Liquid mixture 2, Liquid mixture 1
Fixed: Temperature, K = 298.15
Fixed: Pressure, kPa = 101
Property: Mass fraction of n-propyl alcohol (Liquid mixture 2); method: Titration method
Property: Mass fraction of n-propyl alcohol (Liquid mixture 1); method: Titration method
Property: Mass fraction of dipotassium tartrate (Liquid mixture 1); method: Titration method
Mass fraction of dipotassium tartrate	Mass fraction of n-propyl alcohol	uncertainty	Mass fraction of n-propyl alcohol	uncertainty	Mass fraction of dipotassium tartrate	uncertainty
.118	.105	.01	.631	.01	.008	.01
.241	.076	.01	.711	.01	.005	.01
.303	.05	.01	.772	.01	.003	.01
.398	.027	.01	.802	.01	.002	.01
.511	.01	.01	.851	.01	.001	.01

System: isopropanol + dipotassium tartrate + water; phases: Liquid mixture 1, Liquid mixture 2
Fixed: Pressure, kPa = 101
Fixed: Temperature, K = 298.15
Property: Mass fraction of dipotassium tartrate (Liquid mixture 1); method: Titration method
Mass fraction of isopropanol	Mass fraction of dipotassium tartrate	uncertainty
.6582	.007	.01
.5987	.0101	.01
.5512	.015	.01
.4894	.0254	.01
.4184	.0433	.01
.372	.0609	.01
.3301	.0782	.01
.2916	.0946	.01
.2562	.1145	.01
.2234	.1322	.01
.1884	.1535	.01
.1566	.1758	.01
.1371	.193	.01
.1111	.2181	.01
.0878	.2438	.01
.0687	.2681	.01
.0488	.3072	.01
.0369	.3443	.01
.029	.3776	.01
.0209	.4161	.01
.0182	.4327	.01

System: isopropanol + dipotassium tartrate + water; phases: Liquid mixture 2, Liquid mixture 1
Fixed: Temperature, K = 298.15
Fixed: Pressure, kPa = 101
Property: Mass fraction of isopropanol (Liquid mixture 2); method: Titration method
Property: Mass fraction of isopropanol (Liquid mixture 1); method: Titration method
Property: Mass fraction of dipotassium tartrate (Liquid mixture 1); method: Titration method
Mass fraction of dipotassium tartrate	Mass fraction of isopropanol	uncertainty	Mass fraction of isopropanol	uncertainty	Mass fraction of dipotassium tartrate	uncertainty
.21	.123	.01	.442	.01	.038	.01
.283	.067	.01	.539	.01	.017	.01
.346	.033	.01	.612	.01	.01	.01
.458	.006	.01	.772	.01	.001	.01
.531	.002	.01	.826	.01	.0001	.01

System: n-propyl alcohol + potassium sodium tartrate + water; phases: Liquid mixture 1, Liquid mixture 2
Fixed: Pressure, kPa = 101
Fixed: Temperature, K = 298.15
Property: Mass fraction of potassium sodium tartrate (Liquid mixture 1); method: Titration method
Mass fraction of n-propyl alcohol	Mass fraction of potassium sodium tartrate	uncertainty
.5596	.0118	.01
.4798	.0225	.01
.4238	.0337	.01
.3285	.0521	.01
.2896	.0637	.01
.2501	.0736	.01
.2083	.084	.01
.1243	.1175	.01

System: n-propyl alcohol + potassium sodium tartrate + water; phases: Liquid mixture 1, Liquid mixture 2
Fixed: Temperature, K = 298.15
Fixed: Pressure, kPa = 101
Property: Mass fraction of potassium sodium tartrate (Liquid mixture 1); method: Titration method
Property: Mass fraction of potassium sodium tartrate (Liquid mixture 2); method: Titration method
Property: Mass fraction of n-propyl alcohol (Liquid mixture 2); method: Titration method
Mass fraction of n-propyl alcohol	Mass fraction of potassium sodium tartrate	uncertainty	Mass fraction of potassium sodium tartrate	uncertainty	Mass fraction of n-propyl alcohol	uncertainty
.589	.009	.01	.143	.01	.094	.01
.62	.006	.01	.174	.01	.063	.01
.667	.005	.01	.223	.01	.044	.01
.709	.002	.01	.254	.01	.034	.01
.739	.001	.01	.324	.01	.015	.01

System: isopropanol + potassium sodium tartrate + water; phases: Liquid mixture 1, Liquid mixture 2
Fixed: Pressure, kPa = 101
Fixed: Temperature, K = 298.15
Property: Mass fraction of potassium sodium tartrate (Liquid mixture 1); method: Titration method
Mass fraction of isopropanol	Mass fraction of potassium sodium tartrate	uncertainty
.668	.003	.01
.604	.008	.01
.56	.013	.01
.52	.016	.01
.494	.02	.01
.468	.025	.01
.094	.224	.01
.069	.247	.01
.046	.272	.01
.032	.291	.01
.013	.335	.01
.005	.374	.01

System: isopropanol + potassium sodium tartrate + water; phases: Liquid mixture 1, Liquid mixture 2
Fixed: Temperature, K = 298.15
Fixed: Pressure, kPa = 101
Property: Mass fraction of potassium sodium tartrate (Liquid mixture 1); method: Titration method
Property: Mass fraction of potassium sodium tartrate (Liquid mixture 2); method: Titration method
Property: Mass fraction of isopropanol (Liquid mixture 2); method: Titration method
Mass fraction of isopropanol	Mass fraction of potassium sodium tartrate	uncertainty	Mass fraction of potassium sodium tartrate	uncertainty	Mass fraction of isopropanol	uncertainty
.468	.025	.01	.224	.01	.094	.01
.494	.02	.01	.247	.01	.069	.01
.52	.016	.01	.272	.01	.046	.01
.56	.013	.01	.291	.01	.032	.01
.604	.008	.01	.335	.01	.013	.01
.668	.003	.01	.374	.01	.005	.01
