Measured thermophysical data. Solubilities of Carbon Dioxide in Eutectic Mixtures of Choline Chloride and Dihydric Alcohols
Source: J. Chem. Eng. Data, 2014, 10.1021/je400884v
Compound 1: choline chloride, C5H14ClNO, purity 98.5%
Compound 2: 1,4-butanediol, C4H10O2, purity 99%
Compound 3: 2,3-butanediol, isomer not specified, C4H10O2, purity 99%
Compound 4: 1,2-propanediol, C3H8O2, purity 99%
Compound 5: carbon dioxide, CO2, purity 99.9%

System: choline chloride + 1,4-butanediol + carbon dioxide; phases: Liquid, Gas
Property: Mole fraction of carbon dioxide (Liquid); method: Pressure or Change on Dissolution
Temperature, K	Pressure, kPa	Amount ratio of solute to solvent of choline chloride	Mole fraction of carbon dioxide	uncertainty
293.15	110.9	.33	.0034	.000068
293.15	212.5	.33	.0069	.000138
293.15	312.5	.33	.01	.0002
293.15	412	.33	.0131	.000262
293.15	509.7	.33	.0164	.000328
303.15	113.1	.33	.0031	.000062
303.15	217.4	.33	.006	.00012
303.15	307.6	.33	.0087	.000174
303.15	406.3	.33	.0117	.000234
303.15	497.5	.33	.0142	.000284
313.15	121.4	.33	.0028	.000056
313.15	233.1	.33	.0052	.000104
313.15	321.6	.33	.0073	.000146
313.15	410.2	.33	.0097	.000194
313.15	502.8	.33	.0121	.000242
323.15	122.8	.33	.0025	.00005
323.15	218.3	.33	.0042	.000084
323.15	325.2	.33	.0064	.000128
323.15	425.9	.33	.0085	.00017
323.15	525.9	.33	.0103	.000206
293.15	109.5	.25	.0031	.000062
293.15	214.5	.25	.0062	.000124
293.15	316.4	.25	.0093	.000186
293.15	411.6	.25	.0123	.000246
293.15	513.4	.25	.0154	.000308
303.15	105.8	.25	.0027	.000054
303.15	205.8	.25	.0052	.000104
303.15	304.7	.25	.0082	.000164
303.15	403.3	.25	.011	.00022
303.15	503.6	.25	.0135	.00027
313.15	119.5	.25	.0026	.000052
313.15	223.2	.25	.0049	.000098
313.15	312.5	.25	.0071	.000142
313.15	410	.25	.0096	.000192
313.15	507.2	.25	.0119	.000238
323.15	123	.25	.0022	.000044
323.15	221.6	.25	.0039	.000078
323.15	332.6	.25	.0062	.000124
323.15	425.3	.25	.0081	.000162
323.15	519	.25	.0102	.000204

System: choline chloride + carbon dioxide + 2,3-butanediol, isomer not specified; phases: Liquid, Gas
Property: Mole fraction of carbon dioxide (Liquid); method: Pressure or Change on Dissolution
Temperature, K	Pressure, kPa	Amount ratio of solute to solvent of choline chloride	Mole fraction of carbon dioxide	uncertainty
293.15	114.3	.33	.0031	.000062
293.15	214	.33	.0061	.000122
293.15	316.6	.33	.0091	.000182
293.15	407.9	.33	.0121	.000242
293.15	511.3	.33	.0152	.000304
303.15	114	.33	.0028	.000056
303.15	214.6	.33	.0058	.000116
303.15	315.2	.33	.0082	.000164
303.15	412.3	.33	.0112	.000224
303.15	513.4	.33	.0139	.000278
313.15	119.3	.33	.0029	.000058
313.15	222.4	.33	.0054	.000108
313.15	325.5	.33	.0079	.000158
313.15	424.9	.33	.0102	.000204
313.15	528.8	.33	.0127	.000254
323.15	124	.33	.0026	.000052
323.15	217	.33	.0047	.000094
323.15	322	.33	.0071	.000142
323.15	421.5	.33	.0092	.000184
323.15	514.1	.33	.0116	.000232
293.15	107.1	.25	.0038	.000076
293.15	207.2	.25	.0071	.000142
293.15	309.7	.25	.0109	.000218
293.15	403	.25	.0148	.000296
293.15	508.5	.25	.0188	.000376
303.15	117.6	.25	.0035	.00007
303.15	218.7	.25	.0068	.000136
303.15	320.1	.25	.0102	.000204
303.15	409.2	.25	.0134	.000268
303.15	511.2	.25	.0167	.000334
313.15	110.9	.25	.003	.00006
313.15	217.2	.25	.0061	.000122
313.15	318	.25	.0087	.000174
313.15	414.9	.25	.0118	.000236
313.15	511	.25	.0145	.00029
323.15	116.4	.25	.003	.00006
323.15	214.1	.25	.0052	.000104
323.15	315.9	.25	.0078	.000156
323.15	425.7	.25	.0106	.000212
323.15	512.5	.25	.013	.00026

System: 1,2-propanediol + choline chloride + carbon dioxide; phases: Liquid, Gas
Property: Mole fraction of carbon dioxide (Liquid); method: Pressure or Change on Dissolution
Temperature, K	Pressure, kPa	Amount ratio of solute to solvent of choline chloride	Mole fraction of carbon dioxide	uncertainty
293.15	108.5	.33	.0033	.000066
293.15	204.7	.33	.0063	.000126
293.15	312.2	.33	.0098	.000196
293.15	408.8	.33	.0131	.000262
293.15	514.5	.33	.0165	.00033
303.15	117.5	.33	.0028	.000056
303.15	222.1	.33	.006	.00012
303.15	317	.33	.0084	.000168
303.15	422	.33	.0113	.000226
303.15	517	.33	.014	.00028
313.15	125.4	.33	.0024	.000048
313.15	217.8	.33	.0044	.000088
313.15	317.6	.33	.0067	.000134
313.15	420.5	.33	.0093	.000186
313.15	515.4	.33	.0115	.00023
323.15	123	.33	.0019	.000038
323.15	236	.33	.0039	.000078
323.15	334.3	.33	.0059	.000118
323.15	426.3	.33	.0078	.000156
323.15	524.7	.33	.0094	.000188
293.15	104.4	.25	.0031	.000062
293.15	209.6	.25	.0064	.000128
293.15	307.6	.25	.0094	.000188
293.15	401.1	.25	.0127	.000254
293.15	501.5	.25	.0165	.00033
303.15	117.2	.25	.0027	.000054
303.15	220.1	.25	.005	.0001
303.15	321.7	.25	.0075	.00015
303.15	415.6	.25	.0101	.000202
303.15	517.5	.25	.0129	.000258
313.15	121.6	.25	.0021	.000042
313.15	225.2	.25	.0043	.000086
313.15	325.1	.25	.006	.00012
313.15	421.4	.25	.0081	.000162
313.15	525.6	.25	.0106	.000212
323.15	122.5	.25	.002	.00004
323.15	226.6	.25	.0036	.000072
323.15	326.5	.25	.0052	.000104
323.15	425	.25	.0071	.000142
323.15	519.8	.25	.0087	.000174

System: 1,2-propanediol + choline chloride; phases: Liquid
Fixed: Pressure, kPa = 101
Property: Mass density, kg/m3 (Liquid); method: Pycnometric method
Amount ratio of solute to solvent of choline chloride	Temperature, K	Mass density, kg/m3	uncertainty
.33	293.15	1066.6	.8
.33	303.15	1059.9	.8
.33	313.15	1053.3	.8
.33	323.15	1046.7	.8
.25	293.15	1066.3	.8
.25	303.15	1060.2	.8
.25	313.15	1054.1	.8
.25	323.15	1048	.8

System: choline chloride + 1,4-butanediol; phases: Liquid
Fixed: Pressure, kPa = 101
Property: Mass density, kg/m3 (Liquid); method: Pycnometric method
Amount ratio of solute to solvent of choline chloride	Temperature, K	Mass density, kg/m3	uncertainty
.33	293.15	1052.4	.8
.33	303.15	1049	.8
.33	313.15	1043.2	.8
.33	323.15	1038.4	.8
.25	293.15	1044.5	.8
.25	303.15	1041.1	.8
.25	313.15	1035.4	.8
.25	323.15	1030.6	.8

System: choline chloride + 2,3-butanediol, isomer not specified; phases: Liquid
Fixed: Pressure, kPa = 101
Property: Mass density, kg/m3 (Liquid); method: Pycnometric method
Amount ratio of solute to solvent of choline chloride	Temperature, K	Mass density, kg/m3	uncertainty
.33	293.15	1046.8	.8
.33	303.15	1039	.8
.33	313.15	1035.7	.8
.33	323.15	1030	.8
.25	293.15	1035	.8
.25	303.15	1030.9	.8
.25	313.15	1026.5	.8
.25	323.15	1019.7	.8
