Measured thermophysical data. Effect of Temperature and Anion on Densities, Viscosities, and Refractive Indices of 1-Octyl-3-propanenitrile Imidazolium-Based Ionic Liquids
Source: J. Chem. Eng. Data, 2014, 10.1021/je400824z
Compound 1: 3-(2-cyanoethyl)-1-octylimidazolium bis(2-ethylhexyl) sulfosuccinate, C34H61N3O7S
Compound 2: 3-(2-cyanoethyl)-1-octylimidazolium decylsulfate, C24H45N3O4S
Compound 3: 3-(2-cyanoethyl)-1-octyl-1H-imidazol-3-ium 3-sulfobenzoate, C21H29N3O5S
Compound 4: 3-(2-cyanoethyl)-1-octylimidazolium benzenesulfonate, C20H29N3O3S
Compound 5: 3-(2-cyanoethyl)-1-octyl-1H-imidazol-3-ium trifluoromethanesulfonate, C15H24F3N3O3S

System: 3-(2-cyanoethyl)-1-octylimidazolium bis(2-ethylhexyl) sulfosuccinate; phases: Liquid
Fixed: Pressure, kPa = 101.325
Property: Mass density, kg/m3 (Liquid); method: Vibrating tube method
Temperature, K	Mass density, kg/m3	uncertainty
293.15	1057.9	.5
298.15	1054.3	.5
303.15	1050.8	.5
308.15	1047.3	.5
313.15	1043.9	.5
318.15	1040.4	.5
323.15	1037	.5
328.15	1033.6	.5
333.15	1030.2	.5
338.15	1026.7	.5
343.15	1023.3	.5
348.15	1019.9	.5
353.15	1016.5	.5

System: 3-(2-cyanoethyl)-1-octylimidazolium bis(2-ethylhexyl) sulfosuccinate; phases: Liquid
Fixed: Pressure, kPa = 101.325
Property: Viscosity, Pa*s (Liquid); method: Concentric cylinders viscometry
Temperature, K	Viscosity, Pa*s	uncertainty
303.15	16.7853	.05874855
308.15	10.6237	.03718295
313.15	6.3748	.0223118
318.15	4.0592	.0142072
323.15	2.6726	.0093541
328.15	1.7833	.00624155
333.15	1.2261	.00429135
338.15	.8663	.00303205
343.15	.6041	.00211435
348.15	.4178	.0014623
353.15	.2846	.0009961

System: 3-(2-cyanoethyl)-1-octylimidazolium bis(2-ethylhexyl) sulfosuccinate; phases: Liquid
Fixed: Pressure, kPa = 101.325
Property: Refractive index (Na D-line) (Liquid); method: Standard Abbe refractometry
Temperature, K	Refractive index (Na D-line)	uncertainty
298.15	1.47692	
303.15	1.47518	
308.15	1.47393	
313.15	1.47253	
318.15	1.47099	
323.15	1.46946	
328.15	1.46798	
333.15	1.46636	

System: 3-(2-cyanoethyl)-1-octylimidazolium decylsulfate; phases: Liquid
Fixed: Pressure, kPa = 101.325
Property: Mass density, kg/m3 (Liquid); method: Vibrating tube method
Temperature, K	Mass density, kg/m3	uncertainty
293.15	1084.9	.5
298.15	1081.7	.5
303.15	1078.5	.5
308.15	1075.1	.5
313.15	1072.4	.5
318.15	1068.6	.5
323.15	1065.5	.5
328.15	1062.3	.5
333.15	1059.2	.5
338.15	1056.1	.5
343.15	1053.2	.5
348.15	1050	.5
353.15	1046.9	.5

System: 3-(2-cyanoethyl)-1-octylimidazolium decylsulfate; phases: Liquid
Fixed: Pressure, kPa = 101.325
Property: Viscosity, Pa*s (Liquid); method: Concentric cylinders viscometry
Temperature, K	Viscosity, Pa*s	uncertainty
298.15	21.6451	.07575785
303.15	12.9985	.04549475
308.15	8.3227	.02912945
313.15	5.0942	.0178297
318.15	3.1951	.01118285
323.15	2.0713	.00724955
328.15	1.3908	.0048678
333.15	.9748	.0034118
338.15	.6948	.0024318
343.15	.4614	.0016149
348.15	.3296	.0011536
353.15	.23	.000805

System: 3-(2-cyanoethyl)-1-octylimidazolium decylsulfate; phases: Liquid
Fixed: Pressure, kPa = 101.325
Property: Refractive index (Na D-line) (Liquid); method: Standard Abbe refractometry
Temperature, K	Refractive index (Na D-line)	uncertainty
298.15	1.47928	
303.15	1.47758	
308.15	1.47597	
313.15	1.47454	
318.15	1.47274	
323.15	1.47098	
328.15	1.46963	
333.15	1.46785	

System: 3-(2-cyanoethyl)-1-octyl-1H-imidazol-3-ium 3-sulfobenzoate; phases: Liquid
Fixed: Pressure, kPa = 101.325
Property: Mass density, kg/m3 (Liquid); method: Vibrating tube method
Temperature, K	Mass density, kg/m3	uncertainty
293.15	1185.9	.5
298.15	1182.8	.5
303.15	1179.4	.5
308.15	1175.7	.5
313.15	1172.1	.5
318.15	1169	.5
323.15	1165.6	.5
328.15	1161.9	.5
333.15	1158.3	.5
338.15	1154.9	.5
343.15	1151.2	.5
348.15	1148.1	.5
353.15	1144.4	.5

System: 3-(2-cyanoethyl)-1-octyl-1H-imidazol-3-ium 3-sulfobenzoate; phases: Liquid
Fixed: Pressure, kPa = 101.325
Property: Viscosity, Pa*s (Liquid); method: Concentric cylinders viscometry
Temperature, K	Viscosity, Pa*s	uncertainty
293.15	23.6172	.0826602
298.15	14.4202	.0504707
303.15	9.2634	.0324219
308.15	5.8208	.0203728
313.15	3.685	.0128975
318.15	2.4048	.0084168
323.15	1.5247	.00533645
328.15	1.0656	.0037296
333.15	.7017	.00245595
338.15	.4553	.00159355
343.15	.2986	.0010451
348.15	.1882	.0006587
353.15	.1214	.0004249

System: 3-(2-cyanoethyl)-1-octyl-1H-imidazol-3-ium 3-sulfobenzoate; phases: Liquid
Fixed: Pressure, kPa = 101.325
Property: Refractive index (Na D-line) (Liquid); method: Standard Abbe refractometry
Temperature, K	Refractive index (Na D-line)	uncertainty
298.15	1.51801	
303.15	1.51692	
308.15	1.51572	
313.15	1.5145	
318.15	1.51321	
323.15	1.51191	
328.15	1.51058	
333.15	1.50912	

System: 3-(2-cyanoethyl)-1-octylimidazolium benzenesulfonate; phases: Liquid
Fixed: Pressure, kPa = 101.325
Property: Mass density, kg/m3 (Liquid); method: Vibrating tube method
Temperature, K	Mass density, kg/m3	uncertainty
293.15	1208.7	.5
298.15	1205.2	.5
303.15	1201.9	.5
308.15	1198.7	.5
313.15	1195.6	.5
318.15	1192.3	.5
323.15	1188.8	.5
328.15	1185.4	.5
333.15	1182.8	.5
338.15	1179.5	.5
343.15	1176.4	.5
348.15	1172.1	.5
353.15	1169.1	.5

System: 3-(2-cyanoethyl)-1-octylimidazolium benzenesulfonate; phases: Liquid
Fixed: Pressure, kPa = 101.325
Property: Viscosity, Pa*s (Liquid); method: Concentric cylinders viscometry
Temperature, K	Viscosity, Pa*s	uncertainty
293.15	12.6925	.04442375
298.15	8.2919	.02902165
303.15	4.8801	.01708035
308.15	3.1107	.01088745
313.15	2.0978	.0073423
318.15	1.3112	.0045892
323.15	.8835	.00309225
328.15	.5659	.00198065
333.15	.378	.001323
338.15	.2538	.0008883
343.15	.1725	.00060375
348.15	.1201	.00042035
353.15	.0889	.00031115

System: 3-(2-cyanoethyl)-1-octylimidazolium benzenesulfonate; phases: Liquid
Fixed: Pressure, kPa = 101.325
Property: Refractive index (Na D-line) (Liquid); method: Standard Abbe refractometry
Temperature, K	Refractive index (Na D-line)	uncertainty
298.15	1.52174	
303.15	1.52084	
308.15	1.51973	
313.15	1.51856	
318.15	1.5174	
323.15	1.51619	
328.15	1.51499	
333.15	1.51373	

System: 3-(2-cyanoethyl)-1-octyl-1H-imidazol-3-ium trifluoromethanesulfonate; phases: Liquid
Fixed: Pressure, kPa = 101.325
Property: Mass density, kg/m3 (Liquid); method: Vibrating tube method
Temperature, K	Mass density, kg/m3	uncertainty
293.15	1233.1	.5
298.15	1229.4	.5
303.15	1225.6	.5
308.15	1222	.5
313.15	1218.4	.5
318.15	1214.7	.5
323.15	1211.2	.5
328.15	1207.6	.5
333.15	1204	.5
338.15	1200.5	.5
343.15	1196	.5
348.15	1193.2	.5
353.15	1189.7	.5

System: 3-(2-cyanoethyl)-1-octyl-1H-imidazol-3-ium trifluoromethanesulfonate; phases: Liquid
Fixed: Pressure, kPa = 101.325
Property: Viscosity, Pa*s (Liquid); method: Concentric cylinders viscometry
Temperature, K	Viscosity, Pa*s	uncertainty
293.15	6.7842	.0237447
298.15	4.1352	.0144732
303.15	2.7989	.00979615
308.15	1.8165	.00635775
313.15	1.1819	.00413665
318.15	.7534	.0026369
323.15	.5034	.0017619
328.15	.3419	.00119665
333.15	.2357	.00082495
338.15	.165	.0005775
343.15	.1079	.00037765
348.15	.0745	.00026075
353.15	.0528	.0001848

System: 3-(2-cyanoethyl)-1-octyl-1H-imidazol-3-ium trifluoromethanesulfonate; phases: Liquid
Fixed: Pressure, kPa = 101.325
Property: Refractive index (Na D-line) (Liquid); method: Standard Abbe refractometry
Temperature, K	Refractive index (Na D-line)	uncertainty
298.15	1.52679	
303.15	1.52584	
308.15	1.5247	
313.15	1.52356	
318.15	1.52248	
323.15	1.52119	
328.15	1.51991	
333.15	1.51873	
