Measured thermophysical data. CO2 Solubilities in Ammonium Bis(trifluoromethanesulfonyl)amide Ionic Liquids: Effects of Ester and Ether Groups
Source: J. Chem. Eng. Data, 2014, 10.1021/je400971q
Compound 1: carbon dioxide, CO2, purity 99.99%
Compound 2: 2-(acetyloxy)-N-ethyl-N,N-dimethylethanaminium 1,1,1-trifluoro-N-[(trifluoromethyl)sulfonyl]methanesulfonamide, C10H18F6N2O6S2
Compound 3: N-ethyl-2-(2-methoxyethoxy)-N,N-dimethylethanaminium bis(trifluoromethylsulfonyl)amide, C11H22F6N2O6S2
Compound 4: N,N-dimethyl-N-ethyl-N-pentylammonium bis(trifluoromethylsulfonyl), C11H22F6N2O4S2
Compound 5: N,N-dimethyl-N-ethyl-N-heptylammonium bis(trifluoromethylsulfonyl)imide, C13H26F6N2O4S2

System: carbon dioxide + 2-(acetyloxy)-N-ethyl-N,N-dimethylethanaminium 1,1,1-trifluoro-N-[(trifluoromethyl)sulfonyl]methanesulfonamide; phases: Liquid, Gas
Property: Mole fraction of carbon dioxide (Liquid); method: volume change on dissolution
Temperature, K	Pressure, kPa	Mole fraction of carbon dioxide	uncertainty
298.15	658	.166	.002
298.15	1133.6	.259	.002
298.15	1507.4	.32	.002
298.15	1906	.378	.002
298.15	2482.9	.446	.002
298.15	3070.2	.504	.002
298.15	3552.8	.545	.002
298.15	4054.3	.581	.002
298.15	4575.7	.614	.002
313.15	587.3	.119	.002
313.15	975.2	.184	.002
313.15	1279.8	.23	.002
313.15	1593.7	.272	.002
313.15	2066.4	.328	.002
313.15	2539.1	.378	.002
313.15	3224.7	.438	.002
313.15	3883	.485	.002
313.15	4138.9	.501	.002
313.15	4845	.54	.002
333.15	751.7	.112	.002
333.15	1194.8	.168	.002
333.15	1876.3	.24	.002
333.15	2341	.284	.002
333.15	2885.5	.328	.002
333.15	3549.5	.376	.002
333.15	4299.7	.422	.002
333.15	5169.8	.465	.002
333.15	5571.7	.482	.002

System: carbon dioxide + 2-(acetyloxy)-N-ethyl-N,N-dimethylethanaminium 1,1,1-trifluoro-N-[(trifluoromethyl)sulfonyl]methanesulfonamide; phases: Liquid, Gas
Property: Molar volume, m3/mol (Liquid); method: Pycnometric method
Temperature, K	Pressure, kPa	Molar volume, m3/mol	uncertainty
298.15	658	.0002587	.000002587
298.15	1133.6	.0002344	.000002344
298.15	1507.4	.0002184	.000002184
298.15	1906	.0002032	.000002032
298.15	2482.9	.0001855	.000001855
298.15	3070.2	.0001701	.000001701
298.15	3552.8	.0001593	.000001593
298.15	4054.3	.0001496	.000001496
298.15	4575.7	.0001409	.000001409
313.15	587.3	.0002725	.000002725
313.15	975.2	.0002551	.000002551
313.15	1279.8	.0002428	.000002428
313.15	1593.7	.0002315	.000002315
313.15	2066.4	.0002164	.000002164
313.15	2539.1	.000203	.00000203
313.15	3224.7	.000187	.00000187
313.15	3883	.0001745	.000001745
313.15	4138.9	.0001703	.000001703
313.15	4845	.0001601	.000001601
333.15	751.7	.0002775	.000002775
333.15	1194.8	.0002621	.000002621
333.15	1876.3	.0002424	.000002424
333.15	2341	.0002305	.000002305
333.15	2885.5	.0002187	.000002187
333.15	3549.5	.0002057	.000002057
333.15	4299.7	.0001934	.000001934
333.15	5169.8	.0001822	.000001822
333.15	5571.7	.0001779	.000001779

System: carbon dioxide + N-ethyl-2-(2-methoxyethoxy)-N,N-dimethylethanaminium bis(trifluoromethylsulfonyl)amide; phases: Liquid, Gas
Property: Mole fraction of carbon dioxide (Liquid); method: volume change on dissolution
Temperature, K	Pressure, kPa	Mole fraction of carbon dioxide	uncertainty
298.15	546.8	.162	.002
298.15	990.1	.264	.002
298.15	1415.9	.342	.002
298.15	1781	.4	.002
298.15	2368.7	.477	.002
298.15	2995	.544	.002
298.15	3701.9	.605	.002
298.15	4078.2	.632	.002
298.15	4591.4	.666	.002
313.15	605.9	.139	.002
313.15	1277.7	.262	.002
313.15	1535.8	.3	.002
313.15	1878.5	.345	.002
313.15	2476.1	.413	.002
313.15	2953.6	.46	.002
313.15	3504.4	.506	.002
313.15	3995.2	.541	.002
313.15	4978.8	.602	.002
333.15	520.3	.094	.002
333.15	1139.1	.185	.002
333.15	1544.3	.236	.002
333.15	1853.8	.272	.002
333.15	2743.2	.358	.002
333.15	2920.1	.374	.002
333.15	3471	.417	.002
333.15	3931.2	.449	.002
333.15	4829.1	.502	.002

System: carbon dioxide + N-ethyl-2-(2-methoxyethoxy)-N,N-dimethylethanaminium bis(trifluoromethylsulfonyl)amide; phases: Liquid, Gas
Property: Molar volume, m3/mol (Liquid); method: Pycnometric method
Temperature, K	Pressure, kPa	Molar volume, m3/mol	uncertainty
298.15	546.8	.0002806	.000002806
298.15	990.1	.0002508	.000002508
298.15	1415.9	.000228	.00000228
298.15	1781	.0002113	.000002113
298.15	2368.7	.0001892	.000001892
298.15	2995	.0001701	.000001701
298.15	3701.9	.0001528	.000001528
298.15	4078.2	.000145	.00000145
298.15	4591.4	.0001353	.000001353
313.15	605.9	.0002921	.000002921
313.15	1277.7	.0002564	.000002564
313.15	1535.8	.0002455	.000002455
313.15	1878.5	.0002323	.000002323
313.15	2476.1	.0002123	.000002123
313.15	2953.6	.0001988	.000001988
313.15	3504.4	.0001852	.000001852
313.15	3995.2	.0001748	.000001748
313.15	4978.8	.000157	.00000157
333.15	520.3	.0003103	.000003103
333.15	1139.1	.0002843	.000002843
333.15	1544.3	.0002694	.000002694
333.15	1853.8	.0002591	.000002591
333.15	2743.2	.0002339	.000002339
333.15	2920.1	.0002293	.000002293
333.15	3471	.0002164	.000002164
333.15	3931.2	.0002067	.000002067
333.15	4829.1	.0001907	.000001907

System: carbon dioxide + N,N-dimethyl-N-ethyl-N-pentylammonium bis(trifluoromethylsulfonyl); phases: Liquid, Gas
Property: Mole fraction of carbon dioxide (Liquid); method: volume change on dissolution
Temperature, K	Pressure, kPa	Mole fraction of carbon dioxide	uncertainty
298.15	552.8	.153	.002
298.15	908.3	.23	.002
298.15	1469.4	.33	.002
298.15	2317.6	.446	.002
298.15	2683.5	.487	.002
298.15	3004.9	.518	.002
298.15	3503.9	.563	.002
298.15	4028.3	.603	.002
298.15	4602.4	.642	.002
313.15	426	.096	.002
313.15	737.3	.156	.002
313.15	1176.2	.23	.002
313.15	1849.2	.321	.002
313.15	2330.6	.376	.002
313.15	2837.2	.426	.002
313.15	3559.2	.486	.002
313.15	4187.2	.53	.002
313.15	4499.4	.55	.002
333.15	491.8	.084	.002
333.15	943.1	.15	.002
333.15	1469.7	.215	.002
333.15	2258.2	.296	.002
333.15	2920.6	.353	.002
333.15	3395.6	.389	.002
333.15	3936.8	.426	.002
333.15	4361.1	.452	.002
333.15	4944.2	.484	.002

System: carbon dioxide + N,N-dimethyl-N-ethyl-N-pentylammonium bis(trifluoromethylsulfonyl); phases: Liquid, Gas
Property: Molar volume, m3/mol (Liquid); method: Pycnometric method
Temperature, K	Pressure, kPa	Molar volume, m3/mol	uncertainty
298.15	552.8	.0002751	.000002751
298.15	908.3	.0002537	.000002537
298.15	1469.4	.0002261	.000002261
298.15	2317.6	.0001941	.000001941
298.15	2683.5	.0001831	.000001831
298.15	3004.9	.0001743	.000001743
298.15	3503.9	.0001621	.000001621
298.15	4028.3	.000151	.00000151
298.15	4602.4	.00014	.0000014
313.15	426	.000292	.00000292
313.15	737.3	.000275	.00000275
313.15	1176.2	.000254	.00000254
313.15	1849.2	.0002281	.000002281
313.15	2330.6	.0002126	.000002126
313.15	2837.2	.000199	.00000199
313.15	3559.2	.0001821	.000001821
313.15	4187.2	.0001699	.000001699
313.15	4499.4	.0001646	.000001646
333.15	491.8	.0002979	.000002979
333.15	943.1	.0002788	.000002788
333.15	1469.7	.00026	.0000026
333.15	2258.2	.0002369	.000002369
333.15	2920.6	.0002205	.000002205
333.15	3395.6	.0002106	.000002106
333.15	3936.8	.0002001	.000002001
333.15	4361.1	.000193	.00000193
333.15	4944.2	.0001843	.000001843

System: carbon dioxide + N,N-dimethyl-N-ethyl-N-heptylammonium bis(trifluoromethylsulfonyl)imide; phases: Liquid, Gas
Property: Mole fraction of carbon dioxide (Liquid); method: volume change on dissolution
Temperature, K	Pressure, kPa	Mole fraction of carbon dioxide	uncertainty
298.15	391.1	.119	.002
298.15	723.5	.199	.002
298.15	1176.9	.292	.002
298.15	1878.4	.405	.002
298.15	2296.5	.46	.002
298.15	2902.2	.525	.002
298.15	3794.1	.605	.002
298.15	4243.9	.638	.002
298.15	4802.3	.673	.002
313.15	422	.101	.002
313.15	892.4	.191	.002
313.15	1411.8	.277	.002
313.15	2196.9	.379	.002
313.15	2506.7	.409	.002
313.15	3323.5	.488	.002
313.15	4195.8	.55	.002
313.15	4846.4	.593	.002
313.15	5385	.618	.002
333.15	459.2	.084	.002
333.15	825	.14	.002
333.15	1285.9	.204	.002
333.15	1981.2	.285	.002
333.15	2767.6	.354	.002
333.15	2997.9	.38	.002
333.15	3875.7	.446	.002
333.15	4698.7	.49	.002
333.15	6121.1	.557	.002

System: carbon dioxide + N,N-dimethyl-N-ethyl-N-heptylammonium bis(trifluoromethylsulfonyl)imide; phases: Liquid, Gas
Property: Molar volume, m3/mol (Liquid); method: Pycnometric method
Temperature, K	Pressure, kPa	Molar volume, m3/mol	uncertainty
298.15	391.1	.0003138	.000003138
298.15	723.5	.0002882	.000002882
298.15	1176.9	.0002589	.000002589
298.15	1878.4	.0002239	.000002239
298.15	2296.5	.0002069	.000002069
298.15	2902.2	.0001872	.000001872
298.15	3794.1	.0001627	.000001627
298.15	4243.9	.0001527	.000001527
298.15	4802.3	.000142	.00000142
313.15	422	.0003224	.000003224
313.15	892.4	.000294	.00000294
313.15	1411.8	.0002666	.000002666
313.15	2196.9	.0002348	.000002348
313.15	2506.7	.0002255	.000002255
313.15	3323.5	.0002005	.000002005
313.15	4195.8	.0001815	.000001815
313.15	4846.4	.0001679	.000001679
313.15	5385	.0001608	.000001608
333.15	459.2	.0003324	.000003324
333.15	825	.0003145	.000003145
333.15	1285.9	.0002944	.000002944
333.15	1981.2	.0002685	.000002685
333.15	2767.6	.0002472	.000002472
333.15	2997.9	.0002383	.000002383
333.15	3875.7	.0002173	.000002173
333.15	4698.7	.0002037	.000002037
333.15	6121.1	.0001829	.000001829
