Measured thermophysical data. Solid Liquid Phase Equilibria of N,N'-[1,3-Phenylenebis(methylene)]bis(phosphoramidic acid) P,P,P',P'-Tetraphenyl Ester in 10 Pure Solvents
Source: J. Chem. Eng. Data, 2014, 10.1021/je4010917
Compound 1: N,N'-[1,3-phenylene bis(methylene)] bis-(phosphoramidic acid) P,P,P',P'-tetraphenyl ester, C32H30N2O6P2
Compound 2: chloroform, CHCl3, purity 99.5%
Compound 3: ethyl acetate, C4H8O2, purity 99.5%
Compound 4: acetone, C3H6O, purity 99.5%
Compound 5: ethanol, C2H6O, purity 99.5%
Compound 6: methanol, CH4O, purity 99.5%
Compound 7: tetrahydrofuran, C4H8O, purity 99.8%
Compound 8: dichloromethane, CH2Cl2, purity 99.5%
Compound 9: benzene, C6H6, purity 99.5%
Compound 10: toluene, C7H8, purity 99.5%
Compound 11: acetonitrile, C2H3N, purity 99.5%

System: N,N'-[1,3-phenylene bis(methylene)] bis-(phosphoramidic acid) P,P,P',P'-tetraphenyl ester; phases: Crystal, Liquid, Air at 1 atmosphere
Property: Normal melting temperature, K (Crystal); method: DSC/DTA
Normal melting temperature, K	uncertainty
383.11	

System: N,N'-[1,3-phenylene bis(methylene)] bis-(phosphoramidic acid) P,P,P',P'-tetraphenyl ester; phases: Crystal, Liquid, Air at 1 atmosphere
Property: Molar enthalpy of transition or fusion, kJ/mol (Crystal); method: DSC/DTA
Molar enthalpy of transition or fusion, kJ/mol	uncertainty
41.68934809884	

System: methanol + N,N'-[1,3-phenylene bis(methylene)] bis-(phosphoramidic acid) P,P,P',P'-tetraphenyl ester; phases: Liquid, Crystal
Fixed: Pressure, kPa = 100
Property: Mole fraction of N,N'-[1,3-phenylene bis(methylene)] bis-(phosphoramidic acid) P,P,P',P'-tetraphenyl ester (Liquid); method: Gravimetric
Temperature, K	Mole fraction of N,N'-[1,3-phenylene bis(methylene)] bis-(phosphoramidic acid) P,P,P',P'-tetraphenyl ester	uncertainty
293.15	.0094174	.000188348
298.15	.014516	.00029032
303.15	.02116	.0004232
308.15	.030568	.00061136
313.15	.042126	.00084252
318.15	.060671	.00121342
323.15	.082014	.00164028
328.15	.11068	.0022136
333.15	.15276	.0030552

System: acetone + N,N'-[1,3-phenylene bis(methylene)] bis-(phosphoramidic acid) P,P,P',P'-tetraphenyl ester; phases: Liquid, Crystal
Fixed: Pressure, kPa = 100
Property: Mole fraction of N,N'-[1,3-phenylene bis(methylene)] bis-(phosphoramidic acid) P,P,P',P'-tetraphenyl ester (Liquid); method: Gravimetric
Temperature, K	Mole fraction of N,N'-[1,3-phenylene bis(methylene)] bis-(phosphoramidic acid) P,P,P',P'-tetraphenyl ester	uncertainty
293.15	.011772	.00023544
298.15	.016844	.00033688
303.15	.024053	.00048106
308.15	.037877	.00075754
313.15	.050604	.00101208
318.15	.06986	.0013972
323.15	.093159	.00186318
328.15	.12515	.002503

System: acetonitrile + N,N'-[1,3-phenylene bis(methylene)] bis-(phosphoramidic acid) P,P,P',P'-tetraphenyl ester; phases: Liquid, Crystal
Fixed: Pressure, kPa = 100
Property: Mole fraction of N,N'-[1,3-phenylene bis(methylene)] bis-(phosphoramidic acid) P,P,P',P'-tetraphenyl ester (Liquid); method: Gravimetric
Temperature, K	Mole fraction of N,N'-[1,3-phenylene bis(methylene)] bis-(phosphoramidic acid) P,P,P',P'-tetraphenyl ester	uncertainty
293.15	.0025355	.00005071
298.15	.0039383	.000078766
303.15	.0058263	.000116526
308.15	.0098922	.000197844
313.15	.01509	.0003018
318.15	.021727	.00043454
323.15	.033893	.00067786
328.15	.050392	.00100784
333.15	.068709	.00137418
338.15	.10697	.0021394
343.15	.14397	.0028794

System: tetrahydrofuran + N,N'-[1,3-phenylene bis(methylene)] bis-(phosphoramidic acid) P,P,P',P'-tetraphenyl ester; phases: Liquid, Crystal
Fixed: Pressure, kPa = 100
Property: Mole fraction of N,N'-[1,3-phenylene bis(methylene)] bis-(phosphoramidic acid) P,P,P',P'-tetraphenyl ester (Liquid); method: Gravimetric
Temperature, K	Mole fraction of N,N'-[1,3-phenylene bis(methylene)] bis-(phosphoramidic acid) P,P,P',P'-tetraphenyl ester	uncertainty
293.15	.085932	.00171864
298.15	.093922	.00187844
303.15	.11256	.0022512
308.15	.12836	.0025672
313.15	.15595	.003119
318.15	.18275	.003655
323.15	.20515	.004103
328.15	.23528	.0047056
333.15	.26969	.0053938

System: ethyl acetate + N,N'-[1,3-phenylene bis(methylene)] bis-(phosphoramidic acid) P,P,P',P'-tetraphenyl ester; phases: Liquid, Crystal
Fixed: Pressure, kPa = 100
Property: Mole fraction of N,N'-[1,3-phenylene bis(methylene)] bis-(phosphoramidic acid) P,P,P',P'-tetraphenyl ester (Liquid); method: Gravimetric
Temperature, K	Mole fraction of N,N'-[1,3-phenylene bis(methylene)] bis-(phosphoramidic acid) P,P,P',P'-tetraphenyl ester	uncertainty
293.15	.0030143	.000060286
298.15	.0050488	.000100976
303.15	.0076437	.000152874
308.15	.012715	.0002543
313.15	.016856	.00033712
318.15	.028247	.00056494
323.15	.042079	.00084158
328.15	.060373	.00120746
333.15	.080864	.00161728
338.15	.1182	.002364
343.15	.16821	.0033642

System: chloroform + N,N'-[1,3-phenylene bis(methylene)] bis-(phosphoramidic acid) P,P,P',P'-tetraphenyl ester; phases: Liquid, Crystal
Fixed: Pressure, kPa = 100
Property: Mole fraction of N,N'-[1,3-phenylene bis(methylene)] bis-(phosphoramidic acid) P,P,P',P'-tetraphenyl ester (Liquid); method: Gravimetric
Temperature, K	Mole fraction of N,N'-[1,3-phenylene bis(methylene)] bis-(phosphoramidic acid) P,P,P',P'-tetraphenyl ester	uncertainty
293.15	.068825	.0013765
298.15	.081211	.00162422
303.15	.090266	.00180532
308.15	.10741	.0021482
313.15	.12603	.0025206
318.15	.15219	.0030438
323.15	.18134	.0036268
328.15	.21079	.0042158

System: ethanol + N,N'-[1,3-phenylene bis(methylene)] bis-(phosphoramidic acid) P,P,P',P'-tetraphenyl ester; phases: Liquid, Crystal
Fixed: Pressure, kPa = 100
Property: Mole fraction of N,N'-[1,3-phenylene bis(methylene)] bis-(phosphoramidic acid) P,P,P',P'-tetraphenyl ester (Liquid); method: Gravimetric
Temperature, K	Mole fraction of N,N'-[1,3-phenylene bis(methylene)] bis-(phosphoramidic acid) P,P,P',P'-tetraphenyl ester	uncertainty
293.15	.0040712	.000081424
298.15	.0060784	.000121568
303.15	.0090134	.000180268
308.15	.016112	.00032224
313.15	.022788	.00045576
318.15	.033216	.00066432
323.15	.050813	.00101626
328.15	.075122	.00150244
333.15	.098442	.00196884
338.15	.14121	.0028242
343.15	.19725	.003945

System: benzene + N,N'-[1,3-phenylene bis(methylene)] bis-(phosphoramidic acid) P,P,P',P'-tetraphenyl ester; phases: Liquid, Crystal
Fixed: Pressure, kPa = 100
Property: Mole fraction of N,N'-[1,3-phenylene bis(methylene)] bis-(phosphoramidic acid) P,P,P',P'-tetraphenyl ester (Liquid); method: Gravimetric
Temperature, K	Mole fraction of N,N'-[1,3-phenylene bis(methylene)] bis-(phosphoramidic acid) P,P,P',P'-tetraphenyl ester	uncertainty
293.15	.00075403	.0000150806
298.15	.0012504	.000025008
303.15	.0020832	.000041664
308.15	.0034487	.000068974
313.15	.0064352	.000128704
318.15	.0095326	.000190652
323.15	.016768	.00033536
328.15	.026466	.00052932
333.15	.039836	.00079672
338.15	.060762	.00121524
343.15	.086433	.00172866

System: toluene + N,N'-[1,3-phenylene bis(methylene)] bis-(phosphoramidic acid) P,P,P',P'-tetraphenyl ester; phases: Liquid, Crystal
Fixed: Pressure, kPa = 100
Property: Mole fraction of N,N'-[1,3-phenylene bis(methylene)] bis-(phosphoramidic acid) P,P,P',P'-tetraphenyl ester (Liquid); method: Gravimetric
Temperature, K	Mole fraction of N,N'-[1,3-phenylene bis(methylene)] bis-(phosphoramidic acid) P,P,P',P'-tetraphenyl ester	uncertainty
293.15	.00059234	.0000118468
298.15	.0009511	.000019022
303.15	.0017313	.000034626
308.15	.0028314	.000056628
313.15	.0046306	.000092612
318.15	.0075586	.000151172
323.15	.012338	.00024676
328.15	.019326	.00038652
333.15	.030273	.00060546
338.15	.049733	.00099466
343.15	.081705	.0016341

System: dichloromethane + N,N'-[1,3-phenylene bis(methylene)] bis-(phosphoramidic acid) P,P,P',P'-tetraphenyl ester; phases: Liquid, Crystal
Fixed: Pressure, kPa = 100
Property: Mole fraction of N,N'-[1,3-phenylene bis(methylene)] bis-(phosphoramidic acid) P,P,P',P'-tetraphenyl ester (Liquid); method: Gravimetric
Temperature, K	Mole fraction of N,N'-[1,3-phenylene bis(methylene)] bis-(phosphoramidic acid) P,P,P',P'-tetraphenyl ester	uncertainty
278.15	.026636	.00053272
283.15	.033094	.00066188
288.15	.039308	.00078616
293.15	.049383	.00098766
298.15	.060435	.0012087
303.15	.075335	.0015067
308.15	.091948	.00183896
