Measured thermophysical data. A Promising Ionic Liquid [BMIM][FeCl4] for the Extractive Separation of Aromatic and Aliphatic Hydrocarbons
Source: J. Chem. Eng. Data, 2014, 10.1021/je400076x
Compound 1: benzene, C6H6, purity 99.5%
Compound 2: cyclohexane, C6H12, purity 99.5%
Compound 3: n-hexane, C6H14, purity 99.5%
Compound 4: toluene, C7H8, purity 99.5%
Compound 5: n-heptane, C7H16, purity 99.5%
Compound 6: 1-butyl-3-methylimidazolium chloride, C8H15ClN2
Compound 7: 1-butyl-3-methyl-1H-imidazolium tetrachloroferrate(III), C8H15Cl4FeN2

System: 1-butyl-3-methylimidazolium chloride; phases: Crystal, Liquid, Air at 1 atmosphere
Property: Normal melting temperature, K (Crystal); method: DSC/DTA
Normal melting temperature, K	uncertainty
333.45	

System: benzene + cyclohexane + 1-butyl-3-methyl-1H-imidazolium tetrachloroferrate(III); phases: Liquid mixture 2, Liquid mixture 1
Property: Mole fraction of cyclohexane (Liquid mixture 2); method: Chromatography
Property: Mole fraction of benzene (Liquid mixture 1); method: Chromatography
Property: Mole fraction of cyclohexane (Liquid mixture 1); method: Chromatography
Temperature, K	Pressure, kPa	Mole fraction of benzene	Mole fraction of cyclohexane	uncertainty	Mole fraction of benzene	uncertainty	Mole fraction of cyclohexane	uncertainty
298.15	101.325	.064	.181	.0013	.03	.0013	.97	.0013
298.15	101.325	.285	.149	.0013	.187	.0013	.813	.0013
298.15	101.325	.357	.147	.0013	.237	.0013	.763	.0013
298.15	101.325	.477	.132	.0013	.401	.0013	.599	.0013
298.15	101.325	.426	.131	.0013	.334	.0013	.666	.0013
298.15	101.325	.53	.123	.0013	.476	.0013	.524	.0013
298.15	101.325	.636	.099	.0013	.643	.0013	.357	.0013
298.15	101.325	.583	.113	.0013	.58	.0013	.42	.0013
313.15	101.325	.058	.194	.0013	.032	.0013	.968	.0013
313.15	101.325	.112	.207	.0013	.062	.0013	.938	.0013
313.15	101.325	.201	.179	.0013	.121	.0013	.879	.0013
313.15	101.325	.342	.183	.0013	.251	.0013	.749	.0013
313.15	101.325	.282	.174	.0013	.184	.0013	.816	.0013
313.15	101.325	.409	.153	.0013	.33	.0013	.67	.0013
313.15	101.325	.52	.129	.0013	.499	.0013	.501	.0013
313.15	101.325	.467	.139	.0013	.412	.0013	.588	.0013
313.15	101.325	.577	.117	.0013	.61	.0013	.39	.0013
298.15	101.325	.128	.164	.0013	.071	.0013	.929	.0013
313.15	101.325	.645	.095	.0013	.718	.0013	.282	.0013
298.15	101.325	.213	.16	.0013	.125	.0013	.875	.0013

System: benzene + n-hexane + 1-butyl-3-methyl-1H-imidazolium tetrachloroferrate(III); phases: Liquid mixture 1, Liquid mixture 2
Property: Mole fraction of n-hexane (Liquid mixture 1); method: Chromatography
Property: Mole fraction of benzene (Liquid mixture 2); method: Chromatography
Property: Mole fraction of n-hexane (Liquid mixture 2); method: Chromatography
Temperature, K	Pressure, kPa	Mole fraction of benzene	Mole fraction of n-hexane	uncertainty	Mole fraction of benzene	uncertainty	Mole fraction of n-hexane	uncertainty
298.15	101.325	.034	.966	.0012	.078	.0012	.165	.0012
298.15	101.325	.386	.614	.0012	.505	.0012	.088	.0012
298.15	101.325	.482	.518	.0012	.553	.0012	.085	.0012
298.15	101.325	.577	.423	.0012	.593	.0012	.079	.0012
298.15	101.325	.685	.315	.0012	.673	.0012	.07	.0012
298.15	101.325	.061	.939	.0012	.125	.0012	.16	.0012
298.15	101.325	.119	.881	.0012	.215	.0012	.138	.0012
298.15	101.325	.19	.81	.0012	.3231	.0012	.113	.0012
298.15	101.325	.254	.746	.0012	.376	.0012	.099	.0012
298.15	101.325	.324	.676	.0012	.456	.0012	.091	.0012

System: toluene + n-heptane + 1-butyl-3-methyl-1H-imidazolium tetrachloroferrate(III); phases: Liquid mixture 2, Liquid mixture 1
Property: Mole fraction of n-heptane (Liquid mixture 2); method: Chromatography
Property: Mole fraction of toluene (Liquid mixture 1); method: Chromatography
Property: Mole fraction of n-heptane (Liquid mixture 1); method: Chromatography
Temperature, K	Pressure, kPa	Mole fraction of toluene	Mole fraction of n-heptane	uncertainty	Mole fraction of toluene	uncertainty	Mole fraction of n-heptane	uncertainty
298.15	101.325	.089	.159	.0007	.05	.0007	.95	.0007
298.15	101.325	.361	.152	.0007	.366	.0007	.634	.0007
298.15	101.325	.406	.144	.0007	.433	.0007	.567	.0007
298.15	101.325	.454	.139	.0007	.522	.0007	.478	.0007
298.15	101.325	.499	.133	.0007	.611	.0007	.389	.0007
298.15	101.325	.568	.12	.0007	.738	.0007	.262	.0007
298.15	101.325	.126	.175	.0007	.08	.0007	.92	.0007
298.15	101.325	.194	.17	.0007	.144	.0007	.856	.0007
298.15	101.325	.248	.165	.0007	.216	.0007	.784	.0007
298.15	101.325	.305	.158	.0007	.29	.0007	.71	.0007

System: benzene + cyclohexane + 1-butyl-3-methylimidazolium chloride; phases: Liquid mixture 2, Liquid mixture 1
Property: Mole fraction of cyclohexane (Liquid mixture 2); method: Chromatography
Property: Mole fraction of benzene (Liquid mixture 1); method: Chromatography
Property: Mole fraction of cyclohexane (Liquid mixture 1); method: Chromatography
Temperature, K	Pressure, kPa	Mole fraction of benzene	Mole fraction of cyclohexane	uncertainty	Mole fraction of benzene	uncertainty	Mole fraction of cyclohexane	uncertainty
339.15	101.325	.025	.091	.0008	.065	.0008	.935	.0008
339.15	101.325	.211	.069	.0008	.555	.0008	.445	.0008
339.15	101.325	.242	.065	.0008	.654	.0008	.346	.0008
339.15	101.325	.284	.063	.0008	.75	.0008	.25	.0008
339.15	101.325	.326	.059	.0008	.857	.0008	.143	.0008
339.15	101.325	.043	.085	.0008	.112	.0008	.888	.0008
339.15	101.325	.073	.083	.0008	.188	.0008	.812	.0008
339.15	101.325	.109	.081	.0008	.278	.0008	.722	.0008
339.15	101.325	.141	.075	.0008	.366	.0008	.634	.0008
339.15	101.325	.179	.076	.0008	.46	.0008	.54	.0008
