Measured thermophysical data. Effect of Salt on the Micellization of Partially Fluorinated Octylesters and Hydrogenated Dodecylesters in Water
Source: J. Chem. Eng. Data, 2014, 10.1021/je4010382
Compound 1: 3,3,4,4,5,5,6,6,7,7,8,8,8-tridecafluorooctyl DL-alaninate, C11H10F13NO2
Compound 2: 3,3,4,4,5,5,6,6,7,7,8,8,8-tridecafluorooctyl L-alaninate, C11H10F13NO2
Compound 3: dodecyl alaninate hydrochloride, C15H32ClNO2
Compound 4: dodecyl L-alaninate hydrochloride, C15H32ClNO2
Compound 5: 3,3,4,4,5,5,6,6,7,7,8,8,8-tridecafluorooctyl -DL-serinate hydrochloride, C11H11ClF13NO3
Compound 6: 3,3,4,4,5,5,6,6,7,7,8,8,8-tridecafluorooctyl L-serinate hydrochloride, C11H11ClF13NO3
Compound 7: dodecyl serinate hydrochloride, C15H32ClNO3
Compound 8: dodecyl L-serinate hydrochloride, C15H32ClNO3
Compound 9: sodium chloride, ClNa, purity 99%
Compound 10: water, H2O

System: sodium chloride + water + 3,3,4,4,5,5,6,6,7,7,8,8,8-tridecafluorooctyl L-alaninate; phases: Liquid
Fixed: Pressure, kPa = 101
Fixed: Temperature, K = 298.15
Property: Electrical conductivity, S/m (Liquid); method: Cyberscan PC 510
Solvent: Molality, mol/kg of sodium chloride	Molality, mol/kg of 3,3,4,4,5,5,6,6,7,7,8,8,8-tridecafluorooctyl L-alaninate	Electrical conductivity, S/m	uncertainty
.05	.0006	.573	.001
.05	.00118	.581	.001
.05	.00175	.587	.001
.05	.0023	.594	.001
.05	.00359	.602	.001
.05	.0044	.606	.001
.05	.00539	.61	.001
.05	.00633	.614	.001
.05	.00723	.617	.001
.05	.00809	.62	.001
.05	.00972	.626	.001
.05	.01122	.63	.001
.05	.01262	.635	.001
.05	.01392	.64	.001
.05	.01513	.644	.001
.05	.0168	.649	.001
.05	.01831	.654	.001
.05	.02013	.66	.001
.05	.02174	.665	.001
.05	.02319	.67	.001
.05	.02439	.675	.001

System: sodium chloride + water + 3,3,4,4,5,5,6,6,7,7,8,8,8-tridecafluorooctyl L-alaninate; phases: Liquid, Air at 1 atmosphere
Fixed: Solvent: Molality, mol/kg of sodium chloride = .05
Fixed: Temperature, K = 298.15
Property: Surface tension liquid-gas, N/m (Liquid); method: Ring tensiometer
Molality, mol/kg of 3,3,4,4,5,5,6,6,7,7,8,8,8-tridecafluorooctyl L-alaninate	Surface tension liquid-gas, N/m	uncertainty
.00001	.05774	.00001
.00003	.05004	.00001
.0001	.04043	.00001
.00024	.03286	.00001
.00048	.02745	.00001
.00091	.02219	.00001
.00147	.01869	.00001
.00234	.01537	.00001
.00321	.01538	.00001
.00405	.01554	.00001
.00506	.01555	.00001
.00621	.01559	.00001

System: sodium chloride + water + 3,3,4,4,5,5,6,6,7,7,8,8,8-tridecafluorooctyl DL-alaninate; phases: Liquid
Fixed: Pressure, kPa = 101
Fixed: Temperature, K = 298.15
Property: Electrical conductivity, S/m (Liquid); method: Cyberscan PC 510
Solvent: Molality, mol/kg of sodium chloride	Molality, mol/kg of 3,3,4,4,5,5,6,6,7,7,8,8,8-tridecafluorooctyl DL-alaninate	Electrical conductivity, S/m	uncertainty
.05	.00058	.572	.001
.05	.00117	.581	.001
.05	.00177	.589	.001
.05	.00233	.597	.001
.05	.00336	.605	.001
.05	.00437	.61	.001
.05	.00535	.614	.001
.05	.00628	.618	.001
.05	.00718	.622	.001
.05	.00804	.626	.001
.05	.00965	.632	.001
.05	.01114	.638	.001
.05	.01253	.644	.001
.05	.01382	.65	.001
.05	.01502	.654	.001
.05	.01667	.66	.001
.05	.01817	.666	.001
.05	.01998	.673	.001
.05	.02158	.678	.001
.05	.02302	.684	.001
.05	.02431	.689	.001

System: sodium chloride + water + 3,3,4,4,5,5,6,6,7,7,8,8,8-tridecafluorooctyl DL-alaninate; phases: Liquid, Air at 1 atmosphere
Fixed: Solvent: Molality, mol/kg of sodium chloride = .05
Fixed: Temperature, K = 298.15
Property: Surface tension liquid-gas, N/m (Liquid); method: Ring tensiometer
Molality, mol/kg of 3,3,4,4,5,5,6,6,7,7,8,8,8-tridecafluorooctyl DL-alaninate	Surface tension liquid-gas, N/m	uncertainty
.00001	.05721	.00001
.00003	.05041	.00001
.0001	.04148	.00001
.00024	.03448	.00001
.00049	.02816	.00001
.00089	.02283	.00001
.00146	.01945	.00001
.00235	.01648	.00001
.00326	.0155	.00001
.00413	.01549	.00001
.00498	.01547	.00001
.00628	.01551	.00001

System: sodium chloride + water + dodecyl L-alaninate hydrochloride; phases: Liquid
Fixed: Pressure, kPa = 101
Fixed: Temperature, K = 298.15
Property: Electrical conductivity, S/m (Liquid); method: Cyberscan PC 510
Solvent: Molality, mol/kg of sodium chloride	Molality, mol/kg of dodecyl L-alaninate hydrochloride	Electrical conductivity, S/m	uncertainty
.05	.00019	.574	.001
.05	.00038	.577	.001
.05	.00057	.58	.001
.05	.00093	.584	.001
.05	.00128	.587	.001
.05	.00178	.589	.001
.05	.00218	.591	.001
.05	.00256	.592	.001
.05	.00292	.594	.001
.05	.00327	.596	.001
.05	.00393	.597	.001
.05	.00454	.6	.001
.05	.0051	.602	.001
.05	.00562	.604	.001
.05	.00656	.606	.001
.05	.00739	.61	.001
.05	.00812	.612	.001
.05	.00935	.615	.001
.05	.01035	.62	.001
.05	.01154	.624	.001

System: sodium chloride + water + dodecyl L-alaninate hydrochloride; phases: Liquid, Air at 1 atmosphere
Fixed: Solvent: Molality, mol/kg of sodium chloride = .05
Fixed: Temperature, K = 298.15
Property: Surface tension liquid-gas, N/m (Liquid); method: Ring tensiometer
Molality, mol/kg of dodecyl L-alaninate hydrochloride	Surface tension liquid-gas, N/m	uncertainty
.00001	.06332	.00001
.00002	.05839	.00001
.00003	.05344	.00001
.00006	.04857	.00001
.00012	.04297	.00001
.0002	.03839	.00001
.00031	.03358	.00001
.0005	.03052	.00001
.00076	.02819	.00001
.00112	.02972	.00001
.0018	.03068	.00001
.00273	.03097	.00001
.00404	.03115	.00001
.0056	.03121	.00001

System: sodium chloride + water + dodecyl alaninate hydrochloride; phases: Liquid
Fixed: Pressure, kPa = 101
Fixed: Temperature, K = 298.15
Property: Electrical conductivity, S/m (Liquid); method: Cyberscan PC 510
Solvent: Molality, mol/kg of sodium chloride	Molality, mol/kg of dodecyl alaninate hydrochloride	Electrical conductivity, S/m	uncertainty
.05	.00019	.575	.001
.05	.00038	.578	.001
.05	.00057	.581	.001
.05	.00075	.583	.001
.05	.00128	.589	.001
.05	.00178	.591	.001
.05	.00217	.595	.001
.05	.00255	.596	.001
.05	.00292	.598	.001
.05	.00326	.599	.001
.05	.00392	.601	.001
.05	.00453	.604	.001
.05	.00509	.605	.001
.05	.00561	.606	.001
.05	.00655	.608	.001
.05	.00738	.611	.001
.05	.00811	.614	.001
.05	.00934	.619	.001
.05	.01034	.623	.001
.05	.01153	.627	.001

System: sodium chloride + water + dodecyl alaninate hydrochloride; phases: Liquid, Air at 1 atmosphere
Fixed: Solvent: Molality, mol/kg of sodium chloride = .05
Fixed: Temperature, K = 298.15
Property: Surface tension liquid-gas, N/m (Liquid); method: Ring tensiometer
Molality, mol/kg of dodecyl alaninate hydrochloride	Surface tension liquid-gas, N/m	uncertainty
.00001	.06274	.00001
.00002	.05724	.00001
.00003	.05232	.00001
.00006	.04695	.00001
.00012	.04141	.00001
.00019	.03738	.00001
.00031	.03302	.00001
.00049	.02978	.00001
.00075	.02632	.00001
.0011	.02854	.00001
.00177	.0299	.00001
.00268	.03042	.00001
.00402	.03067	.00001
.00557	.0307	.00001

System: sodium chloride + water + 3,3,4,4,5,5,6,6,7,7,8,8,8-tridecafluorooctyl L-serinate hydrochloride; phases: Liquid
Fixed: Pressure, kPa = 101
Fixed: Temperature, K = 298.15
Property: Electrical conductivity, S/m (Liquid); method: Cyberscan PC 510
Solvent: Molality, mol/kg of sodium chloride	Molality, mol/kg of 3,3,4,4,5,5,6,6,7,7,8,8,8-tridecafluorooctyl L-serinate hydrochloride	Electrical conductivity, S/m	uncertainty
.05	.0006	.57	.001
.05	.00118	.577	.001
.05	.00231	.591	.001
.05	.0036	.602	.001
.05	.00442	.609	.001
.05	.00541	.614	.001
.05	.00635	.619	.001
.05	.00812	.627	.001
.05	.00975	.633	.001
.05	.01126	.639	.001
.05	.01266	.644	.001
.05	.01397	.649	.001
.05	.01518	.653	.001
.05	.01685	.659	.001
.05	.01837	.664	.001
.05	.0202	.669	.001
.05	.02182	.674	.001
.05	.02327	.678	.001
.05	.02458	.682	.001

System: sodium chloride + water + 3,3,4,4,5,5,6,6,7,7,8,8,8-tridecafluorooctyl L-serinate hydrochloride; phases: Liquid, Air at 1 atmosphere
Fixed: Solvent: Molality, mol/kg of sodium chloride = .05
Fixed: Temperature, K = 298.15
Property: Surface tension liquid-gas, N/m (Liquid); method: Ring tensiometer
Molality, mol/kg of 3,3,4,4,5,5,6,6,7,7,8,8,8-tridecafluorooctyl L-serinate hydrochloride	Surface tension liquid-gas, N/m	uncertainty
.00002	.05613	.00001
.00005	.04608	.00001
.00015	.03663	.00001
.00039	.02796	.00001
.00068	.02392	.00001
.00096	.02203	.00001
.00142	.01969	.00001
.00188	.01834	.00001
.00277	.01636	.00001
.00363	.01532	.00001
.00445	.01481	.00001
.00525	.0148	.00001
.00602	.01484	.00001
.00748	.01485	.00001

System: sodium chloride + water + 3,3,4,4,5,5,6,6,7,7,8,8,8-tridecafluorooctyl -DL-serinate hydrochloride; phases: Liquid
Fixed: Pressure, kPa = 101
Fixed: Temperature, K = 298.15
Property: Electrical conductivity, S/m (Liquid); method: Cyberscan PC 510
Solvent: Molality, mol/kg of sodium chloride	Molality, mol/kg of 3,3,4,4,5,5,6,6,7,7,8,8,8-tridecafluorooctyl -DL-serinate hydrochloride	Electrical conductivity, S/m	uncertainty
.05	.0006	.567	.001
.05	.00119	.576	.001
.05	.00233	.588	.001
.05	.00342	.599	.001
.05	.00445	.606	.001
.05	.00544	.612	.001
.05	.00639	.617	.001
.05	.00817	.625	.001
.05	.00981	.632	.001
.05	.01132	.637	.001
.05	.01273	.642	.001
.05	.01403	.647	.001
.05	.01525	.652	.001
.05	.01693	.659	.001
.05	.01845	.664	.001
.05	.02028	.669	.001
.05	.0219	.675	.001
.05	.02336	.679	.001
.05	.02467	.683	.001

System: sodium chloride + water + 3,3,4,4,5,5,6,6,7,7,8,8,8-tridecafluorooctyl -DL-serinate hydrochloride; phases: Liquid, Air at 1 atmosphere
Fixed: Solvent: Molality, mol/kg of sodium chloride = .05
Fixed: Temperature, K = 298.15
Property: Surface tension liquid-gas, N/m (Liquid); method: Ring tensiometer
Molality, mol/kg of 3,3,4,4,5,5,6,6,7,7,8,8,8-tridecafluorooctyl -DL-serinate hydrochloride	Surface tension liquid-gas, N/m	uncertainty
.00002	.05653	.00001
.00005	.0459	.00001
.00015	.03685	.00001
.00039	.02805	.00001
.00068	.02369	.00001
.00096	.02119	.00001
.00143	.01883	.00001
.00189	.01761	.00001
.00278	.01582	.00001
.00364	.01476	.00001
.00447	.01461	.00001
.00604	.01473	.00001
.00751	.01483	.00001
.01017	.01493	.00001

System: sodium chloride + water + dodecyl L-serinate hydrochloride; phases: Liquid
Fixed: Pressure, kPa = 101
Fixed: Temperature, K = 298.15
Property: Electrical conductivity, S/m (Liquid); method: Cyberscan PC 510
Solvent: Molality, mol/kg of sodium chloride	Molality, mol/kg of dodecyl L-serinate hydrochloride	Electrical conductivity, S/m	uncertainty
.05	.00024	.574	.001
.05	.00057	.578	.001
.05	.00098	.584	.001
.05	.00136	.589	.001
.05	.00186	.592	.001
.05	.00233	.595	.001
.05	.00285	.597	.001
.05	.00347	.601	.001
.05	.00417	.604	.001
.05	.00482	.608	.001
.05	.00562	.61	.001
.05	.00656	.614	.001
.05	.00739	.616	.001
.05	.00812	.62	.001
.05	.00935	.625	.001
.05	.01035	.628	.001
.05	.01154	.633	.001

System: sodium chloride + water + dodecyl L-serinate hydrochloride; phases: Liquid, Air at 1 atmosphere
Fixed: Solvent: Molality, mol/kg of sodium chloride = .05
Fixed: Temperature, K = 298.15
Property: Surface tension liquid-gas, N/m (Liquid); method: Ring tensiometer
Molality, mol/kg of dodecyl L-serinate hydrochloride	Surface tension liquid-gas, N/m	uncertainty
.00001	.06338	.00001
.00002	.05684	.00001
.00003	.05139	.00001
.00006	.04582	.00001
.00012	.04121	.00001
.0002	.03643	.00001
.00031	.03266	.00001
.0005	.02966	.00001
.00076	.02706	.00001
.00112	.0268	.00001
.0018	.02908	.00001
.00273	.02976	.00001
.00409	.03018	.00001
.00567	.03028	.00001
.0082	.03055	.00001

System: sodium chloride + water + dodecyl serinate hydrochloride; phases: Liquid
Fixed: Pressure, kPa = 101
Fixed: Temperature, K = 298.15
Property: Electrical conductivity, S/m (Liquid); method: Cyberscan PC 510
Solvent: Molality, mol/kg of sodium chloride	Molality, mol/kg of dodecyl serinate hydrochloride	Electrical conductivity, S/m	uncertainty
.05	.00029	.574	.001
.05	.00057	.577	.001
.05	.00084	.581	.001
.05	.00111	.586	.001
.05	.00162	.59	.001
.05	.0021	.594	.001
.05	.00256	.597	.001
.05	.00313	.6	.001
.05	.0038	.603	.001
.05	.00453	.608	.001
.05	.00562	.611	.001
.05	.00656	.615	.001
.05	.00739	.618	.001
.05	.00812	.622	.001
.05	.00935	.626	.001
.05	.01036	.63	.001
.05	.01155	.635	.001

System: sodium chloride + water + dodecyl serinate hydrochloride; phases: Liquid, Air at 1 atmosphere
Fixed: Solvent: Molality, mol/kg of sodium chloride = .05
Fixed: Temperature, K = 298.15
Property: Surface tension liquid-gas, N/m (Liquid); method: Ring tensiometer
Molality, mol/kg of dodecyl serinate hydrochloride	Surface tension liquid-gas, N/m	uncertainty
.00001	.06139	.00001
.00002	.05458	.00001
.00003	.04915	.00001
.00006	.04275	.00001
.00012	.03781	.00001
.0002	.03454	.00001
.00031	.0301	.00001
.0005	.02914	.00001
.00076	.02647	.00001
.00112	.02758	.00001
.0018	.02898	.00001
.00274	.02966	.00001
.0041	.03002	.00001
.00568	.03019	.00001
.00816	.03047	.00001
