Measured thermophysical data. The Vaporization Enthalpies and Vapor Pressures of Some Primary Amines of Pharmaceutical Importance by Correlation Gas Chromatography
Source: J. Chem. Eng. Data, 2013, 10.1021/je400498a
Compound 1: phentermine, C10H15N, purity 99%
Compound 2: 1-aminotricyclo(3.3.1.1:3,7)decane, C10H17N, purity 97%
Compound 3: .alpha.-methyltricyclo[3.3.1.1(3,7)]decane-1-methanamine, C12H21N, purity 99%
Compound 4: 1-tetradecanamine, C14H31N, purity 95%
Compound 5: dl-tranylcypromine, C9H11N
Compound 6: dodecylamine, C12H27N, purity 98%

System: phentermine; phases: Liquid, Gas
Property: Vapor or sublimation pressure, kPa (Liquid); method: Gas chromatography
Temperature, K	Vapor or sublimation pressure, kPa	uncertainty
298.15	.035	.004

System: phentermine; phases: Liquid, Gas
Property: Molar enthalpy of vaporization or sublimation, kJ/mol (Liquid); method: Correlation gas chromatography
Temperature, K	Molar enthalpy of vaporization or sublimation, kJ/mol	uncertainty
298.15	60.2	2.6

System: 1-aminotricyclo(3.3.1.1:3,7)decane; phases: Crystal, Liquid, Air at 1 atmosphere
Property: Molar enthalpy of transition or fusion, kJ/mol (Crystal); method: DSC/DTA
Molar enthalpy of transition or fusion, kJ/mol	uncertainty
7.3	.2

System: 1-aminotricyclo(3.3.1.1:3,7)decane; phases: Crystal, Liquid, Air at 1 atmosphere
Property: Normal melting temperature, K (Crystal); method: DSC/DTA
Normal melting temperature, K	uncertainty
477.4	.9

System: 1-aminotricyclo(3.3.1.1:3,7)decane; phases: Liquid, Gas
Property: Vapor or sublimation pressure, kPa (Liquid); method: Gas chromatography
Temperature, K	Vapor or sublimation pressure, kPa	uncertainty
298.15	.021	.001

System: 1-aminotricyclo(3.3.1.1:3,7)decane; phases: Crystal, Gas
Property: Vapor or sublimation pressure, kPa (Crystal); method: Gas chromatography
Temperature, K	Vapor or sublimation pressure, kPa	uncertainty
298.15	.0115	.0021

System: 1-aminotricyclo(3.3.1.1:3,7)decane; phases: Liquid, Gas
Property: Molar enthalpy of vaporization or sublimation, kJ/mol (Liquid); method: Correlation gas chromatography
Temperature, K	Molar enthalpy of vaporization or sublimation, kJ/mol	uncertainty
298.15	59.9	2.5

System: 1-aminotricyclo(3.3.1.1:3,7)decane; phases: Crystal, Gas
Property: Molar enthalpy of vaporization or sublimation, kJ/mol (Crystal); method: Correlation gas chromatography
Temperature, K	Molar enthalpy of vaporization or sublimation, kJ/mol	uncertainty
298.15	59.9	3.5

System: .alpha.-methyltricyclo[3.3.1.1(3,7)]decane-1-methanamine; phases: Liquid, Gas
Property: Vapor or sublimation pressure, kPa (Liquid); method: Gas chromatography
Temperature, K	Vapor or sublimation pressure, kPa	uncertainty
298.15	.003	.001

System: .alpha.-methyltricyclo[3.3.1.1(3,7)]decane-1-methanamine; phases: Liquid, Gas
Property: Molar enthalpy of vaporization or sublimation, kJ/mol (Liquid); method: Correlation gas chromatography
Temperature, K	Molar enthalpy of vaporization or sublimation, kJ/mol	uncertainty
298.15	68.7	3.7

System: 1-tetradecanamine; phases: Crystal, Gas
Property: Vapor or sublimation pressure, kPa (Crystal); method: Gas chromatography
Temperature, K	Vapor or sublimation pressure, kPa	uncertainty
298.15	.00012	.00004

System: 1-tetradecanamine; phases: Crystal, Gas
Property: Molar enthalpy of vaporization or sublimation, kJ/mol (Crystal); method: Correlation gas chromatography
Temperature, K	Molar enthalpy of vaporization or sublimation, kJ/mol	uncertainty
298.15	134.5	2.1

System: dl-tranylcypromine; phases: Liquid, Gas
Property: Vapor or sublimation pressure, kPa (Liquid); method: Gas chromatography
Temperature, K	Vapor or sublimation pressure, kPa	uncertainty
298.15	.028	.005

System: dl-tranylcypromine; phases: Liquid, Gas
Property: Molar enthalpy of vaporization or sublimation, kJ/mol (Liquid); method: Correlation gas chromatography
Temperature, K	Molar enthalpy of vaporization or sublimation, kJ/mol	uncertainty
298.15	60.3	2.1

System: dodecylamine; phases: Crystal, Gas
Property: Vapor or sublimation pressure, kPa (Crystal); method: Gas chromatography
Temperature, K	Vapor or sublimation pressure, kPa	uncertainty
298.15	.0016	.0001

System: dodecylamine; phases: Crystal, Gas
Property: Molar enthalpy of vaporization or sublimation, kJ/mol (Crystal); method: Correlation gas chromatography
Temperature, K	Molar enthalpy of vaporization or sublimation, kJ/mol	uncertainty
298.15	118.3	1.8
