Measured thermophysical data. Vapor Liquid Equilibrium Measurements of NH3 + H2O + Ionic Liquid ([Dmim]Cl, [Dmim]BF4, and [Dmim]DMP) Systems
Source: J. Chem. Eng. Data, 2013, 10.1021/je400109a
Compound 1: ammonia, H3N, purity 99.999%
Compound 2: water, H2O, purity 99.9%
Compound 3: 1,3-dimethylimidazolium tetrafluoroborate, C5H9BF4N2, purity 99%
Compound 4: 1,3-dimethylimidazolium chloride, C5H9ClN2
Compound 5: 1,3-dimethylimidazolium dimethylphosphate, C7H15N2O4P, purity 99%

System: ammonia + water; phases: Liquid, Gas
Property: Mole fraction of ammonia (Liquid); method: Titration method
Temperature, K	Pressure, kPa	Mole fraction of ammonia	uncertainty
293.15	133	.418	.01254
293.15	250	.487	.01461
293.15	537	.702	.02106
313.15	71	.177	.00531
313.15	143	.294	.00882
313.15	501	.501	.01503
333.15	71	.103	.00309
333.15	155	.183	.00549
333.15	301	.277	.00831

System: ammonia + water; phases: Gas, Liquid
Property: Mole fraction of ammonia (Gas); method: Titration method
Mole fraction of ammonia	Temperature, K	Mole fraction of ammonia	uncertainty
.205	313.15	.985	.0001189
.325	313.15	.989	.0001678
.4	313.13	.99	.0001978
.445	313.13	.991	.000218
.494	313.16	.993	.0002429
.535	313.14	.994	.0002627
.34	293.15	.992	.0000558
.45	293.13	.994	.0000721
.537	293.16	.996	.0000853
.59	293.17	.996	.0000932
.66	293.18	.996	.0001049
.741	293.15	.997	.0001183
.204	313.15	.985	.0001189
.325	313.15	.988	.0001678
.4	313.13	.99	.0001978
.444	313.13	.991	.000218
.493	313.16	.992	.0002429
.535	313.14	.993	.0002627
.163	333.15	.973	.0001976
.246	333.16	.977	.0003038
.303	333.15	.981	.0003786
.352	333.15	.984	.0004444
.392	333.15	.985	.0005486
.435	333.16	.986	.0005824

System: ammonia + water; phases: Liquid, Gas
Property: Vapor or sublimation pressure, kPa (Liquid); method: Closed cell (Static) method
Mole fraction of ammonia	Temperature, K	Vapor or sublimation pressure, kPa	uncertainty
.205	313.15	99	1.3
.325	313.15	218	1.3
.4	313.13	309	1.3
.445	313.13	373	1.3
.494	313.16	473	1.3
.535	313.14	569	1.3
.34	293.15	100	1.3
.45	293.13	195	1.3
.537	293.16	298	1.3
.59	293.17	371	1.3
.66	293.18	474	1.3
.741	293.15	588	1.3
.204	313.15	99	1.3
.325	313.15	218	1.3
.4	313.13	309	1.3
.444	313.13	373	1.3
.493	313.16	473	1.3
.535	313.14	569	1.3
.163	333.15	108	1.3
.246	333.16	212	1.3
.303	333.15	304	1.3
.352	333.15	398	1.3
.392	333.15	485	1.3
.435	333.16	599	1.3

System: water + 1,3-dimethylimidazolium dimethylphosphate; phases: Liquid
Fixed: Pressure, kPa = 101
Property: Mass density, kg/m3 (Liquid); method: Vibrating tube method
Temperature, K	Mass ratio of solute to solvent of 1,3-dimethylimidazolium dimethylphosphate	Mass density, kg/m3	uncertainty
293.15	.5	1086.4	.1
293.15	.75	1112.3	.1
313.15	.5	1076.8	.1
313.15	.75	1104.1	.1
333.15	.5	1076.6	.1
333.15	.75	1103.3	.1

System: water + 1,3-dimethylimidazolium chloride; phases: Liquid
Fixed: Pressure, kPa = 101
Property: Mass density, kg/m3 (Liquid); method: Vibrating tube method
Temperature, K	Mass ratio of solute to solvent of 1,3-dimethylimidazolium chloride	Mass density, kg/m3	uncertainty
313.15	.75	1096.1	.1

System: water + 1,3-dimethylimidazolium tetrafluoroborate; phases: Liquid
Fixed: Pressure, kPa = 101
Property: Mass density, kg/m3 (Liquid); method: Vibrating tube method
Temperature, K	Mass ratio of solute to solvent of 1,3-dimethylimidazolium tetrafluoroborate	Mass density, kg/m3	uncertainty
313.15	.75	1098.4	.1

System: ammonia + water + 1,3-dimethylimidazolium chloride; phases: Gas, Liquid
Fixed: Mass ratio of solute to solvent of 1,3-dimethylimidazolium chloride = .75
Property: Mole fraction of ammonia (Gas); method: Titration method
Temperature, K	Pressure, kPa	Mole fraction of ammonia	uncertainty
313.15	92	.939	.0000903
313.17	201	.974	.0001078
313.14	311	.983	.0001178
313.13	402	.989	.000268
313.15	506	.991	.0002173
313.16	607	.993	.0002417

System: ammonia + water + 1,3-dimethylimidazolium chloride; phases: Gas, Liquid
Fixed: Mass ratio of solute to solvent of 1,3-dimethylimidazolium chloride = .75
Property: Vapor or sublimation pressure, kPa (Gas); method: Closed cell (Static) method
Temperature, K	Mole fraction of ammonia	Vapor or sublimation pressure, kPa	uncertainty
313.15	.168	92	1.3
313.17	.281	201	1.3
313.14	.358	311	1.3
313.13	.405	402	1.3
313.15	.454	506	1.3
313.16	.498	607	1.3

System: ammonia + water + 1,3-dimethylimidazolium tetrafluoroborate; phases: Gas, Liquid
Fixed: Mass ratio of solute to solvent of 1,3-dimethylimidazolium tetrafluoroborate = .75
Property: Mole fraction of ammonia (Gas); method: Titration method
Temperature, K	Pressure, kPa	Mole fraction of ammonia	uncertainty
313.16	113	.943	.0000933
313.14	199	.976	.0001085
313.15	278	.985	.0001191
313.15	392	.989	.0002667
313.13	477	.992	.0002183
313.15	584	.994	.0002517

System: ammonia + water + 1,3-dimethylimidazolium tetrafluoroborate; phases: Gas, Liquid
Fixed: Mass ratio of solute to solvent of 1,3-dimethylimidazolium tetrafluoroborate = .75
Property: Vapor or sublimation pressure, kPa (Gas); method: Closed cell (Static) method
Temperature, K	Mole fraction of ammonia	Vapor or sublimation pressure, kPa	uncertainty
313.16	.248	113	1.3
313.14	.334	199	1.3
313.15	.39	278	1.3
313.15	.448	392	1.3
313.13	.486	477	1.3
313.15	.53	584	1.3

System: ammonia + water + 1,3-dimethylimidazolium dimethylphosphate; phases: Gas, Liquid
Fixed: Mass ratio of solute to solvent of 1,3-dimethylimidazolium dimethylphosphate = .75
Property: Mole fraction of ammonia (Gas); method: Titration method
Temperature, K	Pressure, kPa	Mole fraction of ammonia	uncertainty
313.14	111	.98	.008301
313.13	206	.989	.001044
313.15	307	.993	.001161
313.15	397	.994	.001857
313.16	481	.996	.002205
313.15	576	.996	.002365

System: ammonia + water + 1,3-dimethylimidazolium dimethylphosphate; phases: Gas, Liquid
Fixed: Mass ratio of solute to solvent of 1,3-dimethylimidazolium dimethylphosphate = .75
Property: Vapor or sublimation pressure, kPa (Gas); method: Closed cell (Static) method
Temperature, K	Mole fraction of ammonia	Vapor or sublimation pressure, kPa	uncertainty
313.14	.167	111	1.3
313.13	.252	206	1.3
313.15	.331	307	1.3
313.15	.386	397	1.3
313.16	.428	481	1.3
313.15	.469	576	1.3

System: ammonia + water + 1,3-dimethylimidazolium dimethylphosphate; phases: Gas, Liquid
Property: Mole fraction of ammonia (Gas); method: Titration method
Temperature, K	Mole fraction of ammonia	Mole fraction of 1,3-dimethylimidazolium dimethylphosphate	Mole fraction of ammonia	uncertainty
293.16	.259	.028	.995	.0000505
293.13	.405	.024	.995	.0000661
293.16	.494	.021	.996	.0000816
293.17	.558	.018	.997	.0000916
293.18	.64	.016	.997	.0001039
293.15	.702	.014	.997	.0001143
313.14	.181	.031	.987	.0001002
313.15	.28	.027	.99	.0001516
313.14	.36	.025	.992	.0001866
313.13	.414	.023	.993	.0002126
313.16	.461	.021	.996	.0002437
313.14	.5	.02	.997	.0002541
333.16	.127	.034	.978	.0001591
333.17	.216	.031	.982	.0002759
333.15	.257	.029	.983	.0003316
333.14	.299	.027	.985	.0003877
333.15	.344	.026	.987	.0004474
333.16	.38	.024	.988	.0004962
293.15	.212	.044	.995	.0003697
293.17	.34	.038	.996	.000598
293.14	.444	.033	.997	.0007663
293.17	.537	.029	.997	.0009328
293.12	.616	.025	.997	.0001086
293.14	.686	.022	.998	.0001216
313.15	.167	.047	.98	.008301
313.13	.252	.042	.99	.001044
313.13	.331	.038	.993	.001161
313.15	.386	.035	.995	.001857
313.16	.428	.032	.996	.002205
313.14	.469	.03	.997	.002365
333.15	.142	.049	.982	.0001848
333.17	.197	.046	.983	.002572
333.15	.243	.043	.985	.003201
333.14	.279	.041	.986	.003684
333.15	.315	.039	.988	.004174
333.14	.352	.037	.989	.004671

System: ammonia + water + 1,3-dimethylimidazolium dimethylphosphate; phases: Liquid, Gas
Property: Vapor or sublimation pressure, kPa (Liquid); method: Closed cell (Static) method
Temperature, K	Mole fraction of ammonia	Mole fraction of 1,3-dimethylimidazolium dimethylphosphate	Vapor or sublimation pressure, kPa	uncertainty
293.16	.259	.028	107	1.3
293.13	.405	.024	216	1.3
293.16	.494	.021	308	1.3
293.17	.558	.018	382	1.3
293.18	.64	.016	481	1.3
293.15	.702	.014	566	1.3
313.14	.181	.031	109	1.3
313.15	.28	.027	215	1.3
313.14	.36	.025	317	1.3
313.13	.414	.023	407	1.3
313.16	.461	.021	493	1.3
313.14	.5	.02	582	1.3
333.16	.127	.034	112	1.3
333.17	.216	.031	230	1.3
333.15	.257	.029	301	1.3
333.14	.299	.027	391	1.3
333.15	.344	.026	500	1.3
333.16	.38	.024	603	1.3
293.15	.212	.044	92	1.3
293.17	.34	.038	195	1.3
293.14	.444	.033	292	1.3
293.17	.537	.029	392	1.3
293.12	.616	.025	486	1.3
293.14	.686	.022	585	1.3
313.15	.167	.047	111	1.3
313.13	.252	.042	206	1.3
313.13	.331	.038	307	1.3
313.15	.386	.035	397	1.3
313.16	.428	.032	481	1.3
313.14	.469	.03	576	1.3
333.15	.142	.049	142	1.3
333.17	.197	.046	233	1.3
333.15	.243	.043	319	1.3
333.14	.279	.041	399	1.3
333.15	.315	.039	491	1.3
333.14	.352	.037	597	1.3

System: ammonia + water + 1,3-dimethylimidazolium dimethylphosphate; phases: Gas, Liquid
Property: Mole fraction of water (Gas); method: Titration method
Temperature, K	Mole fraction of ammonia	Mole fraction of 1,3-dimethylimidazolium dimethylphosphate	Mole fraction of water	uncertainty
293.16	.259	.028	.005	
293.13	.405	.024	.005	
293.16	.494	.021	.004	
293.17	.558	.018	.003	
293.18	.64	.016	.003	
293.15	.702	.014	.003	
313.14	.181	.031	.013	
313.15	.28	.027	.01	
313.14	.36	.025	.008	
313.13	.414	.023	.007	
313.16	.461	.021	.004	
313.14	.5	.02	.003	
333.16	.127	.034	.022	
333.17	.216	.031	.018	
333.15	.257	.029	.017	
333.14	.299	.027	.015	
333.15	.344	.026	.013	
333.16	.38	.024	.012	
293.15	.212	.044	.005	
293.17	.34	.038	.004	
293.14	.444	.033	.003	
293.17	.537	.029	.003	
293.12	.616	.025	.003	
293.14	.686	.022	.002	
313.15	.167	.047	.02	
313.13	.252	.042	.01	
313.13	.331	.038	.007	
313.15	.386	.035	.005	
313.16	.428	.032	.004	
313.14	.469	.03	.003	
333.15	.142	.049	.018	
333.17	.197	.046	.017	
333.15	.243	.043	.015	
333.14	.279	.041	.014	
333.15	.315	.039	.012	
333.14	.352	.037	.011	
