Measured thermophysical data. CO2 Solubility in Biodegradable Hydroxylammonium-Based Ionic Liquids
Source: J. Chem. Eng. Data, 2014, 10.1021/je400732q
Compound 1: 2-hydroxy-N,N,N-trimethylethanaminium (S)-2-hydroxypropanoate, C8H19NO4, purity 95%
Compound 2: carbon dioxide, CO2, purity 99.9995%
Compound 3: tris(2-hydroxyethyl) methylammonium methylsulfate, C8H21NO7S, purity 95%

System: carbon dioxide + tris(2-hydroxyethyl) methylammonium methylsulfate; phases: Liquid, Gas
Property: Vapor or sublimation pressure, kPa (Liquid); method: Closed cell (Static) method
Mole fraction of carbon dioxide	Temperature, K	Vapor or sublimation pressure, kPa	uncertainty
.03	313.23	679	5
.03	323.18	814	5
.03	333.17	959	5
.03	343.24	1115	5
.03	353.26	1280	5
.03	363.28	1460	5
.059	313.22	1388	5
.059	323.2	1648	5
.059	333.18	1953	5
.059	343.2	2278	5
.059	353.22	2630	5
.059	363.25	3015	5
.114	313.23	3848	5
.114	323.18	4453	5
.114	333.17	5163	5
.114	343.34	5952	5
.114	353.27	6775	5
.114	363.2	7629	5
.045	313.25	1034	5
.045	323.24	1240	5
.045	333.21	1465	5
.045	343.24	1690	5
.045	353.27	1965	5
.045	363.26	2215	5
.087	313.2	2149	5
.087	323.24	2605	5
.087	333.21	3100	5
.087	343.24	3641	5
.087	353.27	4241	5
.087	363.25	4802	5

System: carbon dioxide + 2-hydroxy-N,N,N-trimethylethanaminium (S)-2-hydroxypropanoate; phases: Liquid, Gas
Property: Vapor or sublimation pressure, kPa (Liquid); method: Closed cell (Static) method
Mole fraction of carbon dioxide	Temperature, K	Vapor or sublimation pressure, kPa	uncertainty
.042	323.47	200	5
.042	333.37	290	5
.042	343.46	401	5
.042	353.49	531	5
.042	363.47	686	5
.082	323.47	592	5
.082	333.53	837	5
.082	343.55	1102	5
.082	353.56	1422	5
.082	363.6	1778	5
.171	323.28	2335	5
.171	333.25	3086	5
.171	343.22	3851	5
.171	353.27	4742	5
.171	363.29	5748	5
.063	323.22	370	5
.063	333.22	531	5
.063	343.25	721	5
.063	353.26	941	5
.063	363.29	1196	5
.12	323.19	1164	5
.12	333.22	1570	5
.12	343.22	2040	5
.12	353.23	2580	5
.12	363.25	3161	5
