Measured thermophysical data. A Computational and Experimental Study of the Heat Transfer Properties of Nine Different Ionic Liquids
Source: J. Chem. Eng. Data, 2014, 10.1021/je400858t
Compound 1: 1-ethyl-3-methylimidazolium diethylphosphate, C10H21N2O4P, purity 99%
Compound 2: 1-ethyl-3-methylimidazolium methanesulfonate, C7H14N2O3S, purity 99%
Compound 3: 1-ethyl-3-methylimidazolium triflate, C7H11F3N2O3S, purity 99%
Compound 4: 1-ethyl-3-methylimidazolium thiocyanate, C7H11N3S, purity 99%
Compound 5: 1H-imidazolium, 1-ethyl-3-methyl-, salt with trifluoroacetic acid (1:1), C8H11F3N2O2, purity 99%
Compound 6: 1-hexyl-3-methylimidazolium 1,1,1-trifluoro-N-[(trifluoromethyl)sulfonyl]methanesulfonamide, C12H19F6N3O4S2, purity 99%
Compound 7: n-butyl-4-(n',n'-dimethylammonium)pyridinium bis(trifluoromethylsulfonyl)imid, C13H19F6N3O4S2, purity 99%
Compound 8: 4-(dimethylamino)-1-hexyl-pyridinium 1,1,1-trifluoro-N-[(trifluoromethyl)sulfonyl]methanesulfonamide, C15H23F6N3O4S2
Compound 9: 1-hexyl-3-methyl-4-(dimethylamino)pyridinium 1,1,1-trifluoro-N-[(trifluoromethyl)sulfonyl]methanesulfonamide, C16H25F6N3O4S2

System: 1-ethyl-3-methylimidazolium diethylphosphate; phases: Glass, Liquid, Air at 1 atmosphere
Property: Triple point temperature, K (Glass); method: DSC/DTA
Triple point temperature, K	uncertainty
207	1

System: 1-ethyl-3-methylimidazolium diethylphosphate; phases: Liquid
Fixed: Pressure, kPa = 101.325
Property: Thermal conductivity, W/m/K (Liquid); method: Parallel plate method
Temperature, K	Thermal conductivity, W/m/K	uncertainty
300	.19	.0152
375	.19	.0152

System: 1-ethyl-3-methylimidazolium diethylphosphate; phases: Liquid
Fixed: Pressure, kPa = 101.325
Property: Viscosity, Pa*s (Liquid); method: Cone and plate viscometry
Temperature, K	Viscosity, Pa*s	uncertainty
283	1.28	.064
293	.58	.029
298	.41	.0205
303	.3	.015
313	.168	.0084
323	.101	.00505
333	.066	.0033
343	.045	.00225

System: 1-ethyl-3-methylimidazolium diethylphosphate; phases: Glass, Liquid, Air at 1 atmosphere
Property: Triple point temperature, K (Glass); method: DSC/DTA
Triple point temperature, K	uncertainty
207	1

System: 1-ethyl-3-methylimidazolium diethylphosphate; phases: Liquid
Fixed: Pressure, kPa = 101.325
Property: Thermal conductivity, W/m/K (Liquid); method: Parallel plate method
Temperature, K	Thermal conductivity, W/m/K	uncertainty
300	.19	.0152
375	.19	.0152

System: 1-ethyl-3-methylimidazolium diethylphosphate; phases: Liquid
Fixed: Pressure, kPa = 101.325
Property: Specific heat capacity at constant pressure, J/K/kg (Liquid); method: Small sample (50 mg) DSC
Temperature, K	Specific heat capacity at constant pressure, J/K/kg	uncertainty
298	1740	87
303	1760	88
308	1770	88.5
313	1780	89
318	1800	90
323	1810	90.5
328	1820	91
333	1840	92
338	1850	92.5
343	1870	93.5

System: 1-ethyl-3-methylimidazolium methanesulfonate; phases: Liquid
Fixed: Pressure, kPa = 101.325
Property: Thermal conductivity, W/m/K (Liquid); method: Parallel plate method
Temperature, K	Thermal conductivity, W/m/K	uncertainty
300	.21	.0168
375	.21	.0168

System: 1-ethyl-3-methylimidazolium methanesulfonate; phases: Glass, Liquid, Air at 1 atmosphere
Property: Triple point temperature, K (Glass); method: DSC/DTA
Triple point temperature, K	uncertainty
211	1

System: 1-ethyl-3-methylimidazolium methanesulfonate; phases: Liquid
Fixed: Pressure, kPa = 101.325
Property: Viscosity, Pa*s (Liquid); method: Cone and plate viscometry
Temperature, K	Viscosity, Pa*s	uncertainty
283	.45	.0225
293	.21	.0105
298	.155	.00775
303	.117	.00585
313	.07	.0035
323	.045	.00225
333	.031	.00155
343	.023	.00115

System: 1-ethyl-3-methylimidazolium triflate; phases: Liquid
Fixed: Pressure, kPa = 101.325
Property: Thermal conductivity, W/m/K (Liquid); method: Parallel plate method
Temperature, K	Thermal conductivity, W/m/K	uncertainty
300	.16	.0128
375	.16	.0128

System: 1-ethyl-3-methylimidazolium thiocyanate; phases: Liquid
Fixed: Pressure, kPa = 101.325
Property: Thermal conductivity, W/m/K (Liquid); method: Parallel plate method
Temperature, K	Thermal conductivity, W/m/K	uncertainty
300	.21	.0168
375	.21	.0168

System: 1-ethyl-3-methylimidazolium thiocyanate; phases: Glass, Liquid, Air at 1 atmosphere
Property: Triple point temperature, K (Glass); method: DSC/DTA
Triple point temperature, K	uncertainty
179	1

System: 1H-imidazolium, 1-ethyl-3-methyl-, salt with trifluoroacetic acid (1:1); phases: Liquid
Fixed: Pressure, kPa = 101.325
Property: Thermal conductivity, W/m/K (Liquid); method: Parallel plate method
Temperature, K	Thermal conductivity, W/m/K	uncertainty
300	.17	.0136
375	.17	.0136

System: 1-hexyl-3-methylimidazolium 1,1,1-trifluoro-N-[(trifluoromethyl)sulfonyl]methanesulfonamide; phases: Liquid
Fixed: Pressure, kPa = 101.325
Property: Thermal conductivity, W/m/K (Liquid); method: Parallel plate method
Temperature, K	Thermal conductivity, W/m/K	uncertainty
300	.12	.0096
375	.12	.0096

System: 1-hexyl-3-methylimidazolium 1,1,1-trifluoro-N-[(trifluoromethyl)sulfonyl]methanesulfonamide; phases: Liquid
Fixed: Pressure, kPa = 101.325
Property: Mass density, kg/m3 (Liquid); method: Vibrating tube method
Temperature, K	Mass density, kg/m3	uncertainty
283	1385.63	2.078445
293	1376.5	2.06475
303	1367.38	2.05107
313	1358.3	2.03745
323	1349.27	2.023905
333	1340.34	2.01051
343	1331.41	1.997115
353	1322.54	1.98381
363	1313.73	1.970595

System: n-butyl-4-(n',n'-dimethylammonium)pyridinium bis(trifluoromethylsulfonyl)imid; phases: Glass, Liquid, Air at 1 atmosphere
Property: Triple point temperature, K (Glass); method: DSC/DTA
Triple point temperature, K	uncertainty
205	1

System: n-butyl-4-(n',n'-dimethylammonium)pyridinium bis(trifluoromethylsulfonyl)imid; phases: Liquid
Fixed: Pressure, kPa = 101.325
Property: Thermal conductivity, W/m/K (Liquid); method: Parallel plate method
Temperature, K	Thermal conductivity, W/m/K	uncertainty
300	.13	.0104
375	.13	.0104

System: n-butyl-4-(n',n'-dimethylammonium)pyridinium bis(trifluoromethylsulfonyl)imid; phases: Liquid
Fixed: Pressure, kPa = 101.325
Property: Mass density, kg/m3 (Liquid); method: Vibrating tube method
Temperature, K	Mass density, kg/m3	uncertainty
283	1411.09	2.116635
293	1401.77	2.102655
295	1399.92	2.09988
298	1397.13	2.095695
303	1392.52	2.08878
313	1383.33	2.074995
323	1374.17	2.061255
333	1365.07	2.047605
343	1356.06	2.03409
353	1347.1	2.02065
363	1338.2	2.0073

System: n-butyl-4-(n',n'-dimethylammonium)pyridinium bis(trifluoromethylsulfonyl)imid; phases: Liquid
Fixed: Pressure, kPa = 101.325
Property: Viscosity, Pa*s (Liquid); method: Cone and plate viscometry
Temperature, K	Viscosity, Pa*s	uncertainty
283	.198	.0099
293	.108	.0054
298	.083	.00415
303	.065	.00325
313	.042	.0021
323	.029	.00145
333	.021	.00105
343	.0157	.000785

System: n-butyl-4-(n',n'-dimethylammonium)pyridinium bis(trifluoromethylsulfonyl)imid; phases: Liquid
Fixed: Pressure, kPa = 101.325
Property: Specific heat capacity at constant pressure, J/K/kg (Liquid); method: Small sample (50 mg) DSC
Temperature, K	Specific heat capacity at constant pressure, J/K/kg	uncertainty
298	1330	66.5
303	1340	67
308	1350	67.5
313	1350	67.5
318	1360	68
323	1370	68.5
328	1380	69
333	1390	69.5
338	1400	70
343	1410	70.5

System: 4-(dimethylamino)-1-hexyl-pyridinium 1,1,1-trifluoro-N-[(trifluoromethyl)sulfonyl]methanesulfonamide; phases: Liquid
Fixed: Pressure, kPa = 101.325
Property: Thermal conductivity, W/m/K (Liquid); method: Parallel plate method
Temperature, K	Thermal conductivity, W/m/K	uncertainty
300	.13	.0104
375	.13	.0104

System: 4-(dimethylamino)-1-hexyl-pyridinium 1,1,1-trifluoro-N-[(trifluoromethyl)sulfonyl]methanesulfonamide; phases: Liquid
Fixed: Pressure, kPa = 101.325
Property: Mass density, kg/m3 (Liquid); method: Vibrating tube method
Temperature, K	Mass density, kg/m3	uncertainty
283	1356.57	4.06971
295	1345.66	4.03698
298	1342.99	4.02897
303	1338.54	4.01562
313	1329.67	3.98901
323	1320.85	3.96255
333	1312.1	3.9363
343	1303.4	3.9102
353	1294.76	3.88428
363	1286.19	3.85857

System: 4-(dimethylamino)-1-hexyl-pyridinium 1,1,1-trifluoro-N-[(trifluoromethyl)sulfonyl]methanesulfonamide; phases: Liquid
Fixed: Pressure, kPa = 101.325
Property: Specific heat capacity at constant pressure, J/K/kg (Liquid); method: Small sample (50 mg) DSC
Temperature, K	Specific heat capacity at constant pressure, J/K/kg	uncertainty
298	1360	68
303	1370	68.5
308	1380	69
313	1390	69.5
318	1400	70
323	1410	70.5
328	1430	71.5
333	1440	72
338	1450	72.5
343	1460	73

System: 1-hexyl-3-methyl-4-(dimethylamino)pyridinium 1,1,1-trifluoro-N-[(trifluoromethyl)sulfonyl]methanesulfonamide; phases: Liquid
Fixed: Pressure, kPa = 101.325
Property: Thermal conductivity, W/m/K (Liquid); method: Parallel plate method
Temperature, K	Thermal conductivity, W/m/K	uncertainty
300	.12	.0096
375	.12	.0096

System: 1-hexyl-3-methyl-4-(dimethylamino)pyridinium 1,1,1-trifluoro-N-[(trifluoromethyl)sulfonyl]methanesulfonamide; phases: Liquid
Fixed: Pressure, kPa = 101.325
Property: Mass density, kg/m3 (Liquid); method: Vibrating tube method
Temperature, K	Mass density, kg/m3	uncertainty
283	1342.45	4.02735
293	1333.67	4.00101
303	1325.08	3.97524
313	1316.49	3.94947
323	1307.95	3.92385
333	1299.45	3.89835
343	1290.98	3.87294
353	1282.55	3.84765
363	1274.19	3.82257
