Measured thermophysical data. High Solubilities of Carbon Dioxide in Tetraalkyl Phosphonium-Based Ionic Liquids and the Effect of Diluents on Viscosity and Solubility
Source: J. Chem. Eng. Data, 2014, 10.1021/je400655j
Compound 1: trihexyltetradecylphosphonium bis(2,4,4-trimethylpentyl)phosphinate, C48H102O2P2
Compound 2: bis(2,4,4-trimethylpentyl)phosphinate tetrabutylphosphonium, C32H70O2P2
Compound 3: bis(2,4,4-trimethylpentyl)phosphinate trimethyloctylphosphonium, C27H60O2P2
Compound 4: trihexyltetradecylphosphonium dicyanamide, C34H68N3P
Compound 5: carbon dioxide, CO2
Compound 6: water, H2O, purity 98%
Compound 7: 1-butyl-3-methylimidazolium acetate, C10H18N2O2, purity 97%

System: carbon dioxide + trihexyltetradecylphosphonium bis(2,4,4-trimethylpentyl)phosphinate; phases: Liquid, Gas
Property: Mole fraction of carbon dioxide (Liquid); method: Pressure change on mixing
Temperature, K	Pressure, kPa	Mole fraction of carbon dioxide	uncertainty
299	1021	.314	.002
299	1432	.398	.002
299	2014	.5	.002
298	2829	.595	.002
314	1129	.289	.002
314	1595	.366	.002
314	2262	.463	.002
313	3185	.562	.002
324	1196	.276	.002
324	1687	.353	.002
323	2403	.446	.002
323	3402	.544	.002

System: carbon dioxide + bis(2,4,4-trimethylpentyl)phosphinate tetrabutylphosphonium; phases: Liquid, Gas
Property: Mole fraction of carbon dioxide (Liquid); method: Pressure change on mixing
Temperature, K	Pressure, kPa	Mole fraction of carbon dioxide	uncertainty
314	1253	.266	.002
314	1680	.33	.002
314	2584	.427	.002
314	3251	.495	.002
323	1327	.255	.002
323	1786	.317	.002
324	2748	.414	.002
325	3492	.476	.002
334	1410	.242	.002
333	1902	.304	.002
333	2917	.401	.002
334	3695	.463	.002

System: carbon dioxide + bis(2,4,4-trimethylpentyl)phosphinate trimethyloctylphosphonium; phases: Liquid, Gas
Property: Mole fraction of carbon dioxide (Liquid); method: Pressure change on mixing
Temperature, K	Pressure, kPa	Mole fraction of carbon dioxide	uncertainty
299	1068	.279	.002
299	1624	.366	.002
299	2092	.426	.002
299	2684	.51	.002
314	1204	.257	.002
314	1833	.341	.002
314	2353	.4	.002
314	3044	.482	.002
324	1309	.24	.002
323	1952	.329	.002
324	2521	.386	.002
323	3258	.468	.002

System: carbon dioxide + trihexyltetradecylphosphonium dicyanamide; phases: Liquid, Gas
Property: Mole fraction of carbon dioxide (Liquid); method: Pressure change on mixing
Temperature, K	Pressure, kPa	Mole fraction of carbon dioxide	uncertainty
299	792	.225	.002
298	1143	.294	.002
299	1576	.365	.002
299	2244	.453	.002
298	2654	.527	.002
304	824	.218	.002
304	1190	.285	.002
303	1632	.356	.002
303	2321	.446	.002
303	2774	.517	.002
313	886	.202	.002
313	1271	.269	.002
313	1756	.336	.002
313	2507	.428	.002
313	3008	.498	.002
323	937	.192	.002
323	1361	.252	.002
323	1886	.315	.002
323	2686	.412	.002
322	3229	.481	.002

System: water + trihexyltetradecylphosphonium bis(2,4,4-trimethylpentyl)phosphinate; phases: Liquid
Fixed: Pressure, kPa = 101
Property: Mass density, kg/m3 (Liquid); method: Vibrating tube method
Mass fraction of water	Temperature, K	Mass density, kg/m3	uncertainty
.05	293	899.1	.1
.05	298	895.8	.1
.05	303	892.6	.1
.05	308	889.3	.1
.05	313	886.1	.1
.05	318	882.9	.1
.05	323	879.7	.1
.05	328	876.5	.1
.1	293	907.3	.1
.1	298	903.9	.1
.1	303	900.7	.1
.1	308	897.4	.1
.1	313	894.1	.1
.1	318	890.7	.1
.1	323	887.4	.1
.1	328	884	.1

System: water + trihexyltetradecylphosphonium bis(2,4,4-trimethylpentyl)phosphinate; phases: Liquid
Fixed: Pressure, kPa = 101
Property: Viscosity, Pa*s (Liquid); method: Concentric cylinders viscometry
Mass fraction of water	Temperature, K	Viscosity, Pa*s	uncertainty
.05	298	.281	.00843
.05	303	.203	.00609
.05	308	.15	.0045
.05	313	.114	.00342
.05	318	.087	.00261
.05	323	.068	.00204
.05	328	.054	.00162
.05	333	.044	.00132
.05	338	.036	.00108
.05	343	.031	.00093
.1	298	.174	.00522
.1	303	.137	.00411
.1	308	.103	.00309
.1	313	.078	.00234
.1	318	.059	.00177
.1	323	.047	.00141
.1	328	.037	.00111
.1	333	.031	.00093
.1	338	.025	.00075
.1	343	.023	.00069

System: 1-butyl-3-methylimidazolium acetate + trihexyltetradecylphosphonium bis(2,4,4-trimethylpentyl)phosphinate; phases: Liquid
Fixed: Pressure, kPa = 101
Property: Mass density, kg/m3 (Liquid); method: Vibrating tube method
Mass fraction of 1-butyl-3-methylimidazolium acetate	Temperature, K	Mass density, kg/m3	uncertainty
.2	293	908.8	.1
.2	298	905.6	.1
.2	303	902.4	.1
.2	308	899.3	.1
.2	313	896.1	.1
.2	318	893	.1
.2	323	889.9	.1
.2	328	886.7	.1
.2	333	883.5	.1
.2	338	880.3	.1
.2	343	877.1	.1
.5	293	937.1	.1
.5	298	933.6	.1
.5	303	930.1	.1
.5	308	926.6	.1
.5	313	923.1	.1
.5	318	919.6	.1
.5	323	916.1	.1
.5	328	912.6	.1
.5	333	909.2	.1
.5	338	905.7	.1
.5	343	902.2	.1

System: 1-butyl-3-methylimidazolium acetate + trihexyltetradecylphosphonium bis(2,4,4-trimethylpentyl)phosphinate; phases: Liquid
Fixed: Pressure, kPa = 101
Property: Viscosity, Pa*s (Liquid); method: Concentric cylinders viscometry
Mass fraction of 1-butyl-3-methylimidazolium acetate	Temperature, K	Viscosity, Pa*s	uncertainty
.2	298	.16	.0048
.2	303	.123	.00369
.2	308	.097	.00291
.2	313	.077	.00231
.2	318	.063	.00189
.2	323	.052	.00156
.2	328	.044	.00132
.2	333	.037	.00111
.2	338	.032	.00096
.2	343	.028	.00084
.5	298	.033	.00099
.5	303	.027	.00081
.5	308	.022	.00066
.5	313	.019	.00057
.5	318	.017	.00051
.5	323	.015	.00045
.5	328	.013	.00039
.5	333	.012	.00036
.5	338	.011	.00033
.5	343	.01	.0003

System: carbon dioxide + water + trihexyltetradecylphosphonium bis(2,4,4-trimethylpentyl)phosphinate; phases: Liquid, Gas
Property: Mole fraction of carbon dioxide (Liquid); method: Pressure change on mixing
Solvent: Mass fraction of water	Temperature, K	Pressure, kPa	Mole fraction of carbon dioxide	uncertainty
.05	299	870	.181	.002
.05	298	1281	.246	.002
.05	299	1957	.33	.002
.05	299	2978	.432	.002
.05	313	990	.166	.002
.05	314	1463	.226	.002
.05	313	2225	.306	.002
.05	313	3389	.406	.002
.05	323	1081	.154	.002
.05	323	1588	.212	.002
.05	323	2412	.289	.002
.05	323	3654	.39	.002
.1	299	877	.112	.002
.1	299	1284	.155	.002
.1	299	2023	.22	.002
.1	299	3227	.315	.002
.1	313	995	.101	.002
.1	314	1465	.139	.002
.1	314	2291	.201	.002
.1	314	3677	.288	.002
.1	322	1084	.092	.002
.1	323	1590	.128	.002
.1	323	2464	.188	.002
.1	324	3973	.271	.002

System: carbon dioxide + 1-butyl-3-methylimidazolium acetate + trihexyltetradecylphosphonium bis(2,4,4-trimethylpentyl)phosphinate; phases: Liquid, Gas
Property: Mole fraction of carbon dioxide (Liquid); method: Pressure change on mixing
Solvent: Mass fraction of 1-butyl-3-methylimidazolium acetate	Temperature, K	Pressure, kPa	Mole fraction of carbon dioxide	uncertainty
.2	298	757	.206	.002
.2	299	1146	.284	.002
.2	298	1719	.382	.002
.2	298	2424	.487	.002
.2	313	841	.185	.002
.2	313	1273	.256	.002
.2	313	1909	.352	.002
.2	313	2711	.454	.002
.2	323	895	.172	.002
.2	323	1362	.236	.002
.2	323	2019	.337	.002
.2	323	2897	.434	.002
.5	299	514	.111	.002
.5	299	722	.155	.002
.5	299	1105	.224	.002
.5	298	1481	.294	.002
.5	299	2197	.385	.002
.5	313	585	.101	.002
.5	313	830	.141	.002
.5	313	1274	.205	.002
.5	314	1724	.271	.002
.5	313	2526	.361	.002
.5	323	636	.095	.002
.5	323	901	.133	.002
.5	323	1387	.193	.002
.5	323	1870	.258	.002
.5	323	2745	.346	.002
