Measured thermophysical data. Effect of Hydrocarbon Chain and Amide Linkage on the Interfacial and Self-assembly Property of Nicotinic Acid Amphiphiles
Source: J. Chem. Eng. Data, 2015, 10.1021/je501051p
Compound 1: sodium 6-octylnicotinate, C14H20NNaO2, purity 100%
Compound 2: sodium 6-decylnicotinate, C16H24NNaO2, purity 99.89%
Compound 3: sodium (6-decylnicotinoyl)glycinate, C18H27N2NaO3, purity 99.28%
Compound 4: water, H2O, purity 99.8%

System: water + sodium 6-octylnicotinate; phases: Liquid, Gas
Fixed: Temperature, K = 303
Property: Surface tension liquid-gas, N/m (Liquid); method: Ring tensiometer
Molality, mol/kg of sodium 6-octylnicotinate	Surface tension liquid-gas, N/m	uncertainty
.00005	.069	.001
.00007145	.0683	.001
.0001	.067	.001
.0001545	.066	.001
.0002512	.0649	.001
.0003972	.0636	.001
.0006397	.0618	.001
.001	.06	.001
.0015	.0584	.001
.002	.0574	.001
.0025	.0574	.001
.002999	.0574	.001
.003999	.0574	.001
.005	.056	.001
.006427	.05422	.001
.009016	.0524	.001
.01	.0495	.001
.013	.048	.001
.015	.0475	.001
.01702	.045	.001
.02	.044	.001
.025	.044	.001
.02999	.044	.001
.03499	.044	.001

System: water + sodium 6-decylnicotinate; phases: Liquid, Gas
Fixed: Temperature, K = 303
Property: Surface tension liquid-gas, N/m (Liquid); method: Ring tensiometer
Molality, mol/kg of sodium 6-decylnicotinate	Surface tension liquid-gas, N/m	uncertainty
.00001	.065	.001
.00001479	.0637	.001
.00002512	.06202	.001
.00004074	.0596	.001
.00005495	.05845	.001
.00007586	.05675	.001
.0001	.05575	.001
.000123	.05456	.001
.0001514	.0531	.001
.000182	.05177	.001
.0002042	.0505	.001
.0002512	.0495	.001
.000302	.0485	.001
.0003548	.047	.001
.0004074	.047	.001
.0005012	.047	.001
.0006166	.047	.001
.0008128	.0465	.001
.001	.046	.001
.001514	.0456	.001
.002042	.045	.001
.002291	.0445	.001
.002512	.044	.001
.002754	.0435	.001
.00302	.0425	.001
.003311	.0425	.001
.003548	.0425	.001
.004074	.0425	.001
.005012	.0425	.001
.006026	.0425	.001

System: water + sodium (6-decylnicotinoyl)glycinate; phases: Liquid, Gas
Fixed: Temperature, K = 303
Property: Surface tension liquid-gas, N/m (Liquid); method: Ring tensiometer
Molality, mol/kg of sodium (6-decylnicotinoyl)glycinate	Surface tension liquid-gas, N/m	uncertainty
.00001995	.0647	.001
.00002818	.0618	.001
.00004786	.0594	.001
.00005888	.0581	.001
.00008128	.0566	.001
.0001148	.0552	.001
.0001514	.0532	.001
.0002512	.0525	.001
.000302	.05	.001
.0005012	.047	.001
.0008128	.046	.001
.001	.045	.001
.001514	.044	.001
.002042	.043	.001
.002291	.042	.001
.002512	.0405	.001
.00302	.0405	.001
.003548	.0405	.001
.004074	.0405	.001
.005012	.0405	.001
.006026	.0405	.001
