Measured thermophysical data. Solubility of Bioactive Compound Hesperidin in Six Pure Solvents at (298.15 to 333.15) K
Source: J. Chem. Eng. Data, 2014, 10.1021/je500206w
Compound 1: (2S)-Hesperidin, C28H34O15, purity 99.2%
Compound 2: ethanol, C2H6O, purity 99.9%
Compound 3: propylene glycol, C3H8O2, purity 99.5%
Compound 4: isopropyl alcohol, C3H8O, purity 99.6%
Compound 5: 1-butanol, C4H10O, purity 99.6%
Compound 6: water, H2O

System: (2S)-Hesperidin + water; phases: Liquid, Crystal
Fixed: Pressure, kPa = 101
Property: Mole fraction of (2S)-Hesperidin (Liquid); method: Chromatography
Temperature, K	Mole fraction of (2S)-Hesperidin	uncertainty
298.15	.000000147	.000000002646
303.15	.000000152	.000000002736
313.15	.000000161	.000000002898
323.15	.00000017	.00000000306
333.15	.00000018	.00000000324

System: ethanol + (2S)-Hesperidin; phases: Liquid, Crystal
Fixed: Pressure, kPa = 101
Property: Mole fraction of (2S)-Hesperidin (Liquid); method: Chromatography
Temperature, K	Mole fraction of (2S)-Hesperidin	uncertainty
298.15	.0000345	.000000621
303.15	.0000395	.000000711
313.15	.0000527	.0000009486
323.15	.0000656	.0000011808
333.15	.0000845	.000001521

System: propylene glycol + (2S)-Hesperidin; phases: Liquid, Crystal
Fixed: Pressure, kPa = 101
Property: Mole fraction of (2S)-Hesperidin (Liquid); method: Chromatography
Temperature, K	Mole fraction of (2S)-Hesperidin	uncertainty
298.15	.000535	.00000963
303.15	.000647	.000011646
313.15	.000886	.000015948
323.15	.00114	.00002052
333.15	.00158	.00002844

System: 1-butanol + (2S)-Hesperidin; phases: Liquid, Crystal
Fixed: Pressure, kPa = 101
Property: Mole fraction of (2S)-Hesperidin (Liquid); method: Chromatography
Temperature, K	Mole fraction of (2S)-Hesperidin	uncertainty
298.15	.000315	.00000567
303.15	.000359	.000006462
313.15	.000461	.000008298
323.15	.000582	.000010476
333.15	.000715	.00001287

System: isopropyl alcohol + (2S)-Hesperidin; phases: Liquid, Crystal
Fixed: Pressure, kPa = 101
Property: Mole fraction of (2S)-Hesperidin (Liquid); method: Chromatography
Temperature, K	Mole fraction of (2S)-Hesperidin	uncertainty
298.15	.0000153	.0000002754
303.15	.0000187	.0000003366
313.15	.0000261	.0000004698
323.15	.0000382	.0000006876
333.15	.0000586	.0000010548
