Measured thermophysical data. Solubility of Clopidogrel Hydrogen Sulfate (Form II) in Ethanol + Cyclohexane Mixtures at (283.35 to 333.75) K
Source: J. Chem. Eng. Data, 2015, 10.1021/je500616v
Compound 1: (R)-5-((S)-1-(2-chlorophenyl)-2-methoxy-2-oxoethyl)-4,5,6,7-tetrahydrothieno[3,2-c]pyridin-5-ium hydrogen sulfate, C16H18ClNO6S2, purity 99.5%
Compound 2: ethanol, C2H6O, purity 99.5%
Compound 3: cyclohexane, C6H12, purity 99.5%

System: ethanol + cyclohexane + (R)-5-((S)-1-(2-chlorophenyl)-2-methoxy-2-oxoethyl)-4,5,6,7-tetrahydrothieno[3,2-c]pyridin-5-ium hydrogen sulfate; phases: Liquid, Crystal
Fixed: Pressure, kPa = 101
Property: Mole fraction of (R)-5-((S)-1-(2-chlorophenyl)-2-methoxy-2-oxoethyl)-4,5,6,7-tetrahydrothieno[3,2-c]pyridin-5-ium hydrogen sulfate (Liquid); method: laser monitoring
Temperature, K	Solvent: Mole fraction of ethanol	Mole fraction of (R)-5-((S)-1-(2-chlorophenyl)-2-methoxy-2-oxoethyl)-4,5,6,7-tetrahydrothieno[3,2-c]pyridin-5-ium hydrogen sulfate	uncertainty
283.35	.1	.00004037	.000000016148
283.35	.2	.00008623	.000000034492
283.35	.3	.0001718	.00000006872
283.35	.4	.0003443	.00000013772
283.35	.5	.0005849	.00000023396
283.35	.6	.0009309	.00000037236
283.35	.7	.00135	.00000054
283.35	.8	.002299	.0000009196
283.35	.9	.003359	.0000013436
293.35	.1	.00005205	.00000002082
293.35	.2	.0001323	.00000005292
293.35	.3	.0002472	.00000009888
293.35	.4	.0005037	.00000020148
293.35	.5	.0007918	.00000031672
293.35	.6	.001296	.0000005184
293.35	.7	.002128	.0000008512
293.35	.8	.003227	.0000012908
293.35	.9	.005299	.0000021196
303.15	.1	.00007284	.000000029136
303.15	.2	.000163	.0000000652
303.15	.3	.0003531	.00000014124
303.15	.4	.0007172	.00000028688
303.15	.5	.001255	.000000502
303.15	.6	.001979	.0000007916
303.15	.7	.003183	.0000012732
303.15	.8	.005099	.0000020396
303.15	.9	.008005	.000003202
312.95	.1	.00009868	.000000039472
312.95	.2	.0002535	.0000001014
312.95	.3	.0004982	.00000019928
312.95	.4	.001099	.0000004396
312.95	.5	.001779	.0000007116
312.95	.6	.002865	.000001146
312.95	.7	.004685	.000001874
312.95	.8	.008046	.0000032184
312.95	.9	.01162	.000004648
322.75	.1	.0001463	.00000005852
322.75	.2	.0003354	.00000013416
322.75	.3	.0007537	.00000030148
322.75	.4	.001499	.0000005996
322.75	.5	.002706	.0000010824
322.75	.6	.004328	.0000017312
322.75	.7	.007289	.0000029156
322.75	.8	.0115	.0000046
322.75	.9	.0187	.00000748
333.75	.1	.0002099	.00000008396
333.75	.2	.0004945	.0000001978
333.75	.3	.0011	.00000044
333.75	.4	.002194	.0000008776
333.75	.5	.004149	.0000016596
333.75	.6	.00697	.000002788
333.75	.7	.0113	.00000452
333.75	.8	.01818	.000007272
333.75	.9	.0305	.0000122
