Measured thermophysical data. Influence of NH4Br on Solvation Behavior of Polyhydroxy Solutes in Aqueous Solutions at Different Temperatures and Atmospheric Pressure
Source: J. Chem. Eng. Data, 2015, 10.1021/je500886a
Compound 1: D-(-)-arabinose, C5H10O5, purity 99%
Compound 2: D-(+)-arabitol, C5H12O5, purity 99%
Compound 3: D-(+)-xylose, C5H10O5, purity 99%
Compound 4: xylitol, C5H12O5, purity 99%
Compound 5: L-(-)-sorbose, C6H12O6, purity 98%
Compound 6: D-sorbitol, C6H14O6, purity 98%
Compound 7: D(+)-galactose, C6H12O6, purity 99%
Compound 8: galactitol, C6H14O6, purity 99%
Compound 9: D-mannose, C6H12O6, purity 99%
Compound 10: D-mannitol, C6H14O6, purity 98%
Compound 11: D(+)-glucose, C6H12O6, purity 99%
Compound 12: sucrose, C12H22O11, purity 99%
Compound 13: D-(+)-maltose monohydrate, C12H24O12, purity 95%
Compound 14: ammonium bromide, BrH4N, purity 99%
Compound 15: water, H2O, purity 99.8%

System: water + D-(-)-arabinose + ammonium bromide; phases: Liquid
Fixed: Pressure, kPa = 101
Property: Mass density, kg/m3 (Liquid); method: Vibrating tube method
Solvent: Molality, mol/kg of ammonium bromide	Temperature, K	Molality, mol/kg of D-(-)-arabinose	Mass density, kg/m3	uncertainty
0	288.15	0	999.13	.004
0	288.15	.05173	1002.09	.004
0	288.15	.07102	1003.18	.004
0	288.15	.09055	1004.28	.004
0	288.15	.10926	1005.32	.004
0	288.15	.12441	1006.17	.004
0	288.15	.14763	1007.45	.004
.05	288.15	0	1001.05	.004
.05	288.15	.04908	1003.96	.004
.05	288.15	.07124	1005.25	.004
.05	288.15	.09381	1006.57	.004
.05	288.15	.1114	1007.58	.004
.05	288.15	.13358	1008.85	.004
.05	288.15	.14636	1009.58	.004
.5	288.15	0	1024.05	.004
.5	288.15	.05202	1027.16	.004
.5	288.15	.07524	1028.53	.004
.5	288.15	.0902	1029.4	.004
.5	288.15	.11524	1030.86	.004
.5	288.15	.12656	1031.52	.004
.5	288.15	.14973	1032.85	.004
1	288.15	0	1049.01	.004
1	288.15	.05119	1052.12	.004
1	288.15	.06739	1053.09	.004
1	288.15	.0841	1054.08	.004
1	288.15	.1037	1055.23	.004
1	288.15	.12991	1056.76	.004
1	288.15	.15045	1057.96	.004
2	288.15	0	1095.99	.004
2	288.15	.05258	1099.12	.004
2	288.15	.07278	1100.31	.004
2	288.15	.08976	1101.31	.004
2	288.15	.1071	1102.31	.004
2	288.15	.12741	1103.48	.004
2	288.15	.14867	1104.7	.004
.05	298.15	0	998.76	.004
.05	298.15	.04908	1001.62	.004
.05	298.15	.07124	1002.89	.004
.05	298.15	.09381	1004.17	.004
.05	298.15	.1114	1005.17	.004
.05	298.15	.13358	1006.42	.004
.05	298.15	.14636	1007.13	.004
.5	298.15	0	1021.81	.004
.5	298.15	.05202	1024.87	.004
.5	298.15	.07524	1026.22	.004
.5	298.15	.0902	1027.08	.004
.5	298.15	.11524	1028.52	.004
.5	298.15	.12656	1029.16	.004
.5	298.15	.14973	1030.48	.004
1	298.15	0	1046.88	.004
1	298.15	.05119	1049.93	.004
1	298.15	.06739	1050.88	.004
1	298.15	.0841	1051.85	.004
1	298.15	.1037	1052.98	.004
1	298.15	.12991	1054.48	.004
1	298.15	.15045	1055.65	.004
0	298.15	0	997.05	.004
0	298.15	.05173	999.97	.004
0	298.15	.07102	1001.05	.004
0	298.15	.09055	1002.13	.004
0	298.15	.10926	1003.17	.004
0	298.15	.12441	1004	.004
0	298.15	.14763	1005.26	.004
2	298.15	0	1092.56	.004
2	298.15	.05258	1095.63	.004
2	298.15	.07278	1096.78	.004
2	298.15	.08976	1097.75	.004
2	298.15	.1071	1098.73	.004
2	298.15	.12741	1099.87	.004
2	298.15	.14867	1101.06	.004
.5	308.15	0	1019.06	.004
.5	308.15	.05202	1022.07	.004
.5	308.15	.07524	1023.39	.004
.5	308.15	.0902	1024.24	.004
.5	308.15	.11524	1025.65	.004
.5	308.15	.12656	1026.28	.004
.5	308.15	.14973	1027.57	.004
1	308.15	0	1043.31	.004
1	308.15	.05119	1046.31	.004
1	308.15	.06739	1047.25	.004
1	308.15	.0841	1048.21	.004
1	308.15	.1037	1049.33	.004
1	308.15	.12991	1050.81	.004
1	308.15	.15045	1051.96	.004
0	308.15	0	994.06	.004
0	308.15	.05173	996.94	.004
0	308.15	.07102	998	.004
0	308.15	.09055	999.06	.004
0	308.15	.10926	1000.07	.004
0	308.15	.12441	1000.88	.004
0	308.15	.14763	1002.12	.004
.05	308.15	0	995.75	.004
.05	308.15	.04908	998.55	.004
.05	308.15	.07124	999.81	.004
.05	308.15	.09381	1001.07	.004
.05	308.15	.1114	1002.05	.004
.05	308.15	.13358	1003.27	.004
.05	308.15	.14636	1003.97	.004
2	308.15	0	1088.78	.004
2	308.15	.05258	1091.79	.004
2	308.15	.07278	1092.92	.004
2	308.15	.08976	1093.87	.004
2	308.15	.1071	1094.82	.004
2	308.15	.12741	1095.93	.004
2	308.15	.14867	1097.09	.004
1	318.15	0	1040.33	.004
1	318.15	.05119	1043.28	.004
1	318.15	.06739	1044.2	.004
1	318.15	.0841	1045.14	.004
1	318.15	.1037	1046.25	.004
1	318.15	.12991	1047.71	.004
1	318.15	.15045	1048.85	.004
0	318.15	0	990.24	.004
0	318.15	.05173	993.08	.004
0	318.15	.07102	994.13	.004
0	318.15	.09055	995.18	.004
0	318.15	.10926	996.18	.004
0	318.15	.12441	996.98	.004
0	318.15	.14763	998.21	.004
.05	318.15	0	992.91	.004
.05	318.15	.04908	995.67	.004
.05	318.15	.07124	996.89	.004
.05	318.15	.09381	998.13	.004
.05	318.15	.1114	999.09	.004
.05	318.15	.13358	1000.29	.004
.05	318.15	.14636	1000.98	.004
.5	318.15	0	1015.68	.004
.5	318.15	.05202	1018.63	.004
.5	318.15	.07524	1019.93	.004
.5	318.15	.0902	1020.76	.004
.5	318.15	.11524	1022.14	.004
.5	318.15	.12656	1022.76	.004
.5	318.15	.14973	1024.02	.004
2	318.15	0	1085.68	.004
2	318.15	.05258	1088.61	.004
2	318.15	.07278	1089.72	.004
2	318.15	.08976	1090.64	.004
2	318.15	.1071	1091.58	.004
2	318.15	.12741	1092.67	.004
2	318.15	.14867	1093.8	.004

System: water + D-(-)-arabinose + ammonium bromide; phases: Liquid
Fixed: Pressure, kPa = 101
Property: Viscosity, Pa*s (Liquid); method: Capillary tube (Ostwald; Ubbelohde) method
Solvent: Molality, mol/kg of ammonium bromide	Temperature, K	Molality, mol/kg of D-(-)-arabinose	Viscosity, Pa*s	uncertainty
0	288.15	0	.001138	.000002
0	288.15	.05178	.001157	.000002
0	288.15	.0695	.001164	.000002
0	288.15	.08979	.00117	.000002
0	288.15	.1077	.001177	.000002
0	288.15	.12667	.001182	.000002
0	288.15	.15097	.001191	.000002
0	298.15	0	.00089	.000002
0	298.15	.05178	.000905	.000002
0	298.15	.0695	.000909	.000002
0	298.15	.08979	.000915	.000002
0	298.15	.1077	.00092	.000002
0	298.15	.12667	.000925	.000002
0	298.15	.15097	.000932	.000002
0	308.15	0	.000719	.000002
0	308.15	.05178	.00073	.000002
0	308.15	.0695	.000734	.000002
0	308.15	.08979	.000738	.000002
0	308.15	.1077	.000741	.000002
0	308.15	.12667	.000745	.000002
0	308.15	.15097	.00075	.000002
0	318.15	0	.000596	.000002
0	318.15	.05178	.000604	.000002
0	318.15	.0695	.000608	.000002
0	318.15	.08979	.000611	.000002
0	318.15	.1077	.000614	.000002
0	318.15	.12667	.000616	.000002
0	318.15	.15097	.000621	.000002
.05	298.15	0	.000888	.000002
.05	298.15	.0508	.000902	.000002
.05	298.15	.0705	.000907	.000002
.05	298.15	.08658	.000912	.000002
.05	298.15	.11212	.000918	.000002
.05	298.15	.12813	.000923	.000002
.05	298.15	.1506	.000929	.000002
.05	288.15	0	.001132	.000002
.05	288.15	.0508	.001149	.000002
.05	288.15	.0705	.001156	.000002
.05	288.15	.08658	.001161	.000002
.05	288.15	.11212	.001169	.000002
.05	288.15	.12813	.001174	.000002
.05	288.15	.1506	.001182	.000002
.05	308.15	0	.000719	.000002
.05	308.15	.0508	.00073	.000002
.05	308.15	.0705	.000735	.000002
.05	308.15	.08658	.000739	.000002
.05	308.15	.11212	.000745	.000002
.05	308.15	.12813	.000748	.000002
.05	308.15	.1506	.000754	.000002
.05	318.15	0	.000597	.000002
.05	318.15	.0508	.000607	.000002
.05	318.15	.0705	.000612	.000002
.05	318.15	.08658	.000615	.000002
.05	318.15	.11212	.00062	.000002
.05	318.15	.12813	.000623	.000002
.05	318.15	.1506	.000628	.000002
.5	308.15	0	.00071	.000002
.5	308.15	.04815	.000728	.000002
.5	308.15	.07221	.000737	.000002
.5	308.15	.09113	.000744	.000002
.5	308.15	.11332	.000752	.000002
.5	308.15	.12994	.000758	.000002
.5	308.15	.14929	.000765	.000002
.5	288.15	0	.001096	.000002
.5	288.15	.04815	.001118	.000002
.5	288.15	.07221	.001132	.000002
.5	288.15	.09113	.00114	.000002
.5	288.15	.11332	.00115	.000002
.5	288.15	.12994	.001157	.000002
.5	288.15	.14929	.001169	.000002
.5	298.15	0	.00087	.000002
.5	298.15	.04815	.000889	.000002
.5	298.15	.07221	.000899	.000002
.5	298.15	.09113	.000908	.000002
.5	298.15	.11332	.000916	.000002
.5	298.15	.12994	.000922	.000002
.5	298.15	.14929	.000931	.000002
.5	318.15	0	.000598	.000002
.5	318.15	.04815	.000614	.000002
.5	318.15	.07221	.000623	.000002
.5	318.15	.09113	.00063	.000002
.5	318.15	.11332	.000637	.000002
.5	318.15	.12994	.000643	.000002
.5	318.15	.14929	.00065	.000002
1	318.15	0	.0006	.000002
1	318.15	.04883	.000618	.000002
1	318.15	.07146	.000629	.000002
1	318.15	.08773	.000637	.000002
1	318.15	.11224	.000647	.000002
1	318.15	.12944	.000655	.000002
1	318.15	.14719	.000665	.000002
1	288.15	0	.001057	.000002
1	288.15	.04883	.001089	.000002
1	288.15	.07146	.001105	.000002
1	288.15	.08773	.001116	.000002
1	288.15	.11224	.001133	.000002
1	288.15	.12944	.001146	.000002
1	288.15	.14719	.001155	.000002
1	298.15	0	.000853	.000002
1	298.15	.04883	.000882	.000002
1	298.15	.07146	.000898	.000002
1	298.15	.08773	.000907	.000002
1	298.15	.11224	.000919	.000002
1	298.15	.12944	.000929	.000002
1	298.15	.14719	.00094	.000002
1	308.15	0	.000697	.000002
1	308.15	.04883	.00072	.000002
1	308.15	.07146	.000731	.000002
1	308.15	.08773	.000741	.000002
1	308.15	.11224	.000752	.000002
1	308.15	.12944	.000761	.000002
1	308.15	.14719	.000769	.000002
2	288.15	0	.001002	.000002
2	288.15	.05181	.001041	.000002
2	288.15	.07038	.001057	.000002
2	288.15	.08185	.001066	.000002
2	288.15	.10728	.001085	.000002
2	288.15	.12756	.001105	.000002
2	288.15	.15038	.001122	.000002
2	308.15	0	.000678	.000002
2	308.15	.05181	.000708	.000002
2	308.15	.07038	.00072	.000002
2	308.15	.08185	.000726	.000002
2	308.15	.10728	.000741	.000002
2	308.15	.12756	.000753	.000002
2	308.15	.15038	.000767	.000002
2	298.15	0	.000827	.000002
2	298.15	.05181	.000866	.000002
2	298.15	.07038	.000879	.000002
2	298.15	.08185	.000886	.000002
2	298.15	.10728	.000904	.000002
2	298.15	.12756	.000915	.000002
2	298.15	.15038	.000931	.000002
2	318.15	0	.000602	.000002
2	318.15	.05181	.000629	.000002
2	318.15	.07038	.00064	.000002
2	318.15	.08185	.000646	.000002
2	318.15	.10728	.000659	.000002
2	318.15	.12756	.000671	.000002
2	318.15	.15038	.000683	.000002

System: D-(+)-arabitol + water + ammonium bromide; phases: Liquid
Fixed: Pressure, kPa = 101
Property: Mass density, kg/m3 (Liquid); method: Vibrating tube method
Solvent: Molality, mol/kg of ammonium bromide	Temperature, K	Molality, mol/kg of D-(+)-arabitol	Mass density, kg/m3	uncertainty
0	288.15	.0542	1001.87	.004
0	288.15	.07304	1002.82	.004
0	288.15	.08867	1003.59	.004
0	288.15	.10528	1004.4	.004
0	288.15	.13227	1005.72	.004
0	288.15	.15125	1006.64	.004
0	298.15	.0542	999.73	.004
0	298.15	.07304	1000.65	.004
0	298.15	.08867	1001.41	.004
0	298.15	.10528	1002.21	.004
0	298.15	.13227	1003.5	.004
0	298.15	.15125	1004.39	.004
0	308.15	.0542	996.7	.004
0	308.15	.07304	997.61	.004
0	308.15	.08867	998.35	.004
0	308.15	.10528	999.14	.004
0	308.15	.13227	1000.41	.004
0	308.15	.15125	1001.3	.004
0	318.15	.0542	992.83	.004
0	318.15	.07304	993.72	.004
0	318.15	.08867	994.45	.004
0	318.15	.10528	995.22	.004
0	318.15	.13227	996.46	.004
0	318.15	.15125	997.33	.004
.05	288.15	.05238	1003.74	.004
.05	288.15	.06966	1004.62	.004
.05	288.15	.09163	1005.73	.004
.05	288.15	.11088	1006.69	.004
.05	288.15	.12729	1007.51	.004
.05	288.15	.15158	1008.71	.004
.05	298.15	.05238	1001.4	.004
.05	298.15	.06966	1002.26	.004
.05	298.15	.09163	1003.34	.004
.05	298.15	.11088	1004.29	.004
.05	298.15	.12729	1005.09	.004
.05	298.15	.15158	1006.26	.004
.05	308.15	.05238	998.34	.004
.05	308.15	.06966	999.18	.004
.05	308.15	.09163	1000.24	.004
.05	308.15	.11088	1001.17	.004
.05	308.15	.12729	1001.95	.004
.05	308.15	.15158	1003.11	.004
.05	318.15	.05238	995.47	.004
.05	318.15	.06966	996.3	.004
.05	318.15	.09163	997.35	.004
.05	318.15	.11088	998.26	.004
.05	318.15	.12729	999.03	.004
.05	318.15	.15158	1000.17	.004
.5	288.15	.04802	1026.49	.004
.5	288.15	.06817	1027.51	.004
.5	288.15	.09368	1028.78	.004
.5	288.15	.10752	1029.46	.004
.5	288.15	.13451	1030.79	.004
.5	288.15	.14891	1031.49	.004
.5	298.15	.04802	1024.21	.004
.5	298.15	.06817	1025.21	.004
.5	298.15	.09368	1026.46	.004
.5	298.15	.10752	1027.13	.004
.5	298.15	.13451	1028.43	.004
.5	298.15	.14891	1029.12	.004
.5	308.15	.04802	1021.42	.004
.5	308.15	.06817	1022.4	.004
.5	308.15	.09368	1023.63	.004
.5	308.15	.10752	1024.29	.004
.5	308.15	.13451	1025.58	.004
.5	308.15	.14891	1026.26	.004
.5	318.15	.04802	1018.01	.004
.5	318.15	.06817	1018.97	.004
.5	318.15	.09368	1020.18	.004
.5	318.15	.10752	1020.83	.004
.5	318.15	.13451	1022.09	.004
.5	318.15	.14891	1022.75	.004
1	288.15	.04908	1051.51	.004
1	288.15	.07197	1052.66	.004
1	288.15	.09067	1053.59	.004
1	288.15	.1089	1054.49	.004
1	288.15	.12774	1055.41	.004
1	288.15	.14923	1056.45	.004
1	298.15	.04908	1049.33	.004
1	298.15	.07197	1050.45	.004
1	298.15	.09067	1051.36	.004
1	298.15	.1089	1052.24	.004
1	298.15	.12774	1053.14	.004
1	298.15	.14923	1054.17	.004
1	308.15	.04908	1045.71	.004
1	308.15	.07197	1046.81	.004
1	308.15	.09067	1047.7	.004
1	308.15	.1089	1048.57	.004
1	308.15	.12774	1049.45	.004
1	308.15	.14923	1050.45	.004
1	318.15	.04908	1042.68	.004
1	318.15	.07197	1043.76	.004
1	318.15	.09067	1044.63	.004
1	318.15	.1089	1045.47	.004
1	318.15	.12774	1046.34	.004
1	318.15	.14923	1047.32	.004
2	288.15	.05056	1098.5	.004
2	288.15	.07007	1099.46	.004
2	288.15	.08992	1100.42	.004
2	288.15	.10509	1101.15	.004
2	288.15	.12677	1102.18	.004
2	288.15	.14875	1103.22	.004
2	298.15	.05056	1095.01	.004
2	298.15	.07007	1095.93	.004
2	298.15	.08992	1096.87	.004
2	298.15	.10509	1097.57	.004
2	298.15	.12677	1098.57	.004
2	298.15	.14875	1099.57	.004
2	308.15	.05056	1091.16	.004
2	308.15	.07007	1092.07	.004
2	308.15	.08992	1092.98	.004
2	308.15	.10509	1093.67	.004
2	308.15	.12677	1094.64	.004
2	308.15	.14875	1095.62	.004
2	318.15	.05056	1088	.004
2	318.15	.07007	1088.89	.004
2	318.15	.08992	1089.78	.004
2	318.15	.10509	1090.45	.004
2	318.15	.12677	1091.41	.004
2	318.15	.14875	1092.36	.004

System: D-(+)-arabitol + water + ammonium bromide; phases: Liquid
Fixed: Pressure, kPa = 101
Property: Viscosity, Pa*s (Liquid); method: Capillary tube (Ostwald; Ubbelohde) method
Solvent: Molality, mol/kg of ammonium bromide	Temperature, K	Molality, mol/kg of D-(+)-arabitol	Viscosity, Pa*s	uncertainty
0	288.15	.05025	.001162	.000002
0	288.15	.06886	.001172	.000002
0	288.15	.09155	.001183	.000002
0	288.15	.10611	.001189	.000002
0	288.15	.12582	.001198	.000002
0	288.15	.15071	.001209	.000002
0	298.15	.05025	.000906	.000002
0	298.15	.06886	.000913	.000002
0	298.15	.09155	.00092	.000002
0	298.15	.10611	.000925	.000002
0	298.15	.12582	.000931	.000002
0	298.15	.15071	.00094	.000002
0	308.15	.05025	.00073	.000002
0	308.15	.06886	.000735	.000002
0	308.15	.09155	.00074	.000002
0	308.15	.10611	.000744	.000002
0	308.15	.12582	.000748	.000002
0	308.15	.15071	.000754	.000002
0	318.15	.05025	.000604	.000002
0	318.15	.06886	.000608	.000002
0	318.15	.09155	.000611	.000002
0	318.15	.10611	.000613	.000002
0	318.15	.12582	.000617	.000002
0	318.15	.15071	.000621	.000002
.05	288.15	.04907	.001154	.000002
.05	288.15	.06706	.001163	.000002
.05	288.15	.09117	.001173	.000002
.05	288.15	.10522	.00118	.000002
.05	288.15	.12446	.001189	.000002
.05	288.15	.14695	.001199	.000002
.05	298.15	.04907	.000904	.000002
.05	298.15	.06706	.000911	.000002
.05	298.15	.09117	.000919	.000002
.05	298.15	.10522	.000923	.000002
.05	298.15	.12446	.00093	.000002
.05	298.15	.14695	.000938	.000002
.05	308.15	.04907	.000732	.000002
.05	308.15	.06706	.000737	.000002
.05	308.15	.09117	.000743	.000002
.05	308.15	.10522	.000746	.000002
.05	308.15	.12446	.000752	.000002
.05	308.15	.14695	.000757	.000002
.05	318.15	.04907	.000608	.000002
.05	318.15	.06706	.000612	.000002
.05	318.15	.09117	.000616	.000002
.05	318.15	.10522	.00062	.000002
.05	318.15	.12446	.000624	.000002
.05	318.15	.14695	.000629	.000002
.5	288.15	.05071	.001127	.000002
.5	288.15	.07083	.001141	.000002
.5	288.15	.08928	.001151	.000002
.5	288.15	.11307	.001166	.000002
.5	288.15	.13123	.001176	.000002
.5	288.15	.15146	.001188	.000002
.5	298.15	.05071	.000895	.000002
.5	298.15	.07083	.000906	.000002
.5	298.15	.08928	.000913	.000002
.5	298.15	.11307	.000924	.000002
.5	298.15	.13123	.000932	.000002
.5	298.15	.15146	.000941	.000002
.5	308.15	.05071	.000732	.000002
.5	308.15	.07083	.000739	.000002
.5	308.15	.08928	.000747	.000002
.5	308.15	.11307	.000756	.000002
.5	308.15	.13123	.000762	.000002
.5	308.15	.15146	.000772	.000002
.5	318.15	.05071	.000616	.000002
.5	318.15	.07083	.000624	.000002
.5	318.15	.08928	.00063	.000002
.5	318.15	.11307	.000638	.000002
.5	318.15	.13123	.000644	.000002
.5	318.15	.15146	.000651	.000002
1	288.15	.04887	.001098	.000002
1	288.15	.07016	.001115	.000002
1	288.15	.08941	.00113	.000002
1	288.15	.10557	.001142	.000002
1	288.15	.12591	.001158	.000002
1	288.15	.14797	.001176	.000002
1	298.15	.04887	.000886	.000002
1	298.15	.07016	.0009	.000002
1	298.15	.08941	.000912	.000002
1	298.15	.10557	.000924	.000002
1	298.15	.12591	.000937	.000002
1	298.15	.14797	.000951	.000002
1	308.15	.04887	.000724	.000002
1	308.15	.07016	.000737	.000002
1	308.15	.08941	.000746	.000002
1	308.15	.10557	.000753	.000002
1	308.15	.12591	.000763	.000002
1	308.15	.14797	.000778	.000002
1	318.15	.04887	.000622	.000002
1	318.15	.07016	.000632	.000002
1	318.15	.08941	.000641	.000002
1	318.15	.10557	.000649	.000002
1	318.15	.12591	.000659	.000002
1	318.15	.14797	.000669	.000002
2	288.15	.04602	.001046	.000002
2	288.15	.06888	.001069	.000002
2	288.15	.08267	.001083	.000002
2	288.15	.10425	.001103	.000002
2	288.15	.12338	.001121	.000002
2	288.15	.14504	.001139	.000002
2	298.15	.04602	.000868	.000002
2	298.15	.06888	.000887	.000002
2	298.15	.08267	.000897	.000002
2	298.15	.10425	.000914	.000002
2	298.15	.12338	.00093	.000002
2	298.15	.14504	.000947	.000002
2	308.15	.04602	.000712	.000002
2	308.15	.06888	.000727	.000002
2	308.15	.08267	.000735	.000002
2	308.15	.10425	.000749	.000002
2	308.15	.12338	.000764	.000002
2	308.15	.14504	.000782	.000002
2	318.15	.04602	.000632	.000002
2	318.15	.06888	.000646	.000002
2	318.15	.08267	.000656	.000002
2	318.15	.10425	.000669	.000002
2	318.15	.12338	.000682	.000002
2	318.15	.14504	.000697	.000002

System: D-(+)-xylose + water + ammonium bromide; phases: Liquid
Fixed: Pressure, kPa = 101
Property: Mass density, kg/m3 (Liquid); method: Vibrating tube method
Solvent: Molality, mol/kg of ammonium bromide	Temperature, K	Molality, mol/kg of D-(+)-xylose	Mass density, kg/m3	uncertainty
0	288.15	.0491	1001.82	.004
0	288.15	.07084	1002.99	.004
0	288.15	.08985	1004.02	.004
0	288.15	.11439	1005.32	.004
0	288.15	.13026	1006.16	.004
0	288.15	.1485	1007.12	.004
0	298.15	.0491	999.72	.004
0	298.15	.07084	1000.89	.004
0	298.15	.08985	1001.9	.004
0	298.15	.11439	1003.21	.004
0	298.15	.13026	1004.04	.004
0	298.15	.1485	1005	.004
0	308.15	.0491	996.71	.004
0	308.15	.07084	997.87	.004
0	308.15	.08985	998.88	.004
0	308.15	.11439	1000.16	.004
0	308.15	.13026	1000.99	.004
0	308.15	.1485	1001.94	.004
0	318.15	.0491	992.87	.004
0	318.15	.07084	994.02	.004
0	318.15	.08985	995.03	.004
0	318.15	.11439	996.31	.004
0	318.15	.13026	997.13	.004
0	318.15	.1485	998.07	.004
.05	288.15	.05025	1003.91	.004
.05	288.15	.07012	1005.02	.004
.05	288.15	.09011	1006.11	.004
.05	288.15	.11178	1007.29	.004
.05	288.15	.12838	1008.18	.004
.05	288.15	.15082	1009.37	.004
.05	298.15	.05025	1001.61	.004
.05	298.15	.07012	1002.7	.004
.05	298.15	.09011	1003.78	.004
.05	298.15	.11178	1004.94	.004
.05	298.15	.12838	1005.81	.004
.05	298.15	.15082	1006.98	.004
.05	308.15	.05025	998.55	.004
.05	308.15	.07012	999.62	.004
.05	308.15	.09011	1000.68	.004
.05	308.15	.11178	1001.82	.004
.05	308.15	.12838	1002.68	.004
.05	308.15	.15082	1003.83	.004
.05	318.15	.05025	995.69	.004
.05	318.15	.07012	996.76	.004
.05	318.15	.09011	997.82	.004
.05	318.15	.11178	998.95	.004
.05	318.15	.12838	999.82	.004
.05	318.15	.15082	1000.97	.004
.5	288.15	.05259	1027.07	.004
.5	288.15	.06885	1027.98	.004
.5	288.15	.08879	1029.09	.004
.5	288.15	.11109	1030.3	.004
.5	288.15	.12936	1031.29	.004
.5	288.15	.14567	1032.17	.004
.5	298.15	.05259	1024.79	.004
.5	298.15	.06885	1025.69	.004
.5	298.15	.08879	1026.78	.004
.5	298.15	.11109	1027.97	.004
.5	298.15	.12936	1028.94	.004
.5	298.15	.14567	1029.8	.004
.5	308.15	.05259	1022.01	.004
.5	308.15	.06885	1022.9	.004
.5	308.15	.08879	1023.98	.004
.5	308.15	.11109	1025.16	.004
.5	308.15	.12936	1026.12	.004
.5	308.15	.14567	1026.97	.004
.5	318.15	.05259	1018.59	.004
.5	318.15	.06885	1019.47	.004
.5	318.15	.08879	1020.53	.004
.5	318.15	.11109	1021.69	.004
.5	318.15	.12936	1022.64	.004
.5	318.15	.14567	1023.48	.004
1	288.15	.04743	1051.79	.004
1	288.15	.07319	1053.28	.004
1	288.15	.08715	1054.08	.004
1	288.15	.10984	1055.37	.004
1	288.15	.13147	1056.59	.004
1	288.15	.14861	1057.55	.004
1	298.15	.04743	1049.62	.004
1	298.15	.07319	1051.09	.004
1	298.15	.08715	1051.88	.004
1	298.15	.10984	1053.16	.004
1	298.15	.13147	1054.36	.004
1	298.15	.14861	1055.32	.004
1	308.15	.04743	1046.01	.004
1	308.15	.07319	1047.46	.004
1	308.15	.08715	1048.24	.004
1	308.15	.10984	1049.5	.004
1	308.15	.13147	1050.69	.004
1	308.15	.14861	1051.62	.004
1	318.15	.04743	1042.99	.004
1	318.15	.07319	1044.42	.004
1	318.15	.08715	1045.19	.004
1	318.15	.10984	1046.43	.004
1	318.15	.13147	1047.6	.004
1	318.15	.14861	1048.52	.004
2	288.15	.04585	1098.62	.004
2	288.15	.07244	1100.12	.004
2	288.15	.09102	1101.15	.004
2	288.15	.11118	1102.27	.004
2	288.15	.13056	1103.34	.004
2	288.15	.15277	1104.54	.004
2	298.15	.04585	1095.16	.004
2	298.15	.07244	1096.65	.004
2	298.15	.09102	1097.68	.004
2	298.15	.11118	1098.79	.004
2	298.15	.13056	1099.85	.004
2	298.15	.15277	1101.06	.004
2	308.15	.04585	1091.34	.004
2	308.15	.07244	1092.81	.004
2	308.15	.09102	1093.82	.004
2	308.15	.11118	1094.91	.004
2	308.15	.13056	1095.94	.004
2	308.15	.15277	1097.13	.004
2	318.15	.04585	1088.2	.004
2	318.15	.07244	1089.64	.004
2	318.15	.09102	1090.65	.004
2	318.15	.11118	1091.72	.004
2	318.15	.13056	1092.74	.004
2	318.15	.15277	1094.07	.004

System: D-(+)-xylose + water + ammonium bromide; phases: Liquid
Fixed: Pressure, kPa = 101
Property: Viscosity, Pa*s (Liquid); method: Capillary tube (Ostwald; Ubbelohde) method
Solvent: Molality, mol/kg of ammonium bromide	Temperature, K	Molality, mol/kg of D-(+)-xylose	Viscosity, Pa*s	uncertainty
0	288.15	.04924	.001161	.000002
0	288.15	.06784	.001167	.000002
0	288.15	.09005	.001176	.000002
0	288.15	.10384	.001183	.000002
0	288.15	.12852	.00119	.000002
0	288.15	.151	.001201	.000002
0	298.15	.04924	.000904	.000002
0	298.15	.06784	.000911	.000002
0	298.15	.09005	.000917	.000002
0	298.15	.10384	.000921	.000002
0	298.15	.12852	.000929	.000002
0	298.15	.151	.000936	.000002
0	308.15	.04924	.00073	.000002
0	308.15	.06784	.000735	.000002
0	308.15	.09005	.00074	.000002
0	308.15	.10384	.000743	.000002
0	308.15	.12852	.000749	.000002
0	308.15	.151	.000754	.000002
0	318.15	.04924	.000605	.000002
0	318.15	.06784	.000609	.000002
0	318.15	.09005	.000612	.000002
0	318.15	.10384	.000615	.000002
0	318.15	.12852	.00062	.000002
0	318.15	.151	.000624	.000002
.05	288.15	.05029	.001153	.000002
.05	288.15	.06964	.001162	.000002
.05	288.15	.09139	.00117	.000002
.05	288.15	.11025	.00118	.000002
.05	288.15	.1283	.001187	.000002
.05	288.15	.14914	.001195	.000002
.05	298.15	.05029	.000903	.000002
.05	298.15	.06964	.000909	.000002
.05	298.15	.09139	.000916	.000002
.05	298.15	.11025	.000923	.000002
.05	298.15	.1283	.00093	.000002
.05	298.15	.14914	.000936	.000002
.05	308.15	.05029	.000731	.000002
.05	308.15	.06964	.000737	.000002
.05	308.15	.09139	.000742	.000002
.05	308.15	.11025	.000747	.000002
.05	308.15	.1283	.000751	.000002
.05	308.15	.14914	.000757	.000002
.05	318.15	.05029	.000608	.000002
.05	318.15	.06964	.000611	.000002
.05	318.15	.09139	.000617	.000002
.05	318.15	.11025	.000621	.000002
.05	318.15	.1283	.000626	.000002
.05	318.15	.14914	.000629	.000002
.5	288.15	.04956	.001118	.000002
.5	288.15	.07093	.001127	.000002
.5	288.15	.0923	.001137	.000002
.5	288.15	.11549	.001147	.000002
.5	288.15	.13064	.001154	.000002
.5	288.15	.1515	.001164	.000002
.5	298.15	.04956	.000886	.000002
.5	298.15	.07093	.000894	.000002
.5	298.15	.0923	.000902	.000002
.5	298.15	.11549	.00091	.000002
.5	298.15	.13064	.000915	.000002
.5	298.15	.1515	.000922	.000002
.5	308.15	.04956	.000724	.000002
.5	308.15	.07093	.000731	.000002
.5	308.15	.0923	.000738	.000002
.5	308.15	.11549	.000744	.000002
.5	308.15	.13064	.000748	.000002
.5	308.15	.1515	.000754	.000002
.5	318.15	.04956	.00061	.000002
.5	318.15	.07093	.000615	.000002
.5	318.15	.0923	.000621	.000002
.5	318.15	.11549	.000628	.000002
.5	318.15	.13064	.000631	.000002
.5	318.15	.1515	.000635	.000002
1	288.15	.04434	.001078	.000002
1	288.15	.07119	.001091	.000002
1	288.15	.08831	.0011	.000002
1	288.15	.11446	.001109	.000002
1	288.15	.13337	.001117	.000002
1	288.15	.14739	.001124	.000002
1	298.15	.04434	.00087	.000002
1	298.15	.07119	.00088	.000002
1	298.15	.08831	.000887	.000002
1	298.15	.11446	.000898	.000002
1	298.15	.13337	.000903	.000002
1	298.15	.14739	.00091	.000002
1	308.15	.04434	.000711	.000002
1	308.15	.07119	.00072	.000002
1	308.15	.08831	.000725	.000002
1	308.15	.11446	.000733	.000002
1	308.15	.13337	.000738	.000002
1	308.15	.14739	.000744	.000002
1	318.15	.04434	.000613	.000002
1	318.15	.07119	.000622	.000002
1	318.15	.08831	.000626	.000002
1	318.15	.11446	.000636	.000002
1	318.15	.13337	.000641	.000002
1	318.15	.14739	.000644	.000002
2	288.15	.04238	.001026	.000002
2	288.15	.06945	.001044	.000002
2	288.15	.09072	.001056	.000002
2	288.15	.11823	.001072	.000002
2	288.15	.12763	.001077	.000002
2	288.15	.14765	.001089	.000002
2	298.15	.04238	.000847	.000002
2	298.15	.06945	.000862	.000002
2	298.15	.09072	.000872	.000002
2	298.15	.11823	.000886	.000002
2	298.15	.12763	.00089	.000002
2	298.15	.14765	.0009	.000002
2	308.15	.04238	.000696	.000002
2	308.15	.06945	.000709	.000002
2	308.15	.09072	.000719	.000002
2	308.15	.11823	.000731	.000002
2	308.15	.12763	.000734	.000002
2	308.15	.14765	.000743	.000002
2	318.15	.04238	.000618	.000002
2	318.15	.06945	.000629	.000002
2	318.15	.09072	.000638	.000002
2	318.15	.11823	.00065	.000002
2	318.15	.12763	.000655	.000002
2	318.15	.14765	.000662	.000002

System: xylitol + water + ammonium bromide; phases: Liquid
Fixed: Pressure, kPa = 101
Property: Mass density, kg/m3 (Liquid); method: Vibrating tube method
Solvent: Molality, mol/kg of ammonium bromide	Temperature, K	Molality, mol/kg of xylitol	Mass density, kg/m3	uncertainty
0	288.15	.0542	1001.89	.004
0	288.15	.07245	1002.81	.004
0	288.15	.0852	1003.45	.004
0	288.15	.10949	1004.66	.004
0	288.15	.1314	1005.74	.004
0	288.15	.15274	1006.77	.004
0	298.15	.0542	999.75	.004
0	298.15	.07245	1000.65	.004
0	298.15	.0852	1001.27	.004
0	298.15	.10949	1002.44	.004
0	298.15	.1314	1003.49	.004
0	298.15	.15274	1004.5	.004
0	308.15	.0542	996.72	.004
0	308.15	.07245	997.6	.004
0	308.15	.0852	998.22	.004
0	308.15	.10949	999.37	.004
0	308.15	.1314	1000.41	.004
0	308.15	.15274	1001.41	.004
0	318.15	.0542	992.86	.004
0	318.15	.07245	993.73	.004
0	318.15	.0852	994.33	.004
0	318.15	.10949	995.46	.004
0	318.15	.1314	996.48	.004
0	318.15	.15274	997.46	.004
.05	288.15	.05218	1003.74	.004
.05	288.15	.07071	1004.68	.004
.05	288.15	.08996	1005.64	.004
.05	288.15	.11186	1006.72	.004
.05	288.15	.13038	1007.63	.004
.05	288.15	.14765	1008.46	.004
.05	298.15	.05218	1001.42	.004
.05	298.15	.07071	1002.34	.004
.05	298.15	.08996	1003.29	.004
.05	298.15	.11186	1004.36	.004
.05	298.15	.13038	1005.25	.004
.05	298.15	.14765	1006.08	.004
.05	308.15	.05218	998.37	.004
.05	308.15	.07071	999.29	.004
.05	308.15	.08996	1000.22	.004
.05	308.15	.11186	1001.27	.004
.05	308.15	.13038	1002.16	.004
.05	308.15	.14765	1002.97	.004
.05	318.15	.05218	995.51	.004
.05	318.15	.07071	996.41	.004
.05	318.15	.08996	997.33	.004
.05	318.15	.11186	998.36	.004
.05	318.15	.13038	999.23	.004
.05	318.15	.14765	1000.04	.004
.5	288.15	.04907	1026.57	.004
.5	288.15	.07076	1027.65	.004
.5	288.15	.08999	1028.59	.004
.5	288.15	.10902	1029.52	.004
.5	288.15	.12005	1030.05	.004
.5	288.15	.15639	1031.79	.004
.5	298.15	.04907	1024.29	.004
.5	298.15	.07076	1025.36	.004
.5	298.15	.08999	1026.3	.004
.5	298.15	.10902	1027.22	.004
.5	298.15	.12005	1027.74	.004
.5	298.15	.15639	1029.45	.004
.5	308.15	.04907	1021.52	.004
.5	308.15	.07076	1022.57	.004
.5	308.15	.08999	1023.5	.004
.5	308.15	.10902	1024.4	.004
.5	308.15	.12005	1024.93	.004
.5	308.15	.15639	1026.63	.004
.5	318.15	.04907	1018.11	.004
.5	318.15	.07076	1019.16	.004
.5	318.15	.08999	1020.06	.004
.5	318.15	.10902	1020.96	.004
.5	318.15	.12005	1021.47	.004
.5	318.15	.15639	1023.13	.004
1	288.15	.04998	1051.55	.004
1	288.15	.06738	1052.41	.004
1	288.15	.09	1053.51	.004
1	288.15	.11357	1054.64	.004
1	288.15	.13349	1055.59	.004
1	288.15	.14685	1056.22	.004
1	298.15	.04998	1049.37	.004
1	298.15	.06738	1050.22	.004
1	298.15	.09	1051.31	.004
1	298.15	.11357	1052.42	.004
1	298.15	.13349	1053.35	.004
1	298.15	.14685	1053.97	.004
1	308.15	.04998	1045.77	.004
1	308.15	.06738	1046.61	.004
1	308.15	.09	1047.69	.004
1	308.15	.11357	1048.79	.004
1	308.15	.13349	1049.71	.004
1	308.15	.14685	1050.33	.004
1	318.15	.04998	1042.77	.004
1	318.15	.06738	1043.59	.004
1	318.15	.09	1044.65	.004
1	318.15	.11357	1045.74	.004
1	318.15	.13349	1046.65	.004
1	318.15	.14685	1047.26	.004
2	288.15	.04991	1098.44	.004
2	288.15	.07076	1099.43	.004
2	288.15	.0888	1100.27	.004
2	288.15	.11214	1101.35	.004
2	288.15	.13013	1102.16	.004
2	288.15	.15083	1103.1	.004
2	298.15	.04991	1094.95	.004
2	298.15	.07076	1095.92	.004
2	298.15	.0888	1096.75	.004
2	298.15	.11214	1097.8	.004
2	298.15	.13013	1098.61	.004
2	298.15	.15083	1099.52	.004
2	308.15	.04991	1091.14	.004
2	308.15	.07076	1092.09	.004
2	308.15	.0888	1092.9	.004
2	308.15	.11214	1093.93	.004
2	308.15	.13013	1094.72	.004
2	308.15	.15083	1095.61	.004
2	318.15	.04991	1087.99	.004
2	318.15	.07076	1088.94	.004
2	318.15	.0888	1089.73	.004
2	318.15	.11214	1090.75	.004
2	318.15	.13013	1091.53	.004
2	318.15	.15083	1092.4	.004

System: xylitol + water + ammonium bromide; phases: Liquid
Fixed: Pressure, kPa = 101
Property: Viscosity, Pa*s (Liquid); method: Capillary tube (Ostwald; Ubbelohde) method
Solvent: Molality, mol/kg of ammonium bromide	Temperature, K	Molality, mol/kg of xylitol	Viscosity, Pa*s	uncertainty
0	288.15	.04981	.001164	.000002
0	288.15	.06784	.001173	.000002
0	288.15	.08897	.001183	.000002
0	288.15	.10587	.001191	.000002
0	288.15	.13133	.001204	.000002
0	288.15	.15007	.001212	.000002
0	298.15	.04981	.000909	.000002
0	298.15	.06784	.000915	.000002
0	298.15	.08897	.000922	.000002
0	298.15	.10587	.00093	.000002
0	298.15	.13133	.000939	.000002
0	298.15	.15007	.000945	.000002
0	308.15	.04981	.000733	.000002
0	308.15	.06784	.000738	.000002
0	308.15	.08897	.000743	.000002
0	308.15	.10587	.000747	.000002
0	308.15	.13133	.000755	.000002
0	308.15	.15007	.00076	.000002
0	318.15	.04981	.000607	.000002
0	318.15	.06784	.000611	.000002
0	318.15	.08897	.000615	.000002
0	318.15	.10587	.000619	.000002
0	318.15	.13133	.000624	.000002
0	318.15	.15007	.000628	.000002
.05	288.15	.04722	.001153	.000002
.05	288.15	.06984	.001164	.000002
.05	288.15	.09022	.001174	.000002
.05	288.15	.11213	.001183	.000002
.05	288.15	.12794	.001189	.000002
.05	288.15	.14749	.001198	.000002
.05	298.15	.04722	.000905	.000002
.05	298.15	.06984	.000911	.000002
.05	298.15	.09022	.000919	.000002
.05	298.15	.11213	.000928	.000002
.05	298.15	.12794	.000932	.000002
.05	298.15	.14749	.000938	.000002
.05	308.15	.04722	.000731	.000002
.05	308.15	.06984	.000737	.000002
.05	308.15	.09022	.000742	.000002
.05	308.15	.11213	.000748	.000002
.05	308.15	.12794	.000753	.000002
.05	308.15	.14749	.000757	.000002
.05	318.15	.04722	.000606	.000002
.05	318.15	.06984	.000611	.000002
.05	318.15	.09022	.000616	.000002
.05	318.15	.11213	.000621	.000002
.05	318.15	.12794	.000625	.000002
.05	318.15	.14749	.000628	.000002
.5	288.15	.04949	.001123	.000002
.5	288.15	.07229	.001135	.000002
.5	288.15	.08996	.001144	.000002
.5	288.15	.11516	.001157	.000002
.5	288.15	.12925	.001165	.000002
.5	288.15	.14514	.001173	.000002
.5	298.15	.04949	.000891	.000002
.5	298.15	.07229	.000901	.000002
.5	298.15	.08996	.000909	.000002
.5	298.15	.11516	.000919	.000002
.5	298.15	.12925	.000924	.000002
.5	298.15	.14514	.000931	.000002
.5	308.15	.04949	.000727	.000002
.5	308.15	.07229	.000736	.000002
.5	308.15	.08996	.000742	.000002
.5	308.15	.11516	.000751	.000002
.5	308.15	.12925	.000756	.000002
.5	308.15	.14514	.000762	.000002
.5	318.15	.04949	.000614	.000002
.5	318.15	.07229	.000621	.000002
.5	318.15	.08996	.000627	.000002
.5	318.15	.11516	.000633	.000002
.5	318.15	.12925	.000638	.000002
.5	318.15	.14514	.000641	.000002
1	288.15	.04963	.001088	.000002
1	288.15	.0684	.0011	.000002
1	288.15	.08689	.001112	.000002
1	288.15	.11399	.001128	.000002
1	288.15	.13005	.001136	.000002
1	288.15	.14615	.001149	.000002
1	298.15	.04963	.00088	.000002
1	298.15	.0684	.000889	.000002
1	298.15	.08689	.000897	.000002
1	298.15	.11399	.000911	.000002
1	298.15	.13005	.000919	.000002
1	298.15	.14615	.000927	.000002
1	308.15	.04963	.000717	.000002
1	308.15	.0684	.000725	.000002
1	308.15	.08689	.000734	.000002
1	308.15	.11399	.000746	.000002
1	308.15	.13005	.000753	.000002
1	308.15	.14615	.000757	.000002
1	318.15	.04963	.000619	.000002
1	318.15	.0684	.000626	.000002
1	318.15	.08689	.000633	.000002
1	318.15	.11399	.000643	.000002
1	318.15	.13005	.000649	.000002
1	318.15	.14615	.000656	.000002
2	288.15	.0506	.001037	.000002
2	288.15	.06909	.00105	.000002
2	288.15	.08811	.001062	.000002
2	288.15	.1159	.001079	.000002
2	288.15	.12914	.001092	.000002
2	288.15	.14615	.001105	.000002
2	298.15	.0506	.000857	.000002
2	298.15	.06909	.000867	.000002
2	298.15	.08811	.000879	.000002
2	298.15	.1159	.000894	.000002
2	298.15	.12914	.000902	.000002
2	298.15	.14615	.000912	.000002
2	308.15	.0506	.000703	.000002
2	308.15	.06909	.000712	.000002
2	308.15	.08811	.000722	.000002
2	308.15	.1159	.000735	.000002
2	308.15	.12914	.000743	.000002
2	308.15	.14615	.00075	.000002
2	318.15	.0506	.000625	.000002
2	318.15	.06909	.000633	.000002
2	318.15	.08811	.000642	.000002
2	318.15	.1159	.000656	.000002
2	318.15	.12914	.00066	.000002
2	318.15	.14615	.000669	.000002

System: L-(-)-sorbose + water + ammonium bromide; phases: Liquid
Fixed: Pressure, kPa = 101
Property: Mass density, kg/m3 (Liquid); method: Vibrating tube method
Solvent: Molality, mol/kg of ammonium bromide	Temperature, K	Molality, mol/kg of L-(-)-sorbose	Mass density, kg/m3	uncertainty
0	288.15	.05105	1002.68	.004
0	288.15	.06584	1003.7	.004
0	288.15	.08815	1005.22	.004
0	288.15	.10728	1006.51	.004
0	288.15	.13168	1008.14	.004
0	288.15	.15053	1009.38	.004
0	298.15	.05105	1000.57	.004
0	298.15	.06584	1001.57	.004
0	298.15	.08815	1003.06	.004
0	298.15	.10728	1004.33	.004
0	298.15	.13168	1005.94	.004
0	298.15	.15053	1007.17	.004
0	308.15	.05105	997.56	.004
0	308.15	.06584	998.56	.004
0	308.15	.08815	1000.04	.004
0	308.15	.10728	1001.3	.004
0	308.15	.13168	1002.89	.004
0	308.15	.15053	1004.1	.004
0	318.15	.05105	993.72	.004
0	318.15	.06584	994.7	.004
0	318.15	.08815	996.17	.004
0	318.15	.10728	997.41	.004
0	318.15	.13168	998.98	.004
0	318.15	.15053	1000.18	.004
.05	288.15	.05149	1004.66	.004
.05	288.15	.07011	1005.95	.004
.05	288.15	.09283	1007.5	.004
.05	288.15	.11184	1008.79	.004
.05	288.15	.13107	1010.09	.004
.05	288.15	.15259	1011.53	.004
.05	298.15	.05149	1002.34	.004
.05	298.15	.07011	1003.61	.004
.05	298.15	.09283	1005.14	.004
.05	298.15	.11184	1006.42	.004
.05	298.15	.13107	1007.7	.004
.05	298.15	.15259	1009.12	.004
.05	308.15	.05149	999.29	.004
.05	308.15	.07011	1000.56	.004
.05	308.15	.09283	1002.08	.004
.05	308.15	.11184	1003.34	.004
.05	308.15	.13107	1004.6	.004
.05	308.15	.15259	1006.01	.004
.05	318.15	.05149	996.43	.004
.05	318.15	.07011	997.69	.004
.05	318.15	.09283	999.2	.004
.05	318.15	.11184	1000.45	.004
.05	318.15	.13107	1001.7	.004
.05	318.15	.15259	1003.08	.004
.5	288.15	.05278	1027.75	.004
.5	288.15	.07189	1029.07	.004
.5	288.15	.08686	1030.1	.004
.5	288.15	.11009	1031.68	.004
.5	288.15	.13269	1033.2	.004
.5	288.15	.15278	1034.55	.004
.5	298.15	.05278	1025.39	.004
.5	298.15	.07189	1026.77	.004
.5	298.15	.08686	1027.79	.004
.5	298.15	.11009	1029.35	.004
.5	298.15	.13269	1030.85	.004
.5	298.15	.15278	1032.17	.004
.5	308.15	.05278	1022.68	.004
.5	308.15	.07189	1023.97	.004
.5	308.15	.08686	1024.97	.004
.5	308.15	.11009	1026.52	.004
.5	308.15	.13269	1028	.004
.5	308.15	.15278	1029.31	.004
.5	318.15	.05278	1019.27	.004
.5	318.15	.07189	1020.54	.004
.5	318.15	.08686	1021.53	.004
.5	318.15	.11009	1023.06	.004
.5	318.15	.13269	1024.53	.004
.5	318.15	.15278	1025.81	.004
1	288.15	.04993	1052.49	.004
1	288.15	.0701	1053.88	.004
1	288.15	.0894	1055.19	.004
1	288.15	.11081	1056.64	.004
1	288.15	.12833	1057.81	.004
1	288.15	.14766	1059.09	.004
1	298.15	.04993	1050.32	.004
1	298.15	.0701	1051.69	.004
1	298.15	.0894	1052.99	.004
1	298.15	.11081	1054.42	.004
1	298.15	.12833	1055.57	.004
1	298.15	.14766	1056.85	.004
1	308.15	.04993	1046.72	.004
1	308.15	.0701	1048.08	.004
1	308.15	.0894	1049.36	.004
1	308.15	.11081	1050.78	.004
1	308.15	.12833	1051.92	.004
1	308.15	.14766	1053.18	.004
1	318.15	.04993	1043.71	.004
1	318.15	.0701	1045.06	.004
1	318.15	.0894	1046.33	.004
1	318.15	.11081	1047.73	.004
1	318.15	.12833	1048.87	.004
1	318.15	.14766	1050.12	.004
2	288.15	.05245	1099.56	.004
2	288.15	.06889	1100.66	.004
2	288.15	.08931	1102.02	.004
2	288.15	.10811	1103.25	.004
2	288.15	.13001	1104.68	.004
2	288.15	.15168	1106.08	.004
2	298.15	.05245	1096.09	.004
2	298.15	.06889	1097.18	.004
2	298.15	.08931	1098.52	.004
2	298.15	.10811	1099.74	.004
2	298.15	.13001	1101.15	.004
2	298.15	.15168	1102.54	.004
2	308.15	.05245	1092.28	.004
2	308.15	.06889	1093.36	.004
2	308.15	.08931	1094.68	.004
2	308.15	.10811	1095.89	.004
2	308.15	.13001	1097.29	.004
2	308.15	.15168	1098.66	.004
2	318.15	.05245	1089.14	.004
2	318.15	.06889	1090.21	.004
2	318.15	.08931	1091.52	.004
2	318.15	.10811	1092.72	.004
2	318.15	.13001	1094.1	.004
2	318.15	.15168	1095.45	.004

System: L-(-)-sorbose + water + ammonium bromide; phases: Liquid
Fixed: Pressure, kPa = 101
Property: Viscosity, Pa*s (Liquid); method: Capillary tube (Ostwald; Ubbelohde) method
Solvent: Molality, mol/kg of ammonium bromide	Temperature, K	Molality, mol/kg of L-(-)-sorbose	Viscosity, Pa*s	uncertainty
0	288.15	.04909	.001162	.000002
0	288.15	.0704	.001173	.000002
0	288.15	.08456	.001182	.000002
0	288.15	.10915	.001195	.000002
0	288.15	.12886	.001206	.000002
0	288.15	.15074	.001216	.000002
0	298.15	.04909	.000907	.000002
0	298.15	.0704	.000916	.000002
0	298.15	.08456	.000923	.000002
0	298.15	.10915	.000931	.000002
0	298.15	.12886	.000939	.000002
0	298.15	.15074	.000947	.000002
0	308.15	.04909	.000733	.000002
0	308.15	.0704	.000738	.000002
0	308.15	.08456	.000743	.000002
0	308.15	.10915	.00075	.000002
0	308.15	.12886	.000756	.000002
0	308.15	.15074	.000762	.000002
0	318.15	.04909	.000606	.000002
0	318.15	.0704	.000611	.000002
0	318.15	.08456	.000615	.000002
0	318.15	.10915	.00062	.000002
0	318.15	.12886	.000624	.000002
0	318.15	.15074	.000629	.000002
.05	288.15	.05278	.001154	.000002
.05	288.15	.06618	.001159	.000002
.05	288.15	.09056	.001169	.000002
.05	288.15	.10727	.001177	.000002
.05	288.15	.13022	.001185	.000002
.05	288.15	.14968	.001196	.000002
.05	298.15	.05278	.000905	.000002
.05	298.15	.06618	.00091	.000002
.05	298.15	.09056	.000918	.000002
.05	298.15	.10727	.000924	.000002
.05	298.15	.13022	.000931	.000002
.05	298.15	.14968	.000937	.000002
.05	308.15	.05278	.000733	.000002
.05	308.15	.06618	.000737	.000002
.05	308.15	.09056	.000743	.000002
.05	308.15	.10727	.000748	.000002
.05	308.15	.13022	.000755	.000002
.05	308.15	.14968	.000761	.000002
.05	318.15	.05278	.00061	.000002
.05	318.15	.06618	.000614	.000002
.05	318.15	.09056	.000618	.000002
.05	318.15	.10727	.000623	.000002
.05	318.15	.13022	.000627	.000002
.05	318.15	.14968	.000632	.000002
.5	288.15	.05064	.001129	.000002
.5	288.15	.07231	.001142	.000002
.5	288.15	.0904	.001153	.000002
.5	288.15	.11053	.001166	.000002
.5	288.15	.12994	.001178	.000002
.5	288.15	.14875	.00119	.000002
.5	298.15	.05064	.000896	.000002
.5	298.15	.07231	.000908	.000002
.5	298.15	.0904	.000918	.000002
.5	298.15	.11053	.000928	.000002
.5	298.15	.12994	.000937	.000002
.5	298.15	.14875	.000947	.000002
.5	308.15	.05064	.000732	.000002
.5	308.15	.07231	.000742	.000002
.5	308.15	.0904	.00075	.000002
.5	308.15	.11053	.000759	.000002
.5	308.15	.12994	.000769	.000002
.5	308.15	.14875	.000777	.000002
.5	318.15	.05064	.000618	.000002
.5	318.15	.07231	.000626	.000002
.5	318.15	.0904	.000633	.000002
.5	318.15	.11053	.000641	.000002
.5	318.15	.12994	.000651	.000002
.5	318.15	.14875	.000658	.000002
1	288.15	.05725	.001104	.000002
1	288.15	.07227	.001115	.000002
1	288.15	.08846	.001129	.000002
1	288.15	.10811	.001146	.000002
1	288.15	.13016	.001162	.000002
1	288.15	.14828	.001176	.000002
1	298.15	.05725	.000892	.000002
1	298.15	.07227	.000903	.000002
1	298.15	.08846	.000914	.000002
1	298.15	.10811	.000928	.000002
1	298.15	.13016	.000942	.000002
1	298.15	.14828	.000955	.000002
1	308.15	.05725	.000732	.000002
1	308.15	.07227	.000742	.000002
1	308.15	.08846	.000752	.000002
1	308.15	.10811	.000762	.000002
1	308.15	.13016	.000778	.000002
1	308.15	.14828	.000789	.000002
1	318.15	.05725	.000632	.000002
1	318.15	.07227	.000641	.000002
1	318.15	.08846	.000649	.000002
1	318.15	.10811	.000661	.000002
1	318.15	.13016	.000673	.000002
1	318.15	.14828	.000681	.000002
2	288.15	.04963	.001046	.000002
2	288.15	.07354	.001062	.000002
2	288.15	.08101	.001073	.000002
2	288.15	.10617	.001088	.000002
2	288.15	.12429	.001106	.000002
2	288.15	.15005	.001126	.000002
2	298.15	.04963	.000864	.000002
2	298.15	.07354	.000881	.000002
2	298.15	.08101	.000889	.000002
2	298.15	.10617	.000907	.000002
2	298.15	.12429	.000918	.000002
2	298.15	.15005	.000937	.000002
2	308.15	.04963	.000709	.000002
2	308.15	.07354	.000728	.000002
2	308.15	.08101	.000734	.000002
2	308.15	.10617	.000748	.000002
2	308.15	.12429	.00076	.000002
2	308.15	.15005	.000774	.000002
2	318.15	.04963	.000633	.000002
2	318.15	.07354	.000647	.000002
2	318.15	.08101	.000654	.000002
2	318.15	.10617	.000669	.000002
2	318.15	.12429	.00068	.000002
2	318.15	.15005	.000694	.000002

System: D-sorbitol + water + ammonium bromide; phases: Liquid
Fixed: Pressure, kPa = 101
Property: Mass density, kg/m3 (Liquid); method: Vibrating tube method
Solvent: Molality, mol/kg of ammonium bromide	Temperature, K	Molality, mol/kg of D-sorbitol	Mass density, kg/m3	uncertainty
0	288.15	.05068	1002.38	.004
0	288.15	.07063	1003.63	.004
0	288.15	.09024	1004.83	.004
0	288.15	.1057	1005.77	.004
0	288.15	.12999	1007.24	.004
0	288.15	.14653	1008.23	.004
0	298.15	.05068	1000.23	.004
0	298.15	.07063	1001.46	.004
0	298.15	.09024	1002.65	.004
0	298.15	.1057	1003.58	.004
0	298.15	.12999	1005.03	.004
0	298.15	.14653	1006.01	.004
0	308.15	.05068	997.2	.004
0	308.15	.07063	998.41	.004
0	308.15	.09024	999.59	.004
0	308.15	.1057	1000.51	.004
0	308.15	.12999	1001.95	.004
0	308.15	.14653	1002.93	.004
0	318.15	.05068	993.33	.004
0	318.15	.07063	994.53	.004
0	318.15	.09024	995.7	.004
0	318.15	.1057	996.61	.004
0	318.15	.12999	998.04	.004
0	318.15	.14653	999	.004
.05	288.15	.05039	1004.35	.004
.05	288.15	.07361	1005.83	.004
.05	288.15	.08806	1006.74	.004
.05	288.15	.11005	1008.1	.004
.05	288.15	.13183	1009.44	.004
.05	288.15	.15026	1010.57	.004
.05	298.15	.05039	1002	.004
.05	298.15	.07361	1003.46	.004
.05	298.15	.08806	1004.35	.004
.05	298.15	.11005	1005.71	.004
.05	298.15	.13183	1007.03	.004
.05	298.15	.15026	1008.15	.004
.05	308.15	.05039	998.94	.004
.05	308.15	.07361	1000.39	.004
.05	308.15	.08806	1001.27	.004
.05	308.15	.11005	1002.61	.004
.05	308.15	.13183	1003.93	.004
.05	308.15	.15026	1005.03	.004
.05	318.15	.05039	996.07	.004
.05	318.15	.07361	997.49	.004
.05	318.15	.08806	998.37	.004
.05	318.15	.11005	999.7	.004
.05	318.15	.13183	1001	.004
.05	318.15	.15026	1002.08	.004
.5	288.15	.04933	1027.27	.004
.5	288.15	.07146	1028.69	.004
.5	288.15	.09066	1029.92	.004
.5	288.15	.10954	1031.11	.004
.5	288.15	.13678	1032.82	.004
.5	288.15	.15026	1033.65	.004
.5	298.15	.04933	1025.97	.004
.5	298.15	.07146	1027.35	.004
.5	298.15	.09066	1028.54	.004
.5	298.15	.10954	1029.7	.004
.5	298.15	.13678	1031.35	.004
.5	298.15	.15026	1032.16	.004
.5	308.15	.04933	1022.18	.004
.5	308.15	.07146	1023.55	.004
.5	308.15	.09066	1024.72	.004
.5	308.15	.10954	1025.87	.004
.5	308.15	.13678	1027.5	.004
.5	308.15	.15026	1028.3	.004
.5	318.15	.04933	1018.76	.004
.5	318.15	.07146	1020.11	.004
.5	318.15	.09066	1021.27	.004
.5	318.15	.10954	1022.41	.004
.5	318.15	.13678	1024.03	.004
.5	318.15	.15026	1024.81	.004
1	288.15	.04958	1052.22	.004
1	288.15	.06974	1053.49	.004
1	288.15	.09044	1054.78	.004
1	288.15	.10712	1055.81	.004
1	288.15	.13162	1057.31	.004
1	288.15	.15377	1058.66	.004
1	298.15	.04958	1050.03	.004
1	298.15	.06974	1051.29	.004
1	298.15	.09044	1052.56	.004
1	298.15	.10712	1053.57	.004
1	298.15	.13162	1055.06	.004
1	298.15	.15377	1056.38	.004
1	308.15	.04958	1046.42	.004
1	308.15	.06974	1047.67	.004
1	308.15	.09044	1048.92	.004
1	308.15	.10712	1049.93	.004
1	308.15	.13162	1051.4	.004
1	308.15	.15377	1052.71	.004
1	318.15	.04958	1043.41	.004
1	318.15	.06974	1044.64	.004
1	318.15	.09044	1045.89	.004
1	318.15	.10712	1046.89	.004
1	318.15	.13162	1048.34	.004
1	318.15	.15377	1049.64	.004
2	288.15	.0494	1099.1	.004
2	288.15	.062	1099.87	.004
2	288.15	.08383	1101.2	.004
2	288.15	.1107	1102.81	.004
2	288.15	.13117	1104.02	.004
2	288.15	.15027	1105.13	.004
2	298.15	.0494	1095.61	.004
2	298.15	.062	1096.37	.004
2	298.15	.08383	1097.67	.004
2	298.15	.1107	1099.26	.004
2	298.15	.13117	1100.46	.004
2	298.15	.15027	1101.56	.004
2	308.15	.0494	1091.79	.004
2	308.15	.062	1092.54	.004
2	308.15	.08383	1093.83	.004
2	308.15	.1107	1095.41	.004
2	308.15	.13117	1096.59	.004
2	308.15	.15027	1097.68	.004
2	318.15	.0494	1088.65	.004
2	318.15	.062	1089.39	.004
2	318.15	.08383	1090.66	.004
2	318.15	.1107	1092.22	.004
2	318.15	.13117	1093.39	.004
2	318.15	.15027	1094.47	.004

System: D-sorbitol + water + ammonium bromide; phases: Liquid
Fixed: Pressure, kPa = 101
Property: Viscosity, Pa*s (Liquid); method: Capillary tube (Ostwald; Ubbelohde) method
Solvent: Molality, mol/kg of ammonium bromide	Temperature, K	Molality, mol/kg of D-sorbitol	Viscosity, Pa*s	uncertainty
0	288.15	.0479	.001169	.000002
0	288.15	.06467	.001183	.000002
0	288.15	.08656	.001197	.000002
0	288.15	.10595	.00121	.000002
0	288.15	.12494	.001226	.000002
0	288.15	.14514	.001239	.000002
0	298.15	.0479	.000914	.000002
0	298.15	.06467	.000921	.000002
0	298.15	.08656	.000932	.000002
0	298.15	.10595	.000942	.000002
0	298.15	.12494	.000951	.000002
0	298.15	.14514	.000959	.000002
0	308.15	.0479	.000736	.000002
0	308.15	.06467	.000742	.000002
0	308.15	.08656	.00075	.000002
0	308.15	.10595	.000756	.000002
0	308.15	.12494	.000765	.000002
0	308.15	.14514	.000772	.000002
0	318.15	.0479	.000609	.000002
0	318.15	.06467	.000614	.000002
0	318.15	.08656	.00062	.000002
0	318.15	.10595	.000624	.000002
0	318.15	.12494	.000631	.000002
0	318.15	.14514	.000635	.000002
.05	288.15	.05152	.001165	.000002
.05	288.15	.07245	.001178	.000002
.05	288.15	.09072	.00119	.000002
.05	288.15	.11009	.0012	.000002
.05	288.15	.12661	.001212	.000002
.05	288.15	.14603	.001224	.000002
.05	298.15	.05152	.000913	.000002
.05	298.15	.07245	.000925	.000002
.05	298.15	.09072	.000935	.000002
.05	298.15	.11009	.000944	.000002
.05	298.15	.12661	.000951	.000002
.05	298.15	.14603	.000961	.000002
.05	308.15	.05152	.000741	.000002
.05	308.15	.07245	.000749	.000002
.05	308.15	.09072	.000758	.000002
.05	308.15	.11009	.000765	.000002
.05	308.15	.12661	.000771	.000002
.05	308.15	.14603	.000779	.000002
.05	318.15	.05152	.000617	.000002
.05	318.15	.07245	.000623	.000002
.05	318.15	.09072	.00063	.000002
.05	318.15	.11009	.000636	.000002
.05	318.15	.12661	.000641	.000002
.05	318.15	.14603	.000649	.000002
.5	288.15	.04868	.001133	.000002
.5	288.15	.06798	.001148	.000002
.5	288.15	.0866	.001164	.000002
.5	288.15	.10156	.001176	.000002
.5	288.15	.12615	.001194	.000002
.5	288.15	.1488	.00121	.000002
.5	298.15	.04868	.0009	.000002
.5	298.15	.06798	.000913	.000002
.5	298.15	.0866	.000926	.000002
.5	298.15	.10156	.000934	.000002
.5	298.15	.12615	.000949	.000002
.5	298.15	.1488	.000961	.000002
.5	308.15	.04868	.000735	.000002
.5	308.15	.06798	.000746	.000002
.5	308.15	.0866	.000754	.000002
.5	308.15	.10156	.000762	.000002
.5	308.15	.12615	.000776	.000002
.5	308.15	.1488	.000787	.000002
.5	318.15	.04868	.00062	.000002
.5	318.15	.06798	.000629	.000002
.5	318.15	.0866	.000638	.000002
.5	318.15	.10156	.000645	.000002
.5	318.15	.12615	.000656	.000002
.5	318.15	.1488	.000666	.000002
1	288.15	.055	.001109	.000002
1	288.15	.0738	.001127	.000002
1	288.15	.08957	.001139	.000002
1	288.15	.09974	.001151	.000002
1	288.15	.12775	.001176	.000002
1	288.15	.14807	.001193	.000002
1	298.15	.055	.0009	.000002
1	298.15	.0738	.000911	.000002
1	298.15	.08957	.000922	.000002
1	298.15	.09974	.000931	.000002
1	298.15	.12775	.000949	.000002
1	298.15	.14807	.000964	.000002
1	308.15	.055	.000734	.000002
1	308.15	.0738	.000746	.000002
1	308.15	.08957	.000756	.000002
1	308.15	.09974	.000763	.000002
1	308.15	.12775	.000782	.000002
1	308.15	.14807	.000796	.000002
1	318.15	.055	.000632	.000002
1	318.15	.0738	.000644	.000002
1	318.15	.08957	.000653	.000002
1	318.15	.09974	.000661	.000002
1	318.15	.12775	.000679	.000002
1	318.15	.14807	.00069	.000002
2	288.15	.04908	.001056	.000002
2	288.15	.07272	.001084	.000002
2	288.15	.08016	.001091	.000002
2	288.15	.10505	.001118	.000002
2	288.15	.12723	.001139	.000002
2	288.15	.14165	.001155	.000002
2	298.15	.04908	.000875	.000002
2	298.15	.07272	.000896	.000002
2	298.15	.08016	.000901	.000002
2	298.15	.10505	.000922	.000002
2	298.15	.12723	.000945	.000002
2	298.15	.14165	.000957	.000002
2	308.15	.04908	.000717	.000002
2	308.15	.07272	.000736	.000002
2	308.15	.08016	.000743	.000002
2	308.15	.10505	.000761	.000002
2	308.15	.12723	.000779	.000002
2	308.15	.14165	.000791	.000002
2	318.15	.04908	.000637	.000002
2	318.15	.07272	.000653	.000002
2	318.15	.08016	.000659	.000002
2	318.15	.10505	.000678	.000002
2	318.15	.12723	.000695	.000002
2	318.15	.14165	.000703	.000002

System: D(+)-galactose + water + ammonium bromide; phases: Liquid
Fixed: Pressure, kPa = 101
Property: Mass density, kg/m3 (Liquid); method: Vibrating tube method
Solvent: Molality, mol/kg of ammonium bromide	Temperature, K	Molality, mol/kg of D(+)-galactose	Mass density, kg/m3	uncertainty
0	288.15	.05096	1002.7	.004
0	288.15	.06903	1003.95	.004
0	288.15	.09042	1005.42	.004
0	288.15	.11018	1006.77	.004
0	288.15	.13216	1008.26	.004
0	288.15	.15518	1009.81	.004
0	298.15	.05096	1000.58	.004
0	298.15	.06903	1001.82	.004
0	298.15	.09042	1003.27	.004
0	298.15	.11018	1004.61	.004
0	298.15	.13216	1006.08	.004
0	298.15	.15518	1007.61	.004
0	308.15	.05096	997.56	.004
0	308.15	.06903	998.79	.004
0	308.15	.09042	1000.22	.004
0	308.15	.11018	1001.54	.004
0	308.15	.13216	1003	.004
0	308.15	.15518	1004.51	.004
0	318.15	.05096	993.7	.004
0	318.15	.06903	994.91	.004
0	318.15	.09042	996.33	.004
0	318.15	.11018	997.64	.004
0	318.15	.13216	999.07	.004
0	318.15	.15518	1000.57	.004
.05	288.15	.05172	1004.71	.004
.05	288.15	.07047	1006.01	.004
.05	288.15	.08325	1006.89	.004
.05	288.15	.09721	1007.86	.004
.05	288.15	.13044	1010.13	.004
.05	288.15	.15099	1011.52	.004
.05	298.15	.05172	1002.39	.004
.05	298.15	.07047	1003.68	.004
.05	298.15	.08325	1004.56	.004
.05	298.15	.09721	1005.51	.004
.05	298.15	.13044	1007.76	.004
.05	298.15	.15099	1009.14	.004
.05	308.15	.05172	999.35	.004
.05	308.15	.07047	1000.63	.004
.05	308.15	.08325	1001.5	.004
.05	308.15	.09721	1002.44	.004
.05	308.15	.13044	1004.66	.004
.05	308.15	.15099	1006.03	.004
.05	318.15	.05172	996.48	.004
.05	318.15	.07047	997.75	.004
.05	318.15	.08325	998.61	.004
.05	318.15	.09721	999.54	.004
.05	318.15	.13044	1001.75	.004
.05	318.15	.15099	1003.1	.004
1	288.15	.05248	1052.47	.004
1	288.15	.07516	1053.95	.004
1	288.15	.0875	1054.75	.004
1	288.15	.09905	1055.49	.004
1	288.15	.13339	1057.68	.004
1	288.15	.15606	1059.11	.004
1	298.15	.05248	1050.31	.004
1	298.15	.07516	1051.78	.004
1	298.15	.0875	1052.56	.004
1	298.15	.09905	1053.3	.004
1	298.15	.13339	1055.47	.004
1	298.15	.15606	1056.88	.004
1	308.15	.05248	1046.72	.004
1	308.15	.07516	1048.18	.004
1	308.15	.0875	1048.96	.004
1	308.15	.09905	1049.69	.004
1	308.15	.13339	1051.85	.004
1	308.15	.15606	1053.26	.004
1	318.15	.05248	1043.7	.004
1	318.15	.07516	1045.14	.004
1	318.15	.0875	1045.92	.004
1	318.15	.09905	1046.64	.004
1	318.15	.13339	1048.77	.004
1	318.15	.15606	1050.16	.004
2	288.15	.04721	1098.94	.004
2	288.15	.06954	1100.31	.004
2	288.15	.08879	1101.48	.004
2	288.15	.10797	1102.63	.004
2	288.15	.12646	1103.74	.004
2	288.15	.14549	1104.86	.004
2	298.15	.04721	1095.47	.004
2	298.15	.06954	1096.83	.004
2	298.15	.08879	1097.99	.004
2	298.15	.10797	1099.13	.004
2	298.15	.12646	1100.22	.004
2	298.15	.14549	1101.33	.004
2	308.15	.04721	1091.68	.004
2	308.15	.06954	1093.03	.004
2	308.15	.08879	1094.18	.004
2	308.15	.10797	1095.32	.004
2	308.15	.12646	1096.4	.004
2	308.15	.14549	1097.51	.004
2	318.15	.04721	1088.54	.004
2	318.15	.06954	1089.87	.004
2	318.15	.08879	1091	.004
2	318.15	.10797	1092.12	.004
2	318.15	.12646	1093.19	.004
2	318.15	.14549	1094.28	.004

System: D(+)-galactose + water + ammonium bromide; phases: Liquid
Fixed: Pressure, kPa = 101
Property: Viscosity, Pa*s (Liquid); method: Capillary tube (Ostwald; Ubbelohde) method
Solvent: Molality, mol/kg of ammonium bromide	Temperature, K	Molality, mol/kg of D(+)-galactose	Viscosity, Pa*s	uncertainty
0	288.15	.05001	.001166	.000002
0	288.15	.07068	.001178	.000002
0	288.15	.09059	.001189	.000002
0	288.15	.10985	.001199	.000002
0	288.15	.12891	.001208	.000002
0	288.15	.15126	.00122	.000002
0	298.15	.05001	.00091	.000002
0	298.15	.07068	.000919	.000002
0	298.15	.09059	.000927	.000002
0	298.15	.10985	.000935	.000002
0	298.15	.12891	.000941	.000002
0	298.15	.15126	.000951	.000002
0	308.15	.05001	.000734	.000002
0	308.15	.07068	.000741	.000002
0	308.15	.09059	.000747	.000002
0	308.15	.10985	.000753	.000002
0	308.15	.12891	.000758	.000002
0	308.15	.15126	.000766	.000002
0	318.15	.05001	.000607	.000002
0	318.15	.07068	.000612	.000002
0	318.15	.09059	.000617	.000002
0	318.15	.10985	.000621	.000002
0	318.15	.12891	.000625	.000002
0	318.15	.15126	.00063	.000002
.05	288.15	.05059	.001159	.000002
.05	288.15	.07568	.001172	.000002
.05	288.15	.08913	.001179	.000002
.05	288.15	.10893	.001189	.000002
.05	288.15	.12969	.0012	.000002
.05	288.15	.14887	.00121	.000002
.05	298.15	.05059	.000907	.000002
.05	298.15	.07568	.000918	.000002
.05	298.15	.08913	.000924	.000002
.05	298.15	.10893	.000931	.000002
.05	298.15	.12969	.00094	.000002
.05	298.15	.14887	.000947	.000002
.05	308.15	.05059	.000734	.000002
.05	308.15	.07568	.000743	.000002
.05	308.15	.08913	.000748	.000002
.05	308.15	.10893	.000755	.000002
.05	308.15	.12969	.000761	.000002
.05	308.15	.14887	.000768	.000002
.05	318.15	.05059	.00061	.000002
.05	318.15	.07568	.000616	.000002
.05	318.15	.08913	.00062	.000002
.05	318.15	.10893	.000625	.000002
.05	318.15	.12969	.00063	.000002
.05	318.15	.14887	.000635	.000002
.5	288.15	.04996	.001124	.000002
.5	288.15	.06957	.001138	.000002
.5	288.15	.08883	.001149	.000002
.5	288.15	.1089	.00116	.000002
.5	288.15	.13137	.001174	.000002
.5	288.15	.14885	.001184	.000002
.5	298.15	.04996	.000895	.000002
.5	298.15	.06957	.000904	.000002
.5	298.15	.08883	.000913	.000002
.5	298.15	.1089	.000923	.000002
.5	298.15	.13137	.000932	.000002
.5	298.15	.14885	.000942	.000002
.5	308.15	.04996	.00073	.000002
.5	308.15	.06957	.000739	.000002
.5	308.15	.08883	.000746	.000002
.5	308.15	.1089	.000753	.000002
.5	308.15	.13137	.000763	.000002
.5	308.15	.14885	.000769	.000002
.5	318.15	.04996	.000616	.000002
.5	318.15	.06957	.000622	.000002
.5	318.15	.08883	.000628	.000002
.5	318.15	.1089	.000636	.000002
.5	318.15	.13137	.000644	.000002
.5	318.15	.14885	.000649	.000002
1	288.15	.04965	.001093	.000002
1	288.15	.07074	.001109	.000002
1	288.15	.08762	.001123	.000002
1	288.15	.11265	.00114	.000002
1	288.15	.1298	.001152	.000002
1	288.15	.15217	.001168	.000002
1	298.15	.04965	.000883	.000002
1	298.15	.07074	.000896	.000002
1	298.15	.08762	.000906	.000002
1	298.15	.11265	.000921	.000002
1	298.15	.1298	.000931	.000002
1	298.15	.15217	.000943	.000002
1	308.15	.04965	.000721	.000002
1	308.15	.07074	.000733	.000002
1	308.15	.08762	.00074	.000002
1	308.15	.11265	.000753	.000002
1	308.15	.1298	.000762	.000002
1	308.15	.15217	.000773	.000002
1	318.15	.04965	.000622	.000002
1	318.15	.07074	.000631	.000002
1	318.15	.08762	.00064	.000002
1	318.15	.11265	.000651	.000002
1	318.15	.1298	.00066	.000002
1	318.15	.15217	.000669	.000002
2	288.15	.04883	.001043	.000002
2	288.15	.06684	.00106	.000002
2	288.15	.08769	.001079	.000002
2	288.15	.1069	.001097	.000002
2	288.15	.12766	.001113	.000002
2	288.15	.14283	.001126	.000002
2	298.15	.04883	.000865	.000002
2	298.15	.06684	.000878	.000002
2	298.15	.08769	.000893	.000002
2	298.15	.1069	.000906	.000002
2	298.15	.12766	.000922	.000002
2	298.15	.14283	.000933	.000002
2	308.15	.04883	.000707	.000002
2	308.15	.06684	.00072	.000002
2	308.15	.08769	.000734	.000002
2	308.15	.1069	.000746	.000002
2	308.15	.12766	.000759	.000002
2	308.15	.14283	.000768	.000002
2	318.15	.04883	.000633	.000002
2	318.15	.06684	.000642	.000002
2	318.15	.08769	.000654	.000002
2	318.15	.1069	.000664	.000002
2	318.15	.12766	.000675	.000002
2	318.15	.14283	.000685	.000002

System: galactitol + water + ammonium bromide; phases: Liquid
Fixed: Pressure, kPa = 101
Property: Mass density, kg/m3 (Liquid); method: Vibrating tube method
Solvent: Molality, mol/kg of ammonium bromide	Temperature, K	Molality, mol/kg of galactitol	Mass density, kg/m3	uncertainty
0	288.15	.05086	1002.35	.004
0	288.15	.0735	1003.75	.004
0	288.15	.08768	1004.62	.004
0	288.15	.10662	1005.78	.004
0	288.15	.12786	1007.07	.004
0	288.15	.1457	1008.14	.004
0	298.15	.05086	1000.21	.004
0	298.15	.0735	1001.6	.004
0	298.15	.08768	1002.46	.004
0	298.15	.10662	1003.6	.004
0	298.15	.12786	1004.88	.004
0	298.15	.1457	1005.94	.004
0	308.15	.05086	997.18	.004
0	308.15	.0735	998.55	.004
0	308.15	.08768	999.39	.004
0	308.15	.10662	1000.52	.004
0	308.15	.12786	1001.77	.004
0	308.15	.1457	1002.81	.004
0	318.15	.05086	993.33	.004
0	318.15	.0735	994.68	.004
0	318.15	.08768	995.51	.004
0	318.15	.10662	996.63	.004
0	318.15	.12786	997.86	.004
0	318.15	.1457	998.89	.004
.05	288.15	.04817	1004.12	.004
.05	288.15	.0711	1005.56	.004
.05	288.15	.09336	1006.94	.004
.05	288.15	.12094	1008.64	.004
.05	288.15	.13459	1009.47	.004
.05	288.15	.15222	1010.54	.004
.05	298.15	.04817	1001.79	.004
.05	298.15	.0711	1003.21	.004
.05	298.15	.09336	1004.57	.004
.05	298.15	.12094	1006.24	.004
.05	298.15	.13459	1007.06	.004
.05	298.15	.15222	1008.12	.004
.05	308.15	.04817	998.74	.004
.05	308.15	.0711	1000.14	.004
.05	308.15	.09336	1001.49	.004
.05	308.15	.12094	1003.15	.004
.05	308.15	.13459	1003.96	.004
.05	308.15	.15222	1005	.004
.05	318.15	.04817	995.88	.004
.05	318.15	.0711	997.27	.004
.05	318.15	.09336	998.59	.004
.05	318.15	.12094	1000.23	.004
.05	318.15	.13459	1001.02	.004
.05	318.15	.15222	1002.04	.004
.5	288.15	.04354	1026.79	.004
.5	288.15	.07261	1028.59	.004
.5	288.15	.08539	1029.38	.004
.5	288.15	.10625	1030.65	.004
.5	288.15	.12459	1031.76	.004
.5	288.15	.14986	1033.29	.004
.5	298.15	.04354	1024.51	.004
.5	298.15	.07261	1026.28	.004
.5	298.15	.08539	1027.06	.004
.5	298.15	.10625	1028.31	.004
.5	298.15	.12459	1029.4	.004
.5	298.15	.14986	1030.89	.004
.5	308.15	.04354	1021.74	.004
.5	308.15	.07261	1023.49	.004
.5	308.15	.08539	1024.25	.004
.5	308.15	.10625	1025.49	.004
.5	308.15	.12459	1026.56	.004
.5	308.15	.14986	1028.04	.004
.5	318.15	.04354	1018.34	.004
.5	318.15	.07261	1020.08	.004
.5	318.15	.08539	1020.82	.004
.5	318.15	.10625	1022.04	.004
.5	318.15	.12459	1023.1	.004
.5	318.15	.14986	1024.55	.004
1	288.15	.05122	1052.16	.004
1	288.15	.07213	1053.43	.004
1	288.15	.09127	1054.59	.004
1	288.15	.10912	1055.66	.004
1	288.15	.12874	1056.83	.004
1	288.15	.14675	1057.9	.004
1	298.15	.05122	1049.99	.004
1	298.15	.07213	1051.24	.004
1	298.15	.09127	1052.37	.004
1	298.15	.10912	1053.43	.004
1	298.15	.12874	1054.58	.004
1	298.15	.14675	1055.63	.004
1	308.15	.05122	1046.39	.004
1	308.15	.07213	1047.63	.004
1	308.15	.09127	1048.76	.004
1	308.15	.10912	1049.8	.004
1	308.15	.12874	1050.94	.004
1	308.15	.14675	1051.97	.004
1	318.15	.05122	1043.38	.004
1	318.15	.07213	1044.61	.004
1	318.15	.09127	1045.72	.004
1	318.15	.10912	1046.74	.004
1	318.15	.12874	1047.86	.004
1	318.15	.14675	1048.87	.004
2	288.15	.05062	1098.96	.004
2	288.15	.06864	1100.01	.004
2	288.15	.08553	1100.99	.004
2	288.15	.10126	1101.89	.004
2	288.15	.12565	1103.29	.004
2	288.15	.14876	1104.6	.004
2	298.15	.05062	1095.49	.004
2	298.15	.06864	1096.52	.004
2	298.15	.08553	1097.48	.004
2	298.15	.10126	1098.37	.004
2	298.15	.12565	1099.75	.004
2	298.15	.14876	1101.04	.004
2	308.15	.05062	1091.69	.004
2	308.15	.06864	1092.71	.004
2	308.15	.08553	1093.66	.004
2	308.15	.10126	1094.54	.004
2	308.15	.12565	1095.88	.004
2	308.15	.14876	1097.15	.004
2	318.15	.05062	1088.56	.004
2	318.15	.06864	1089.57	.004
2	318.15	.08553	1090.5	.004
2	318.15	.10126	1091.36	.004
2	318.15	.12565	1092.69	.004
2	318.15	.14876	1093.94	.004

System: galactitol + water + ammonium bromide; phases: Liquid
Fixed: Pressure, kPa = 101
Property: Viscosity, Pa*s (Liquid); method: Capillary tube (Ostwald; Ubbelohde) method
Solvent: Molality, mol/kg of ammonium bromide	Temperature, K	Molality, mol/kg of galactitol	Viscosity, Pa*s	uncertainty
0	288.15	.0503	.001164	.000002
0	288.15	.07104	.001175	.000002
0	288.15	.08872	.001185	.000002
0	288.15	.10907	.001196	.000002
0	288.15	.12825	.001204	.000002
0	288.15	.14679	.001215	.000002
0	298.15	.0503	.000909	.000002
0	298.15	.07104	.000916	.000002
0	298.15	.08872	.000921	.000002
0	298.15	.10907	.000928	.000002
0	298.15	.12825	.000935	.000002
0	298.15	.14679	.000941	.000002
0	308.15	.0503	.000732	.000002
0	308.15	.07104	.000737	.000002
0	308.15	.08872	.000743	.000002
0	308.15	.10907	.000747	.000002
0	308.15	.12825	.000752	.000002
0	308.15	.14679	.000757	.000002
0	318.15	.0503	.000605	.000002
0	318.15	.07104	.000609	.000002
0	318.15	.08872	.000612	.000002
0	318.15	.10907	.000616	.000002
0	318.15	.12825	.000619	.000002
0	318.15	.14679	.000622	.000002
.05	288.15	.0501	.00116	.000002
.05	288.15	.06871	.001171	.000002
.05	288.15	.08867	.001183	.000002
.05	288.15	.10914	.001193	.000002
.05	288.15	.12811	.001205	.000002
.05	288.15	.14699	.001214	.000002
.05	298.15	.0501	.000908	.000002
.05	298.15	.06871	.000916	.000002
.05	298.15	.08867	.000924	.000002
.05	298.15	.10914	.000933	.000002
.05	298.15	.12811	.00094	.000002
.05	298.15	.14699	.000948	.000002
.05	308.15	.0501	.000734	.000002
.05	308.15	.06871	.000741	.000002
.05	308.15	.08867	.000747	.000002
.05	308.15	.10914	.000752	.000002
.05	308.15	.12811	.00076	.000002
.05	308.15	.14699	.000766	.000002
.05	318.15	.0501	.00061	.000002
.05	318.15	.06871	.000615	.000002
.05	318.15	.08867	.000619	.000002
.05	318.15	.10914	.000625	.000002
.05	318.15	.12811	.00063	.000002
.05	318.15	.14699	.000636	.000002
.5	288.15	.05003	.001127	.000002
.5	288.15	.06924	.001135	.000002
.5	288.15	.08989	.00115	.000002
.5	288.15	.10837	.001161	.000002
.5	288.15	.1308	.001171	.000002
.5	288.15	.14673	.001178	.000002
.5	298.15	.05003	.000895	.000002
.5	298.15	.06924	.000901	.000002
.5	298.15	.08989	.000912	.000002
.5	298.15	.10837	.000918	.000002
.5	298.15	.1308	.00093	.000002
.5	298.15	.14673	.00094	.000002
.5	308.15	.05003	.000729	.000002
.5	308.15	.06924	.000737	.000002
.5	308.15	.08989	.000745	.000002
.5	308.15	.10837	.000752	.000002
.5	308.15	.1308	.000762	.000002
.5	308.15	.14673	.000768	.000002
.5	318.15	.05003	.000615	.000002
.5	318.15	.06924	.000622	.000002
.5	318.15	.08989	.000628	.000002
.5	318.15	.10837	.000634	.000002
.5	318.15	.1308	.000641	.000002
.5	318.15	.14673	.000647	.000002
1	288.15	.05142	.001095	.000002
1	288.15	.0693	.001109	.000002
1	288.15	.0894	.001123	.000002
1	288.15	.10935	.001137	.000002
1	288.15	.13245	.001153	.000002
1	288.15	.14521	.001163	.000002
1	298.15	.05142	.000885	.000002
1	298.15	.0693	.000898	.000002
1	298.15	.0894	.000908	.000002
1	298.15	.10935	.000918	.000002
1	298.15	.13245	.000931	.000002
1	298.15	.14521	.000941	.000002
1	308.15	.05142	.000723	.000002
1	308.15	.0693	.000732	.000002
1	308.15	.0894	.000743	.000002
1	308.15	.10935	.000753	.000002
1	308.15	.13245	.000764	.000002
1	308.15	.14521	.00077	.000002
1	318.15	.05142	.000623	.000002
1	318.15	.0693	.00063	.000002
1	318.15	.0894	.000639	.000002
1	318.15	.10935	.00065	.000002
1	318.15	.13245	.000658	.000002
1	318.15	.14521	.000664	.000002
2	288.15	.04829	.001045	.000002
2	288.15	.06848	.001064	.000002
2	288.15	.08729	.00108	.000002
2	288.15	.10875	.001099	.000002
2	288.15	.12766	.001113	.000002
2	288.15	.14037	.001126	.000002
2	298.15	.04829	.000862	.000002
2	298.15	.06848	.000877	.000002
2	298.15	.08729	.000893	.000002
2	298.15	.10875	.000904	.000002
2	298.15	.12766	.000921	.000002
2	298.15	.14037	.00093	.000002
2	308.15	.04829	.000708	.000002
2	308.15	.06848	.000721	.000002
2	308.15	.08729	.000733	.000002
2	308.15	.10875	.000747	.000002
2	308.15	.12766	.000759	.000002
2	308.15	.14037	.000767	.000002
2	318.15	.04829	.00063	.000002
2	318.15	.06848	.000642	.000002
2	318.15	.08729	.000652	.000002
2	318.15	.10875	.000665	.000002
2	318.15	.12766	.000675	.000002
2	318.15	.14037	.000683	.000002

System: D-mannose + water + ammonium bromide; phases: Liquid
Fixed: Pressure, kPa = 101
Property: Mass density, kg/m3 (Liquid); method: Vibrating tube method
Solvent: Molality, mol/kg of ammonium bromide	Temperature, K	Molality, mol/kg of D-mannose	Mass density, kg/m3	uncertainty
0	288.15	.05278	1002.76	.004
0	288.15	.07151	1004.03	.004
0	288.15	.09003	1005.28	.004
0	288.15	.1065	1006.39	.004
0	288.15	.12772	1007.81	.004
0	288.15	.14877	1009.21	.004
0	298.15	.05278	1000.64	.004
0	298.15	.07151	1001.9	.004
0	298.15	.09003	1003.14	.004
0	298.15	.1065	1004.23	.004
0	298.15	.12772	1005.63	.004
0	298.15	.14877	1007.01	.004
0	308.15	.05278	997.63	.004
0	308.15	.07151	998.87	.004
0	308.15	.09003	1000.09	.004
0	308.15	.1065	1001.17	.004
0	308.15	.12772	1002.56	.004
0	308.15	.14877	1003.92	.004
0	318.15	.05278	993.78	.004
0	318.15	.07151	995.02	.004
0	318.15	.09003	996.23	.004
0	318.15	.1065	997.3	.004
0	318.15	.12772	998.67	.004
0	318.15	.14877	1000.02	.004
.05	288.15	.05065	1005.24	.004
.05	288.15	.07265	1006.74	.004
.05	288.15	.0916	1008.02	.004
.05	288.15	.10958	1009.23	.004
.05	288.15	.1324	1010.75	.004
.05	288.15	.14696	1011.72	.004
.05	298.15	.05065	1003.13	.004
.05	298.15	.07265	1004.62	.004
.05	298.15	.0916	1005.89	.004
.05	298.15	.10958	1007.08	.004
.05	298.15	.1324	1008.59	.004
.05	298.15	.14696	1009.55	.004
.05	308.15	.05065	1000.13	.004
.05	308.15	.07265	1001.6	.004
.05	308.15	.0916	1002.86	.004
.05	308.15	.10958	1004.04	.004
.05	308.15	.1324	1005.53	.004
.05	308.15	.14696	1006.47	.004
.05	318.15	.05065	996.22	.004
.05	318.15	.07265	997.68	.004
.05	318.15	.0916	998.92	.004
.05	318.15	.10958	1000.09	.004
.05	318.15	.1324	1001.57	.004
.05	318.15	.14696	1002.49	.004
.5	288.15	.04789	1028.23	.004
.5	288.15	.07021	1029.75	.004
.5	288.15	.09066	1031.13	.004
.5	288.15	.11988	1033.09	.004
.5	288.15	.14299	1034.62	.004
.5	288.15	.15983	1035.74	.004
.5	298.15	.04789	1025.88	.004
.5	298.15	.07021	1027.39	.004
.5	298.15	.09066	1028.76	.004
.5	298.15	.11988	1030.71	.004
.5	298.15	.14299	1032.23	.004
.5	298.15	.15983	1033.33	.004
.5	308.15	.04789	1022.04	.004
.5	308.15	.07021	1023.54	.004
.5	308.15	.09066	1024.89	.004
.5	308.15	.11988	1026.81	.004
.5	308.15	.14299	1028.31	.004
.5	308.15	.15983	1029.4	.004
.5	318.15	.04789	1018.22	.004
.5	318.15	.07021	1019.7	.004
.5	318.15	.09066	1021.04	.004
.5	318.15	.11988	1022.93	.004
.5	318.15	.14299	1024.41	.004
.5	318.15	.15983	1025.48	.004
1	288.15	.05203	1051.29	.004
1	288.15	.07039	1052.44	.004
1	288.15	.0908	1053.7	.004
1	288.15	.10997	1054.87	.004
1	288.15	.12928	1056.05	.004
1	288.15	.15026	1057.3	.004
1	298.15	.05203	1049.58	.004
1	298.15	.07039	1050.72	.004
1	298.15	.0908	1051.96	.004
1	298.15	.10997	1053.11	.004
1	298.15	.12928	1054.27	.004
1	298.15	.15026	1055.5	.004
1	308.15	.05203	1046.17	.004
1	308.15	.07039	1047.3	.004
1	308.15	.0908	1048.55	.004
1	308.15	.10997	1049.7	.004
1	308.15	.12928	1050.85	.004
1	308.15	.15026	1052.1	.004
1	318.15	.05203	1042.19	.004
1	318.15	.07039	1043.33	.004
1	318.15	.0908	1044.58	.004
1	318.15	.10997	1045.75	.004
1	318.15	.12928	1046.9	.004
1	318.15	.15026	1048.16	.004
2	288.15	.05206	1099.08	.004
2	288.15	.06992	1100.12	.004
2	288.15	.09049	1101.3	.004
2	288.15	.10996	1102.4	.004
2	288.15	.1307	1103.57	.004
2	288.15	.15453	1104.9	.004
2	298.15	.05206	1095.65	.004
2	298.15	.06992	1096.69	.004
2	298.15	.09049	1097.88	.004
2	298.15	.10996	1098.99	.004
2	298.15	.1307	1100.17	.004
2	298.15	.15453	1101.52	.004
2	308.15	.05206	1091.87	.004
2	308.15	.06992	1092.91	.004
2	308.15	.09049	1094.1	.004
2	308.15	.10996	1095.22	.004
2	308.15	.1307	1096.39	.004
2	308.15	.15453	1097.73	.004
2	318.15	.05206	1088.75	.004
2	318.15	.06992	1089.79	.004
2	318.15	.09049	1090.97	.004
2	318.15	.10996	1092.08	.004
2	318.15	.1307	1093.25	.004
2	318.15	.15453	1094.58	.004

System: D-mannose + water + ammonium bromide; phases: Liquid
Fixed: Pressure, kPa = 101
Property: Viscosity, Pa*s (Liquid); method: Capillary tube (Ostwald; Ubbelohde) method
Solvent: Molality, mol/kg of ammonium bromide	Temperature, K	Molality, mol/kg of D-mannose	Viscosity, Pa*s	uncertainty
0	288.15	.0501	.001168	.000002
0	288.15	.07151	.001181	.000002
0	288.15	.09353	.001191	.000002
0	288.15	.1123	.001201	.000002
0	288.15	.13185	.001214	.000002
0	288.15	.15151	.001225	.000002
0	298.15	.0501	.000912	.000002
0	298.15	.07151	.00092	.000002
0	298.15	.09353	.000929	.000002
0	298.15	.1123	.000936	.000002
0	298.15	.13185	.000945	.000002
0	298.15	.15151	.000952	.000002
0	308.15	.0501	.000735	.000002
0	308.15	.07151	.000742	.000002
0	308.15	.09353	.000749	.000002
0	308.15	.1123	.000756	.000002
0	308.15	.13185	.000761	.000002
0	308.15	.15151	.000766	.000002
0	318.15	.0501	.000608	.000002
0	318.15	.07151	.000613	.000002
0	318.15	.09353	.000619	.000002
0	318.15	.1123	.000624	.000002
0	318.15	.13185	.000628	.000002
0	318.15	.15151	.000634	.000002
.05	288.15	.05107	.001162	.000002
.05	288.15	.06861	.001172	.000002
.05	288.15	.0901	.001184	.000002
.05	288.15	.10812	.001195	.000002
.05	288.15	.13018	.001204	.000002
.05	288.15	.14861	.001213	.000002
.05	298.15	.05107	.000905	.000002
.05	298.15	.06861	.000915	.000002
.05	298.15	.0901	.000923	.000002
.05	298.15	.10812	.000929	.000002
.05	298.15	.13018	.000939	.000002
.05	298.15	.14861	.000946	.000002
.05	308.15	.05107	.000733	.000002
.05	308.15	.06861	.000738	.000002
.05	308.15	.0901	.000744	.000002
.05	308.15	.10812	.000751	.000002
.05	308.15	.13018	.000758	.000002
.05	308.15	.14861	.000764	.000002
.05	318.15	.05107	.000609	.000002
.05	318.15	.06861	.000614	.000002
.05	318.15	.0901	.000619	.000002
.05	318.15	.10812	.000624	.000002
.05	318.15	.13018	.00063	.000002
.05	318.15	.14861	.000635	.000002
.5	288.15	.0497	.00113	.000002
.5	288.15	.06959	.001143	.000002
.5	288.15	.08728	.001153	.000002
.5	288.15	.11474	.001169	.000002
.5	288.15	.13069	.001178	.000002
.5	288.15	.14968	.001191	.000002
.5	298.15	.0497	.000895	.000002
.5	298.15	.06959	.000909	.000002
.5	298.15	.08728	.000916	.000002
.5	298.15	.11474	.000931	.000002
.5	298.15	.13069	.000938	.000002
.5	298.15	.14968	.000946	.000002
.5	308.15	.0497	.000735	.000002
.5	308.15	.06959	.000744	.000002
.5	308.15	.08728	.000751	.000002
.5	308.15	.11474	.000761	.000002
.5	308.15	.13069	.000769	.000002
.5	308.15	.14968	.000777	.000002
.5	318.15	.0497	.000619	.000002
.5	318.15	.06959	.000626	.000002
.5	318.15	.08728	.000635	.000002
.5	318.15	.11474	.000645	.000002
.5	318.15	.13069	.00065	.000002
.5	318.15	.14968	.000657	.000002
1	288.15	.05159	.001098	.000002
1	288.15	.06974	.001111	.000002
1	288.15	.08758	.001125	.000002
1	288.15	.11298	.001144	.000002
1	288.15	.1273	.001157	.000002
1	288.15	.14755	.001174	.000002
1	298.15	.05159	.000886	.000002
1	298.15	.06974	.000898	.000002
1	298.15	.08758	.000908	.000002
1	298.15	.11298	.000924	.000002
1	298.15	.1273	.000933	.000002
1	298.15	.14755	.000946	.000002
1	308.15	.05159	.000724	.000002
1	308.15	.06974	.000734	.000002
1	308.15	.08758	.000743	.000002
1	308.15	.11298	.000757	.000002
1	308.15	.1273	.000765	.000002
1	308.15	.14755	.000776	.000002
1	318.15	.05159	.000624	.000002
1	318.15	.06974	.000633	.000002
1	318.15	.08758	.000639	.000002
1	318.15	.11298	.000652	.000002
1	318.15	.1273	.00066	.000002
1	318.15	.14755	.000668	.000002
2	288.15	.04675	.001043	.000002
2	288.15	.06544	.001059	.000002
2	288.15	.08783	.001078	.000002
2	288.15	.1107	.001098	.000002
2	288.15	.12724	.001112	.000002
2	288.15	.15035	.001133	.000002
2	298.15	.04675	.000863	.000002
2	298.15	.06544	.000876	.000002
2	298.15	.08783	.000892	.000002
2	298.15	.1107	.000907	.000002
2	298.15	.12724	.000917	.000002
2	298.15	.15035	.000936	.000002
2	308.15	.04675	.000706	.000002
2	308.15	.06544	.000718	.000002
2	308.15	.08783	.000733	.000002
2	308.15	.1107	.000746	.000002
2	308.15	.12724	.000755	.000002
2	308.15	.15035	.00077	.000002
2	318.15	.04675	.00063	.000002
2	318.15	.06544	.000641	.000002
2	318.15	.08783	.000654	.000002
2	318.15	.1107	.000667	.000002
2	318.15	.12724	.000674	.000002
2	318.15	.15035	.000685	.000002

System: D-mannitol + water + ammonium bromide; phases: Liquid
Fixed: Pressure, kPa = 101
Property: Mass density, kg/m3 (Liquid); method: Vibrating tube method
Solvent: Molality, mol/kg of ammonium bromide	Temperature, K	Molality, mol/kg of D-mannitol	Mass density, kg/m3	uncertainty
0	288.15	.04909	1002.3	.004
0	288.15	.06889	1003.56	.004
0	288.15	.09002	1004.91	.004
0	288.15	.11345	1006.38	.004
0	288.15	.1266	1007.19	.004
0	288.15	.14687	1008.45	.004
0	298.15	.04909	1000.12	.004
0	298.15	.06889	1001.34	.004
0	298.15	.09002	1002.62	.004
0	298.15	.11345	1004.04	.004
0	298.15	.1266	1004.82	.004
0	298.15	.14687	1006.03	.004
0	308.15	.04909	997.07	.004
0	308.15	.06889	998.27	.004
0	308.15	.09002	999.54	.004
0	308.15	.11345	1000.93	.004
0	308.15	.1266	1001.71	.004
0	308.15	.14687	1002.9	.004
0	318.15	.04909	993.22	.004
0	318.15	.06889	994.41	.004
0	318.15	.09002	995.65	.004
0	318.15	.11345	997.03	.004
0	318.15	.1266	997.8	.004
0	318.15	.14687	998.97	.004
.05	288.15	.05137	1004.37	.004
.05	288.15	.07005	1005.55	.004
.05	288.15	.08416	1006.43	.004
.05	288.15	.10474	1007.7	.004
.05	288.15	.12837	1009.16	.004
.05	288.15	.14987	1010.46	.004
.05	298.15	.05137	1001.99	.004
.05	298.15	.07005	1003.14	.004
.05	298.15	.08416	1003.99	.004
.05	298.15	.10474	1005.24	.004
.05	298.15	.12837	1006.65	.004
.05	298.15	.14987	1007.92	.004
.05	308.15	.05137	998.93	.004
.05	308.15	.07005	1000.07	.004
.05	308.15	.08416	1000.92	.004
.05	308.15	.10474	1002.15	.004
.05	308.15	.12837	1003.55	.004
.05	308.15	.14987	1004.81	.004
.05	318.15	.05137	996.08	.004
.05	318.15	.07005	997.2	.004
.05	318.15	.08416	998.04	.004
.05	318.15	.10474	999.26	.004
.05	318.15	.12837	1000.65	.004
.05	318.15	.14987	1001.9	.004
.5	288.15	.04715	1027.09	.004
.5	288.15	.07068	1028.58	.004
.5	288.15	.08766	1029.65	.004
.5	288.15	.10359	1030.65	.004
.5	288.15	.13113	1032.36	.004
.5	288.15	.15876	1034.06	.004
.5	298.15	.04715	1024.78	.004
.5	298.15	.07068	1026.25	.004
.5	298.15	.08766	1027.3	.004
.5	298.15	.10359	1028.27	.004
.5	298.15	.13113	1029.96	.004
.5	298.15	.15876	1031.63	.004
.5	308.15	.04715	1021.99	.004
.5	308.15	.07068	1023.44	.004
.5	308.15	.08766	1024.47	.004
.5	308.15	.10359	1025.44	.004
.5	308.15	.13113	1027.09	.004
.5	308.15	.15876	1028.74	.004
.5	318.15	.04715	1018.59	.004
.5	318.15	.07068	1020.01	.004
.5	318.15	.08766	1021.03	.004
.5	318.15	.10359	1021.99	.004
.5	318.15	.13113	1023.62	.004
.5	318.15	.15876	1025.23	.004
1	288.15	.04715	1052.01	.004
1	288.15	.07068	1053.48	.004
1	288.15	.08766	1054.54	.004
1	288.15	.10359	1055.52	.004
1	288.15	.13113	1057.2	.004
1	288.15	.15674	1058.75	.004
1	298.15	.04715	1049.8	.004
1	298.15	.07068	1051.24	.004
1	298.15	.08766	1052.27	.004
1	298.15	.10359	1053.22	.004
1	298.15	.13113	1054.86	.004
1	298.15	.15674	1056.36	.004
1	308.15	.04715	1046.2	.004
1	308.15	.07068	1047.63	.004
1	308.15	.08766	1048.65	.004
1	308.15	.10359	1049.61	.004
1	308.15	.13113	1051.24	.004
1	308.15	.15674	1052.74	.004
1	318.15	.04715	1043.2	.004
1	318.15	.07068	1044.6	.004
1	318.15	.08766	1045.61	.004
1	318.15	.10359	1046.55	.004
1	318.15	.13113	1048.16	.004
1	318.15	.15674	1049.64	.004
2	288.15	.05185	1099.18	.004
2	288.15	.07222	1100.42	.004
2	288.15	.08341	1101.08	.004
2	288.15	.10983	1102.65	.004
2	288.15	.13042	1103.86	.004
2	288.15	.1522	1105.13	.004
2	298.15	.05185	1095.68	.004
2	298.15	.07222	1096.88	.004
2	298.15	.08341	1097.54	.004
2	298.15	.10983	1099.07	.004
2	298.15	.13042	1100.25	.004
2	298.15	.1522	1101.49	.004
2	308.15	.05185	1091.86	.004
2	308.15	.07222	1093.05	.004
2	308.15	.08341	1093.69	.004
2	308.15	.10983	1095.2	.004
2	308.15	.13042	1096.37	.004
2	308.15	.1522	1097.59	.004
2	318.15	.05185	1088.72	.004
2	318.15	.07222	1089.89	.004
2	318.15	.08341	1090.52	.004
2	318.15	.10983	1092.01	.004
2	318.15	.13042	1093.16	.004
2	318.15	.1522	1094.35	.004

System: D-mannitol + water + ammonium bromide; phases: Liquid
Fixed: Pressure, kPa = 101
Property: Viscosity, Pa*s (Liquid); method: Capillary tube (Ostwald; Ubbelohde) method
Solvent: Molality, mol/kg of ammonium bromide	Temperature, K	Molality, mol/kg of D-mannitol	Viscosity, Pa*s	uncertainty
0	288.15	.05269	.001176	.000002
0	288.15	.07011	.001189	.000002
0	288.15	.09107	.001203	.000002
0	288.15	.10974	.001217	.000002
0	288.15	.12934	.00123	.000002
0	288.15	.15001	.001246	.000002
0	298.15	.05269	.000918	.000002
0	298.15	.07011	.000927	.000002
0	298.15	.09107	.000936	.000002
0	298.15	.10974	.000945	.000002
0	298.15	.12934	.000955	.000002
0	298.15	.15001	.000964	.000002
0	308.15	.05269	.00074	.000002
0	308.15	.07011	.000747	.000002
0	308.15	.09107	.000754	.000002
0	308.15	.10974	.000761	.000002
0	308.15	.12934	.000765	.000002
0	308.15	.15001	.000774	.000002
0	318.15	.05269	.000611	.000002
0	318.15	.07011	.000617	.000002
0	318.15	.09107	.000621	.000002
0	318.15	.10974	.000627	.000002
0	318.15	.12934	.000633	.000002
0	318.15	.15001	.000639	.000002
.05	288.15	.05535	.001168	.000002
.05	288.15	.0694	.001179	.000002
.05	288.15	.08852	.001191	.000002
.05	288.15	.10356	.0012	.000002
.05	288.15	.12817	.001214	.000002
.05	288.15	.14969	.001226	.000002
.05	298.15	.05535	.000914	.000002
.05	298.15	.0694	.000921	.000002
.05	298.15	.08852	.00093	.000002
.05	298.15	.10356	.000938	.000002
.05	298.15	.12817	.000948	.000002
.05	298.15	.14969	.00096	.000002
.05	308.15	.05535	.000738	.000002
.05	308.15	.0694	.000744	.000002
.05	308.15	.08852	.000752	.000002
.05	308.15	.10356	.000756	.000002
.05	308.15	.12817	.000765	.000002
.05	308.15	.14969	.000773	.000002
.05	318.15	.05535	.000616	.000002
.05	318.15	.0694	.00062	.000002
.05	318.15	.08852	.000626	.000002
.05	318.15	.10356	.000631	.000002
.05	318.15	.12817	.000639	.000002
.05	318.15	.14969	.000646	.000002
.5	288.15	.05205	.001141	.000002
.5	288.15	.07058	.001156	.000002
.5	288.15	.08814	.001165	.000002
.5	288.15	.10839	.001185	.000002
.5	288.15	.13032	.001201	.000002
.5	288.15	.14782	.001212	.000002
.5	298.15	.05205	.000903	.000002
.5	298.15	.07058	.000913	.000002
.5	298.15	.08814	.000924	.000002
.5	298.15	.10839	.000937	.000002
.5	298.15	.13032	.000953	.000002
.5	298.15	.14782	.000961	.000002
.5	308.15	.05205	.000738	.000002
.5	308.15	.07058	.000747	.000002
.5	308.15	.08814	.000758	.000002
.5	308.15	.10839	.000767	.000002
.5	308.15	.13032	.000778	.000002
.5	308.15	.14782	.000788	.000002
.5	318.15	.05205	.000621	.000002
.5	318.15	.07058	.00063	.000002
.5	318.15	.08814	.000637	.000002
.5	318.15	.10839	.000647	.000002
.5	318.15	.13032	.000658	.000002
.5	318.15	.14782	.000666	.000002
1	288.15	.04984	.001104	.000002
1	288.15	.06906	.001124	.000002
1	288.15	.08923	.001141	.000002
1	288.15	.10873	.001158	.000002
1	288.15	.13218	.001181	.000002
1	288.15	.14732	.001196	.000002
1	298.15	.04984	.000891	.000002
1	298.15	.06906	.000906	.000002
1	298.15	.08923	.00092	.000002
1	298.15	.10873	.000935	.000002
1	298.15	.13218	.00095	.000002
1	298.15	.14732	.000961	.000002
1	308.15	.04984	.000728	.000002
1	308.15	.06906	.000739	.000002
1	308.15	.08923	.000754	.000002
1	308.15	.10873	.000765	.000002
1	308.15	.13218	.000778	.000002
1	308.15	.14732	.000788	.000002
1	318.15	.04984	.000628	.000002
1	318.15	.06906	.000638	.000002
1	318.15	.08923	.00065	.000002
1	318.15	.10873	.000662	.000002
1	318.15	.13218	.000672	.000002
1	318.15	.14732	.000681	.000002
2	288.15	.05694	.00106	.000002
2	288.15	.0706	.001076	.000002
2	288.15	.09064	.001097	.000002
2	288.15	.10692	.001115	.000002
2	288.15	.1272	.001137	.000002
2	288.15	.14747	.001158	.000002
2	298.15	.05694	.000876	.000002
2	298.15	.0706	.000888	.000002
2	298.15	.09064	.000904	.000002
2	298.15	.10692	.000922	.000002
2	298.15	.1272	.000941	.000002
2	298.15	.14747	.000961	.000002
2	308.15	.05694	.000721	.000002
2	308.15	.0706	.000732	.000002
2	308.15	.09064	.000747	.000002
2	308.15	.10692	.000758	.000002
2	308.15	.1272	.000771	.000002
2	308.15	.14747	.000785	.000002
2	318.15	.05694	.000642	.000002
2	318.15	.0706	.000653	.000002
2	318.15	.09064	.000665	.000002
2	318.15	.10692	.000675	.000002
2	318.15	.1272	.000689	.000002
2	318.15	.14747	.000701	.000002

System: D(+)-glucose + water + ammonium bromide; phases: Liquid
Fixed: Pressure, kPa = 101
Property: Mass density, kg/m3 (Liquid); method: Vibrating tube method
Solvent: Molality, mol/kg of ammonium bromide	Temperature, K	Molality, mol/kg of D(+)-glucose	Mass density, kg/m3	uncertainty
0	288.15	.05146	1002.66	.004
0	288.15	.07233	1004.08	.004
0	288.15	.09244	1005.44	.004
0	288.15	.10959	1006.59	.004
0	288.15	.12412	1007.57	.004
0	288.15	.14563	1009	.004
0	298.15	.05146	1000.54	.004
0	298.15	.07233	1001.94	.004
0	298.15	.09244	1003.27	.004
0	298.15	.10959	1004.41	.004
0	298.15	.12412	1005.36	.004
0	298.15	.14563	1006.77	.004
0	308.15	.05146	997.52	.004
0	308.15	.07233	998.9	.004
0	308.15	.09244	1000.22	.004
0	308.15	.10959	1001.34	.004
0	308.15	.12412	1002.28	.004
0	308.15	.14563	1003.66	.004
0	318.15	.05146	993.66	.004
0	318.15	.07233	995.03	.004
0	318.15	.09244	996.33	.004
0	318.15	.10959	997.44	.004
0	318.15	.12412	998.37	.004
0	318.15	.14563	999.74	.004
.05	288.15	.05058	1004.49	.004
.05	288.15	.07092	1005.85	.004
.05	288.15	.08897	1007.05	.004
.05	288.15	.11081	1008.48	.004
.05	288.15	.12826	1009.62	.004
.05	288.15	.14942	1010.99	.004
.05	298.15	.05058	1002.18	.004
.05	298.15	.07092	1003.55	.004
.05	298.15	.08897	1004.75	.004
.05	298.15	.11081	1006.19	.004
.05	298.15	.12826	1007.34	.004
.05	298.15	.14942	1008.71	.004
.05	308.15	.05058	999.15	.004
.05	308.15	.07092	1000.5	.004
.05	308.15	.08897	1001.69	.004
.05	308.15	.11081	1003.13	.004
.05	308.15	.12826	1004.27	.004
.05	308.15	.14942	1005.64	.004
.05	318.15	.05058	996.29	.004
.05	318.15	.07092	997.62	.004
.05	318.15	.08897	998.8	.004
.05	318.15	.11081	1000.22	.004
.05	318.15	.12826	1001.34	.004
.05	318.15	.14942	1002.7	.004
.5	288.15	.05078	1027.39	.004
.5	288.15	.0709	1028.7	.004
.5	288.15	.08919	1029.87	.004
.5	288.15	.10634	1030.96	.004
.5	288.15	.12737	1032.29	.004
.5	288.15	.14765	1033.57	.004
.5	298.15	.05078	1025.13	.004
.5	298.15	.0709	1026.42	.004
.5	298.15	.08919	1027.59	.004
.5	298.15	.10634	1028.68	.004
.5	298.15	.12737	1030	.004
.5	298.15	.14765	1031.26	.004
.5	308.15	.05078	1022.35	.004
.5	308.15	.0709	1023.64	.004
.5	308.15	.08919	1024.8	.004
.5	308.15	.10634	1025.88	.004
.5	308.15	.12737	1027.19	.004
.5	308.15	.14765	1028.45	.004
.5	318.15	.05078	1018.95	.004
.5	318.15	.0709	1020.23	.004
.5	318.15	.08919	1021.38	.004
.5	318.15	.10634	1022.46	.004
.5	318.15	.12737	1023.77	.004
.5	318.15	.14765	1025.03	.004
1	288.15	.05003	1052.2	.004
1	288.15	.06844	1053.36	.004
1	288.15	.09043	1054.73	.004
1	288.15	.10559	1055.67	.004
1	288.15	.12231	1056.69	.004
1	288.15	.14564	1058.11	.004
1	298.15	.05003	1052.09	.004
1	298.15	.06844	1053.23	.004
1	298.15	.09043	1054.59	.004
1	298.15	.10559	1055.52	.004
1	298.15	.12231	1056.53	.004
1	298.15	.14564	1057.94	.004
1	308.15	.05003	1046.45	.004
1	308.15	.06844	1047.59	.004
1	308.15	.09043	1048.94	.004
1	308.15	.10559	1049.86	.004
1	308.15	.12231	1050.86	.004
1	308.15	.14564	1052.27	.004
1	318.15	.05003	1043.44	.004
1	318.15	.06844	1044.57	.004
1	318.15	.09043	1045.91	.004
1	318.15	.10559	1046.82	.004
1	318.15	.12231	1047.82	.004
1	318.15	.14564	1049.21	.004
2	288.15	.05153	1099.06	.004
2	288.15	.06678	1099.95	.004
2	288.15	.09109	1101.37	.004
2	288.15	.10897	1102.41	.004
2	288.15	.12566	1103.37	.004
2	288.15	.14827	1104.66	.004
2	298.15	.05153	1095.6	.004
2	298.15	.06678	1096.49	.004
2	298.15	.09109	1097.9	.004
2	298.15	.10897	1098.93	.004
2	298.15	.12566	1099.88	.004
2	298.15	.14827	1101.16	.004
2	308.15	.05153	1091.81	.004
2	308.15	.06678	1092.69	.004
2	308.15	.09109	1094.09	.004
2	308.15	.10897	1095.11	.004
2	308.15	.12566	1096.06	.004
2	308.15	.14827	1097.33	.004
2	318.15	.05153	1088.67	.004
2	318.15	.06678	1089.54	.004
2	318.15	.09109	1090.92	.004
2	318.15	.10897	1091.94	.004
2	318.15	.12566	1092.87	.004
2	318.15	.14827	1094.13	.004

System: D(+)-glucose + water + ammonium bromide; phases: Liquid
Fixed: Pressure, kPa = 101
Property: Viscosity, Pa*s (Liquid); method: Capillary tube (Ostwald; Ubbelohde) method
Solvent: Molality, mol/kg of ammonium bromide	Temperature, K	Molality, mol/kg of D(+)-glucose	Viscosity, Pa*s	uncertainty
0	288.15	.0513	.001167	.000002
0	288.15	.06904	.001176	.000002
0	288.15	.09026	.001188	.000002
0	288.15	.11143	.0012	.000002
0	288.15	.12939	.001212	.000002
0	288.15	.14897	.001219	.000002
0	298.15	.0513	.000911	.000002
0	298.15	.06904	.000918	.000002
0	298.15	.09026	.000926	.000002
0	298.15	.11143	.000935	.000002
0	298.15	.12939	.000942	.000002
0	298.15	.14897	.000951	.000002
0	308.15	.0513	.000735	.000002
0	308.15	.06904	.000741	.000002
0	308.15	.09026	.000747	.000002
0	308.15	.11143	.000755	.000002
0	308.15	.12939	.000759	.000002
0	308.15	.14897	.000764	.000002
0	318.15	.0513	.000609	.000002
0	318.15	.06904	.000613	.000002
0	318.15	.09026	.000618	.000002
0	318.15	.11143	.000623	.000002
0	318.15	.12939	.000627	.000002
0	318.15	.14897	.000632	.000002
.05	288.15	.04957	.001156	.000002
.05	288.15	.07026	.001166	.000002
.05	288.15	.09022	.001176	.000002
.05	288.15	.11888	.001189	.000002
.05	288.15	.12775	.001196	.000002
.05	288.15	.15007	.001203	.000002
.05	298.15	.04957	.000908	.000002
.05	298.15	.07026	.000915	.000002
.05	298.15	.09022	.000924	.000002
.05	298.15	.11888	.000933	.000002
.05	298.15	.12775	.000937	.000002
.05	298.15	.15007	.000946	.000002
.05	308.15	.04957	.000735	.000002
.05	308.15	.07026	.000744	.000002
.05	308.15	.09022	.000751	.000002
.05	308.15	.11888	.000762	.000002
.05	308.15	.12775	.000765	.000002
.05	308.15	.15007	.000773	.000002
.05	318.15	.04957	.000613	.000002
.05	318.15	.07026	.000619	.000002
.05	318.15	.09022	.000625	.000002
.05	318.15	.11888	.000634	.000002
.05	318.15	.12775	.000636	.000002
.05	318.15	.15007	.000643	.000002
.5	288.15	.04641	.001123	.000002
.5	288.15	.06822	.001134	.000002
.5	288.15	.08276	.001141	.000002
.5	288.15	.12128	.001165	.000002
.5	288.15	.12896	.001174	.000002
.5	288.15	.14964	.001183	.000002
.5	298.15	.04641	.000894	.000002
.5	298.15	.06822	.000905	.000002
.5	298.15	.08276	.000913	.000002
.5	298.15	.12128	.00093	.000002
.5	298.15	.12896	.000935	.000002
.5	298.15	.14964	.000943	.000002
.5	308.15	.04641	.000731	.000002
.5	308.15	.06822	.000741	.000002
.5	308.15	.08276	.000748	.000002
.5	308.15	.12128	.000764	.000002
.5	308.15	.12896	.000768	.000002
.5	308.15	.14964	.000777	.000002
.5	318.15	.04641	.000618	.000002
.5	318.15	.06822	.000628	.000002
.5	318.15	.08276	.000635	.000002
.5	318.15	.12128	.000648	.000002
.5	318.15	.12896	.000653	.000002
.5	318.15	.14964	.00066	.000002
1	288.15	.05237	.001099	.000002
1	288.15	.0676	.001112	.000002
1	288.15	.09001	.001124	.000002
1	288.15	.11078	.001142	.000002
1	288.15	.12963	.001155	.000002
1	288.15	.14922	.001169	.000002
1	298.15	.05237	.000891	.000002
1	298.15	.0676	.0009	.000002
1	298.15	.09001	.00091	.000002
1	298.15	.11078	.000926	.000002
1	298.15	.12963	.000938	.000002
1	298.15	.14922	.000949	.000002
1	308.15	.05237	.000727	.000002
1	308.15	.0676	.000737	.000002
1	308.15	.09001	.000751	.000002
1	308.15	.11078	.000765	.000002
1	308.15	.12963	.000775	.000002
1	308.15	.14922	.000785	.000002
1	318.15	.05237	.000632	.000002
1	318.15	.0676	.000641	.000002
1	318.15	.09001	.000652	.000002
1	318.15	.11078	.000664	.000002
1	318.15	.12963	.000672	.000002
1	318.15	.14922	.000683	.000002
2	288.15	.05078	.001056	.000002
2	288.15	.07095	.001074	.000002
2	288.15	.08932	.001097	.000002
2	288.15	.10886	.001106	.000002
2	288.15	.13349	.001135	.000002
2	288.15	.15062	.001151	.000002
2	298.15	.05078	.000875	.000002
2	298.15	.07095	.00089	.000002
2	298.15	.08932	.000906	.000002
2	298.15	.10886	.000919	.000002
2	298.15	.13349	.000945	.000002
2	298.15	.15062	.000956	.000002
2	308.15	.05078	.000716	.000002
2	308.15	.07095	.000732	.000002
2	308.15	.08932	.000748	.000002
2	308.15	.10886	.00076	.000002
2	308.15	.13349	.000781	.000002
2	308.15	.15062	.00079	.000002
2	318.15	.05078	.000638	.000002
2	318.15	.07095	.000653	.000002
2	318.15	.08932	.000665	.000002
2	318.15	.10886	.000677	.000002
2	318.15	.13349	.000696	.000002
2	318.15	.15062	.000708	.000002

System: sucrose + water + ammonium bromide; phases: Liquid
Fixed: Pressure, kPa = 101
Property: Mass density, kg/m3 (Liquid); method: Vibrating tube method
Solvent: Molality, mol/kg of ammonium bromide	Temperature, K	Molality, mol/kg of sucrose	Mass density, kg/m3	uncertainty
0	288.15	.0482	1005.4	.004
0	288.15	.06821	1007.96	.004
0	288.15	.08888	1010.58	.004
0	288.15	.10948	1013.17	.004
0	288.15	.1286	1015.55	.004
0	288.15	.14948	1018.13	.004
0	298.15	.0482	1003.28	.004
0	298.15	.06821	1005.82	.004
0	298.15	.08888	1008.42	.004
0	298.15	.10948	1010.99	.004
0	298.15	.1286	1013.35	.004
0	298.15	.14948	1015.9	.004
0	308.15	.0482	1000.26	.004
0	308.15	.06821	1002.79	.004
0	308.15	.08888	1005.37	.004
0	308.15	.10948	1007.92	.004
0	308.15	.1286	1010.27	.004
0	308.15	.14948	1012.8	.004
0	318.15	.0482	996.41	.004
0	318.15	.06821	998.92	.004
0	318.15	.08888	1001.49	.004
0	318.15	.10948	1004.02	.004
0	318.15	.1286	1006.35	.004
0	318.15	.14948	1008.87	.004
.05	288.15	.05086	1007.65	.004
.05	288.15	.06976	1010.07	.004
.05	288.15	.0932	1013.03	.004
.05	288.15	.11025	1015.17	.004
.05	288.15	.13023	1017.65	.004
.05	288.15	.1434	1019.28	.004
.05	298.15	.05086	1005.33	.004
.05	298.15	.06976	1007.74	.004
.05	298.15	.0932	1010.69	.004
.05	298.15	.11025	1012.82	.004
.05	298.15	.13023	1015.29	.004
.05	298.15	.1434	1016.91	.004
.05	308.15	.05086	1002.28	.004
.05	308.15	.06976	1004.67	.004
.05	308.15	.0932	1007.6	.004
.05	308.15	.11025	1009.72	.004
.05	308.15	.13023	1012.17	.004
.05	308.15	.1434	1013.78	.004
.05	318.15	.05086	999.41	.004
.05	318.15	.06976	1001.79	.004
.05	318.15	.0932	1004.71	.004
.05	318.15	.11025	1006.82	.004
.05	318.15	.13023	1009.26	.004
.05	318.15	.1434	1010.87	.004
.5	288.15	.04952	1030.16	.004
.5	288.15	.06758	1032.36	.004
.5	288.15	.08966	1035.01	.004
.5	288.15	.10771	1037.16	.004
.5	288.15	.13373	1040.22	.004
.5	288.15	.1478	1041.86	.004
.5	298.15	.04952	1027.92	.004
.5	298.15	.06758	1030.12	.004
.5	298.15	.08966	1032.77	.004
.5	298.15	.10771	1034.92	.004
.5	298.15	.13373	1037.99	.004
.5	298.15	.1478	1039.63	.004
.5	308.15	.04952	1025.17	.004
.5	308.15	.06758	1027.36	.004
.5	308.15	.08966	1030.01	.004
.5	308.15	.10771	1032.17	.004
.5	308.15	.13373	1035.23	.004
.5	308.15	.1478	1036.87	.004
.5	318.15	.04952	1021.78	.004
.5	318.15	.06758	1023.97	.004
.5	318.15	.08966	1026.63	.004
.5	318.15	.10771	1028.77	.004
.5	318.15	.13373	1031.82	.004
.5	318.15	.1478	1033.46	.004
1	288.15	.04795	1054.77	.004
1	288.15	.06739	1057.06	.004
1	288.15	.09041	1059.76	.004
1	288.15	.11427	1062.52	.004
1	288.15	.13028	1064.35	.004
1	288.15	.15159	1066.77	.004
1	298.15	.04795	1052.64	.004
1	298.15	.06739	1054.94	.004
1	298.15	.09041	1057.64	.004
1	298.15	.11427	1060.41	.004
1	298.15	.13028	1062.25	.004
1	298.15	.15159	1064.67	.004
1	308.15	.04795	1049.07	.004
1	308.15	.06739	1051.36	.004
1	308.15	.09041	1054.03	.004
1	308.15	.11427	1056.77	.004
1	308.15	.13028	1058.59	.004
1	308.15	.15159	1060.98	.004
1	318.15	.04795	1046.09	.004
1	318.15	.06739	1048.38	.004
1	318.15	.09041	1051.06	.004
1	318.15	.11427	1053.81	.004
1	318.15	.13028	1055.63	.004
1	318.15	.15159	1058.03	.004
2	288.15	.05108	1101.8	.004
2	288.15	.06734	1103.61	.004
2	288.15	.09338	1106.47	.004
2	288.15	.10836	1108.1	.004
2	288.15	.13352	1110.81	.004
2	288.15	.15261	1112.83	.004
2	298.15	.05108	1098.37	.004
2	298.15	.06734	1100.18	.004
2	298.15	.09338	1103.05	.004
2	298.15	.10836	1104.67	.004
2	298.15	.13352	1107.38	.004
2	298.15	.15261	1109.4	.004
2	308.15	.05108	1094.61	.004
2	308.15	.06734	1096.42	.004
2	308.15	.09338	1099.3	.004
2	308.15	.10836	1100.93	.004
2	308.15	.13352	1103.65	.004
2	308.15	.15261	1105.68	.004
2	318.15	.05108	1091.49	.004
2	318.15	.06734	1093.3	.004
2	318.15	.09338	1096.17	.004
2	318.15	.10836	1097.8	.004
2	318.15	.13352	1100.51	.004
2	318.15	.15261	1102.53	.004

System: sucrose + water + ammonium bromide; phases: Liquid
Fixed: Pressure, kPa = 101
Property: Viscosity, Pa*s (Liquid); method: Capillary tube (Ostwald; Ubbelohde) method
Solvent: Molality, mol/kg of ammonium bromide	Temperature, K	Molality, mol/kg of sucrose	Viscosity, Pa*s	uncertainty
0	288.15	.05054	.001198	.000002
0	288.15	.06969	.001221	.000002
0	288.15	.09107	.001242	.000002
0	288.15	.1098	.001264	.000002
0	288.15	.12932	.001286	.000002
0	288.15	.14969	.00131	.000002
0	298.15	.05054	.000934	.000002
0	298.15	.06969	.000951	.000002
0	298.15	.09107	.000969	.000002
0	298.15	.1098	.000984	.000002
0	298.15	.12932	.001001	.000002
0	298.15	.14969	.001019	.000002
0	308.15	.05054	.000751	.000002
0	308.15	.06969	.000766	.000002
0	308.15	.09107	.00078	.000002
0	308.15	.1098	.000793	.000002
0	308.15	.12932	.000805	.000002
0	308.15	.14969	.000819	.000002
0	318.15	.05054	.000621	.000002
0	318.15	.06969	.000632	.000002
0	318.15	.09107	.000645	.000002
0	318.15	.1098	.000654	.000002
0	318.15	.12932	.000666	.000002
0	318.15	.14969	.000675	.000002
.05	288.15	.05096	.001182	.000002
.05	288.15	.06928	.001199	.000002
.05	288.15	.0912	.001217	.000002
.05	288.15	.11115	.001234	.000002
.05	288.15	.12956	.00125	.000002
.05	288.15	.1514	.001269	.000002
.05	298.15	.05096	.000924	.000002
.05	298.15	.06928	.000937	.000002
.05	298.15	.0912	.000952	.000002
.05	298.15	.11115	.000967	.000002
.05	298.15	.12956	.000978	.000002
.05	298.15	.1514	.000995	.000002
.05	308.15	.05096	.000745	.000002
.05	308.15	.06928	.000755	.000002
.05	308.15	.0912	.000768	.000002
.05	308.15	.11115	.000781	.000002
.05	308.15	.12956	.000791	.000002
.05	308.15	.1514	.000802	.000002
.05	318.15	.05096	.000618	.000002
.05	318.15	.06928	.00063	.000002
.05	318.15	.0912	.000638	.000002
.05	318.15	.11115	.000648	.000002
.05	318.15	.12956	.000657	.000002
.05	318.15	.1514	.000664	.000002
.5	288.15	.04987	.001148	.000002
.5	288.15	.06643	.001168	.000002
.5	288.15	.09045	.001192	.000002
.5	288.15	.10938	.001219	.000002
.5	288.15	.12817	.001241	.000002
.5	288.15	.15021	.001264	.000002
.5	298.15	.04987	.000914	.000002
.5	298.15	.06643	.000931	.000002
.5	298.15	.09045	.000953	.000002
.5	298.15	.10938	.00097	.000002
.5	298.15	.12817	.000986	.000002
.5	298.15	.15021	.001	.000002
.5	308.15	.04987	.000748	.000002
.5	308.15	.06643	.000758	.000002
.5	308.15	.09045	.000777	.000002
.5	308.15	.10938	.000792	.000002
.5	308.15	.12817	.000805	.000002
.5	308.15	.15021	.000821	.000002
.5	318.15	.04987	.00063	.000002
.5	318.15	.06643	.00064	.000002
.5	318.15	.09045	.000656	.000002
.5	318.15	.10938	.000666	.000002
.5	318.15	.12817	.000679	.000002
.5	318.15	.15021	.000692	.000002
1	288.15	.04867	.001113	.000002
1	288.15	.06605	.001136	.000002
1	288.15	.09083	.001162	.000002
1	288.15	.11033	.00119	.000002
1	288.15	.12791	.001208	.000002
1	288.15	.1501	.001232	.000002
1	298.15	.04867	.000901	.000002
1	298.15	.06605	.000917	.000002
1	298.15	.09083	.000941	.000002
1	298.15	.11033	.000961	.000002
1	298.15	.12791	.000977	.000002
1	298.15	.1501	.000992	.000002
1	308.15	.04867	.000734	.000002
1	308.15	.06605	.000747	.000002
1	308.15	.09083	.000771	.000002
1	308.15	.11033	.000783	.000002
1	308.15	.12791	.000795	.000002
1	308.15	.1501	.000815	.000002
1	318.15	.04867	.000634	.000002
1	318.15	.06605	.000646	.000002
1	318.15	.09083	.000665	.000002
1	318.15	.11033	.000676	.000002
1	318.15	.12791	.000685	.000002
1	318.15	.1501	.0007	.000002
2	288.15	.05195	.001066	.000002
2	288.15	.06954	.001087	.000002
2	288.15	.08935	.001109	.000002
2	288.15	.11018	.001133	.000002
2	288.15	.1274	.001153	.000002
2	288.15	.15143	.00118	.000002
2	298.15	.05195	.000881	.000002
2	298.15	.06954	.000898	.000002
2	298.15	.08935	.000914	.000002
2	298.15	.11018	.000937	.000002
2	298.15	.1274	.000954	.000002
2	298.15	.15143	.000976	.000002
2	308.15	.05195	.000721	.000002
2	308.15	.06954	.000736	.000002
2	308.15	.08935	.000754	.000002
2	308.15	.11018	.000771	.000002
2	308.15	.1274	.000787	.000002
2	308.15	.15143	.000805	.000002
2	318.15	.05195	.000642	.000002
2	318.15	.06954	.000657	.000002
2	318.15	.08935	.000671	.000002
2	318.15	.11018	.000686	.000002
2	318.15	.1274	.0007	.000002
2	318.15	.15143	.000715	.000002

System: D-(+)-maltose monohydrate + water + ammonium bromide; phases: Liquid
Fixed: Pressure, kPa = 101
Property: Mass density, kg/m3 (Liquid); method: Vibrating tube method
Solvent: Molality, mol/kg of ammonium bromide	Temperature, K	Molality, mol/kg of D-(+)-maltose monohydrate	Mass density, kg/m3	uncertainty
0	288.15	.0507	1005.82	.004
0	288.15	.06908	1008.2	.004
0	288.15	.08999	1010.87	.004
0	288.15	.1087	1013.23	.004
0	288.15	.13329	1016.31	.004
0	288.15	.14932	1018.29	.004
0	298.15	.0507	1003.68	.004
0	298.15	.06908	1006.05	.004
0	298.15	.08999	1008.71	.004
0	298.15	.1087	1011.07	.004
0	298.15	.13329	1014.13	.004
0	298.15	.14932	1016.11	.004
0	308.15	.0507	1000.63	.004
0	308.15	.06908	1002.97	.004
0	308.15	.08999	1005.59	.004
0	308.15	.1087	1007.92	.004
0	308.15	.13329	1010.96	.004
0	308.15	.14932	1012.9	.004
0	318.15	.0507	996.71	.004
0	318.15	.06908	998.99	.004
0	318.15	.08999	1001.55	.004
0	318.15	.1087	1003.8	.004
0	318.15	.13329	1006.74	.004
0	318.15	.14932	1008.62	.004
.05	288.15	.05062	1007.74	.004
.05	288.15	.06812	1010.01	.004
.05	288.15	.0883	1012.59	.004
.05	288.15	.10802	1015.09	.004
.05	288.15	.12859	1017.67	.004
.05	288.15	.14265	1019.42	.004
.05	298.15	.05062	1005.41	.004
.05	298.15	.06812	1007.66	.004
.05	298.15	.0883	1010.23	.004
.05	298.15	.10802	1012.71	.004
.05	298.15	.12859	1015.28	.004
.05	298.15	.14265	1017.01	.004
.05	308.15	.05062	1002.33	.004
.05	308.15	.06812	1004.57	.004
.05	308.15	.0883	1007.12	.004
.05	308.15	.10802	1009.58	.004
.05	308.15	.12859	1012.13	.004
.05	308.15	.14265	1013.85	.004
.05	318.15	.05062	999.4	.004
.05	318.15	.06812	1001.61	.004
.05	318.15	.0883	1004.12	.004
.05	318.15	.10802	1006.55	.004
.05	318.15	.12859	1009.07	.004
.05	318.15	.14265	1010.76	.004
.5	288.15	.05065	1030.37	.004
.5	288.15	.071	1032.86	.004
.5	288.15	.09052	1035.22	.004
.5	288.15	.11066	1037.63	.004
.5	288.15	.12439	1039.26	.004
.5	288.15	.1506	1042.34	.004
.5	298.15	.05065	1028.1	.004
.5	298.15	.071	1030.57	.004
.5	298.15	.09052	1032.92	.004
.5	298.15	.11066	1035.32	.004
.5	298.15	.12439	1036.93	.004
.5	298.15	.1506	1039.99	.004
.5	308.15	.05065	1025.3	.004
.5	308.15	.071	1027.76	.004
.5	308.15	.09052	1030.09	.004
.5	308.15	.11066	1032.47	.004
.5	308.15	.12439	1034.07	.004
.5	308.15	.1506	1037.1	.004
.5	318.15	.05065	1021.89	.004
.5	318.15	.071	1024.33	.004
.5	318.15	.09052	1026.65	.004
.5	318.15	.11066	1029.02	.004
.5	318.15	.12439	1030.62	.004
.5	318.15	.1506	1033.64	.004
1	288.15	.0491	1054.91	.004
1	288.15	.06897	1057.26	.004
1	288.15	.08887	1059.58	.004
1	288.15	.1094	1061.96	.004
1	288.15	.13173	1064.51	.004
1	288.15	.14882	1066.44	.004
1	298.15	.0491	1052.75	.004
1	298.15	.06897	1055.08	.004
1	298.15	.08887	1057.38	.004
1	298.15	.1094	1059.73	.004
1	298.15	.13173	1062.26	.004
1	298.15	.14882	1064.17	.004
1	308.15	.0491	1049.15	.004
1	308.15	.06897	1051.47	.004
1	308.15	.08887	1053.76	.004
1	308.15	.1094	1056.11	.004
1	308.15	.13173	1058.63	.004
1	308.15	.14882	1060.53	.004
1	318.15	.0491	1046.12	.004
1	318.15	.06897	1048.41	.004
1	318.15	.08887	1050.69	.004
1	318.15	.1094	1053	.004
1	318.15	.13173	1055.49	.004
1	318.15	.14882	1057.38	.004
2	288.15	.04948	1101.58	.004
2	288.15	.06882	1103.71	.004
2	288.15	.09004	1106.03	.004
2	288.15	.11132	1108.32	.004
2	288.15	.12693	1109.98	.004
2	288.15	.1531	1112.74	.004
2	298.15	.04948	1098.11	.004
2	298.15	.06882	1100.23	.004
2	298.15	.09004	1102.53	.004
2	298.15	.11132	1104.81	.004
2	298.15	.12693	1106.46	.004
2	298.15	.1531	1109.19	.004
2	308.15	.04948	1094.3	.004
2	308.15	.06882	1096.41	.004
2	308.15	.09004	1098.69	.004
2	308.15	.11132	1100.96	.004
2	308.15	.12693	1102.59	.004
2	308.15	.1531	1105.31	.004
2	318.15	.04948	1091.13	.004
2	318.15	.06882	1093.21	.004
2	318.15	.09004	1095.47	.004
2	318.15	.11132	1097.7	.004
2	318.15	.12693	1099.33	.004
2	318.15	.1531	1102	.004

System: D-(+)-maltose monohydrate + water + ammonium bromide; phases: Liquid
Fixed: Pressure, kPa = 101
Property: Viscosity, Pa*s (Liquid); method: Capillary tube (Ostwald; Ubbelohde) method
Solvent: Molality, mol/kg of ammonium bromide	Temperature, K	Molality, mol/kg of D-(+)-maltose monohydrate	Viscosity, Pa*s	uncertainty
0	288.15	.04995	.001203	.000002
0	288.15	.06787	.001225	.000002
0	288.15	.08933	.001251	.000002
0	288.15	.10424	.001269	.000002
0	288.15	.12981	.001299	.000002
0	288.15	.14725	.00132	.000002
.05	288.15	.05004	.001187	.000002
.05	288.15	.06964	.001207	.000002
.05	288.15	.08883	.001222	.000002
.05	288.15	.10607	.001246	.000002
.05	288.15	.13054	.001268	.000002
.05	288.15	.14993	.001287	.000002
.5	288.15	.05076	.001156	.000002
.5	288.15	.06594	.001179	.000002
.5	288.15	.09181	.001213	.000002
.5	288.15	.10668	.001229	.000002
.5	288.15	.12884	.001256	.000002
.5	288.15	.14878	.001281	.000002
1	288.15	.04955	.001121	.000002
1	288.15	.06496	.00114	.000002
1	288.15	.09168	.001175	.000002
1	288.15	.10329	.001192	.000002
1	288.15	.12863	.001224	.000002
1	288.15	.14923	.001248	.000002
2	288.15	.04991	.00107	.000002
2	288.15	.07257	.001098	.000002
2	288.15	.09177	.001123	.000002
2	288.15	.10693	.001141	.000002
2	288.15	.12884	.001168	.000002
2	288.15	.14589	.001188	.000002
.05	298.15	.05004	.000927	.000002
.05	298.15	.06964	.000944	.000002
.05	298.15	.08883	.000959	.000002
.05	298.15	.10607	.000973	.000002
.05	298.15	.13054	.000993	.000002
.05	298.15	.14993	.001005	.000002
.5	298.15	.05076	.00092	.000002
.5	298.15	.06594	.000934	.000002
.5	298.15	.09181	.000961	.000002
.5	298.15	.10668	.000977	.000002
.5	298.15	.12884	.000998	.000002
.5	298.15	.14878	.001012	.000002
1	298.15	.04955	.000906	.000002
1	298.15	.06496	.000923	.000002
1	298.15	.09168	.000951	.000002
1	298.15	.10329	.000962	.000002
1	298.15	.12863	.000988	.000002
1	298.15	.14923	.001007	.000002
0	298.15	.04995	.000936	.000002
0	298.15	.06787	.000956	.000002
0	298.15	.08933	.000974	.000002
0	298.15	.10424	.000988	.000002
0	298.15	.12981	.001012	.000002
0	298.15	.14725	.001026	.000002
2	298.15	.04991	.000885	.000002
2	298.15	.07257	.000908	.000002
2	298.15	.09177	.000926	.000002
2	298.15	.10693	.000943	.000002
2	298.15	.12884	.000963	.000002
2	298.15	.14589	.000986	.000002
.5	308.15	.05076	.000751	.000002
.5	308.15	.06594	.000766	.000002
.5	308.15	.09181	.000786	.000002
.5	308.15	.10668	.000798	.000002
.5	308.15	.12884	.000812	.000002
.5	308.15	.14878	.00083	.000002
1	308.15	.04955	.000738	.000002
1	308.15	.06496	.000751	.000002
1	308.15	.09168	.000776	.000002
1	308.15	.10329	.000786	.000002
1	308.15	.12863	.000808	.000002
1	308.15	.14923	.000824	.000002
0	308.15	.04995	.000756	.000002
0	308.15	.06787	.00077	.000002
0	308.15	.08933	.000785	.000002
0	308.15	.10424	.000795	.000002
0	308.15	.12981	.000815	.000002
0	308.15	.14725	.000825	.000002
.05	308.15	.05004	.000751	.000002
.05	308.15	.06964	.000762	.000002
.05	308.15	.08883	.000777	.000002
.05	308.15	.10607	.000785	.000002
.05	308.15	.13054	.000798	.000002
.05	308.15	.14993	.000814	.000002
2	308.15	.04991	.000724	.000002
2	308.15	.07257	.000746	.000002
2	308.15	.09177	.000764	.000002
2	308.15	.10693	.000775	.000002
2	308.15	.12884	.000795	.000002
2	308.15	.14589	.000809	.000002
1	318.15	.04955	.000636	.000002
1	318.15	.06496	.00065	.000002
1	318.15	.09168	.000667	.000002
1	318.15	.10329	.000676	.000002
1	318.15	.12863	.000696	.000002
1	318.15	.14923	.00071	.000002
0	318.15	.04995	.000626	.000002
0	318.15	.06787	.000636	.000002
0	318.15	.08933	.000649	.000002
0	318.15	.10424	.000657	.000002
0	318.15	.12981	.000671	.000002
0	318.15	.14725	.000681	.000002
.05	318.15	.05004	.000623	.000002
.05	318.15	.06964	.000633	.000002
.05	318.15	.08883	.000644	.000002
.05	318.15	.10607	.000653	.000002
.05	318.15	.13054	.000664	.000002
.05	318.15	.14993	.000673	.000002
.5	318.15	.05076	.00063	.000002
.5	318.15	.06594	.000642	.000002
.5	318.15	.09181	.00066	.000002
.5	318.15	.10668	.000671	.000002
.5	318.15	.12884	.000687	.000002
.5	318.15	.14878	.0007	.000002
2	318.15	.04991	.000647	.000002
2	318.15	.07257	.000665	.000002
2	318.15	.09177	.000681	.000002
2	318.15	.10693	.000692	.000002
2	318.15	.12884	.000706	.000002
2	318.15	.14589	.000721	.000002

System: water + D-(-)-arabinose; phases: Liquid
Property: Mass density, kg/m3 (Liquid); method: Vibrating tube method
Temperature, K	Molality, mol/kg of D-(-)-arabinose	Pressure, kPa	Mass density, kg/m3	uncertainty
288.15	.05173	101	1002.09	.004
288.15	.07102	101	1003.18	.004
288.15	.09055	101	1004.28	.004
288.15	.10926	101	1005.32	.004
288.15	.12441	101	1006.17	.004
288.15	.14763	101	1007.45	.004
298.15	.05173	101	999.97	.004
298.15	.07102	101	1001.05	.004
298.15	.09055	101	1002.13	.004
298.15	.10926	101	1003.17	.004
298.15	.12441	101	1004	.004
298.15	.14763	101	1005.26	.004
308.15	.05173	101	996.94	.004
308.15	.07102	101	998	.004
308.15	.09055	101	999.06	.004
308.15	.10926	101	1000.07	.004
308.15	.12441	101	1000.88	.004
308.15	.14763	101	1002.12	.004
318.15	.05173	101	993.08	.004
318.15	.07102	101	994.13	.004
318.15	.09055	101	995.18	.004
318.15	.10926	101	996.18	.004
318.15	.12441	101	996.98	.004
318.15	.14763	101	998.21	.004

System: water + D-(-)-arabinose; phases: Liquid
Property: Viscosity, Pa*s (Liquid); method: Capillary tube (Ostwald; Ubbelohde) method
Temperature, K	Molality, mol/kg of D-(-)-arabinose	Pressure, kPa	Viscosity, Pa*s	uncertainty
288.15	.05178	101	.001157	.000002
288.15	.0695	101	.001164	.000002
288.15	.08979	101	.00117	.000002
288.15	.1077	101	.001177	.000002
288.15	.12667	101	.001182	.000002
288.15	.15097	101	.001191	.000002
298.15	.05178	101	.000905	.000002
298.15	.0695	101	.000909	.000002
298.15	.08979	101	.000915	.000002
298.15	.1077	101	.00092	.000002
298.15	.12667	101	.000925	.000002
298.15	.15097	101	.000932	.000002
308.15	.05178	101	.00073	.000002
308.15	.0695	101	.000734	.000002
308.15	.08979	101	.000738	.000002
308.15	.1077	101	.000741	.000002
308.15	.12667	101	.000745	.000002
308.15	.15097	101	.00075	.000002
318.15	.05178	101	.000604	.000002
318.15	.0695	101	.000608	.000002
318.15	.08979	101	.000611	.000002
318.15	.1077	101	.000614	.000002
318.15	.12667	101	.000616	.000002
318.15	.15097	101	.000621	.000002

System: water + ammonium bromide; phases: Liquid
Property: Mass density, kg/m3 (Liquid); method: Vibrating tube method
Molality, mol/kg of ammonium bromide	Temperature, K	Pressure, kPa	Mass density, kg/m3	uncertainty
.05	288.15	101	1001.05	.004
.5	288.15	101	1024.05	.004
1	288.15	101	1049.01	.004
2	288.15	101	1095.99	.004
.05	298.15	101	998.76	.004
.5	298.15	101	1021.81	.004
1	298.15	101	1046.88	.004
2	298.15	101	1092.56	.004
.5	308.15	101	1019.06	.004
1	308.15	101	1043.31	.004
.05	308.15	101	995.75	.004
2	308.15	101	1088.78	.004
1	318.15	101	1040.33	.004
.05	318.15	101	992.91	.004
.5	318.15	101	1015.68	.004
2	318.15	101	1085.68	.004

System: water + ammonium bromide; phases: Liquid
Property: Viscosity, Pa*s (Liquid); method: Capillary tube (Ostwald; Ubbelohde) method
Molality, mol/kg of ammonium bromide	Temperature, K	Pressure, kPa	Viscosity, Pa*s	uncertainty
.05	298.15	101	.000888	.000002
.05	288.15	101	.001132	.000002
.05	308.15	101	.000719	.000002
.05	318.15	101	.000597	.000002
.5	308.15	101	.00071	.000002
.5	288.15	101	.001096	.000002
.5	298.15	101	.00087	.000002
.5	318.15	101	.000598	.000002
1	318.15	101	.0006	.000002
1	288.15	101	.001057	.000002
1	298.15	101	.000853	.000002
1	308.15	101	.000697	.000002
2	288.15	101	.001002	.000002
2	308.15	101	.000678	.000002
2	298.15	101	.000827	.000002
2	318.15	101	.000602	.000002

System: D-(+)-arabitol + water; phases: Liquid
Property: Mass density, kg/m3 (Liquid); method: Vibrating tube method
Temperature, K	Molality, mol/kg of D-(+)-arabitol	Pressure, kPa	Mass density, kg/m3	uncertainty
288.15	.0542	101	1001.87	.004
288.15	.07304	101	1002.82	.004
288.15	.08867	101	1003.59	.004
288.15	.10528	101	1004.4	.004
288.15	.13227	101	1005.72	.004
288.15	.15125	101	1006.64	.004
298.15	.0542	101	999.73	.004
298.15	.07304	101	1000.65	.004
298.15	.08867	101	1001.41	.004
298.15	.10528	101	1002.21	.004
298.15	.13227	101	1003.5	.004
298.15	.15125	101	1004.39	.004
308.15	.0542	101	996.7	.004
308.15	.07304	101	997.61	.004
308.15	.08867	101	998.35	.004
308.15	.10528	101	999.14	.004
308.15	.13227	101	1000.41	.004
308.15	.15125	101	1001.3	.004
318.15	.0542	101	992.83	.004
318.15	.07304	101	993.72	.004
318.15	.08867	101	994.45	.004
318.15	.10528	101	995.22	.004
318.15	.13227	101	996.46	.004
318.15	.15125	101	997.33	.004

System: D-(+)-arabitol + water; phases: Liquid
Property: Viscosity, Pa*s (Liquid); method: Capillary tube (Ostwald; Ubbelohde) method
Temperature, K	Molality, mol/kg of D-(+)-arabitol	Pressure, kPa	Viscosity, Pa*s	uncertainty
288.15	.05025	101	.001162	.000002
288.15	.06886	101	.001172	.000002
288.15	.09155	101	.001183	.000002
288.15	.10611	101	.001189	.000002
288.15	.12582	101	.001198	.000002
288.15	.15071	101	.001209	.000002
298.15	.05025	101	.000906	.000002
298.15	.06886	101	.000913	.000002
298.15	.09155	101	.00092	.000002
298.15	.10611	101	.000925	.000002
298.15	.12582	101	.000931	.000002
298.15	.15071	101	.00094	.000002
308.15	.05025	101	.00073	.000002
308.15	.06886	101	.000735	.000002
308.15	.09155	101	.00074	.000002
308.15	.10611	101	.000744	.000002
308.15	.12582	101	.000748	.000002
308.15	.15071	101	.000754	.000002
318.15	.05025	101	.000604	.000002
318.15	.06886	101	.000608	.000002
318.15	.09155	101	.000611	.000002
318.15	.10611	101	.000613	.000002
318.15	.12582	101	.000617	.000002
318.15	.15071	101	.000621	.000002

System: D-(+)-xylose + water; phases: Liquid
Property: Mass density, kg/m3 (Liquid); method: Vibrating tube method
Temperature, K	Molality, mol/kg of D-(+)-xylose	Pressure, kPa	Mass density, kg/m3	uncertainty
288.15	.0491	101	1001.82	.004
288.15	.07084	101	1002.99	.004
288.15	.08985	101	1004.02	.004
288.15	.11439	101	1005.32	.004
288.15	.13026	101	1006.16	.004
288.15	.1485	101	1007.12	.004
298.15	.0491	101	999.72	.004
298.15	.07084	101	1000.89	.004
298.15	.08985	101	1001.9	.004
298.15	.11439	101	1003.21	.004
298.15	.13026	101	1004.04	.004
298.15	.1485	101	1005	.004
308.15	.0491	101	996.71	.004
308.15	.07084	101	997.87	.004
308.15	.08985	101	998.88	.004
308.15	.11439	101	1000.16	.004
308.15	.13026	101	1000.99	.004
308.15	.1485	101	1001.94	.004
318.15	.0491	101	992.87	.004
318.15	.07084	101	994.02	.004
318.15	.08985	101	995.03	.004
318.15	.11439	101	996.31	.004
318.15	.13026	101	997.13	.004
318.15	.1485	101	998.07	.004

System: D-(+)-xylose + water; phases: Liquid
Property: Viscosity, Pa*s (Liquid); method: Capillary tube (Ostwald; Ubbelohde) method
Temperature, K	Molality, mol/kg of D-(+)-xylose	Pressure, kPa	Viscosity, Pa*s	uncertainty
288.15	.04924	101	.001161	.000002
288.15	.06784	101	.001167	.000002
288.15	.09005	101	.001176	.000002
288.15	.10384	101	.001183	.000002
288.15	.12852	101	.00119	.000002
288.15	.151	101	.001201	.000002
298.15	.04924	101	.000904	.000002
298.15	.06784	101	.000911	.000002
298.15	.09005	101	.000917	.000002
298.15	.10384	101	.000921	.000002
298.15	.12852	101	.000929	.000002
298.15	.151	101	.000936	.000002
308.15	.04924	101	.00073	.000002
308.15	.06784	101	.000735	.000002
308.15	.09005	101	.00074	.000002
308.15	.10384	101	.000743	.000002
308.15	.12852	101	.000749	.000002
308.15	.151	101	.000754	.000002
318.15	.04924	101	.000605	.000002
318.15	.06784	101	.000609	.000002
318.15	.09005	101	.000612	.000002
318.15	.10384	101	.000615	.000002
318.15	.12852	101	.00062	.000002
318.15	.151	101	.000624	.000002

System: xylitol + water; phases: Liquid
Property: Mass density, kg/m3 (Liquid); method: Vibrating tube method
Temperature, K	Molality, mol/kg of xylitol	Pressure, kPa	Mass density, kg/m3	uncertainty
288.15	.0542	101	1001.89	.004
288.15	.07245	101	1002.81	.004
288.15	.0852	101	1003.45	.004
288.15	.10949	101	1004.66	.004
288.15	.1314	101	1005.74	.004
288.15	.15274	101	1006.77	.004
298.15	.0542	101	999.75	.004
298.15	.07245	101	1000.65	.004
298.15	.0852	101	1001.27	.004
298.15	.10949	101	1002.44	.004
298.15	.1314	101	1003.49	.004
298.15	.15274	101	1004.5	.004
308.15	.0542	101	996.72	.004
308.15	.07245	101	997.6	.004
308.15	.0852	101	998.22	.004
308.15	.10949	101	999.37	.004
308.15	.1314	101	1000.41	.004
308.15	.15274	101	1001.41	.004
318.15	.0542	101	992.86	.004
318.15	.07245	101	993.73	.004
318.15	.0852	101	994.33	.004
318.15	.10949	101	995.46	.004
318.15	.1314	101	996.48	.004
318.15	.15274	101	997.46	.004

System: xylitol + water; phases: Liquid
Property: Viscosity, Pa*s (Liquid); method: Capillary tube (Ostwald; Ubbelohde) method
Temperature, K	Molality, mol/kg of xylitol	Pressure, kPa	Viscosity, Pa*s	uncertainty
288.15	.04981	101	.001164	.000002
288.15	.06784	101	.001173	.000002
288.15	.08897	101	.001183	.000002
288.15	.10587	101	.001191	.000002
288.15	.13133	101	.001204	.000002
288.15	.15007	101	.001212	.000002
298.15	.04981	101	.000909	.000002
298.15	.06784	101	.000915	.000002
298.15	.08897	101	.000922	.000002
298.15	.10587	101	.00093	.000002
298.15	.13133	101	.000939	.000002
298.15	.15007	101	.000945	.000002
308.15	.04981	101	.000733	.000002
308.15	.06784	101	.000738	.000002
308.15	.08897	101	.000743	.000002
308.15	.10587	101	.000747	.000002
308.15	.13133	101	.000755	.000002
308.15	.15007	101	.00076	.000002
318.15	.04981	101	.000607	.000002
318.15	.06784	101	.000611	.000002
318.15	.08897	101	.000615	.000002
318.15	.10587	101	.000619	.000002
318.15	.13133	101	.000624	.000002
318.15	.15007	101	.000628	.000002

System: L-(-)-sorbose + water; phases: Liquid
Property: Mass density, kg/m3 (Liquid); method: Vibrating tube method
Temperature, K	Molality, mol/kg of L-(-)-sorbose	Pressure, kPa	Mass density, kg/m3	uncertainty
288.15	.05105	101	1002.68	.004
288.15	.06584	101	1003.7	.004
288.15	.08815	101	1005.22	.004
288.15	.10728	101	1006.51	.004
288.15	.13168	101	1008.14	.004
288.15	.15053	101	1009.38	.004
298.15	.05105	101	1000.57	.004
298.15	.06584	101	1001.57	.004
298.15	.08815	101	1003.06	.004
298.15	.10728	101	1004.33	.004
298.15	.13168	101	1005.94	.004
298.15	.15053	101	1007.17	.004
308.15	.05105	101	997.56	.004
308.15	.06584	101	998.56	.004
308.15	.08815	101	1000.04	.004
308.15	.10728	101	1001.3	.004
308.15	.13168	101	1002.89	.004
308.15	.15053	101	1004.1	.004
318.15	.05105	101	993.72	.004
318.15	.06584	101	994.7	.004
318.15	.08815	101	996.17	.004
318.15	.10728	101	997.41	.004
318.15	.13168	101	998.98	.004
318.15	.15053	101	1000.18	.004

System: L-(-)-sorbose + water; phases: Liquid
Property: Viscosity, Pa*s (Liquid); method: Capillary tube (Ostwald; Ubbelohde) method
Temperature, K	Molality, mol/kg of L-(-)-sorbose	Pressure, kPa	Viscosity, Pa*s	uncertainty
288.15	.04909	101	.001162	.000002
288.15	.0704	101	.001173	.000002
288.15	.08456	101	.001182	.000002
288.15	.10915	101	.001195	.000002
288.15	.12886	101	.001206	.000002
288.15	.15074	101	.001216	.000002
298.15	.04909	101	.000907	.000002
298.15	.0704	101	.000916	.000002
298.15	.08456	101	.000923	.000002
298.15	.10915	101	.000931	.000002
298.15	.12886	101	.000939	.000002
298.15	.15074	101	.000947	.000002
308.15	.04909	101	.000733	.000002
308.15	.0704	101	.000738	.000002
308.15	.08456	101	.000743	.000002
308.15	.10915	101	.00075	.000002
308.15	.12886	101	.000756	.000002
308.15	.15074	101	.000762	.000002
318.15	.04909	101	.000606	.000002
318.15	.0704	101	.000611	.000002
318.15	.08456	101	.000615	.000002
318.15	.10915	101	.00062	.000002
318.15	.12886	101	.000624	.000002
318.15	.15074	101	.000629	.000002

System: D-sorbitol + water; phases: Liquid
Property: Mass density, kg/m3 (Liquid); method: Vibrating tube method
Temperature, K	Molality, mol/kg of D-sorbitol	Pressure, kPa	Mass density, kg/m3	uncertainty
288.15	.05068	101	1002.38	.004
288.15	.07063	101	1003.63	.004
288.15	.09024	101	1004.83	.004
288.15	.1057	101	1005.77	.004
288.15	.12999	101	1007.24	.004
288.15	.14653	101	1008.23	.004
298.15	.05068	101	1000.23	.004
298.15	.07063	101	1001.46	.004
298.15	.09024	101	1002.65	.004
298.15	.1057	101	1003.58	.004
298.15	.12999	101	1005.03	.004
298.15	.14653	101	1006.01	.004
308.15	.05068	101	997.2	.004
308.15	.07063	101	998.41	.004
308.15	.09024	101	999.59	.004
308.15	.1057	101	1000.51	.004
308.15	.12999	101	1001.95	.004
308.15	.14653	101	1002.93	.004
318.15	.05068	101	993.33	.004
318.15	.07063	101	994.53	.004
318.15	.09024	101	995.7	.004
318.15	.1057	101	996.61	.004
318.15	.12999	101	998.04	.004
318.15	.14653	101	999	.004

System: D-sorbitol + water; phases: Liquid
Property: Viscosity, Pa*s (Liquid); method: Capillary tube (Ostwald; Ubbelohde) method
Temperature, K	Molality, mol/kg of D-sorbitol	Pressure, kPa	Viscosity, Pa*s	uncertainty
288.15	.0479	101	.001169	.000002
288.15	.06467	101	.001183	.000002
288.15	.08656	101	.001197	.000002
288.15	.10595	101	.00121	.000002
288.15	.12494	101	.001226	.000002
288.15	.14514	101	.001239	.000002
298.15	.0479	101	.000914	.000002
298.15	.06467	101	.000921	.000002
298.15	.08656	101	.000932	.000002
298.15	.10595	101	.000942	.000002
298.15	.12494	101	.000951	.000002
298.15	.14514	101	.000959	.000002
308.15	.0479	101	.000736	.000002
308.15	.06467	101	.000742	.000002
308.15	.08656	101	.00075	.000002
308.15	.10595	101	.000756	.000002
308.15	.12494	101	.000765	.000002
308.15	.14514	101	.000772	.000002
318.15	.0479	101	.000609	.000002
318.15	.06467	101	.000614	.000002
318.15	.08656	101	.00062	.000002
318.15	.10595	101	.000624	.000002
318.15	.12494	101	.000631	.000002
318.15	.14514	101	.000635	.000002

System: D(+)-galactose + water; phases: Liquid
Property: Mass density, kg/m3 (Liquid); method: Vibrating tube method
Temperature, K	Molality, mol/kg of D(+)-galactose	Pressure, kPa	Mass density, kg/m3	uncertainty
288.15	.05096	101	1002.7	.004
288.15	.06903	101	1003.95	.004
288.15	.09042	101	1005.42	.004
288.15	.11018	101	1006.77	.004
288.15	.13216	101	1008.26	.004
288.15	.15518	101	1009.81	.004
298.15	.05096	101	1000.58	.004
298.15	.06903	101	1001.82	.004
298.15	.09042	101	1003.27	.004
298.15	.11018	101	1004.61	.004
298.15	.13216	101	1006.08	.004
298.15	.15518	101	1007.61	.004
308.15	.05096	101	997.56	.004
308.15	.06903	101	998.79	.004
308.15	.09042	101	1000.22	.004
308.15	.11018	101	1001.54	.004
308.15	.13216	101	1003	.004
308.15	.15518	101	1004.51	.004
318.15	.05096	101	993.7	.004
318.15	.06903	101	994.91	.004
318.15	.09042	101	996.33	.004
318.15	.11018	101	997.64	.004
318.15	.13216	101	999.07	.004
318.15	.15518	101	1000.57	.004

System: D(+)-galactose + water; phases: Liquid
Property: Viscosity, Pa*s (Liquid); method: Capillary tube (Ostwald; Ubbelohde) method
Temperature, K	Molality, mol/kg of D(+)-galactose	Pressure, kPa	Viscosity, Pa*s	uncertainty
288.15	.05001	101	.001166	.000002
288.15	.07068	101	.001178	.000002
288.15	.09059	101	.001189	.000002
288.15	.10985	101	.001199	.000002
288.15	.12891	101	.001208	.000002
288.15	.15126	101	.00122	.000002
298.15	.05001	101	.00091	.000002
298.15	.07068	101	.000919	.000002
298.15	.09059	101	.000927	.000002
298.15	.10985	101	.000935	.000002
298.15	.12891	101	.000941	.000002
298.15	.15126	101	.000951	.000002
308.15	.05001	101	.000734	.000002
308.15	.07068	101	.000741	.000002
308.15	.09059	101	.000747	.000002
308.15	.10985	101	.000753	.000002
308.15	.12891	101	.000758	.000002
308.15	.15126	101	.000766	.000002
318.15	.05001	101	.000607	.000002
318.15	.07068	101	.000612	.000002
318.15	.09059	101	.000617	.000002
318.15	.10985	101	.000621	.000002
318.15	.12891	101	.000625	.000002
318.15	.15126	101	.00063	.000002

System: galactitol + water; phases: Liquid
Property: Mass density, kg/m3 (Liquid); method: Vibrating tube method
Temperature, K	Molality, mol/kg of galactitol	Pressure, kPa	Mass density, kg/m3	uncertainty
288.15	.05086	101	1002.35	.004
288.15	.0735	101	1003.75	.004
288.15	.08768	101	1004.62	.004
288.15	.10662	101	1005.78	.004
288.15	.12786	101	1007.07	.004
288.15	.1457	101	1008.14	.004
298.15	.05086	101	1000.21	.004
298.15	.0735	101	1001.6	.004
298.15	.08768	101	1002.46	.004
298.15	.10662	101	1003.6	.004
298.15	.12786	101	1004.88	.004
298.15	.1457	101	1005.94	.004
308.15	.05086	101	997.18	.004
308.15	.0735	101	998.55	.004
308.15	.08768	101	999.39	.004
308.15	.10662	101	1000.52	.004
308.15	.12786	101	1001.77	.004
308.15	.1457	101	1002.81	.004
318.15	.05086	101	993.33	.004
318.15	.0735	101	994.68	.004
318.15	.08768	101	995.51	.004
318.15	.10662	101	996.63	.004
318.15	.12786	101	997.86	.004
318.15	.1457	101	998.89	.004

System: galactitol + water; phases: Liquid
Property: Viscosity, Pa*s (Liquid); method: Capillary tube (Ostwald; Ubbelohde) method
Temperature, K	Molality, mol/kg of galactitol	Pressure, kPa	Viscosity, Pa*s	uncertainty
288.15	.0503	101	.001164	.000002
288.15	.07104	101	.001175	.000002
288.15	.08872	101	.001185	.000002
288.15	.10907	101	.001196	.000002
288.15	.12825	101	.001204	.000002
288.15	.14679	101	.001215	.000002
298.15	.0503	101	.000909	.000002
298.15	.07104	101	.000916	.000002
298.15	.08872	101	.000921	.000002
298.15	.10907	101	.000928	.000002
298.15	.12825	101	.000935	.000002
298.15	.14679	101	.000941	.000002
308.15	.0503	101	.000732	.000002
308.15	.07104	101	.000737	.000002
308.15	.08872	101	.000743	.000002
308.15	.10907	101	.000747	.000002
308.15	.12825	101	.000752	.000002
308.15	.14679	101	.000757	.000002
318.15	.0503	101	.000605	.000002
318.15	.07104	101	.000609	.000002
318.15	.08872	101	.000612	.000002
318.15	.10907	101	.000616	.000002
318.15	.12825	101	.000619	.000002
318.15	.14679	101	.000622	.000002

System: D-mannose + water; phases: Liquid
Property: Mass density, kg/m3 (Liquid); method: Vibrating tube method
Temperature, K	Molality, mol/kg of D-mannose	Pressure, kPa	Mass density, kg/m3	uncertainty
288.15	.05278	101	1002.76	.004
288.15	.07151	101	1004.03	.004
288.15	.09003	101	1005.28	.004
288.15	.1065	101	1006.39	.004
288.15	.12772	101	1007.81	.004
288.15	.14877	101	1009.21	.004
298.15	.05278	101	1000.64	.004
298.15	.07151	101	1001.9	.004
298.15	.09003	101	1003.14	.004
298.15	.1065	101	1004.23	.004
298.15	.12772	101	1005.63	.004
298.15	.14877	101	1007.01	.004
308.15	.05278	101	997.63	.004
308.15	.07151	101	998.87	.004
308.15	.09003	101	1000.09	.004
308.15	.1065	101	1001.17	.004
308.15	.12772	101	1002.56	.004
308.15	.14877	101	1003.92	.004
318.15	.05278	101	993.78	.004
318.15	.07151	101	995.02	.004
318.15	.09003	101	996.23	.004
318.15	.1065	101	997.3	.004
318.15	.12772	101	998.67	.004
318.15	.14877	101	1000.02	.004

System: D-mannose + water; phases: Liquid
Property: Viscosity, Pa*s (Liquid); method: Capillary tube (Ostwald; Ubbelohde) method
Temperature, K	Molality, mol/kg of D-mannose	Pressure, kPa	Viscosity, Pa*s	uncertainty
288.15	.0501	101	.001168	.000002
288.15	.07151	101	.001181	.000002
288.15	.09353	101	.001191	.000002
288.15	.1123	101	.001201	.000002
288.15	.13185	101	.001214	.000002
288.15	.15151	101	.001225	.000002
298.15	.0501	101	.000912	.000002
298.15	.07151	101	.00092	.000002
298.15	.09353	101	.000929	.000002
298.15	.1123	101	.000936	.000002
298.15	.13185	101	.000945	.000002
298.15	.15151	101	.000952	.000002
308.15	.0501	101	.000735	.000002
308.15	.07151	101	.000742	.000002
308.15	.09353	101	.000749	.000002
308.15	.1123	101	.000756	.000002
308.15	.13185	101	.000761	.000002
308.15	.15151	101	.000766	.000002
318.15	.0501	101	.000608	.000002
318.15	.07151	101	.000613	.000002
318.15	.09353	101	.000619	.000002
318.15	.1123	101	.000624	.000002
318.15	.13185	101	.000628	.000002
318.15	.15151	101	.000634	.000002

System: D-mannitol + water; phases: Liquid
Property: Mass density, kg/m3 (Liquid); method: Vibrating tube method
Temperature, K	Molality, mol/kg of D-mannitol	Pressure, kPa	Mass density, kg/m3	uncertainty
288.15	.04909	101	1002.3	.004
288.15	.06889	101	1003.56	.004
288.15	.09002	101	1004.91	.004
288.15	.11345	101	1006.38	.004
288.15	.1266	101	1007.19	.004
288.15	.14687	101	1008.45	.004
298.15	.04909	101	1000.12	.004
298.15	.06889	101	1001.34	.004
298.15	.09002	101	1002.62	.004
298.15	.11345	101	1004.04	.004
298.15	.1266	101	1004.82	.004
298.15	.14687	101	1006.03	.004
308.15	.04909	101	997.07	.004
308.15	.06889	101	998.27	.004
308.15	.09002	101	999.54	.004
308.15	.11345	101	1000.93	.004
308.15	.1266	101	1001.71	.004
308.15	.14687	101	1002.9	.004
318.15	.04909	101	993.22	.004
318.15	.06889	101	994.41	.004
318.15	.09002	101	995.65	.004
318.15	.11345	101	997.03	.004
318.15	.1266	101	997.8	.004
318.15	.14687	101	998.97	.004

System: D-mannitol + water; phases: Liquid
Property: Viscosity, Pa*s (Liquid); method: Capillary tube (Ostwald; Ubbelohde) method
Temperature, K	Molality, mol/kg of D-mannitol	Pressure, kPa	Viscosity, Pa*s	uncertainty
288.15	.05269	101	.001176	.000002
288.15	.07011	101	.001189	.000002
288.15	.09107	101	.001203	.000002
288.15	.10974	101	.001217	.000002
288.15	.12934	101	.00123	.000002
288.15	.15001	101	.001246	.000002
298.15	.05269	101	.000918	.000002
298.15	.07011	101	.000927	.000002
298.15	.09107	101	.000936	.000002
298.15	.10974	101	.000945	.000002
298.15	.12934	101	.000955	.000002
298.15	.15001	101	.000964	.000002
308.15	.05269	101	.00074	.000002
308.15	.07011	101	.000747	.000002
308.15	.09107	101	.000754	.000002
308.15	.10974	101	.000761	.000002
308.15	.12934	101	.000765	.000002
308.15	.15001	101	.000774	.000002
318.15	.05269	101	.000611	.000002
318.15	.07011	101	.000617	.000002
318.15	.09107	101	.000621	.000002
318.15	.10974	101	.000627	.000002
318.15	.12934	101	.000633	.000002
318.15	.15001	101	.000639	.000002

System: D(+)-glucose + water; phases: Liquid
Property: Mass density, kg/m3 (Liquid); method: Vibrating tube method
Temperature, K	Molality, mol/kg of D(+)-glucose	Pressure, kPa	Mass density, kg/m3	uncertainty
288.15	.05146	101	1002.66	.004
288.15	.07233	101	1004.08	.004
288.15	.09244	101	1005.44	.004
288.15	.10959	101	1006.59	.004
288.15	.12412	101	1007.57	.004
288.15	.14563	101	1009	.004
298.15	.05146	101	1000.54	.004
298.15	.07233	101	1001.94	.004
298.15	.09244	101	1003.27	.004
298.15	.10959	101	1004.41	.004
298.15	.12412	101	1005.36	.004
298.15	.14563	101	1006.77	.004
308.15	.05146	101	997.52	.004
308.15	.07233	101	998.9	.004
308.15	.09244	101	1000.22	.004
308.15	.10959	101	1001.34	.004
308.15	.12412	101	1002.28	.004
308.15	.14563	101	1003.66	.004
318.15	.05146	101	993.66	.004
318.15	.07233	101	995.03	.004
318.15	.09244	101	996.33	.004
318.15	.10959	101	997.44	.004
318.15	.12412	101	998.37	.004
318.15	.14563	101	999.74	.004

System: D(+)-glucose + water; phases: Liquid
Property: Viscosity, Pa*s (Liquid); method: Capillary tube (Ostwald; Ubbelohde) method
Temperature, K	Molality, mol/kg of D(+)-glucose	Pressure, kPa	Viscosity, Pa*s	uncertainty
288.15	.0513	101	.001167	.000002
288.15	.06904	101	.001176	.000002
288.15	.09026	101	.001188	.000002
288.15	.11143	101	.0012	.000002
288.15	.12939	101	.001212	.000002
288.15	.14897	101	.001219	.000002
298.15	.0513	101	.000911	.000002
298.15	.06904	101	.000918	.000002
298.15	.09026	101	.000926	.000002
298.15	.11143	101	.000935	.000002
298.15	.12939	101	.000942	.000002
298.15	.14897	101	.000951	.000002
308.15	.0513	101	.000735	.000002
308.15	.06904	101	.000741	.000002
308.15	.09026	101	.000747	.000002
308.15	.11143	101	.000755	.000002
308.15	.12939	101	.000759	.000002
308.15	.14897	101	.000764	.000002
318.15	.0513	101	.000609	.000002
318.15	.06904	101	.000613	.000002
318.15	.09026	101	.000618	.000002
318.15	.11143	101	.000623	.000002
318.15	.12939	101	.000627	.000002
318.15	.14897	101	.000632	.000002

System: sucrose + water; phases: Liquid
Property: Mass density, kg/m3 (Liquid); method: Vibrating tube method
Temperature, K	Molality, mol/kg of sucrose	Pressure, kPa	Mass density, kg/m3	uncertainty
288.15	.0482	101	1005.4	.004
288.15	.06821	101	1007.96	.004
288.15	.08888	101	1010.58	.004
288.15	.10948	101	1013.17	.004
288.15	.1286	101	1015.55	.004
288.15	.14948	101	1018.13	.004
298.15	.0482	101	1003.28	.004
298.15	.06821	101	1005.82	.004
298.15	.08888	101	1008.42	.004
298.15	.10948	101	1010.99	.004
298.15	.1286	101	1013.35	.004
298.15	.14948	101	1015.9	.004
308.15	.0482	101	1000.26	.004
308.15	.06821	101	1002.79	.004
308.15	.08888	101	1005.37	.004
308.15	.10948	101	1007.92	.004
308.15	.1286	101	1010.27	.004
308.15	.14948	101	1012.8	.004
318.15	.0482	101	996.41	.004
318.15	.06821	101	998.92	.004
318.15	.08888	101	1001.49	.004
318.15	.10948	101	1004.02	.004
318.15	.1286	101	1006.35	.004
318.15	.14948	101	1008.87	.004

System: sucrose + water; phases: Liquid
Property: Viscosity, Pa*s (Liquid); method: Capillary tube (Ostwald; Ubbelohde) method
Temperature, K	Molality, mol/kg of sucrose	Pressure, kPa	Viscosity, Pa*s	uncertainty
288.15	.05054	101	.001198	.000002
288.15	.06969	101	.001221	.000002
288.15	.09107	101	.001242	.000002
288.15	.1098	101	.001264	.000002
288.15	.12932	101	.001286	.000002
288.15	.14969	101	.00131	.000002
298.15	.05054	101	.000934	.000002
298.15	.06969	101	.000951	.000002
298.15	.09107	101	.000969	.000002
298.15	.1098	101	.000984	.000002
298.15	.12932	101	.001001	.000002
298.15	.14969	101	.001019	.000002
308.15	.05054	101	.000751	.000002
308.15	.06969	101	.000766	.000002
308.15	.09107	101	.00078	.000002
308.15	.1098	101	.000793	.000002
308.15	.12932	101	.000805	.000002
308.15	.14969	101	.000819	.000002
318.15	.05054	101	.000621	.000002
318.15	.06969	101	.000632	.000002
318.15	.09107	101	.000645	.000002
318.15	.1098	101	.000654	.000002
318.15	.12932	101	.000666	.000002
318.15	.14969	101	.000675	.000002

System: D-(+)-maltose monohydrate + water; phases: Liquid
Property: Mass density, kg/m3 (Liquid); method: Vibrating tube method
Temperature, K	Molality, mol/kg of D-(+)-maltose monohydrate	Pressure, kPa	Mass density, kg/m3	uncertainty
288.15	.0507	101	1005.82	.004
288.15	.06908	101	1008.2	.004
288.15	.08999	101	1010.87	.004
288.15	.1087	101	1013.23	.004
288.15	.13329	101	1016.31	.004
288.15	.14932	101	1018.29	.004
298.15	.0507	101	1003.68	.004
298.15	.06908	101	1006.05	.004
298.15	.08999	101	1008.71	.004
298.15	.1087	101	1011.07	.004
298.15	.13329	101	1014.13	.004
298.15	.14932	101	1016.11	.004
308.15	.0507	101	1000.63	.004
308.15	.06908	101	1002.97	.004
308.15	.08999	101	1005.59	.004
308.15	.1087	101	1007.92	.004
308.15	.13329	101	1010.96	.004
308.15	.14932	101	1012.9	.004
318.15	.0507	101	996.71	.004
318.15	.06908	101	998.99	.004
318.15	.08999	101	1001.55	.004
318.15	.1087	101	1003.8	.004
318.15	.13329	101	1006.74	.004
318.15	.14932	101	1008.62	.004

System: D-(+)-maltose monohydrate + water; phases: Liquid
Property: Viscosity, Pa*s (Liquid); method: Capillary tube (Ostwald; Ubbelohde) method
Temperature, K	Molality, mol/kg of D-(+)-maltose monohydrate	Pressure, kPa	Viscosity, Pa*s	uncertainty
288.15	.04995	101	.001203	.000002
288.15	.06787	101	.001225	.000002
288.15	.08933	101	.001251	.000002
288.15	.10424	101	.001269	.000002
288.15	.12981	101	.001299	.000002
288.15	.14725	101	.00132	.000002
298.15	.04995	101	.000936	.000002
298.15	.06787	101	.000956	.000002
298.15	.08933	101	.000974	.000002
298.15	.10424	101	.000988	.000002
298.15	.12981	101	.001012	.000002
298.15	.14725	101	.001026	.000002
308.15	.04995	101	.000756	.000002
308.15	.06787	101	.00077	.000002
308.15	.08933	101	.000785	.000002
308.15	.10424	101	.000795	.000002
308.15	.12981	101	.000815	.000002
308.15	.14725	101	.000825	.000002
318.15	.04995	101	.000626	.000002
318.15	.06787	101	.000636	.000002
318.15	.08933	101	.000649	.000002
318.15	.10424	101	.000657	.000002
318.15	.12981	101	.000671	.000002
318.15	.14725	101	.000681	.000002
