Measured thermophysical data. Thermodynamics of micelle formation of gemini surfactants hexylene-1,6-bis(dimethyloctylammonium bromide) and dodecylene-1,12-bis(dimethyloctylammonium bromide) by electric conductance mesurements.
Source: J. Chem. Eng. Data, 2014, 10.1021/je500804j
Compound 1: N1,N1,N6,N6-tetramethyl-N1,N6-dioctylhexane-1,6-diaminium bromide, C26H58Br2N2
Compound 2: N1,N1,N12,N12-tetramethyl-N1,N12-dioctyldodecane-1,12-diaminium bromide, C32H70Br2N2
Compound 3: water, H2O, purity 99.9%

System: water + N1,N1,N6,N6-tetramethyl-N1,N6-dioctylhexane-1,6-diaminium bromide; phases: Liquid
Fixed: Pressure, kPa = 101
Property: Electrical conductivity, S/m (Liquid); method: Alternating current cell with electrodes
Molality, mol/kg of N1,N1,N6,N6-tetramethyl-N1,N6-dioctylhexane-1,6-diaminium bromide	Temperature, K	Electrical conductivity, S/m	uncertainty
.00378	288.15	.05571	.00022284
.00747	288.15	.10285	.0004114
.01106	288.15	.14432	.00057728
.01457	288.15	.18274	.00073096
.01799	288.15	.21834	.00087336
.02133	288.15	.25201	.00100804
.02458	288.15	.28383	.00113532
.02776	288.15	.31239	.00124956
.03087	288.15	.34072	.00136288
.0339	288.15	.36678	.00146712
.03687	288.15	.39171	.00156684
.03977	288.15	.41585	.0016634
.0426	288.15	.43826	.00175304
.04537	288.15	.46043	.00184172
.04808	288.15	.48117	.00192468
.05073	288.15	.50112	.00200448
.05333	288.15	.52102	.00208408
.05587	288.15	.53908	.00215632
.05835	288.15	.55502	.00222008
.06079	288.15	.57175	.002287
.06318	288.15	.58548	.00234192
.06551	288.15	.60421	.00241684
.0678	288.15	.62028	.00248112
.07005	288.15	.6375	.00255
.07225	288.15	.65296	.00261184
.07441	288.15	.66775	.002671
.07652	288.15	.68257	.00273028
.0786	288.15	.69545	.0027818
.08064	288.15	.70917	.00283668
.08264	288.15	.71994	.00287976
.0846	288.15	.73234	.00292936
.08652	288.15	.74235	.0029694
.08841	288.15	.7524	.0030096
.09027	288.15	.76179	.00304716
.09209	288.15	.77053	.00308212
.09388	288.15	.77943	.00311772
.09564	288.15	.78831	.00315324
.09737	288.15	.79583	.00318332
.09907	288.15	.80389	.00321556
.10073	288.15	.81201	.00324804
.10238	288.15	.81701	.00326804
.10399	288.15	.82142	.00328568
.10557	288.15	.82713	.00330852
.10713	288.15	.83234	.00332936
.10867	288.15	.83601	.00334404
.11018	288.15	.84024	.00336096
.11166	288.15	.84518	.00338072
.11312	288.15	.84921	.00339684
.11456	288.15	.85277	.00341108
.11598	288.15	.85653	.00342612
.00416	293.15	.07018	.00028072
.00821	293.15	.09599	.00038396
.01215	293.15	.15404	.00061616
.01598	293.15	.20621	.00082484
.01972	293.15	.25429	.00101716
.02336	293.15	.29869	.00119476
.02691	293.15	.33988	.00135952
.03037	293.15	.37848	.00151392
.03374	293.15	.41499	.00165996
.03704	293.15	.44993	.00179972
.04025	293.15	.48182	.00192728
.04339	293.15	.51269	.00205076
.04645	293.15	.54152	.00216608
.04944	293.15	.56874	.00227496
.05237	293.15	.59526	.00238104
.05523	293.15	.61989	.00247956
.05802	293.15	.643603	.002574412
.06075	293.15	.66584	.00266336
.06342	293.15	.68675	.002747
.06604	293.15	.70704	.00282816
.06859	293.15	.7264	.0029056
.0711	293.15	.74457	.00297828
.07355	293.15	.76199	.00304796
.07595	293.15	.77824	.00311296
.0783	293.15	.79339	.00317356
.0806	293.15	.80761	.00323044
.08285	293.15	.82126	.00328504
.08507	293.15	.83347	.00333388
.08723	293.15	.84575	.003383
.08936	293.15	.8569	.0034276
.09144	293.15	.86774	.00347096
.09348	293.15	.87773	.00351092
.09549	293.15	.88731	.00354924
.09745	293.15	.89576	.00358304
.09938	293.15	.90454	.00361816
.10128	293.15	.91273	.00365092
.10314	293.15	.92061	.00368244
.10496	293.15	.92792	.00371168
.10676	293.15	.93493	.00373972
.10852	293.15	.94127	.00376508
.11025	293.15	.94677	.00378708
.11195	293.15	.95329	.00381316
.11362	293.15	.9594	.0038376
.11526	293.15	.9653	.0038612
.11687	293.15	.97089	.00388356
.11846	293.15	.97657	.00390628
.12002	293.15	.98193	.00392772
.12155	293.15	.98678	.00394712
.12306	293.15	.99191	.00396764
.12454	293.15	.99683	.00398732
.00419	298.15	.07905	.0003162
.00827	298.15	.14639	.00058556
.01224	298.15	.20762	.00083048
.0161	298.15	.26473	.00105892
.01987	298.15	.31615	.0012646
.02353	298.15	.36444	.00145776
.02711	298.15	.40977	.00163908
.03059	298.15	.45148	.00180592
.03399	298.15	.49137	.00196548
.0373	298.15	.52922	.00211688
.04053	298.15	.5645	.002258
.04369	298.15	.59786	.00239144
.04677	298.15	.62992	.00251968
.04978	298.15	.66023	.00264092
.05272	298.15	.68872	.00275488
.05559	298.15	.71561	.00286244
.0584	298.15	.74186	.00296744
.06114	298.15	.76659	.00306636
.06383	298.15	.78978	.00315912
.06645	298.15	.81204	.00324816
.06902	298.15	.83304	.00333216
.07154	298.15	.85262	.00341048
.074	298.15	.87126	.00348504
.07641	298.15	.88865	.0035546
.07877	298.15	.90505	.0036202
.08108	298.15	.9203	.0036812
.08334	298.15	.93479	.00373916
.08556	298.15	.94852	.00379408
.08773	298.15	.96163	.00384652
.08987	298.15	.97393	.00389572
.09196	298.15	.98522	.00394088
.09401	298.15	.99591	.00398364
.09602	298.15	1.00624	.00402496
.09799	298.15	1.01583	.00406332
.09992	298.15	1.02479	.00409916
.10182	298.15	1.03326	.00413304
.10369	298.15	1.04192	.00416768
.10552	298.15	1.0499	.0041996
.10732	298.15	1.0577	.0042308
.10908	298.15	1.06551	.00426204
.11081	298.15	1.07313	.00429252
.11252	298.15	1.08033	.00432132
.11419	298.15	1.08738	.00434952
.11584	298.15	1.0941	.0043764
.11745	298.15	1.10044	.00440176
.11904	298.15	1.10655	.0044262
.1206	298.15	1.11246	.00444984
.12214	298.15	1.11813	.00447252
.12365	298.15	1.12388	.00449552
.12514	298.15	1.12955	.0045182
.00379	303.15	.0878	.0003512
.00748	303.15	.12711	.00050844
.01108	303.15	.19679	.00078716
.01459	303.15	.25936	.00103744
.01801	303.15	.31735	.0012694
.02135	303.15	.37136	.00148544
.02461	303.15	.42089	.00168356
.02779	303.15	.4681	.0018724
.0309	303.15	.51241	.00204964
.03394	303.15	.55422	.00221688
.03691	303.15	.59387	.00237548
.03981	303.15	.63142	.00252568
.04264	303.15	.66683	.00266732
.04542	303.15	.70046	.00280184
.04813	303.15	.73264	.00293056
.05078	303.15	.7638	.0030552
.05338	303.15	.7917	.0031668
.05592	303.15	.81943	.00327772
.05841	303.15	.84566	.00338264
.06085	303.15	.87044	.00348176
.06324	303.15	.8926	.0035704
.06558	303.15	.91261	.00365044
.06787	303.15	.93415	.0037366
.07011	303.15	.95469	.00381876
.07232	303.15	.97383	.00389532
.07448	303.15	.99207	.00396828
.07659	303.15	1.00976	.00403904
.07867	303.15	1.0255	.004102
.08071	303.15	1.04027	.00416108
.08271	303.15	1.05499	.00421996
.08467	303.15	1.06938	.00427752
.0866	303.15	1.08227	.00432908
.08849	303.15	1.09446	.00437784
.09034	303.15	1.10675	.004427
.09217	303.15	1.11753	.00447012
.09396	303.15	1.1287	.0045148
.09572	303.15	1.13873	.00455492
.09745	303.15	1.14814	.00459256
.09915	303.15	1.15837	.00463348
.10082	303.15	1.1681	.0046724
.10246	303.15	1.17525	.004701
.10407	303.15	1.18254	.00473016
.10566	303.15	1.19062	.00476248
.10722	303.15	1.19828	.00479312
.10875	303.15	1.2063	.0048252
.11026	303.15	1.21468	.00485872
.11175	303.15	1.22041	.00488164
.11321	303.15	1.22837	.00491348
.11465	303.15	1.23489	.00493956
.11606	303.15	1.24198	.00496792
.00368	308.15	.09215	.0003686
.00726	308.15	.17246	.00068984
.01076	308.15	.24526	.00098104
.01417	308.15	.31152	.00124608
.0175	308.15	.37248	.00148992
.02076	308.15	.42895	.0017158
.02394	308.15	.48274	.00193096
.02704	308.15	.53243	.00212972
.03008	308.15	.58037	.00232148
.03304	308.15	.62594	.00250376
.03595	308.15	.66945	.0026778
.03878	308.15	.7099	.0028396
.04156	308.15	.74964	.00299856
.04428	308.15	.78515	.0031406
.04693	308.15	.82306	.00329224
.05209	308.15	.88819	.00355276
.05458	308.15	.91632	.00366528
.05703	308.15	.94724	.00378896
.05942	308.15	.97285	.0038914
.06177	308.15	1.00127	.00400508
.06407	308.15	1.02658	.00410632
.06633	308.15	1.05029	.00420116
.06854	308.15	1.07193	.00428772
.07072	308.15	1.09166	.00436664
.07284	308.15	1.11114	.00444456
.07493	308.15	1.12834	.00451336
.07698	308.15	1.14937	.00459748
.079	308.15	1.16419	.00465676
.08097	308.15	1.18239	.00472956
.08291	308.15	1.19544	.00478176
.08482	308.15	1.21123	.00484492
.08669	308.15	1.22485	.0048994
.08852	308.15	1.23805	.0049522
.09033	308.15	1.25149	.00500596
.0921	308.15	1.26367	.00505468
.09385	308.15	1.27582	.00510328
.09556	308.15	1.28579	.00514316
.09725	308.15	1.2981	.0051924
.0989	308.15	1.3085	.005234
.10053	308.15	1.3185	.005274
.10213	308.15	1.3259	.0053036
.10371	308.15	1.33724	.00534896
.10526	308.15	1.34556	.00538224
.10679	308.15	1.35446	.00541784
.10829	308.15	1.36256	.00545024
.10976	308.15	1.37032	.00548128
.11122	308.15	1.37972	.00551888
.11265	308.15	1.38495	.0055398
.11406	308.15	1.39191	.00556764
.00383	313.15	.10364	.00041456
.00755	313.15	.18537	.00074148
.01119	313.15	.25477	.00101908
.01473	313.15	.32794	.00131176
.01819	313.15	.39933	.00159732
.02156	313.15	.46507	.00186028
.02485	313.15	.52807	.00211228
.02806	313.15	.58663	.00234652
.0312	313.15	.63968	.00255872
.03426	313.15	.69342	.00277368
.03725	313.15	.7428	.0029712
.04018	313.15	.78858	.00315432
.04304	313.15	.83283	.00333132
.04583	313.15	.87486	.00349944
.04857	313.15	.91391	.00365564
.05386	313.15	.98826	.00395304
.05642	313.15	1.02383	.00409532
.05893	313.15	1.05473	.00421892
.06138	313.15	1.08629	.00434516
.06379	313.15	1.11363	.00445452
.06615	313.15	1.13863	.00455452
.06845	313.15	1.16529	.00466116
.07072	313.15	1.18976	.00475904
.07293	313.15	1.21193	.00484772
.07511	313.15	1.23576	.00494304
.07724	313.15	1.25652	.00502608
.07933	313.15	1.27619	.00510476
.08138	313.15	1.29636	.00518544
.08339	313.15	1.31415	.0052566
.08537	313.15	1.33223	.00532892
.0873	313.15	1.34761	.00539044
.08921	313.15	1.36353	.00545412
.09107	313.15	1.37785	.0055114
.09291	313.15	1.39169	.00556676
.09471	313.15	1.40623	.00562492
.09648	313.15	1.41761	.00567044
.09822	313.15	1.4323	.0057292
.09993	313.15	1.44421	.00577684
.1016	313.15	1.45695	.0058278
.10325	313.15	1.46661	.00586644
.10488	313.15	1.47581	.00590324
.10647	313.15	1.48653	.00594612
.10804	313.15	1.49306	.00597224
.10958	313.15	1.50544	.00602176
.1111	313.15	1.51636	.00606544
.11259	313.15	1.52736	.00610944
.11406	313.15	1.53684	.00614736
.1155	313.15	1.54473	.00617892
.11693	313.15	1.55304	.00621216
.00396	318.15	.09519	.00038076
.00782	318.15	.20029	.00080116
.01158	318.15	.29448	.00117792
.01525	318.15	.38098	.00152392
.01883	318.15	.46109	.00184436
.02233	318.15	.53387	.00213548
.02574	318.15	.60468	.00241872
.02907	318.15	.66908	.00267632
.03233	318.15	.73137	.00292548
.03551	318.15	.78739	.00314956
.03862	318.15	.84178	.00336712
.04166	318.15	.89412	.00357648
.04463	318.15	.94529	.00378116
.04754	318.15	.9898	.0039592
.05038	318.15	1.03646	.00414584
.05589	318.15	1.12039	.00448156
.05856	318.15	1.15435	.0046174
.06117	318.15	1.19218	.00476872
.06373	318.15	1.22145	.0048858
.06624	318.15	1.25436	.00501744
.06869	318.15	1.28143	.00512572
.0711	318.15	1.31307	.00525228
.07346	318.15	1.33829	.00535316
.07577	318.15	1.36686	.00546744
.07804	318.15	1.39188	.00556752
.08027	318.15	1.41213	.00564852
.08245	318.15	1.43711	.00574844
.08459	318.15	1.45822	.00583288
.0867	318.15	1.4739	.0058956
.08876	318.15	1.49849	.00599396
.09078	318.15	1.50969	.00603876
.09277	318.15	1.53202	.00612808
.09473	318.15	1.54744	.00618976
.09665	318.15	1.5673	.0062692
.09853	318.15	1.58207	.00632828
.10038	318.15	1.59121	.00636484
.1022	318.15	1.60881	.00643524
.10399	318.15	1.62552	.00650208
.10575	318.15	1.63593	.00654372
.10748	318.15	1.64716	.00658864
.10918	318.15	1.65948	.00663792
.11085	318.15	1.67379	.00669516
.11249	318.15	1.68746	.00674984
.11411	318.15	1.69858	.00679432
.1157	318.15	1.71317	.00685268
.11726	318.15	1.72353	.00689412
.1188	318.15	1.73209	.00692836
.12032	318.15	1.74892	.00699568
.12181	318.15	1.76126	.00704504
.00396	323.15	.12295	.0004918
.00782	323.15	.22415	.0008966
.01158	323.15	.31827	.00127308
.01526	323.15	.41324	.00165296
.01884	323.15	.50128	.00200512
.02233	323.15	.58182	.00232728
.02575	323.15	.65819	.00263276
.02908	323.15	.72893	.00291572
.03234	323.15	.79565	.0031826
.03552	323.15	.86171	.00344684
.03863	323.15	.91973	.00367892
.04167	323.15	.97844	.00391376
.04464	323.15	1.03256	.00413024
.04755	323.15	1.0844	.0043376
.0504	323.15	1.13305	.0045322
.05591	323.15	1.22216	.00488864
.05858	323.15	1.26164	.00504656
.06119	323.15	1.29932	.00519728
.06375	323.15	1.33629	.00534516
.06625	323.15	1.36705	.0054682
.06871	323.15	1.39571	.00558284
.07112	323.15	1.42677	.00570708
.07348	323.15	1.45325	.005813
.07579	323.15	1.48523	.00594092
.07806	323.15	1.51423	.00605692
.08029	323.15	1.54159	.00616636
.08247	323.15	1.56367	.00625468
.08461	323.15	1.58988	.00635952
.08672	323.15	1.61255	.0064502
.08878	323.15	1.63367	.00653468
.09081	323.15	1.65149	.00660596
.0928	323.15	1.6708	.0066832
.09475	323.15	1.69355	.0067742
.09667	323.15	1.71031	.00684124
.09855	323.15	1.72784	.00691136
.10041	323.15	1.74493	.00697972
.10223	323.15	1.76064	.00704256
.10401	323.15	1.77633	.00710532
.10577	323.15	1.78843	.00715372
.1075	323.15	1.80362	.00721448
.1092	323.15	1.81573	.00726292
.11087	323.15	1.83203	.00732812
.11252	323.15	1.84117	.00736468
.11413	323.15	1.85438	.00741752
.11572	323.15	1.86614	.00746456
.11729	323.15	1.88072	.00752288
.11883	323.15	1.89305	.0075722
.12034	323.15	1.9009	.0076036
.12184	323.15	1.9172	.0076688

System: water + N1,N1,N12,N12-tetramethyl-N1,N12-dioctyldodecane-1,12-diaminium bromide; phases: Liquid
Fixed: Pressure, kPa = 101
Property: Electrical conductivity, S/m (Liquid); method: Alternating current cell with electrodes
Molality, mol/kg of N1,N1,N12,N12-tetramethyl-N1,N12-dioctyldodecane-1,12-diaminium bromide	Temperature, K	Electrical conductivity, S/m	uncertainty
.00524	288.15	.0948	.0003792
.00825	288.15	.1292	.0005168
.01026	288.15	.15217	.00060868
.01325	288.15	.18635	.0007454
.01696	288.15	.22863	.00091452
.01986	288.15	.26173	.00104692
.02257	288.15	.29277	.00117108
.02469	288.15	.3169	.0012676
.0276	288.15	.33493	.00133972
.03026	288.15	.34549	.00138196
.03258	288.15	.35469	.00141876
.03485	288.15	.36372	.00145488
.03697	288.15	.37216	.00148864
.03965	288.15	.38278	.00153112
.0414	288.15	.38974	.00155896
.04287	288.15	.39559	.00158236
.04499	288.15	.40401	.00161604
.04668	288.15	.41071	.00164284
.04802	288.15	.41603	.00166412
.04996	288.15	.42374	.00169496
.05094	288.15	.42761	.00171044
.05281	288.15	.43504	.00174016
.0543	288.15	.44096	.00176384
.0552	288.15	.44456	.00177824
.05651	288.15	.44973	.00179892
.05808	288.15	.45599	.00182396
.05949	288.15	.46157	.00184628
.06045	288.15	.46541	.00186164
.06136	288.15	.469	.001876
.06193	288.15	.47126	.00188504
.00394	293.15	.05156	.00020624
.00765	293.15	.10337	.00041348
.01114	293.15	.15247	.00060988
.01444	293.15	.19427	.00077708
.01756	293.15	.22904	.00091616
.02051	293.15	.25822	.00103288
.02331	293.15	.28058	.00112232
.02597	293.15	.30124	.00120496
.0285	293.15	.31603	.00126412
.03091	293.15	.32859	.00131436
.0332	293.15	.34233	.00136932
.03539	293.15	.35423	.00141692
.03749	293.15	.36511	.00146044
.03949	293.15	.37385	.0014954
.0414	293.15	.38361	.00153444
.04323	293.15	.39164	.00156656
.04499	293.15	.40071	.00160284
.04668	293.15	.40812	.00163248
.0483	293.15	.41653	.00166612
.04986	293.15	.42375	.001695
.05136	293.15	.43024	.00172096
.05281	293.15	.43596	.00174384
.0542	293.15	.4419	.0017676
.05554	293.15	.44843	.00179372
.05683	293.15	.45328	.00181312
.05808	293.15	.45866	.00183464
.05929	293.15	.46415	.0018566
.06045	293.15	.46888	.00187552
.06158	293.15	.47327	.00189308
.06267	293.15	.4778	.0019112
.00394	298.15	.04358	.00017432
.00765	298.15	.11521	.00046084
.01115	298.15	.17068	.00068272
.01445	298.15	.21747	.00086988
.01541	298.15	.23025	.000921
.01634	298.15	.24251	.00097004
.01727	298.15	.25347	.00101388
.01818	298.15	.26372	.00105488
.01907	298.15	.27375	.001095
.01995	298.15	.28081	.00112324
.02081	298.15	.29025	.001161
.02167	298.15	.29836	.00119344
.0225	298.15	.30599	.00122396
.02333	298.15	.31519	.00126076
.02414	298.15	.32107	.00128428
.02494	298.15	.32835	.0013134
.02573	298.15	.33369	.00133476
.02651	298.15	.33868	.00135472
.02727	298.15	.34432	.00137728
.02802	298.15	.34898	.00139592
.02877	298.15	.35456	.00141824
.0295	298.15	.36004	.00144016
.03022	298.15	.36494	.00145976
.0314	298.15	.37277	.00149108
.03255	298.15	.38198	.00152792
.03367	298.15	.38828	.00155312
.03477	298.15	.39646	.00158584
.03689	298.15	.40843	.00163372
.03892	298.15	.42206	.00168824
.04086	298.15	.43365	.0017346
.04272	298.15	.44351	.00177404
.0445	298.15	.45252	.00181008
.04621	298.15	.4635	.001854
.04785	298.15	.47119	.00188476
.04943	298.15	.4799	.0019196
.05094	298.15	.48898	.00195592
.0524	298.15	.49507	.00198028
.05381	298.15	.50287	.00201148
.05517	298.15	.51033	.00204132
.05648	298.15	.51623	.00206492
.05774	298.15	.52257	.00209028
.00388	303.15	.06075	.000243
.00752	303.15	.13059	.00052236
.01257	303.15	.21806	.00087224
.01415	303.15	.23509	.00094036
.01508	303.15	.25052	.00100208
.01599	303.15	.26534	.00106136
.01688	303.15	.27795	.0011118
.01776	303.15	.28791	.00115164
.01863	303.15	.29862	.00119448
.01948	303.15	.31281	.00125124
.02031	303.15	.32098	.00128392
.02194	303.15	.33723	.00134892
.02274	303.15	.35039	.00140156
.02352	303.15	.3547	.0014188
.02429	303.15	.36465	.0014586
.02505	303.15	.36914	.00147656
.02652	303.15	.38161	.00152644
.02725	303.15	.38673	.00154692
.02796	303.15	.39254	.00157016
.02866	303.15	.39797	.00159188
.02935	303.15	.40461	.00161844
.03003	303.15	.41257	.00165028
.03114	303.15	.41921	.00167684
.03222	303.15	.42772	.00171088
.03327	303.15	.43587	.00174348
.0343	303.15	.44663	.00178652
.03531	303.15	.45169	.00180676
.03629	303.15	.45905	.0018362
.03725	303.15	.46805	.0018722
.03819	303.15	.47388	.00189552
.03911	303.15	.47937	.00191748
.04	303.15	.48589	.00194356
.04174	303.15	.49784	.00199136
.0434	303.15	.51134	.00204536
.04498	303.15	.52108	.00208432
.04651	303.15	.53141	.00212564
.04797	303.15	.54133	.00216532
.04938	303.15	.55128	.00220512
.05073	303.15	.56002	.00224008
.05203	303.15	.5681	.0022724
.05328	303.15	.57594	.00230376
.05448	303.15	.58353	.00233412
.00358	308.15	.06093	.00024372
.00694	308.15	.13841	.00055364
.01011	308.15	.2008	.0008032
.01163	308.15	.23003	.00092012
.01311	308.15	.25515	.0010206
.01539	308.15	.29224	.00116896
.01622	308.15	.30529	.00122116
.01704	308.15	.31658	.00126632
.01784	308.15	.32616	.00130464
.01863	308.15	.33706	.00134824
.01941	308.15	.34823	.00139292
.02017	308.15	.35775	.001431
.02093	308.15	.36745	.0014698
.02167	308.15	.37506	.00150024
.0224	308.15	.38377	.00153508
.02312	308.15	.39131	.00156524
.02383	308.15	.40027	.00160108
.02453	308.15	.40692	.00162768
.02522	308.15	.41606	.00166424
.02589	308.15	.42098	.00168392
.02722	308.15	.4336	.0017344
.02787	308.15	.43653	.00174612
.02851	308.15	.44239	.00176956
.02956	308.15	.45711	.00182844
.03058	308.15	.46207	.00184828
.03158	308.15	.47493	.00189972
.03256	308.15	.47999	.00191996
.03351	308.15	.48899	.00195596
.03536	308.15	.50745	.0020298
.03625	308.15	.51578	.00206312
.03712	308.15	.52226	.00208904
.03798	308.15	.52703	.00210812
.03964	308.15	.541	.002164
.04123	308.15	.55481	.00221924
.04275	308.15	.56707	.00226828
.04422	308.15	.57773	.00231092
.04563	308.15	.58848	.00235392
.04699	308.15	.59864	.00239456
.04829	308.15	.6068	.0024272
.05077	308.15	.62509	.00250036
.05194	308.15	.63225	.002529
.00357	313.15	.06951	.00027804
.00692	313.15	.15171	.00060684
.01009	313.15	.21771	.00087084
.01308	313.15	.26872	.00107488
.01591	313.15	.32623	.00130492
.01726	313.15	.34654	.00138616
.01859	313.15	.36455	.0014582
.01987	313.15	.38591	.00154364
.02113	313.15	.40239	.00160956
.02187	313.15	.41208	.00164832
.02259	313.15	.42477	.00169908
.02331	313.15	.43172	.00172688
.02401	313.15	.43666	.00174664
.02471	313.15	.44414	.00177656
.02539	313.15	.45205	.0018082
.02606	313.15	.45967	.00183868
.02673	313.15	.46697	.00186788
.02803	313.15	.4808	.0019232
.02866	313.15	.48775	.001951
.02929	313.15	.49439	.00197756
.03052	313.15	.5075	.00203
.03112	313.15	.51377	.00205508
.03171	313.15	.52091	.00208364
.0323	313.15	.52664	.00210656
.03326	313.15	.5361	.0021444
.03419	313.15	.54418	.00217672
.03511	313.15	.55354	.00221416
.036	313.15	.56251	.00225004
.03688	313.15	.5732	.0022928
.03774	313.15	.57937	.00231748
.03858	313.15	.58984	.00235936
.0394	313.15	.59558	.00238232
.041	313.15	.61254	.00245016
.04253	313.15	.62574	.00250296
.044	313.15	.63697	.00254788
.04541	313.15	.65124	.00260496
.04678	313.15	.66495	.0026598
.04809	313.15	.6744	.0026976
.04935	313.15	.68378	.00273512
.05057	313.15	.69576	.00278304
.05175	313.15	.70547	.00282188
.00371	318.15	.07542	.00030168
.00722	318.15	.16402	.00065608
.01052	318.15	.24496	.00097984
.01364	318.15	.31429	.00125716
.01659	318.15	.36871	.00147484
.01801	318.15	.38677	.00154708
.01939	318.15	.41675	.001667
.02073	318.15	.43003	.00172012
.02204	318.15	.45461	.00181844
.0228	318.15	.46503	.00186012
.02356	318.15	.4755	.001902
.02431	318.15	.4857	.0019428
.02577	318.15	.50632	.00202528
.02648	318.15	.51334	.00205336
.02718	318.15	.52321	.00209284
.02787	318.15	.53227	.00212908
.02856	318.15	.54074	.00216296
.02923	318.15	.54989	.00219956
.02989	318.15	.55781	.00223124
.03119	318.15	.57319	.00229276
.03245	318.15	.58812	.00235248
.03307	318.15	.59966	.00239864
.03368	318.15	.6044	.0024176
.03428	318.15	.60913	.00243652
.03488	318.15	.61553	.00246212
.03546	318.15	.6234	.0024936
.03604	318.15	.63074	.00252296
.03661	318.15	.63794	.00255176
.03717	318.15	.64343	.00257372
.03828	318.15	.655	.00262
.03918	318.15	.66464	.00265856
.04006	318.15	.67285	.0026914
.04092	318.15	.68101	.00272404
.04176	318.15	.69147	.00276588
.04259	318.15	.69859	.00279436
.04419	318.15	.71429	.00285716
.04573	318.15	.73205	.0029282
.04721	318.15	.74635	.0029854
.04863	318.15	.76028	.00304112
.05001	318.15	.77187	.00308748
.05133	318.15	.78583	.00314332
.00357	323.15	.08471	.00033884
.00693	323.15	.18486	.00073944
.01009	323.15	.24439	.00097756
.01308	323.15	.31574	.00126296
.01591	323.15	.38976	.00155904
.01859	323.15	.43595	.0017438
.02113	323.15	.483	.001932
.02355	323.15	.5236	.0020944
.02585	323.15	.56102	.00224408
.02803	323.15	.58951	.00235804
.02909	323.15	.60825	.002433
.03012	323.15	.62301	.00249204
.03113	323.15	.63929	.00255716
.03211	323.15	.6494	.0025976
.03307	323.15	.66384	.00265536
.03401	323.15	.67717	.00270868
.03512	323.15	.69126	.00276504
.03566	323.15	.69506	.00278024
.03619	323.15	.69934	.00279736
.03671	323.15	.70375	.002815
.03775	323.15	.71711	.00286844
.03825	323.15	.72655	.0029062
.03875	323.15	.73174	.00292696
.03925	323.15	.73543	.00294172
.03973	323.15	.74127	.00296508
.04069	323.15	.75173	.00300692
.04116	323.15	.75658	.00302632
.04162	323.15	.76171	.00304684
.04208	323.15	.76937	.00307748
.04254	323.15	.77366	.00309464
.04328	323.15	.7801	.0031204
.04401	323.15	.78956	.00315824
.04472	323.15	.80002	.00320008
.04542	323.15	.80491	.00321964
.04611	323.15	.81286	.00325144
.04678	323.15	.82109	.00328436
.04745	323.15	.83105	.0033242
.0481	323.15	.8348	.0033392
.04936	323.15	.84794	.00339176
.05058	323.15	.86382	.00345528
.05176	323.15	.87241	.00348964
