Measured thermophysical data. Transport Properties of Some 1-Butyl-3-methylimidazolium Carboxylate Ionic Liquids
Source: J. Chem. Eng. Data, 2015, 10.1021/je500710v
Compound 1: 1-butyl-3-methylimidazolium glycolate, C10H18N2O3
Compound 2: 1-butyl-3-methylimidazolium lactate, C11H20N2O3
Compound 3: 3-butyl-1-methylimidazolium benzoate, C15H20N2O2
Compound 4: 1-butyl-3-methylimidazolium glycine, C10H19N3O2

System: 1-butyl-3-methylimidazolium glycolate; phases: Glass, Liquid, Air at 1 atmosphere
Property: Triple point temperature, K (Glass); method: DSC/DTA
Triple point temperature, K	uncertainty
221	

System: 1-butyl-3-methylimidazolium glycolate; phases: Liquid
Fixed: Pressure, kPa = 101.325
Property: Viscosity, Pa*s (Liquid); method: Capillary tube (Ostwald; Ubbelohde) method
Temperature, K	Viscosity, Pa*s	uncertainty
303.15	.4906	.0304172
313.15	.2271	.0140802
323.15	.1198	.0074276
333.15	.06981	.00432822
343.15	.04413	.00273606

System: 1-butyl-3-methylimidazolium glycolate; phases: Liquid
Fixed: Pressure, kPa = 101.325
Property: Electrical conductivity, S/m (Liquid); method: Wayne-Kerr 6430B Autobalance Bridge
Temperature, K	Electrical conductivity, S/m	uncertainty
303.15	.0586	.0024026
308.15	.085	.003485
313.15	.1183	.0048503
318.15	.1598	.0065518
323.15	.2107	.0086387
328.15	.2737	.0112217
333.15	.3501	.0143541
338.15	.4393	.0180113
343.15	.531	.021771

System: 1-butyl-3-methylimidazolium lactate; phases: Glass, Liquid, Air at 1 atmosphere
Property: Triple point temperature, K (Glass); method: DSC/DTA
Triple point temperature, K	uncertainty
222	

System: 1-butyl-3-methylimidazolium lactate; phases: Liquid
Fixed: Pressure, kPa = 101.325
Property: Viscosity, Pa*s (Liquid); method: Capillary tube (Ostwald; Ubbelohde) method
Temperature, K	Viscosity, Pa*s	uncertainty
303.15	.6845	.042439
313.15	.309	.019158
323.15	.1611	.0099882
333.15	.09259	.00574058
343.15	.05878	.00364436

System: 1-butyl-3-methylimidazolium lactate; phases: Liquid
Fixed: Pressure, kPa = 101.325
Property: Electrical conductivity, S/m (Liquid); method: Wayne-Kerr 6430B Autobalance Bridge
Temperature, K	Electrical conductivity, S/m	uncertainty
303.15	.0371	.0015211
308.15	.0543	.0022263
313.15	.0762	.0031242
318.15	.1037	.0042517
323.15	.1376	.0056416
328.15	.1796	.0073636
333.15	.2291	.0093931
338.15	.2881	.0118121
343.15	.3598	.0147518

System: 3-butyl-1-methylimidazolium benzoate; phases: Glass, Liquid, Air at 1 atmosphere
Property: Triple point temperature, K (Glass); method: DSC/DTA
Triple point temperature, K	uncertainty
231	

System: 3-butyl-1-methylimidazolium benzoate; phases: Liquid
Fixed: Pressure, kPa = 101.325
Property: Viscosity, Pa*s (Liquid); method: Capillary tube (Ostwald; Ubbelohde) method
Temperature, K	Viscosity, Pa*s	uncertainty
303.15	1.18	.07316
313.15	.4697	.0291214
323.15	.2268	.0140616
333.15	.1231	.0076322
343.15	.07353	.00455886

System: 3-butyl-1-methylimidazolium benzoate; phases: Liquid
Fixed: Pressure, kPa = 101.325
Property: Electrical conductivity, S/m (Liquid); method: Wayne-Kerr 6430B Autobalance Bridge
Temperature, K	Electrical conductivity, S/m	uncertainty
303.15	.0163	.0006683
308.15	.0252	.0010332
313.15	.0372	.0015252
318.15	.0532	.0021812
323.15	.0736	.0030176
328.15	.1001	.0041041
333.15	.1314	.0053874
338.15	.1682	.0068962
343.15	.2129	.0087289

System: 1-butyl-3-methylimidazolium glycine; phases: Glass, Liquid, Air at 1 atmosphere
Property: Triple point temperature, K (Glass); method: DSC/DTA
Triple point temperature, K	uncertainty
232	

System: 1-butyl-3-methylimidazolium glycine; phases: Liquid
Fixed: Pressure, kPa = 101.325
Property: Viscosity, Pa*s (Liquid); method: Capillary tube (Ostwald; Ubbelohde) method
Temperature, K	Viscosity, Pa*s	uncertainty
303.15	.8626	.0534812
313.15	.412	.025544
323.15	.2172	.0134664
333.15	.126	.007812
343.15	.07824	.00485088

System: 1-butyl-3-methylimidazolium glycine; phases: Liquid
Fixed: Pressure, kPa = 101.325
Property: Electrical conductivity, S/m (Liquid); method: Wayne-Kerr 6430B Autobalance Bridge
Temperature, K	Electrical conductivity, S/m	uncertainty
303.15	.0075	.0003075
308.15	.0122	.0005002
313.15	.0187	.0007667
318.15	.0278	.0011398
323.15	.0403	.0016523
328.15	.0571	.0023411
333.15	.0786	.0032226
338.15	.1065	.0043665
343.15	.1401	.0057441
