Measured thermophysical data. Influence of Different Inorganic Salts on the Ionicity and Thermophysical Properties of 1-Ethyl-3-methylimidazolium Acetate Ionic Liquid
Source: J. Chem. Eng. Data, 2015, 10.1021/je5008857
Compound 1: ammonium acetate, C2H7NO2, purity 98%
Compound 2: ammonium chloride, ClH4N, purity 99.5%
Compound 3: ammonium thiocyanate, CH4N2S, purity 99%
Compound 4: ammonium ethanesulfonate, C2H9NO3S
Compound 5: sodium acetate, C2H3NaO2, purity 99%
Compound 6: sodium thiocyanate, CNNaS, purity 98%
Compound 7: 1-ethyl-3-methylimidazolium acetate, C8H14N2O2, purity 95%

System: 1-ethyl-3-methylimidazolium acetate; phases: Liquid
Property: Mass density, kg/m3 (Liquid); method: Vibrating tube method
Temperature, K	Pressure, kPa	Mass density, kg/m3	uncertainty
298.15	101	1098.3	.3
303.15	101	1095.2	.3
308.15	101	1092.4	.3
313.15	101	1089.4	.3
318.15	101	1086.4	.3
323.15	101	1083.4	.3

System: 1-ethyl-3-methylimidazolium acetate; phases: Liquid
Property: Viscosity, Pa*s (Liquid); method: Concentric cylinders viscometry
Temperature, K	Pressure, kPa	Viscosity, Pa*s	uncertainty
298.15	101	.12625	.0037875
303.15	101	.09362	.0028086
308.15	101	.07126	.0021378
313.15	101	.05552	.0016656
318.15	101	.04415	.0013245
323.15	101	.03574	.0010722

System: 1-ethyl-3-methylimidazolium acetate; phases: Liquid
Property: Electrical conductivity, S/m (Liquid); method: CDM210 radiometer analytical conductivimeter
Temperature, K	Pressure, kPa	Electrical conductivity, S/m	uncertainty
298.15	101	.2875	.002875
303.15	101	.3736	.003736
308.15	101	.473	.00473
313.15	101	.5869	.005869
318.15	101	.7605	.007605
323.15	101	.918	.00918

System: 1-ethyl-3-methylimidazolium acetate; phases: Liquid
Property: Refractive index (Na D-line) (Liquid); method: Standard Abbe refractometry
Temperature, K	Pressure, kPa	Refractive index (Na D-line)	uncertainty
298.15	101	1.49997	.0000449991
303.15	101	1.49867	.0000449601
308.15	101	1.49732	.0000449196
313.15	101	1.49597	.0000448791
318.15	101	1.49465	.0000448395
323.15	101	1.49331	.0000447993

System: ammonium acetate + 1-ethyl-3-methylimidazolium acetate; phases: Liquid
Fixed: Pressure, kPa = 101
Property: Mass density, kg/m3 (Liquid); method: Vibrating tube method
Temperature, K	Mole fraction of ammonium acetate	Mass density, kg/m3	uncertainty
298.15	0	1098.3	.3
298.15	.0503	1098.3	.3
298.15	.0999	1099.1	.3
298.15	.1703	1100.1	.3
298.15	.2498	1100.9	.3
298.15	.328	1101.5	.3
298.15	.4491	1102	.3
303.15	0	1095.2	.3
303.15	.0503	1095.2	.3
303.15	.0999	1096	.3
303.15	.1703	1097	.3
303.15	.2498	1097.7	.3
303.15	.328	1098.3	.3
303.15	.4491	1098.9	.3
308.15	0	1092.4	.3
308.15	.0503	1092.1	.3
308.15	.0999	1092.9	.3
308.15	.1703	1093.9	.3
308.15	.2498	1094.6	.3
308.15	.328	1095.1	.3
308.15	.4491	1095.6	.3
313.15	0	1089.4	.3
313.15	.0503	1089.1	.3
313.15	.0999	1089.8	.3
313.15	.1703	1090.8	.3
313.15	.2498	1091.5	.3
313.15	.328	1091.9	.3
313.15	.4491	1092.4	.3
318.15	0	1086.4	.3
318.15	.0503	1086	.3
318.15	.0999	1086.7	.3
318.15	.1703	1087.6	.3
318.15	.2498	1088.3	.3
318.15	.328	1088.8	.3
318.15	.4491	1089.2	.3
323.15	0	1083.4	.3
323.15	.0503	1082.9	.3
323.15	.0999	1083.5	.3
323.15	.1703	1084.5	.3
323.15	.2498	1085.2	.3
323.15	.328	1085.7	.3
323.15	.4491	1086.2	.3

System: ammonium acetate + 1-ethyl-3-methylimidazolium acetate; phases: Liquid
Fixed: Pressure, kPa = 101
Property: Viscosity, Pa*s (Liquid); method: Concentric cylinders viscometry
Temperature, K	Mole fraction of ammonium acetate	Viscosity, Pa*s	uncertainty
298.15	0	.12625	.0037875
298.15	.0503	.15254	.0045762
298.15	.0999	.18589	.0055767
298.15	.1703	.26087	.0078261
298.15	.2498	.38881	.0116643
298.15	.328	.57181	.0171543
298.15	.4491	1.02012	.0306036
303.15	0	.09362	.0028086
303.15	.0503	.11168	.0033504
303.15	.0999	.13468	.0040404
303.15	.1703	.18554	.0055662
303.15	.2498	.27091	.0081273
303.15	.328	.3895	.011685
303.15	.4491	.67261	.0201783
308.15	0	.07126	.0021378
308.15	.0503	.08395	.0025185
308.15	.0999	.10014	.0030042
308.15	.1703	.1355	.004065
308.15	.2498	.19403	.0058209
308.15	.328	.27326	.0081978
308.15	.4491	.4581	.013743
313.15	0	.05552	.0016656
313.15	.0503	.06456	.0019368
313.15	.0999	.07617	.0022851
313.15	.1703	.10126	.0030378
313.15	.2498	.14231	.0042693
313.15	.328	.19662	.0058986
313.15	.4491	.32087	.0096261
318.15	0	.04415	.0013245
318.15	.0503	.05066	.0015198
318.15	.0999	.05909	.0017727
318.15	.1703	.0772	.002316
318.15	.2498	.10656	.0031968
318.15	.328	.14461	.0043383
318.15	.4491	.23031	.0069093
323.15	0	.03574	.0010722
323.15	.0503	.04046	.0012138
323.15	.0999	.04665	.0013995
323.15	.1703	.05989	.0017967
323.15	.2498	.08125	.0024375
323.15	.328	.1084	.003252
323.15	.4491	.16888	.0050664

System: ammonium acetate + 1-ethyl-3-methylimidazolium acetate; phases: Liquid
Fixed: Pressure, kPa = 101
Property: Electrical conductivity, S/m (Liquid); method: CDM210 radiometer analytical conductivimeter
Temperature, K	Mole fraction of ammonium acetate	Electrical conductivity, S/m	uncertainty
298.15	0	.2875	.002875
298.15	.0503	.2553	.002553
298.15	.0999	.2261	.002261
298.15	.1703	.1806	.001806
298.15	.2498	.1458	.001458
298.15	.328	.1136	.001136
298.15	.4491	.0734	.000734
303.15	0	.3736	.003736
303.15	.0503	.3365	.003365
303.15	.0999	.2995	.002995
303.15	.1703	.2425	.002425
303.15	.2498	.1988	.001988
303.15	.328	.158	.00158
303.15	.4491	.1056	.001056
308.15	0	.473	.00473
308.15	.0503	.4309	.004309
308.15	.0999	.3888	.003888
308.15	.1703	.3188	.003188
308.15	.2498	.2656	.002656
308.15	.328	.2151	.002151
308.15	.4491	.1476	.001476
313.15	0	.5869	.005869
313.15	.0503	.5423	.005423
313.15	.0999	.4936	.004936
313.15	.1703	.4103	.004103
313.15	.2498	.3486	.003486
313.15	.328	.2857	.002857
313.15	.4491	.2009	.002009
318.15	0	.7605	.007605
318.15	.0503	.671	.00671
318.15	.0999	.617	.00617
318.15	.1703	.5186	.005186
318.15	.2498	.4486	.004486
318.15	.328	.3706	.003706
318.15	.4491	.2673	.002673
323.15	0	.918	.00918
323.15	.0503	.862	.00862
323.15	.0999	.7965	.007965
323.15	.1703	.641	.00641
323.15	.2498	.5616	.005616
323.15	.328	.4714	.004714
323.15	.4491	.3469	.003469

System: ammonium acetate + 1-ethyl-3-methylimidazolium acetate; phases: Liquid
Fixed: Pressure, kPa = 101
Property: Refractive index (Na D-line) (Liquid); method: Standard Abbe refractometry
Temperature, K	Mole fraction of ammonium acetate	Refractive index (Na D-line)	uncertainty
298.15	0	1.49997	.0000449991
298.15	.0503	1.49884	.0000449652
298.15	.0999	1.49771	.0000449313
298.15	.1703	1.49585	.0000448755
298.15	.2498	1.49365	.0000448095
298.15	.328	1.49099	.0000447297
298.15	.4491	1.48604	.0000445812
303.15	0	1.49867	.0000449601
303.15	.0503	1.4975	.000044925
303.15	.0999	1.49641	.0000448923
303.15	.1703	1.49458	.0000448374
303.15	.2498	1.49235	.0000447705
303.15	.328	1.48971	.0000446913
303.15	.4491	1.48482	.0000445446
308.15	0	1.49732	.0000449196
308.15	.0503	1.49617	.0000448851
308.15	.0999	1.49505	.0000448515
308.15	.1703	1.49322	.0000447966
308.15	.2498	1.49097	.0000447291
308.15	.328	1.48839	.0000446517
308.15	.4491	1.4835	.000044505
313.15	0	1.49597	.0000448791
313.15	.0503	1.49483	.0000448449
313.15	.0999	1.49366	.0000448098
313.15	.1703	1.49182	.0000447546
313.15	.2498	1.48959	.0000446877
313.15	.328	1.487	.00004461
313.15	.4491	1.48217	.0000444651
318.15	0	1.49465	.0000448395
318.15	.0503	1.49344	.0000448032
318.15	.0999	1.49228	.0000447684
318.15	.1703	1.4904	.000044712
318.15	.2498	1.48822	.0000446466
318.15	.328	1.48561	.0000445683
318.15	.4491	1.48081	.0000444243
323.15	0	1.49331	.0000447993
323.15	.0503	1.49205	.0000447615
323.15	.0999	1.49085	.0000447255
323.15	.1703	1.48902	.0000446706
323.15	.2498	1.48677	.0000446031
323.15	.328	1.48419	.0000445257
323.15	.4491	1.47942	.0000443826

System: ammonium chloride + 1-ethyl-3-methylimidazolium acetate; phases: Liquid
Fixed: Pressure, kPa = 101
Property: Mass density, kg/m3 (Liquid); method: Vibrating tube method
Temperature, K	Mole fraction of ammonium chloride	Mass density, kg/m3	uncertainty
298.15	0	1098.3	.3
298.15	.0505	1101.2	.3
298.15	.0999	1104	.3
298.15	.1702	1108.3	.3
298.15	.25	1113.4	.3
298.15	.3297	1118.4	.3
303.15	0	1095.2	.3
303.15	.0505	1098.1	.3
303.15	.0999	1100.8	.3
303.15	.1702	1105.2	.3
303.15	.25	1110.2	.3
303.15	.3297	1115.3	.3
308.15	0	1092.4	.3
308.15	.0505	1095.1	.3
308.15	.0999	1097.8	.3
308.15	.1702	1102	.3
308.15	.25	1107.1	.3
308.15	.3297	1112.2	.3
313.15	0	1089.4	.3
313.15	.0505	1092	.3
313.15	.0999	1094.7	.3
313.15	.1702	1098.9	.3
313.15	.25	1104	.3
313.15	.3297	1109	.3
318.15	0	1086.4	.3
318.15	.0505	1089.1	.3
318.15	.0999	1091.7	.3
318.15	.1702	1095.8	.3
318.15	.25	1100.8	.3
318.15	.3297	1105.9	.3
323.15	0	1083.4	.3
323.15	.0505	1086	.3
323.15	.0999	1088.7	.3
323.15	.1702	1092.7	.3
323.15	.25	1097.7	.3
323.15	.3297	1102.8	.3

System: ammonium chloride + 1-ethyl-3-methylimidazolium acetate; phases: Liquid
Fixed: Pressure, kPa = 101
Property: Viscosity, Pa*s (Liquid); method: Concentric cylinders viscometry
Temperature, K	Mole fraction of ammonium chloride	Viscosity, Pa*s	uncertainty
298.15	0	.12625	.0037875
298.15	.0505	.17174	.0051522
298.15	.0999	.23636	.0070908
298.15	.1702	.40544	.0121632
298.15	.25	.77492	.0232476
298.15	.3297	1.60807	.0482421
303.15	0	.09362	.0028086
303.15	.0505	.12459	.0037377
303.15	.0999	.1678	.005034
303.15	.1702	.27771	.0083313
303.15	.25	.51076	.0153228
303.15	.3297	1.04075	.0312225
308.15	0	.07126	.0021378
308.15	.0505	.09292	.0027876
308.15	.0999	.12256	.0036768
308.15	.1702	.19641	.0058923
308.15	.25	.34845	.0104535
308.15	.3297	.6933	.020799
313.15	0	.05552	.0016656
313.15	.0505	.07098	.0021294
313.15	.0999	.09175	.0027525
313.15	.1702	.14276	.0042828
313.15	.25	.24497	.0073491
313.15	.3297	.47783	.0143349
318.15	0	.04415	.0013245
318.15	.0505	.05536	.0016608
318.15	.0999	.07019	.0021057
318.15	.1702	.1062	.003186
318.15	.25	.17675	.0053025
318.15	.3297	.33915	.0101745
323.15	0	.03574	.0010722
323.15	.0505	.04398	.0013194
323.15	.0999	.05473	.0016419
323.15	.1702	.08062	.0024186
323.15	.25	.13047	.0039141
323.15	.3297	.2464	.007392

System: ammonium chloride + 1-ethyl-3-methylimidazolium acetate; phases: Liquid
Fixed: Pressure, kPa = 101
Property: Electrical conductivity, S/m (Liquid); method: CDM210 radiometer analytical conductivimeter
Temperature, K	Mole fraction of ammonium chloride	Electrical conductivity, S/m	uncertainty
298.15	0	.2875	.002875
298.15	.0505	.2343	.002343
298.15	.0999	.1903	.001903
298.15	.1702	.1385	.001385
298.15	.25	.0911	.000911
298.15	.3297	.0567	.000567
303.15	0	.3736	.003736
303.15	.0505	.3084	.003084
303.15	.0999	.2548	.002548
303.15	.1702	.1921	.001921
303.15	.25	.1295	.001295
303.15	.3297	.0843	.000843
308.15	0	.473	.00473
308.15	.0505	.3977	.003977
308.15	.0999	.3332	.003332
308.15	.1702	.2587	.002587
308.15	.25	.1791	.001791
308.15	.3297	.1214	.001214
313.15	0	.5869	.005869
313.15	.0505	.5013	.005013
313.15	.0999	.4308	.004308
313.15	.1702	.3408	.003408
313.15	.25	.2422	.002422
313.15	.3297	.1693	.001693
318.15	0	.7605	.007605
318.15	.0505	.6218	.006218
318.15	.0999	.5367	.005367
318.15	.1702	.4386	.004386
318.15	.25	.32	.0032
318.15	.3297	.2299	.002299
323.15	0	.918	.00918
323.15	.0505	.7555	.007555
323.15	.0999	.661	.00661
323.15	.1702	.5524	.005524
323.15	.25	.4143	.004143
323.15	.3297	.3055	.003055

System: ammonium chloride + 1-ethyl-3-methylimidazolium acetate; phases: Liquid
Fixed: Pressure, kPa = 101
Property: Refractive index (Na D-line) (Liquid); method: Standard Abbe refractometry
Temperature, K	Mole fraction of ammonium chloride	Refractive index (Na D-line)	uncertainty
298.15	0	1.49997	.0000449991
298.15	.0505	1.50091	.0000450273
298.15	.0999	1.50176	.0000450528
298.15	.1702	1.50278	.0000450834
298.15	.25	1.50385	.0000451155
298.15	.3297	1.50474	.0000451422
303.15	0	1.49867	.0000449601
303.15	.0505	1.49958	.0000449874
303.15	.0999	1.50043	.0000450129
303.15	.1702	1.5015	.000045045
303.15	.25	1.50262	.0000450786
303.15	.3297	1.50345	.0000451035
308.15	0	1.49732	.0000449196
308.15	.0505	1.4982	.000044946
308.15	.0999	1.49904	.0000449712
308.15	.1702	1.50014	.0000450042
308.15	.25	1.50129	.0000450387
308.15	.3297	1.50217	.0000450651
313.15	0	1.49597	.0000448791
313.15	.0505	1.49682	.0000449046
313.15	.0999	1.49765	.0000449295
313.15	.1702	1.49876	.0000449628
313.15	.25	1.49992	.0000449976
313.15	.3297	1.50085	.0000450255
318.15	0	1.49465	.0000448395
318.15	.0505	1.49547	.0000448641
318.15	.0999	1.49627	.0000448881
318.15	.1702	1.49736	.0000449208
318.15	.25	1.49854	.0000449562
318.15	.3297	1.49951	.0000449853
323.15	0	1.49331	.0000447993
323.15	.0505	1.49409	.0000448227
323.15	.0999	1.49489	.0000448467
323.15	.1702	1.49594	.0000448782
323.15	.25	1.49715	.0000449145
323.15	.3297	1.49817	.0000449451

System: ammonium ethanesulfonate + 1-ethyl-3-methylimidazolium acetate; phases: Liquid
Fixed: Pressure, kPa = 101
Property: Mass density, kg/m3 (Liquid); method: Vibrating tube method
Temperature, K	Mole fraction of ammonium ethanesulfonate	Mass density, kg/m3	uncertainty
298.15	0	1098.3	.3
298.15	.05	1105	.3
298.15	.0999	1113.7	.3
298.15	.1701	1124.1	.3
303.15	0	1095.2	.3
303.15	.05	1101.8	.3
303.15	.0999	1110.5	.3
303.15	.1701	1120.8	.3
308.15	0	1092.4	.3
308.15	.05	1098.7	.3
308.15	.0999	1107.3	.3
308.15	.1701	1117.6	.3
313.15	0	1089.4	.3
313.15	.05	1095.6	.3
313.15	.0999	1104.2	.3
313.15	.1701	1114.4	.3
318.15	0	1086.4	.3
318.15	.05	1092.5	.3
318.15	.0999	1101	.3
318.15	.1701	1111.2	.3
323.15	0	1083.4	.3
323.15	.05	1089.4	.3
323.15	.0999	1097.8	.3
323.15	.1701	1108	.3

System: ammonium ethanesulfonate + 1-ethyl-3-methylimidazolium acetate; phases: Liquid
Fixed: Pressure, kPa = 101
Property: Viscosity, Pa*s (Liquid); method: Concentric cylinders viscometry
Temperature, K	Mole fraction of ammonium ethanesulfonate	Viscosity, Pa*s	uncertainty
298.15	0	.12625	.0037875
298.15	.05	.15719	.0047157
298.15	.0999	.21028	.0063084
298.15	.1701	.29877	.0089631
303.15	0	.09362	.0028086
303.15	.05	.11496	.0034488
303.15	.0999	.1509	.004527
303.15	.1701	.20982	.0062946
308.15	0	.07126	.0021378
308.15	.05	.08626	.0025878
308.15	.0999	.1112	.003336
308.15	.1701	.1515	.004545
313.15	0	.05552	.0016656
313.15	.05	.06619	.0019857
313.15	.0999	.08389	.0025167
313.15	.1701	.11207	.0033621
318.15	0	.04415	.0013245
318.15	.05	.05182	.0015546
318.15	.0999	.0646	.001938
318.15	.1701	.08465	.0025395
323.15	0	.03574	.0010722
323.15	.05	.0413	.001239
323.15	.0999	.05065	.0015195
323.15	.1701	.06514	.0019542

System: ammonium ethanesulfonate + 1-ethyl-3-methylimidazolium acetate; phases: Liquid
Fixed: Pressure, kPa = 101
Property: Electrical conductivity, S/m (Liquid); method: CDM210 radiometer analytical conductivimeter
Temperature, K	Mole fraction of ammonium ethanesulfonate	Electrical conductivity, S/m	uncertainty
298.15	0	.2875	.002875
298.15	.05	.2468	.002468
298.15	.0999	.1996	.001996
298.15	.1701	.1639	.001639
303.15	0	.3736	.003736
303.15	.05	.3232	.003232
303.15	.0999	.2659	.002659
303.15	.1701	.2215	.002215
308.15	0	.473	.00473
308.15	.05	.4151	.004151
308.15	.0999	.3464	.003464
308.15	.1701	.2933	.002933
313.15	0	.5869	.005869
313.15	.05	.5224	.005224
313.15	.0999	.4423	.004423
313.15	.1701	.3804	.003804
318.15	0	.7605	.007605
318.15	.05	.6495	.006495
318.15	.0999	.5529	.005529
318.15	.1701	.4806	.004806
323.15	0	.918	.00918
323.15	.05	.7747	.007747
323.15	.0999	.6688	.006688
323.15	.1701	.5878	.005878

System: ammonium ethanesulfonate + 1-ethyl-3-methylimidazolium acetate; phases: Liquid
Fixed: Pressure, kPa = 101
Property: Refractive index (Na D-line) (Liquid); method: Standard Abbe refractometry
Temperature, K	Mole fraction of ammonium ethanesulfonate	Refractive index (Na D-line)	uncertainty
298.15	0	1.49997	.0000449991
298.15	.05	1.49869	.0000449607
298.15	.0999	1.49756	.0000449268
298.15	.1701	1.49488	.0000448464
303.15	0	1.49867	.0000449601
303.15	.05	1.49735	.0000449205
303.15	.0999	1.49624	.0000448872
303.15	.1701	1.49359	.0000448077
308.15	0	1.49732	.0000449196
308.15	.05	1.49599	.0000448797
308.15	.0999	1.49488	.0000448464
308.15	.1701	1.49223	.0000447669
313.15	0	1.49597	.0000448791
313.15	.05	1.49464	.0000448392
313.15	.0999	1.49346	.0000448038
313.15	.1701	1.49081	.0000447243
318.15	0	1.49465	.0000448395
318.15	.05	1.49325	.0000447975
318.15	.0999	1.49204	.0000447612
318.15	.1701	1.4894	.000044682
323.15	0	1.49331	.0000447993
323.15	.05	1.49184	.0000447552
323.15	.0999	1.4906	.000044718
323.15	.1701	1.48797	.0000446391

System: sodium acetate + 1-ethyl-3-methylimidazolium acetate; phases: Liquid
Fixed: Pressure, kPa = 101
Property: Mass density, kg/m3 (Liquid); method: Vibrating tube method
Temperature, K	Mole fraction of sodium acetate	Mass density, kg/m3	uncertainty
298.15	0	1098.3	.3
298.15	.0501	1104.5	.3
298.15	.1001	1111.2	.3
298.15	.1605	1119.6	.3
303.15	0	1095.2	.3
303.15	.0501	1101.4	.3
303.15	.1001	1108.1	.3
303.15	.1605	1116.4	.3
308.15	0	1092.4	.3
308.15	.0501	1098.3	.3
308.15	.1001	1105	.3
308.15	.1605	1113.3	.3
313.15	0	1089.4	.3
313.15	.0501	1095.5	.3
313.15	.1001	1102.1	.3
313.15	.1605	1110.2	.3
318.15	0	1086.4	.3
318.15	.0501	1092.5	.3
318.15	.1001	1099.1	.3
318.15	.1605	1107.2	.3
323.15	0	1083.4	.3
323.15	.0501	1089.4	.3
323.15	.1001	1096.1	.3
323.15	.1605	1104.1	.3

System: sodium acetate + 1-ethyl-3-methylimidazolium acetate; phases: Liquid
Fixed: Pressure, kPa = 101
Property: Viscosity, Pa*s (Liquid); method: Concentric cylinders viscometry
Temperature, K	Mole fraction of sodium acetate	Viscosity, Pa*s	uncertainty
298.15	0	.12625	.0037875
298.15	.0501	.16047	.0048141
298.15	.1001	.20464	.0061392
298.15	.1605	.2998	.008994
303.15	0	.09362	.0028086
303.15	.0501	.11714	.0035142
303.15	.1001	.1474	.004422
303.15	.1605	.21047	.0063141
308.15	0	.07126	.0021378
308.15	.0501	.08795	.0026385
308.15	.1001	.10928	.0032784
308.15	.1605	.15259	.0045777
313.15	0	.05552	.0016656
313.15	.0501	.06768	.0020304
313.15	.1001	.08311	.0024933
313.15	.1605	.1137	.003411
318.15	0	.04415	.0013245
318.15	.0501	.05318	.0015954
318.15	.1001	.06468	.0019404
318.15	.1605	.0869	.002607
323.15	0	.03574	.0010722
323.15	.0501	.04266	.0012798
323.15	.1001	.05135	.0015405
323.15	.1605	.06789	.0020367

System: sodium acetate + 1-ethyl-3-methylimidazolium acetate; phases: Liquid
Fixed: Pressure, kPa = 101
Property: Electrical conductivity, S/m (Liquid); method: CDM210 radiometer analytical conductivimeter
Temperature, K	Mole fraction of sodium acetate	Electrical conductivity, S/m	uncertainty
298.15	0	.2875	.002875
298.15	.0501	.2318	.002318
298.15	.1001	.1885	.001885
298.15	.1605	.1524	.001524
303.15	0	.3736	.003736
303.15	.0501	.3052	.003052
303.15	.1001	.2519	.002519
303.15	.1605	.2067	.002067
308.15	0	.473	.00473
308.15	.0501	.3917	.003917
308.15	.1001	.3273	.003273
308.15	.1605	.2722	.002722
313.15	0	.5869	.005869
313.15	.0501	.4914	.004914
313.15	.1001	.4158	.004158
313.15	.1605	.3517	.003517
318.15	0	.7605	.007605
318.15	.0501	.6062	.006062
318.15	.1001	.5177	.005177
318.15	.1605	.4419	.004419
323.15	0	.918	.00918
323.15	.0501	.7336	.007336
323.15	.1001	.632	.00632
323.15	.1605	.5367	.005367

System: sodium acetate + 1-ethyl-3-methylimidazolium acetate; phases: Liquid
Fixed: Pressure, kPa = 101
Property: Refractive index (Na D-line) (Liquid); method: Standard Abbe refractometry
Temperature, K	Mole fraction of sodium acetate	Refractive index (Na D-line)	uncertainty
298.15	0	1.49997	.0000449991
298.15	.0501	1.49832	.0000449496
298.15	.1001	1.49654	.0000448962
298.15	.1605	1.49423	.0000448269
303.15	0	1.49867	.0000449601
303.15	.0501	1.497	.00004491
303.15	.1001	1.49525	.0000448575
303.15	.1605	1.49295	.0000447885
308.15	0	1.49732	.0000449196
308.15	.0501	1.49567	.0000448701
308.15	.1001	1.49392	.0000448176
308.15	.1605	1.4916	.000044748
313.15	0	1.49597	.0000448791
313.15	.0501	1.49432	.0000448296
313.15	.1001	1.49258	.0000447774
313.15	.1605	1.49021	.0000447063
318.15	0	1.49465	.0000448395
318.15	.0501	1.49298	.0000447894
318.15	.1001	1.49121	.0000447363
318.15	.1605	1.48887	.0000446661
323.15	0	1.49331	.0000447993
323.15	.0501	1.49163	.0000447489
323.15	.1001	1.4899	.000044697
323.15	.1605	1.48757	.0000446271

System: sodium thiocyanate + 1-ethyl-3-methylimidazolium acetate; phases: Liquid
Fixed: Pressure, kPa = 101
Property: Mass density, kg/m3 (Liquid); method: Vibrating tube method
Temperature, K	Mole fraction of sodium thiocyanate	Mass density, kg/m3	uncertainty
298.15	0	1098.3	.3
298.15	.0502	1105.7	.3
303.15	0	1095.2	.3
303.15	.0502	1102.6	.3
308.15	0	1092.4	.3
308.15	.0502	1099.5	.3
313.15	0	1089.4	.3
313.15	.0502	1096.5	.3
318.15	0	1086.4	.3
318.15	.0502	1093.5	.3
323.15	0	1083.4	.3
323.15	.0502	1090.4	.3

System: sodium thiocyanate + 1-ethyl-3-methylimidazolium acetate; phases: Liquid
Fixed: Pressure, kPa = 101
Property: Viscosity, Pa*s (Liquid); method: Concentric cylinders viscometry
Temperature, K	Mole fraction of sodium thiocyanate	Viscosity, Pa*s	uncertainty
298.15	0	.12625	.0037875
298.15	.0502	.15036	.0045108
303.15	0	.09362	.0028086
303.15	.0502	.11038	.0033114
308.15	0	.07126	.0021378
308.15	.0502	.08331	.0024993
313.15	0	.05552	.0016656
313.15	.0502	.06441	.0019323
318.15	0	.04415	.0013245
318.15	.0502	.05086	.0015258
323.15	0	.03574	.0010722
323.15	.0502	.0409	.001227

System: sodium thiocyanate + 1-ethyl-3-methylimidazolium acetate; phases: Liquid
Fixed: Pressure, kPa = 101
Property: Electrical conductivity, S/m (Liquid); method: CDM210 radiometer analytical conductivimeter
Temperature, K	Mole fraction of sodium thiocyanate	Electrical conductivity, S/m	uncertainty
298.15	0	.2875	.002875
298.15	.0502	.2424	.002424
303.15	0	.3736	.003736
303.15	.0502	.3164	.003164
308.15	0	.473	.00473
308.15	.0502	.4035	.004035
313.15	0	.5869	.005869
313.15	.0502	.5043	.005043
318.15	0	.7605	.007605
318.15	.0502	.6178	.006178
323.15	0	.918	.00918
323.15	.0502	.7342	.007342

System: sodium thiocyanate + 1-ethyl-3-methylimidazolium acetate; phases: Liquid
Fixed: Pressure, kPa = 101
Property: Refractive index (Na D-line) (Liquid); method: Standard Abbe refractometry
Temperature, K	Mole fraction of sodium thiocyanate	Refractive index (Na D-line)	uncertainty
298.15	0	1.49997	.0000449991
298.15	.0502	1.50133	.0000450399
303.15	0	1.49867	.0000449601
303.15	.0502	1.5	.000045
308.15	0	1.49732	.0000449196
308.15	.0502	1.49867	.0000449601
313.15	0	1.49597	.0000448791
313.15	.0502	1.49732	.0000449196
318.15	0	1.49465	.0000448395
318.15	.0502	1.49597	.0000448791
323.15	0	1.49331	.0000447993
323.15	.0502	1.49465	.0000448395
