Measured thermophysical data. Effect of the Temperature and Coordination Atom on the Physicochemical Properties of Chelate-Based Ionic Liquids and Their Binary Mixtures with Water
Source: J. Chem. Eng. Data, 2014, 10.1021/je5004065
Compound 1: (diethanolamine)lithium(I) bis(trifluoromethanesulfonyl)amide, C6H11F6LiN2O6S2
Compound 2: (ethanolamine)lithium(I) bis((trifluoromethyl)sulfonyl)amide, C4H7F6LiN2O5S2
Compound 3: [2,2'-(ethylenedioxy)bis(ethylamine)]lithium(I) bis(trifluoromethanesulfonyl)amide, C8H16F6LiN3O6S2
Compound 4: (N-hydroxyethyl-1,2-ethanediamine)lithium(I) bis(trifluoromethanesulfonyl)amide, C6H12F6LiN3O5S2
Compound 5: water, H2O, purity 99.8%

System: (diethanolamine)lithium(I) bis(trifluoromethanesulfonyl)amide; phases: Liquid
Fixed: Pressure, kPa = 101.325
Property: Mass density, kg/m3 (Liquid); method: Vibrating tube method
Temperature, K	Mass density, kg/m3	uncertainty
313.15	1582.22	.1
318.15	1577.23	.1
323.15	1572.25	.1
328.15	1567.27	.1
333.15	1562.45	.1

System: (diethanolamine)lithium(I) bis(trifluoromethanesulfonyl)amide; phases: Liquid
Fixed: Pressure, kPa = 101.325
Property: Viscosity, Pa*s (Liquid); method: Capillary tube (Ostwald; Ubbelohde) method
Temperature, K	Viscosity, Pa*s	uncertainty
313.15	1.77502	.00001
318.15	1.23503	.00001
323.15	.89501	.00001
328.15	.66701	.00001
333.15	.47101	.00001

System: (ethanolamine)lithium(I) bis((trifluoromethyl)sulfonyl)amide; phases: Liquid
Property: Mass density, kg/m3 (Liquid); method: Vibrating tube method
Pressure, kPa	Temperature, K	Mass density, kg/m3	uncertainty
101	323.15	1647.91	.1

System: (ethanolamine)lithium(I) bis((trifluoromethyl)sulfonyl)amide; phases: Liquid
Property: Viscosity, Pa*s (Liquid); method: Capillary tube (Ostwald; Ubbelohde) method
Pressure, kPa	Temperature, K	Viscosity, Pa*s	uncertainty
101	323.15	1.15676	.00001

System: [2,2'-(ethylenedioxy)bis(ethylamine)]lithium(I) bis(trifluoromethanesulfonyl)amide; phases: Liquid
Property: Mass density, kg/m3 (Liquid); method: Vibrating tube method
Pressure, kPa	Temperature, K	Mass density, kg/m3	uncertainty
101	323.15	1454.11	.1

System: [2,2'-(ethylenedioxy)bis(ethylamine)]lithium(I) bis(trifluoromethanesulfonyl)amide; phases: Liquid
Property: Viscosity, Pa*s (Liquid); method: Capillary tube (Ostwald; Ubbelohde) method
Pressure, kPa	Temperature, K	Viscosity, Pa*s	uncertainty
101	323.15	.10817	.00001

System: (N-hydroxyethyl-1,2-ethanediamine)lithium(I) bis(trifluoromethanesulfonyl)amide; phases: Liquid
Property: Mass density, kg/m3 (Liquid); method: Vibrating tube method
Pressure, kPa	Temperature, K	Mass density, kg/m3	uncertainty
101	323.15	1538.12	.1

System: (N-hydroxyethyl-1,2-ethanediamine)lithium(I) bis(trifluoromethanesulfonyl)amide; phases: Liquid
Property: Viscosity, Pa*s (Liquid); method: Capillary tube (Ostwald; Ubbelohde) method
Pressure, kPa	Temperature, K	Viscosity, Pa*s	uncertainty
101	323.15	.73585	.00001

System: water + [2,2'-(ethylenedioxy)bis(ethylamine)]lithium(I) bis(trifluoromethanesulfonyl)amide; phases: Liquid
Fixed: Pressure, kPa = 101
Fixed: Temperature, K = 323.15
Property: Mass density, kg/m3 (Liquid); method: Vibrating tube method
Mole fraction of [2,2'-(ethylenedioxy)bis(ethylamine)]lithium(I) bis(trifluoromethanesulfonyl)amide	Mass density, kg/m3	uncertainty
0	988.03	.1
.0299	1157.51	.1
.0598	1243.33	.1
.1028	1310.53	.1
.1994	1377.18	.1
.2969	1406.19	.1
.3942	1421.97	.1
.4958	1432.18	.1
.6022	1439.33	.1
.6956	1443.99	.1
.8777	1450.73	.1
1	1454.11	.1

System: water + [2,2'-(ethylenedioxy)bis(ethylamine)]lithium(I) bis(trifluoromethanesulfonyl)amide; phases: Liquid
Fixed: Pressure, kPa = 101
Fixed: Temperature, K = 323.15
Property: Viscosity, Pa*s (Liquid); method: Capillary tube (Ostwald; Ubbelohde) method
Mole fraction of [2,2'-(ethylenedioxy)bis(ethylamine)]lithium(I) bis(trifluoromethanesulfonyl)amide	Viscosity, Pa*s	uncertainty
0	.000549	.00000549
.0299	.00186	.0000186
.0598	.00412	.0000412
.1028	.00892	.0000892
.1994	.02216	.0002216
.2969	.03712	.0003712
.3942	.05268	.0005268
.4958	.0667	.000667
.6022	.07933	.0007933
.6956	.08908	.0008908
.8777	.10378	.0010378
1	.10817	.0010817

System: water + (N-hydroxyethyl-1,2-ethanediamine)lithium(I) bis(trifluoromethanesulfonyl)amide; phases: Liquid
Fixed: Pressure, kPa = 101
Fixed: Temperature, K = 323.15
Property: Mass density, kg/m3 (Liquid); method: Vibrating tube method
Mole fraction of (N-hydroxyethyl-1,2-ethanediamine)lithium(I) bis(trifluoromethanesulfonyl)amide	Mass density, kg/m3	uncertainty
0	988.03	.1
.0304	1166.53	.1
.06	1263.69	.1
.0997	1337.87	.1
.2003	1427.76	.1
.3009	1467.16	.1
.3955	1488.54	.1
.4975	1503.64	.1
.599	1514.94	.1
.7014	1523.83	.1
.8015	1529.81	.1
.8978	1534.25	.1
1	1538.12	.1

System: water + (N-hydroxyethyl-1,2-ethanediamine)lithium(I) bis(trifluoromethanesulfonyl)amide; phases: Liquid
Fixed: Pressure, kPa = 101
Fixed: Temperature, K = 323.15
Property: Viscosity, Pa*s (Liquid); method: Capillary tube (Ostwald; Ubbelohde) method
Mole fraction of (N-hydroxyethyl-1,2-ethanediamine)lithium(I) bis(trifluoromethanesulfonyl)amide	Viscosity, Pa*s	uncertainty
0	.000549	.00000549
.0304	.00163	.0000163
.06	.00361	.0000361
.0997	.00757	.0000757
.2003	.02772	.0002772
.3009	.06511	.0006511
.3955	.1144	.001144
.4975	.18438	.0018438
.599	.27215	.0027215
.7014	.37231	.0037231
.8015	.4868	.004868
.8978	.60527	.0060527
1	.73585	.0073585

System: water + (diethanolamine)lithium(I) bis(trifluoromethanesulfonyl)amide; phases: Liquid
Fixed: Pressure, kPa = 101
Property: Viscosity, Pa*s (Liquid); method: Capillary tube (Ostwald; Ubbelohde) method
Temperature, K	Mole fraction of (diethanolamine)lithium(I) bis(trifluoromethanesulfonyl)amide	Viscosity, Pa*s	uncertainty
313.15	0	.000651	.00000651
313.15	.03	.0023	.000023
313.15	.0601	.00457	.0000457
313.15	.0999	.01316	.0001316
313.15	.1922	.06151	.0006151
313.15	.2941	.15662	.0015662
313.15	.4028	.29915	.0029915
313.15	.4989	.45118	.0045118
313.15	.5999	.62994	.0062994
313.15	.7015	.83553	.0083553
313.15	.803	1.07754	.0107754
313.15	.9011	1.37026	.0137026
313.15	1	1.77502	.0177502
318.15	0	.000599	.00000599
318.15	.03	.00183	.0000183
318.15	.0601	.00378	.0000378
318.15	.0999	.01006	.0001006
318.15	.1922	.04094	.0004094
318.15	.2941	.09853	.0009853
318.15	.4028	.18768	.0018768
318.15	.4989	.28498	.0028498
318.15	.5999	.40808	.0040808
318.15	.7015	.55751	.0055751
318.15	.803	.73671	.0073671
318.15	.9011	.95231	.0095231
318.15	1	1.23503	.0123503
323.15	0	.000549	.00000549
323.15	.03	.00152	.0000152
323.15	.0601	.00328	.0000328
323.15	.0999	.00795	.0000795
323.15	.1922	.02808	.0002808
323.15	.2941	.06524	.0006524
323.15	.4028	.12366	.0012366
323.15	.4989	.19216	.0019216
323.15	.5999	.28108	.0028108
323.15	.7015	.39356	.0039356
323.15	.803	.53001	.0053001
323.15	.9011	.69467	.0069467
323.15	1	.89501	.0089501
328.15	0	.000506	.00000506
328.15	.03	.00132	.0000132
328.15	.0601	.00285	.0000285
328.15	.0999	.00656	.0000656
328.15	.1922	.02079	.0002079
328.15	.2941	.04649	.0004649
328.15	.4028	.08629	.0008629
328.15	.4989	.1351	.001351
328.15	.5999	.20106	.0020106
328.15	.7015	.28758	.0028758
328.15	.803	.39396	.0039396
328.15	.9011	.52028	.0052028
328.15	1	.66701	.0066701
333.15	0	.000469	.00000469
333.15	.03	.00119	.0000119
333.15	.0601	.00247	.0000247
333.15	.0999	.0052	.000052
333.15	.1922	.0153	.000153
333.15	.2941	.03347	.0003347
333.15	.4028	.06046	.0006046
333.15	.4989	.09192	.0009192
333.15	.5999	.13829	.0013829
333.15	.7015	.2015	.002015
333.15	.803	.28145	.0028145
333.15	.9011	.37231	.0037231
333.15	1	.47101	.0047101

System: water + (diethanolamine)lithium(I) bis(trifluoromethanesulfonyl)amide; phases: Liquid
Fixed: Pressure, kPa = 101
Property: Mass density, kg/m3 (Liquid); method: Vibrating tube method
Temperature, K	Mole fraction of (diethanolamine)lithium(I) bis(trifluoromethanesulfonyl)amide	Mass density, kg/m3	uncertainty
313.15	0	992.21	.1
313.15	.03	1177.69	.1
313.15	.0601	1280.1	.1
313.15	.0999	1361.17	.1
313.15	.1922	1454.94	.1
313.15	.2941	1501.57	.1
313.15	.4028	1528.79	.1
313.15	.4989	1544.47	.1
313.15	.5999	1556.6	.1
313.15	.7015	1566.07	.1
313.15	.803	1573.28	.1
313.15	.9011	1578.28	.1
313.15	1	1582.22	.1
318.15	0	990.21	.1
318.15	.03	1174.03	.1
318.15	.0601	1275.94	.1
318.15	.0999	1356.61	.1
318.15	.1922	1450	.1
318.15	.2941	1496.6	.1
318.15	.4028	1523.82	.1
318.15	.4989	1539.46	.1
318.15	.5999	1551.53	.1
318.15	.7015	1561.08	.1
318.15	.803	1568.3	.1
318.15	.9011	1573.31	.1
318.15	1	1577.23	.1
323.15	0	988.03	.1
323.15	.03	1170.26	.1
323.15	.0601	1271.52	.1
323.15	.0999	1352.01	.1
323.15	.1922	1445.14	.1
323.15	.2941	1491.61	.1
323.15	.4028	1518.81	.1
323.15	.4989	1534.38	.1
323.15	.5999	1546.54	.1
323.15	.7015	1556.1	.1
323.15	.803	1563.3	.1
323.15	.9011	1568.34	.1
323.15	1	1572.25	.1
328.15	0	985.69	.1
328.15	.03	1166.7	.1
328.15	.0601	1267.44	.1
328.15	.0999	1347.38	.1
328.15	.1922	1440.21	.1
328.15	.2941	1486.63	.1
328.15	.4028	1513.85	.1
328.15	.4989	1529.36	.1
328.15	.5999	1541.51	.1
328.15	.7015	1551.1	.1
328.15	.803	1558.32	.1
328.15	.9011	1563.37	.1
328.15	1	1567.27	.1
333.15	0	983.2	.1
333.15	.03	1163.06	.1
333.15	.0601	1263.11	.1
333.15	.0999	1342.71	.1
333.15	.1922	1435.47	.1
333.15	.2941	1481.69	.1
333.15	.4028	1508.88	.1
333.15	.4989	1524.4	.1
333.15	.5999	1536.63	.1
333.15	.7015	1546.18	.1
333.15	.803	1553.49	.1
333.15	.9011	1558.56	.1
333.15	1	1562.45	.1

System: water + (ethanolamine)lithium(I) bis((trifluoromethyl)sulfonyl)amide; phases: Liquid
Fixed: Pressure, kPa = 101
Fixed: Temperature, K = 323.15
Property: Mass density, kg/m3 (Liquid); method: Vibrating tube method
Mole fraction of (ethanolamine)lithium(I) bis((trifluoromethyl)sulfonyl)amide	Mass density, kg/m3	uncertainty
0	988.03	.1
.03	1169.13	.1
.0597	1275.98	.1
.1001	1367.28	.1
.1995	1484.09	.1
.298	1539.77	.1
.4016	1574.55	.1
.4908	1594.73	.1
.6602	1621.05	.1
.8109	1636.09	.1
.8996	1642.53	.1
1	1647.91	.1

System: water + (ethanolamine)lithium(I) bis((trifluoromethyl)sulfonyl)amide; phases: Liquid
Fixed: Pressure, kPa = 101
Fixed: Temperature, K = 323.15
Property: Viscosity, Pa*s (Liquid); method: Capillary tube (Ostwald; Ubbelohde) method
Mole fraction of (ethanolamine)lithium(I) bis((trifluoromethyl)sulfonyl)amide	Viscosity, Pa*s	uncertainty
0	.000549	.00000549
.03	.0012	.000012
.0597	.0021	.000021
.1001	.00372	.0000372
.1995	.00833	.0000833
.298	.02319	.0002319
.4016	.05622	.0005622
.4908	.10352	.0010352
.6602	.25153	.0025153
.8109	.49812	.0049812
.8996	.74164	.0074164
1	1.15676	.0115676
