Measured thermophysical data. Solubility of N-(4-Chlorophenyl)-2-(pyridin-4-ylcarbonyl)hydrazinecarbothioamide (Isoniazid Analogue) in Transcutol + Water Cosolvent Mixtures at (298.15 to 338.15) K
Source: J. Chem. Eng. Data, 2014, 10.1021/je5002522
Compound 1: diethylene glycol, monoethyl ether, C6H14O3, purity 99%
Compound 2: N-(4-chlorophenyl)-2-(pyridin-4-ylcarbonyl)hydrazinecarbothioamide, C13H11ClN4OS, purity 99%
Compound 3: water, H2O, purity 99.9%

System: diethylene glycol, monoethyl ether + water + N-(4-chlorophenyl)-2-(pyridin-4-ylcarbonyl)hydrazinecarbothioamide; phases: Liquid, Crystal
Fixed: Pressure, kPa = 100
Property: Mole fraction of N-(4-chlorophenyl)-2-(pyridin-4-ylcarbonyl)hydrazinecarbothioamide (Liquid); method: UV-vis
Temperature, K	Solvent: Mass fraction of diethylene glycol, monoethyl ether	Mole fraction of N-(4-chlorophenyl)-2-(pyridin-4-ylcarbonyl)hydrazinecarbothioamide	uncertainty
298.15	0	.000000517	.000000009306
298.15	.1	.00000154	.00000002772
298.15	.2	.00000504	.00000009072
298.15	.3	.0000151	.0000002718
298.15	.4	.0000485	.000000873
298.15	.5	.00015	.0000027
298.15	.6	.000456	.000008208
298.15	.7	.00149	.00002682
298.15	.8	.00456	.00008208
298.15	.9	.016	.000288
298.15	1	.0423	.0007614
308.15	0	.000000593	.000000010674
308.15	.1	.00000193	.00000003474
308.15	.2	.00000568	.00000010224
308.15	.3	.000019	.000000342
308.15	.4	.0000566	.0000010188
308.15	.5	.000186	.000003348
308.15	.6	.000525	.00000945
308.15	.7	.00164	.00002952
308.15	.8	.00504	.00009072
308.15	.9	.0173	.0003114
308.15	1	.0468	.0008424
318.15	0	.000000705	.00000001269
318.15	.1	.00000238	.00000004284
318.15	.2	.00000646	.00000011628
318.15	.3	.0000238	.0000004284
318.15	.4	.0000647	.0000011646
318.15	.5	.000227	.000004086
318.15	.6	.000611	.000010998
318.15	.7	.00183	.00003294
318.15	.8	.00555	.0000999
318.15	.9	.0188	.0003384
318.15	1	.0514	.0009252
328.15	0	.000000828	.000000014904
328.15	.1	.00000296	.00000005328
328.15	.2	.00000724	.00000013032
328.15	.3	.0000286	.0000005148
328.15	.4	.0000728	.0000013104
328.15	.5	.000269	.000004842
328.15	.6	.000696	.000012528
328.15	.7	.00202	.00003636
328.15	.8	.00608	.00010944
328.15	.9	.0203	.0003654
328.15	1	.0565	.001017
338.15	0	.000000975	.00000001755
338.15	.1	.00000347	.00000006246
338.15	.2	.0000081	.0000001458
338.15	.3	.0000341	.0000006138
338.15	.4	.0000808	.0000014544
338.15	.5	.00032	.00000576
338.15	.6	.000781	.000014058
338.15	.7	.00226	.00004068
338.15	.8	.00672	.00012096
338.15	.9	.0218	.0003924
338.15	1	.0607	.0010926

System: water + N-(4-chlorophenyl)-2-(pyridin-4-ylcarbonyl)hydrazinecarbothioamide; phases: Liquid, Crystal
Property: Mole fraction of N-(4-chlorophenyl)-2-(pyridin-4-ylcarbonyl)hydrazinecarbothioamide (Liquid); method: UV-vis
Temperature, K	Pressure, kPa	Mole fraction of N-(4-chlorophenyl)-2-(pyridin-4-ylcarbonyl)hydrazinecarbothioamide	uncertainty
298.15	100	.000000517	.000000009306
308.15	100	.000000593	.000000010674
318.15	100	.000000705	.00000001269
328.15	100	.000000828	.000000014904
338.15	100	.000000975	.00000001755

System: diethylene glycol, monoethyl ether + N-(4-chlorophenyl)-2-(pyridin-4-ylcarbonyl)hydrazinecarbothioamide; phases: Liquid, Crystal
Property: Mole fraction of N-(4-chlorophenyl)-2-(pyridin-4-ylcarbonyl)hydrazinecarbothioamide (Liquid); method: UV-vis
Temperature, K	Pressure, kPa	Mole fraction of N-(4-chlorophenyl)-2-(pyridin-4-ylcarbonyl)hydrazinecarbothioamide	uncertainty
298.15	100	.0423	.0007614
308.15	100	.0468	.0008424
318.15	100	.0514	.0009252
328.15	100	.0565	.001017
338.15	100	.0607	.0010926
