Measured thermophysical data. Solubility of 3,3'-(Oxidi-2,1-ethanediyl)bis[1-methyl-imidazolium] Dihexafluorophosphate in Water, Methanol, Ethanol, Acetone, and Acetonitrile and Binary Mixtures (Water + DMF) from (283.00 to 323.00) K
Source: J. Chem. Eng. Data, 2015, 10.1021/je501026m
Compound 1: 1,1'-(oxybis(ethane-2,1-diyl))bis(3-methylimidazolium) hexafluorophosphate, C12H20F12N4OP2, purity 99%
Compound 2: methanol, CH4O, purity 99.7%
Compound 3: ethanol, C2H6O, purity 99.8%
Compound 4: acetone, C3H6O, purity 99.7%
Compound 5: acetonitrile, C2H3N, purity 99.7%
Compound 6: N,N-dimethylformamide, C3H7NO, purity 99.7%
Compound 7: water, H2O, purity 99.8%

System: 1,1'-(oxybis(ethane-2,1-diyl))bis(3-methylimidazolium) hexafluorophosphate; phases: Crystal, Liquid, Air at 1 atmosphere
Property: Normal melting temperature, K (Crystal); method: DSC/DTA
Normal melting temperature, K	uncertainty
371.15	

System: water + 1,1'-(oxybis(ethane-2,1-diyl))bis(3-methylimidazolium) hexafluorophosphate; phases: Liquid, Crystal
Fixed: Pressure, kPa = 101
Property: Mole fraction of 1,1'-(oxybis(ethane-2,1-diyl))bis(3-methylimidazolium) hexafluorophosphate (Liquid); method: gravimetric
Temperature, K	Mole fraction of 1,1'-(oxybis(ethane-2,1-diyl))bis(3-methylimidazolium) hexafluorophosphate	uncertainty
283	.000118	.00000236
288	.000157	.00000314
293	.00021	.0000042
298	.000271	.00000542
303	.000345	.0000069
308	.000446	.00000892
313	.00056	.0000112
318	.000697	.00001394
323	.000865	.0000173

System: methanol + 1,1'-(oxybis(ethane-2,1-diyl))bis(3-methylimidazolium) hexafluorophosphate; phases: Liquid, Crystal
Fixed: Pressure, kPa = 101
Property: Mole fraction of 1,1'-(oxybis(ethane-2,1-diyl))bis(3-methylimidazolium) hexafluorophosphate (Liquid); method: gravimetric
Temperature, K	Mole fraction of 1,1'-(oxybis(ethane-2,1-diyl))bis(3-methylimidazolium) hexafluorophosphate	uncertainty
283	.000171	.00000342
288	.000234	.00000468
293	.000298	.00000596
298	.000376	.00000752
303	.000464	.00000928
308	.000553	.00001106
313	.00064	.0000128
318	.000735	.0000147
323	.000817	.00001634

System: ethanol + 1,1'-(oxybis(ethane-2,1-diyl))bis(3-methylimidazolium) hexafluorophosphate; phases: Liquid, Crystal
Fixed: Pressure, kPa = 101
Property: Mole fraction of 1,1'-(oxybis(ethane-2,1-diyl))bis(3-methylimidazolium) hexafluorophosphate (Liquid); method: gravimetric
Temperature, K	Mole fraction of 1,1'-(oxybis(ethane-2,1-diyl))bis(3-methylimidazolium) hexafluorophosphate	uncertainty
283	.000032	.00000064
288	.000038	.00000076
293	.000047	.00000094
298	.000056	.00000112
303	.000069	.00000138
308	.000082	.00000164
313	.000097	.00000194
318	.000115	.0000023
323	.000136	.00000272

System: acetonitrile + 1,1'-(oxybis(ethane-2,1-diyl))bis(3-methylimidazolium) hexafluorophosphate; phases: Liquid, Crystal
Fixed: Pressure, kPa = 101
Property: Mole fraction of 1,1'-(oxybis(ethane-2,1-diyl))bis(3-methylimidazolium) hexafluorophosphate (Liquid); method: gravimetric
Temperature, K	Mole fraction of 1,1'-(oxybis(ethane-2,1-diyl))bis(3-methylimidazolium) hexafluorophosphate	uncertainty
283	.07256	.0014512
288	.074915	.0014983
293	.077467	.00154934
298	.080245	.0016049
303	.083377	.00166754
308	.086634	.00173268
313	.090081	.00180162
318	.093852	.00187704
323	.097864	.00195728

System: acetone + 1,1'-(oxybis(ethane-2,1-diyl))bis(3-methylimidazolium) hexafluorophosphate; phases: Liquid, Crystal
Fixed: Pressure, kPa = 101
Property: Mole fraction of 1,1'-(oxybis(ethane-2,1-diyl))bis(3-methylimidazolium) hexafluorophosphate (Liquid); method: gravimetric
Temperature, K	Mole fraction of 1,1'-(oxybis(ethane-2,1-diyl))bis(3-methylimidazolium) hexafluorophosphate	uncertainty
283	.059931	.00119862
288	.060967	.00121934
293	.062124	.00124248
298	.063066	.00126132
303	.064114	.00128228
308	.065176	.00130352
313	.066248	.00132496
318	.067311	.00134622
323	.068364	.00136728

System: N,N-dimethylformamide + water + 1,1'-(oxybis(ethane-2,1-diyl))bis(3-methylimidazolium) hexafluorophosphate; phases: Liquid, Crystal
Fixed: Pressure, kPa = 101
Property: Mole fraction of 1,1'-(oxybis(ethane-2,1-diyl))bis(3-methylimidazolium) hexafluorophosphate (Liquid); method: gravimetric
Solvent: Mass fraction of water	Temperature, K	Mole fraction of 1,1'-(oxybis(ethane-2,1-diyl))bis(3-methylimidazolium) hexafluorophosphate	uncertainty
.1	283	.067225	.0013445
.1	308	.077673	.00155346
.1	288	.069219	.00138438
.1	293	.071263	.00142526
.1	298	.073364	.00146728
.1	303	.075497	.00150994
.1	313	.079908	.00159816
.1	318	.082179	.00164358
.1	323	.084487	.00168974
.2	283	.047975	.0009595
.2	288	.050625	.0010125
.2	293	.053395	.0010679
.2	298	.056261	.00112522
.2	303	.059265	.0011853
.2	308	.062389	.00124778
.2	313	.065632	.00131264
.2	318	.069009	.00138018
.2	323	.072503	.00145006
.3	283	.030934	.00061868
.3	288	.032836	.00065672
.3	293	.035285	.0007057
.3	298	.038359	.00076718
.3	303	.042128	.00084256
.3	308	.046718	.00093436
.3	313	.052253	.00104506
.3	318	.058973	.00117946
.3	323	.067085	.0013417
.4	283	.016578	.00033156
.4	288	.019561	.00039122
.4	293	.023089	.00046178
.4	298	.027102	.00054204
.4	303	.031742	.00063484
.4	308	.037061	.00074122
.4	313	.043128	.00086256
.4	318	.050087	.00100174
.4	323	.057984	.00115968
.5	283	.007173	.00014346
.5	288	.009087	.00018174
.5	293	.011598	.00023196
.5	298	.014918	.00029836
.5	303	.019274	.00038548
.5	308	.025065	.0005013
.5	313	.032746	.00065492
.5	318	.043012	.00086024
.5	323	.056726	.00113452
.6	283	.002765	.0000553
.6	288	.003669	.00007338
.6	293	.004941	.00009882
.6	298	.006734	.00013468
.6	303	.009301	.00018602
.6	308	.012993	.00025986
.6	313	.018325	.0003665
.6	318	.026081	.00052162
.6	323	.037459	.00074918
.7	283	.001019	.00002038
.7	288	.001395	.0000279
.7	293	.001915	.0000383
.7	298	.002664	.00005328
.7	303	.003739	.00007478
.7	308	.005292	.00010584
.7	313	.007536	.00015072
.7	318	.010809	.00021618
.7	323	.015585	.0003117
.8	283	.000474	.00000948
.8	288	.000627	.00001254
.8	293	.000855	.0000171
.8	298	.001187	.00002374
.8	303	.001696	.00003392
.8	308	.002465	.0000493
.8	313	.003661	.00007322
.8	318	.005541	.00011082
.8	323	.00853	.0001706
.9	283	.000261	.00000522
.9	288	.000319	.00000638
.9	293	.000398	.00000796
.9	298	.000515	.0000103
.9	303	.000688	.00001376
.9	308	.00094	.0000188
.9	313	.001322	.00002644
.9	318	.001904	.00003808
.9	323	.002802	.00005604
