Measured thermophysical data. Investigation of Surface Properties and Solubility of 1-Vinyl-3-alkyl/Esterimidazolium Halide Ionic Liquids by Density Functional Methods
Source: J. Chem. Eng. Data, 2014, 10.1021/je500205z
Compound 1: 1-vinyl-3-butylimidazolium bromide, C9H15BrN2
Compound 2: 1-vinyl-3-pentylimidazolium bromide, C10H17BrN2
Compound 3: 1-vinyl-3-hexylimidazolium bromide, C11H19BrN2
Compound 4: 1-vinyl-3-octylimidazolium bromide, C13H23BrN2
Compound 5: 1-vinyl-3-decylimidazolium bromide, C15H27BrN2
Compound 6: 1-vinyl-3-butylimidazolium chloride, C9H15ClN2
Compound 7: 3-(2-ethoxy-2-oxoethyl)-1-vinyl-1H-imidazol-3-ium chloride, C9H13ClN2O2
Compound 8: 3-(1-ethoxy-1-oxopropan-2-yl)-1-vinyl-1H-imidazol-3-ium chloride, C10H15ClN2O2
Compound 9: 1-ethenyl-3-octylimidazolium chloride, C13H23ClN2
Compound 10: water, H2O, purity 99.8%
Compound 11: acetone, C3H6O, purity 97%
Compound 12: chloroform, CHCl3, purity 97%
Compound 13: ethanol, C2H6O, purity 97%
Compound 14: benzene, C6H6, purity 97%
Compound 15: carbon tetrachloride, CCl4, purity 97%
Compound 16: methanol, CH4O, purity 97%
Compound 17: ethyl acetate, C4H8O2, purity 97%

System: 1-vinyl-3-pentylimidazolium bromide; phases: Liquid, Air at 1 atmosphere
Property: Surface tension liquid-gas, N/m (Liquid); method: Maximal bubble pressure
Temperature, K	Surface tension liquid-gas, N/m	uncertainty
303.15	.06708	.00005
308.15	.06411	.00005
313.15	.06108	.00005
318.15	.05828	.00005
323.15	.05553	.00005
328.15	.05324	.00005
333.15	.05059	.00005

System: 1-vinyl-3-hexylimidazolium bromide; phases: Liquid, Air at 1 atmosphere
Property: Surface tension liquid-gas, N/m (Liquid); method: Maximal bubble pressure
Temperature, K	Surface tension liquid-gas, N/m	uncertainty
293.15	.06229	.00005
298.15	.05952	.00005
303.15	.05681	.00005
308.15	.05395	.00005
313.15	.05115	.00005
318.15	.04844	.00005
323.15	.04567	.00005
328.15	.04301	.00005
333.15	.0404	.00005

System: 1-vinyl-3-octylimidazolium bromide; phases: Liquid, Air at 1 atmosphere
Property: Surface tension liquid-gas, N/m (Liquid); method: Maximal bubble pressure
Temperature, K	Surface tension liquid-gas, N/m	uncertainty
293.15	.05974	.00005
298.15	.05682	.00005
303.15	.05404	.00005
308.15	.05122	.00005
313.15	.04855	.00005
318.15	.04579	.00005
323.15	.04318	.00005
328.15	.0406	.00005
333.15	.03824	.00005

System: 1-vinyl-3-decylimidazolium bromide; phases: Liquid, Air at 1 atmosphere
Property: Surface tension liquid-gas, N/m (Liquid); method: Maximal bubble pressure
Temperature, K	Surface tension liquid-gas, N/m	uncertainty
293.15	.05348	.00005
298.15	.05063	.00005
303.15	.04776	.00005
308.15	.04456	.00005
313.15	.0418	.00005
318.15	.03903	.00005
323.15	.0362	.00005
328.15	.03377	.00005
333.15	.03204	.00005

System: 3-(1-ethoxy-1-oxopropan-2-yl)-1-vinyl-1H-imidazol-3-ium chloride; phases: Liquid, Air at 1 atmosphere
Property: Surface tension liquid-gas, N/m (Liquid); method: Maximal bubble pressure
Temperature, K	Surface tension liquid-gas, N/m	uncertainty
293.15	.06675	.00005
298.15	.0639	.00005
303.15	.06118	.00005
308.15	.05846	.00005
313.15	.05589	.00005
318.15	.05302	.00005
323.15	.05055	.00005
328.15	.04814	.00005
333.15	.04554	.00005

System: acetone; phases: Liquid, Air at 1 atmosphere
Property: Surface tension liquid-gas, N/m (Liquid); method: Maximal bubble pressure
Temperature, K	Surface tension liquid-gas, N/m	uncertainty
293.15	.0237	

System: chloroform; phases: Liquid, Air at 1 atmosphere
Property: Surface tension liquid-gas, N/m (Liquid); method: Maximal bubble pressure
Temperature, K	Surface tension liquid-gas, N/m	uncertainty
293.15	.02714	

System: ethanol; phases: Liquid, Air at 1 atmosphere
Property: Surface tension liquid-gas, N/m (Liquid); method: Maximal bubble pressure
Temperature, K	Surface tension liquid-gas, N/m	uncertainty
293.15	.02227	

System: benzene; phases: Liquid, Air at 1 atmosphere
Property: Surface tension liquid-gas, N/m (Liquid); method: Maximal bubble pressure
Temperature, K	Surface tension liquid-gas, N/m	uncertainty
293.15	.02818	

System: water + 1-vinyl-3-hexylimidazolium bromide; phases: Liquid, Air at 1 atmosphere
Fixed: Temperature, K = 293.15
Property: Surface tension liquid-gas, N/m (Liquid); method: Maximal bubble pressure
Mass ratio of solute to solvent of 1-vinyl-3-hexylimidazolium bromide	Surface tension liquid-gas, N/m	uncertainty
5.3884	.04687	

System: water + 1-vinyl-3-hexylimidazolium bromide; phases: Liquid mixture 1, Liquid mixture 2
Fixed: Pressure, kPa = 101
Property: Mass ratio of solute to solvent of 1-vinyl-3-hexylimidazolium bromide (Liquid mixture 1); method: electrical conductivity meter DDS-307 (DJS-1C platinum black elctrode)
Temperature, K	Mass ratio of solute to solvent of 1-vinyl-3-hexylimidazolium bromide	uncertainty
293.15	5.3884	.107768

System: acetone + 1-vinyl-3-hexylimidazolium bromide; phases: Liquid, Air at 1 atmosphere
Fixed: Temperature, K = 293.15
Property: Surface tension liquid-gas, N/m (Liquid); method: Maximal bubble pressure
Mass ratio of solute to solvent of 1-vinyl-3-hexylimidazolium bromide	Surface tension liquid-gas, N/m	uncertainty
.64549	.0243	

System: acetone + 1-vinyl-3-hexylimidazolium bromide; phases: Liquid mixture 1, Liquid mixture 2
Fixed: Pressure, kPa = 101
Property: Mass ratio of solute to solvent of 1-vinyl-3-hexylimidazolium bromide (Liquid mixture 1); method: electrical conductivity meter DDS-307 (DJS-1C platinum black elctrode)
Temperature, K	Mass ratio of solute to solvent of 1-vinyl-3-hexylimidazolium bromide	uncertainty
293.15	.64549	.0451843

System: chloroform + 1-vinyl-3-hexylimidazolium bromide; phases: Liquid, Air at 1 atmosphere
Fixed: Temperature, K = 293.15
Property: Surface tension liquid-gas, N/m (Liquid); method: Maximal bubble pressure
Mass ratio of solute to solvent of 1-vinyl-3-hexylimidazolium bromide	Surface tension liquid-gas, N/m	uncertainty
.56815	.02794	

System: chloroform + 1-vinyl-3-hexylimidazolium bromide; phases: Liquid mixture 1, Liquid mixture 2
Fixed: Pressure, kPa = 101
Property: Mass ratio of solute to solvent of 1-vinyl-3-hexylimidazolium bromide (Liquid mixture 1); method: electrical conductivity meter DDS-307 (DJS-1C platinum black elctrode)
Temperature, K	Mass ratio of solute to solvent of 1-vinyl-3-hexylimidazolium bromide	uncertainty
293.15	.56815	.0397705

System: ethanol + 1-vinyl-3-hexylimidazolium bromide; phases: Liquid, Air at 1 atmosphere
Fixed: Temperature, K = 293.15
Property: Surface tension liquid-gas, N/m (Liquid); method: Maximal bubble pressure
Mass ratio of solute to solvent of 1-vinyl-3-hexylimidazolium bromide	Surface tension liquid-gas, N/m	uncertainty
1.74357	.02516	

System: ethanol + 1-vinyl-3-hexylimidazolium bromide; phases: Liquid mixture 1, Liquid mixture 2
Fixed: Pressure, kPa = 101
Property: Mass ratio of solute to solvent of 1-vinyl-3-hexylimidazolium bromide (Liquid mixture 1); method: electrical conductivity meter DDS-307 (DJS-1C platinum black elctrode)
Temperature, K	Mass ratio of solute to solvent of 1-vinyl-3-hexylimidazolium bromide	uncertainty
293.15	1.74357	.0348714

System: benzene + 1-vinyl-3-hexylimidazolium bromide; phases: Liquid, Air at 1 atmosphere
Fixed: Temperature, K = 293.15
Property: Surface tension liquid-gas, N/m (Liquid); method: Maximal bubble pressure
Mass ratio of solute to solvent of 1-vinyl-3-hexylimidazolium bromide	Surface tension liquid-gas, N/m	uncertainty
.02207	.0296	

System: benzene + 1-vinyl-3-hexylimidazolium bromide; phases: Liquid mixture 1, Liquid mixture 2
Fixed: Pressure, kPa = 101
Property: Mass ratio of solute to solvent of 1-vinyl-3-hexylimidazolium bromide (Liquid mixture 1); method: electrical conductivity meter DDS-307 (DJS-1C platinum black elctrode)
Temperature, K	Mass ratio of solute to solvent of 1-vinyl-3-hexylimidazolium bromide	uncertainty
293.15	.02207	.0015449

System: water + 1-vinyl-3-octylimidazolium bromide; phases: Liquid, Air at 1 atmosphere
Fixed: Temperature, K = 293.15
Property: Surface tension liquid-gas, N/m (Liquid); method: Maximal bubble pressure
Mass ratio of solute to solvent of 1-vinyl-3-octylimidazolium bromide	Surface tension liquid-gas, N/m	uncertainty
4.0592	.03886	

System: water + 1-vinyl-3-octylimidazolium bromide; phases: Liquid mixture 1, Liquid mixture 2
Fixed: Pressure, kPa = 101
Property: Mass ratio of solute to solvent of 1-vinyl-3-octylimidazolium bromide (Liquid mixture 1); method: electrical conductivity meter DDS-307 (DJS-1C platinum black elctrode)
Temperature, K	Mass ratio of solute to solvent of 1-vinyl-3-octylimidazolium bromide	uncertainty
293.15	4.0592	.081184

System: acetone + 1-vinyl-3-octylimidazolium bromide; phases: Liquid, Air at 1 atmosphere
Fixed: Temperature, K = 293.15
Property: Surface tension liquid-gas, N/m (Liquid); method: Maximal bubble pressure
Mass ratio of solute to solvent of 1-vinyl-3-octylimidazolium bromide	Surface tension liquid-gas, N/m	uncertainty
.57877	.02394	

System: acetone + 1-vinyl-3-octylimidazolium bromide; phases: Liquid mixture 1, Liquid mixture 2
Fixed: Pressure, kPa = 101
Property: Mass ratio of solute to solvent of 1-vinyl-3-octylimidazolium bromide (Liquid mixture 1); method: electrical conductivity meter DDS-307 (DJS-1C platinum black elctrode)
Temperature, K	Mass ratio of solute to solvent of 1-vinyl-3-octylimidazolium bromide	uncertainty
293.15	.57877	.0405139

System: chloroform + 1-vinyl-3-octylimidazolium bromide; phases: Liquid, Air at 1 atmosphere
Fixed: Temperature, K = 293.15
Property: Surface tension liquid-gas, N/m (Liquid); method: Maximal bubble pressure
Mass ratio of solute to solvent of 1-vinyl-3-octylimidazolium bromide	Surface tension liquid-gas, N/m	uncertainty
.6921	.02779	

System: chloroform + 1-vinyl-3-octylimidazolium bromide; phases: Liquid mixture 1, Liquid mixture 2
Fixed: Pressure, kPa = 101
Property: Mass ratio of solute to solvent of 1-vinyl-3-octylimidazolium bromide (Liquid mixture 1); method: electrical conductivity meter DDS-307 (DJS-1C platinum black elctrode)
Temperature, K	Mass ratio of solute to solvent of 1-vinyl-3-octylimidazolium bromide	uncertainty
293.15	.6921	.048447

System: ethanol + 1-vinyl-3-octylimidazolium bromide; phases: Liquid, Air at 1 atmosphere
Fixed: Temperature, K = 293.15
Property: Surface tension liquid-gas, N/m (Liquid); method: Maximal bubble pressure
Mass ratio of solute to solvent of 1-vinyl-3-octylimidazolium bromide	Surface tension liquid-gas, N/m	uncertainty
1.4974	.02307	

System: ethanol + 1-vinyl-3-octylimidazolium bromide; phases: Liquid mixture 1, Liquid mixture 2
Fixed: Pressure, kPa = 101
Property: Mass ratio of solute to solvent of 1-vinyl-3-octylimidazolium bromide (Liquid mixture 1); method: electrical conductivity meter DDS-307 (DJS-1C platinum black elctrode)
Temperature, K	Mass ratio of solute to solvent of 1-vinyl-3-octylimidazolium bromide	uncertainty
293.15	1.4974	.029948

System: benzene + 1-vinyl-3-octylimidazolium bromide; phases: Liquid, Air at 1 atmosphere
Fixed: Temperature, K = 293.15
Property: Surface tension liquid-gas, N/m (Liquid); method: Maximal bubble pressure
Mass ratio of solute to solvent of 1-vinyl-3-octylimidazolium bromide	Surface tension liquid-gas, N/m	uncertainty
.08467	.02932	

System: benzene + 1-vinyl-3-octylimidazolium bromide; phases: Liquid mixture 1, Liquid mixture 2
Fixed: Pressure, kPa = 101
Property: Mass ratio of solute to solvent of 1-vinyl-3-octylimidazolium bromide (Liquid mixture 1); method: electrical conductivity meter DDS-307 (DJS-1C platinum black elctrode)
Temperature, K	Mass ratio of solute to solvent of 1-vinyl-3-octylimidazolium bromide	uncertainty
293.15	.08467	.0059269

System: water + 1-vinyl-3-decylimidazolium bromide; phases: Liquid, Air at 1 atmosphere
Fixed: Temperature, K = 293.15
Property: Surface tension liquid-gas, N/m (Liquid); method: Maximal bubble pressure
Mass ratio of solute to solvent of 1-vinyl-3-decylimidazolium bromide	Surface tension liquid-gas, N/m	uncertainty
3.26277	.03527	

System: water + 1-vinyl-3-decylimidazolium bromide; phases: Liquid mixture 1, Liquid mixture 2
Fixed: Pressure, kPa = 101
Property: Mass ratio of solute to solvent of 1-vinyl-3-decylimidazolium bromide (Liquid mixture 1); method: electrical conductivity meter DDS-307 (DJS-1C platinum black elctrode)
Temperature, K	Mass ratio of solute to solvent of 1-vinyl-3-decylimidazolium bromide	uncertainty
293.15	3.26277	.0652554

System: acetone + 1-vinyl-3-decylimidazolium bromide; phases: Liquid, Air at 1 atmosphere
Fixed: Temperature, K = 293.15
Property: Surface tension liquid-gas, N/m (Liquid); method: Maximal bubble pressure
Mass ratio of solute to solvent of 1-vinyl-3-decylimidazolium bromide	Surface tension liquid-gas, N/m	uncertainty
.5403	.02339	

System: acetone + 1-vinyl-3-decylimidazolium bromide; phases: Liquid mixture 1, Liquid mixture 2
Fixed: Pressure, kPa = 101
Property: Mass ratio of solute to solvent of 1-vinyl-3-decylimidazolium bromide (Liquid mixture 1); method: electrical conductivity meter DDS-307 (DJS-1C platinum black elctrode)
Temperature, K	Mass ratio of solute to solvent of 1-vinyl-3-decylimidazolium bromide	uncertainty
293.15	.5403	.037821

System: chloroform + 1-vinyl-3-decylimidazolium bromide; phases: Liquid, Air at 1 atmosphere
Fixed: Temperature, K = 293.15
Property: Surface tension liquid-gas, N/m (Liquid); method: Maximal bubble pressure
Mass ratio of solute to solvent of 1-vinyl-3-decylimidazolium bromide	Surface tension liquid-gas, N/m	uncertainty
.76669	.027	

System: chloroform + 1-vinyl-3-decylimidazolium bromide; phases: Liquid mixture 1, Liquid mixture 2
Fixed: Pressure, kPa = 101
Property: Mass ratio of solute to solvent of 1-vinyl-3-decylimidazolium bromide (Liquid mixture 1); method: electrical conductivity meter DDS-307 (DJS-1C platinum black elctrode)
Temperature, K	Mass ratio of solute to solvent of 1-vinyl-3-decylimidazolium bromide	uncertainty
293.15	.76669	.0536683

System: ethanol + 1-vinyl-3-decylimidazolium bromide; phases: Liquid, Air at 1 atmosphere
Fixed: Temperature, K = 293.15
Property: Surface tension liquid-gas, N/m (Liquid); method: Maximal bubble pressure
Mass ratio of solute to solvent of 1-vinyl-3-decylimidazolium bromide	Surface tension liquid-gas, N/m	uncertainty
1.25473	.02227	

System: ethanol + 1-vinyl-3-decylimidazolium bromide; phases: Liquid mixture 1, Liquid mixture 2
Fixed: Pressure, kPa = 101
Property: Mass ratio of solute to solvent of 1-vinyl-3-decylimidazolium bromide (Liquid mixture 1); method: electrical conductivity meter DDS-307 (DJS-1C platinum black elctrode)
Temperature, K	Mass ratio of solute to solvent of 1-vinyl-3-decylimidazolium bromide	uncertainty
293.15	1.2473	.024946

System: benzene + 1-vinyl-3-decylimidazolium bromide; phases: Liquid, Air at 1 atmosphere
Fixed: Temperature, K = 293.15
Property: Surface tension liquid-gas, N/m (Liquid); method: Maximal bubble pressure
Mass ratio of solute to solvent of 1-vinyl-3-decylimidazolium bromide	Surface tension liquid-gas, N/m	uncertainty
.10353	.02908	

System: benzene + 1-vinyl-3-decylimidazolium bromide; phases: Liquid mixture 1, Liquid mixture 2
Fixed: Pressure, kPa = 101
Property: Mass ratio of solute to solvent of 1-vinyl-3-decylimidazolium bromide (Liquid mixture 1); method: electrical conductivity meter DDS-307 (DJS-1C platinum black elctrode)
Temperature, K	Mass ratio of solute to solvent of 1-vinyl-3-decylimidazolium bromide	uncertainty
293.15	.10353	.0072471

System: water + 1-vinyl-3-butylimidazolium bromide; phases: Liquid, Crystal
Fixed: Pressure, kPa = 101
Property: Mass ratio of solute to solvent of 1-vinyl-3-butylimidazolium bromide (Liquid); method: electrical conductivity meter DDS-307 (DJS-1C platinum black electrode)
Temperature, K	Mass ratio of solute to solvent of 1-vinyl-3-butylimidazolium bromide	uncertainty
293.15	6.37321	.1274642

System: methanol + 1-vinyl-3-butylimidazolium bromide; phases: Liquid, Crystal
Fixed: Pressure, kPa = 101
Property: Mass ratio of solute to solvent of 1-vinyl-3-butylimidazolium bromide (Liquid); method: electrical conductivity meter DDS-307 (DJS-1C platinum black electrode)
Temperature, K	Mass ratio of solute to solvent of 1-vinyl-3-butylimidazolium bromide	uncertainty
293.15	4.21854	.0843708

System: ethanol + 1-vinyl-3-butylimidazolium bromide; phases: Liquid, Crystal
Fixed: Pressure, kPa = 101
Property: Mass ratio of solute to solvent of 1-vinyl-3-butylimidazolium bromide (Liquid); method: electrical conductivity meter DDS-307 (DJS-1C platinum black electrode)
Temperature, K	Mass ratio of solute to solvent of 1-vinyl-3-butylimidazolium bromide	uncertainty
293.15	2.04947	.0409894

System: acetone + 1-vinyl-3-butylimidazolium bromide; phases: Liquid, Crystal
Fixed: Pressure, kPa = 101
Property: Mass ratio of solute to solvent of 1-vinyl-3-butylimidazolium bromide (Liquid); method: electrical conductivity meter DDS-307 (DJS-1C platinum black electrode)
Temperature, K	Mass ratio of solute to solvent of 1-vinyl-3-butylimidazolium bromide	uncertainty
293.15	.79549	.0556843

System: ethyl acetate + 1-vinyl-3-butylimidazolium bromide; phases: Liquid, Crystal
Fixed: Pressure, kPa = 101
Property: Mass ratio of solute to solvent of 1-vinyl-3-butylimidazolium bromide (Liquid); method: electrical conductivity meter DDS-307 (DJS-1C platinum black electrode)
Temperature, K	Mass ratio of solute to solvent of 1-vinyl-3-butylimidazolium bromide	uncertainty
293.15	.00001	.0000007

System: chloroform + 1-vinyl-3-butylimidazolium bromide; phases: Liquid, Crystal
Fixed: Pressure, kPa = 101
Property: Mass ratio of solute to solvent of 1-vinyl-3-butylimidazolium bromide (Liquid); method: electrical conductivity meter DDS-307 (DJS-1C platinum black electrode)
Temperature, K	Mass ratio of solute to solvent of 1-vinyl-3-butylimidazolium bromide	uncertainty
293.15	.5027	.035189

System: benzene + 1-vinyl-3-butylimidazolium bromide; phases: Liquid, Crystal
Fixed: Pressure, kPa = 101
Property: Mass ratio of solute to solvent of 1-vinyl-3-butylimidazolium bromide (Liquid); method: electrical conductivity meter DDS-307 (DJS-1C platinum black electrode)
Temperature, K	Mass ratio of solute to solvent of 1-vinyl-3-butylimidazolium bromide	uncertainty
293.15	.0054	.000378

System: water + 1-vinyl-3-pentylimidazolium bromide; phases: Liquid mixture 1, Liquid mixture 2
Fixed: Pressure, kPa = 101
Property: Mass ratio of solute to solvent of 1-vinyl-3-pentylimidazolium bromide (Liquid mixture 1); method: electrical conductivity meter DDS-307 (DJS-1C platinum black electrode)
Temperature, K	Mass ratio of solute to solvent of 1-vinyl-3-pentylimidazolium bromide	uncertainty
293.15	5.87492	.1174984

System: methanol + 1-vinyl-3-pentylimidazolium bromide; phases: Liquid mixture 1, Liquid mixture 2
Fixed: Pressure, kPa = 101
Property: Mass ratio of solute to solvent of 1-vinyl-3-pentylimidazolium bromide (Liquid mixture 1); method: electrical conductivity meter DDS-307 (DJS-1C platinum black electrode)
Temperature, K	Mass ratio of solute to solvent of 1-vinyl-3-pentylimidazolium bromide	uncertainty
293.15	4.03728	.0807456

System: ethanol + 1-vinyl-3-pentylimidazolium bromide; phases: Liquid mixture 1, Liquid mixture 2
Fixed: Pressure, kPa = 101
Property: Mass ratio of solute to solvent of 1-vinyl-3-pentylimidazolium bromide (Liquid mixture 1); method: electrical conductivity meter DDS-307 (DJS-1C platinum black electrode)
Temperature, K	Mass ratio of solute to solvent of 1-vinyl-3-pentylimidazolium bromide	uncertainty
293.15	1.87465	.037493

System: acetone + 1-vinyl-3-pentylimidazolium bromide; phases: Liquid mixture 1, Liquid mixture 2
Fixed: Pressure, kPa = 101
Property: Mass ratio of solute to solvent of 1-vinyl-3-pentylimidazolium bromide (Liquid mixture 1); method: electrical conductivity meter DDS-307 (DJS-1C platinum black electrode)
Temperature, K	Mass ratio of solute to solvent of 1-vinyl-3-pentylimidazolium bromide	uncertainty
293.15	.72371	.0506597

System: ethyl acetate + 1-vinyl-3-pentylimidazolium bromide; phases: Liquid mixture 1, Liquid mixture 2
Fixed: Pressure, kPa = 101
Property: Mass ratio of solute to solvent of 1-vinyl-3-pentylimidazolium bromide (Liquid mixture 1); method: electrical conductivity meter DDS-307 (DJS-1C platinum black electrode)
Temperature, K	Mass ratio of solute to solvent of 1-vinyl-3-pentylimidazolium bromide	uncertainty
293.15	.00095	.0000665

System: chloroform + 1-vinyl-3-pentylimidazolium bromide; phases: Liquid mixture 1, Liquid mixture 2
Fixed: Pressure, kPa = 101
Property: Mass ratio of solute to solvent of 1-vinyl-3-pentylimidazolium bromide (Liquid mixture 1); method: electrical conductivity meter DDS-307 (DJS-1C platinum black electrode)
Temperature, K	Mass ratio of solute to solvent of 1-vinyl-3-pentylimidazolium bromide	uncertainty
293.15	.53101	.0371707

System: benzene + 1-vinyl-3-pentylimidazolium bromide; phases: Liquid mixture 1, Liquid mixture 2
Fixed: Pressure, kPa = 101
Property: Mass ratio of solute to solvent of 1-vinyl-3-pentylimidazolium bromide (Liquid mixture 1); method: electrical conductivity meter DDS-307 (DJS-1C platinum black electrode)
Temperature, K	Mass ratio of solute to solvent of 1-vinyl-3-pentylimidazolium bromide	uncertainty
293.15	.00927	.0006489

System: carbon tetrachloride + 1-vinyl-3-pentylimidazolium bromide; phases: Liquid mixture 1, Liquid mixture 2
Fixed: Pressure, kPa = 101
Property: Mass ratio of solute to solvent of 1-vinyl-3-pentylimidazolium bromide (Liquid mixture 1); method: electrical conductivity meter DDS-307 (DJS-1C platinum black electrode)
Temperature, K	Mass ratio of solute to solvent of 1-vinyl-3-pentylimidazolium bromide	uncertainty
293.15	.00031	.0000217

System: methanol + 1-vinyl-3-hexylimidazolium bromide; phases: Liquid mixture 1, Liquid mixture 2
Fixed: Pressure, kPa = 101
Property: Mass ratio of solute to solvent of 1-vinyl-3-hexylimidazolium bromide (Liquid mixture 1); method: electrical conductivity meter DDS-307 (DJS-1C platinum black elctrode)
Temperature, K	Mass ratio of solute to solvent of 1-vinyl-3-hexylimidazolium bromide	uncertainty
293.15	3.76955	.075391

System: ethyl acetate + 1-vinyl-3-hexylimidazolium bromide; phases: Liquid mixture 1, Liquid mixture 2
Fixed: Pressure, kPa = 101
Property: Mass ratio of solute to solvent of 1-vinyl-3-hexylimidazolium bromide (Liquid mixture 1); method: electrical conductivity meter DDS-307 (DJS-1C platinum black elctrode)
Temperature, K	Mass ratio of solute to solvent of 1-vinyl-3-hexylimidazolium bromide	uncertainty
293.15	.00285	.0001995

System: carbon tetrachloride + 1-vinyl-3-hexylimidazolium bromide; phases: Liquid mixture 1, Liquid mixture 2
Fixed: Pressure, kPa = 101
Property: Mass ratio of solute to solvent of 1-vinyl-3-hexylimidazolium bromide (Liquid mixture 1); method: electrical conductivity meter DDS-307 (DJS-1C platinum black elctrode)
Temperature, K	Mass ratio of solute to solvent of 1-vinyl-3-hexylimidazolium bromide	uncertainty
293.15	.0025	.000175

System: methanol + 1-vinyl-3-octylimidazolium bromide; phases: Liquid mixture 1, Liquid mixture 2
Fixed: Pressure, kPa = 101
Property: Mass ratio of solute to solvent of 1-vinyl-3-octylimidazolium bromide (Liquid mixture 1); method: electrical conductivity meter DDS-307 (DJS-1C platinum black elctrode)
Temperature, K	Mass ratio of solute to solvent of 1-vinyl-3-octylimidazolium bromide	uncertainty
293.15	3.1629	.063258

System: ethyl acetate + 1-vinyl-3-octylimidazolium bromide; phases: Liquid mixture 1, Liquid mixture 2
Fixed: Pressure, kPa = 101
Property: Mass ratio of solute to solvent of 1-vinyl-3-octylimidazolium bromide (Liquid mixture 1); method: electrical conductivity meter DDS-307 (DJS-1C platinum black elctrode)
Temperature, K	Mass ratio of solute to solvent of 1-vinyl-3-octylimidazolium bromide	uncertainty
293.15	.01093	.0007651

System: carbon tetrachloride + 1-vinyl-3-octylimidazolium bromide; phases: Liquid mixture 1, Liquid mixture 2
Fixed: Pressure, kPa = 101
Property: Mass ratio of solute to solvent of 1-vinyl-3-octylimidazolium bromide (Liquid mixture 1); method: electrical conductivity meter DDS-307 (DJS-1C platinum black elctrode)
Temperature, K	Mass ratio of solute to solvent of 1-vinyl-3-octylimidazolium bromide	uncertainty
293.15	.0032	.000224

System: methanol + 1-vinyl-3-decylimidazolium bromide; phases: Liquid mixture 1, Liquid mixture 2
Fixed: Pressure, kPa = 101
Property: Mass ratio of solute to solvent of 1-vinyl-3-decylimidazolium bromide (Liquid mixture 1); method: electrical conductivity meter DDS-307 (DJS-1C platinum black elctrode)
Temperature, K	Mass ratio of solute to solvent of 1-vinyl-3-decylimidazolium bromide	uncertainty
293.15	3.00844	.0601688

System: ethyl acetate + 1-vinyl-3-decylimidazolium bromide; phases: Liquid mixture 1, Liquid mixture 2
Fixed: Pressure, kPa = 101
Property: Mass ratio of solute to solvent of 1-vinyl-3-decylimidazolium bromide (Liquid mixture 1); method: electrical conductivity meter DDS-307 (DJS-1C platinum black elctrode)
Temperature, K	Mass ratio of solute to solvent of 1-vinyl-3-decylimidazolium bromide	uncertainty
293.15	.02649	.0018543

System: carbon tetrachloride + 1-vinyl-3-decylimidazolium bromide; phases: Liquid mixture 1, Liquid mixture 2
Fixed: Pressure, kPa = 101
Property: Mass ratio of solute to solvent of 1-vinyl-3-decylimidazolium bromide (Liquid mixture 1); method: electrical conductivity meter DDS-307 (DJS-1C platinum black elctrode)
Temperature, K	Mass ratio of solute to solvent of 1-vinyl-3-decylimidazolium bromide	uncertainty
293.15	.00626	.0004382

System: water + 1-vinyl-3-butylimidazolium chloride; phases: Liquid, Crystal
Fixed: Pressure, kPa = 101
Property: Mass ratio of solute to solvent of 1-vinyl-3-butylimidazolium chloride (Liquid); method: electrical conductivity meter DDS-307 (DJS-1C platinum black electrode)
Temperature, K	Mass ratio of solute to solvent of 1-vinyl-3-butylimidazolium chloride	uncertainty
293.15	6.62355	.132471

System: methanol + 1-vinyl-3-butylimidazolium chloride; phases: Liquid, Crystal
Fixed: Pressure, kPa = 101
Property: Mass ratio of solute to solvent of 1-vinyl-3-butylimidazolium chloride (Liquid); method: electrical conductivity meter DDS-307 (DJS-1C platinum black electrode)
Temperature, K	Mass ratio of solute to solvent of 1-vinyl-3-butylimidazolium chloride	uncertainty
293.15	4.44586	.0889172

System: ethanol + 1-vinyl-3-butylimidazolium chloride; phases: Liquid, Crystal
Fixed: Pressure, kPa = 101
Property: Mass ratio of solute to solvent of 1-vinyl-3-butylimidazolium chloride (Liquid); method: electrical conductivity meter DDS-307 (DJS-1C platinum black electrode)
Temperature, K	Mass ratio of solute to solvent of 1-vinyl-3-butylimidazolium chloride	uncertainty
293.15	2.12425	.042485

System: acetone + 1-vinyl-3-butylimidazolium chloride; phases: Liquid, Crystal
Fixed: Pressure, kPa = 101
Property: Mass ratio of solute to solvent of 1-vinyl-3-butylimidazolium chloride (Liquid); method: electrical conductivity meter DDS-307 (DJS-1C platinum black electrode)
Temperature, K	Mass ratio of solute to solvent of 1-vinyl-3-butylimidazolium chloride	uncertainty
293.15	.81421	.0569947

System: chloroform + 1-vinyl-3-butylimidazolium chloride; phases: Liquid, Crystal
Fixed: Pressure, kPa = 101
Property: Mass ratio of solute to solvent of 1-vinyl-3-butylimidazolium chloride (Liquid); method: electrical conductivity meter DDS-307 (DJS-1C platinum black electrode)
Temperature, K	Mass ratio of solute to solvent of 1-vinyl-3-butylimidazolium chloride	uncertainty
293.15	.4403	.030821

System: benzene + 1-vinyl-3-butylimidazolium chloride; phases: Liquid, Crystal
Fixed: Pressure, kPa = 101
Property: Mass ratio of solute to solvent of 1-vinyl-3-butylimidazolium chloride (Liquid); method: electrical conductivity meter DDS-307 (DJS-1C platinum black electrode)
Temperature, K	Mass ratio of solute to solvent of 1-vinyl-3-butylimidazolium chloride	uncertainty
293.15	.00153	.0001071

System: water + 3-(2-ethoxy-2-oxoethyl)-1-vinyl-1H-imidazol-3-ium chloride; phases: Liquid, Crystal
Fixed: Pressure, kPa = 101
Property: Mass ratio of solute to solvent of 3-(2-ethoxy-2-oxoethyl)-1-vinyl-1H-imidazol-3-ium chloride (Liquid); method: electrical conductivity meter DDS-307 (DJS-1C platinum black electrode)
Temperature, K	Mass ratio of solute to solvent of 3-(2-ethoxy-2-oxoethyl)-1-vinyl-1H-imidazol-3-ium chloride	uncertainty
293.15	4.69016	.0938032

System: methanol + 3-(2-ethoxy-2-oxoethyl)-1-vinyl-1H-imidazol-3-ium chloride; phases: Liquid, Crystal
Fixed: Pressure, kPa = 101
Property: Mass ratio of solute to solvent of 3-(2-ethoxy-2-oxoethyl)-1-vinyl-1H-imidazol-3-ium chloride (Liquid); method: electrical conductivity meter DDS-307 (DJS-1C platinum black electrode)
Temperature, K	Mass ratio of solute to solvent of 3-(2-ethoxy-2-oxoethyl)-1-vinyl-1H-imidazol-3-ium chloride	uncertainty
293.15	3.74785	.074957

System: ethanol + 3-(2-ethoxy-2-oxoethyl)-1-vinyl-1H-imidazol-3-ium chloride; phases: Liquid, Crystal
Fixed: Pressure, kPa = 101
Property: Mass ratio of solute to solvent of 3-(2-ethoxy-2-oxoethyl)-1-vinyl-1H-imidazol-3-ium chloride (Liquid); method: electrical conductivity meter DDS-307 (DJS-1C platinum black electrode)
Temperature, K	Mass ratio of solute to solvent of 3-(2-ethoxy-2-oxoethyl)-1-vinyl-1H-imidazol-3-ium chloride	uncertainty
293.15	1.74052	.0348104

System: acetone + 3-(2-ethoxy-2-oxoethyl)-1-vinyl-1H-imidazol-3-ium chloride; phases: Liquid, Crystal
Fixed: Pressure, kPa = 101
Property: Mass ratio of solute to solvent of 3-(2-ethoxy-2-oxoethyl)-1-vinyl-1H-imidazol-3-ium chloride (Liquid); method: electrical conductivity meter DDS-307 (DJS-1C platinum black electrode)
Temperature, K	Mass ratio of solute to solvent of 3-(2-ethoxy-2-oxoethyl)-1-vinyl-1H-imidazol-3-ium chloride	uncertainty
293.15	.00912	.0006384

System: chloroform + 3-(2-ethoxy-2-oxoethyl)-1-vinyl-1H-imidazol-3-ium chloride; phases: Liquid, Crystal
Fixed: Pressure, kPa = 101
Property: Mass ratio of solute to solvent of 3-(2-ethoxy-2-oxoethyl)-1-vinyl-1H-imidazol-3-ium chloride (Liquid); method: electrical conductivity meter DDS-307 (DJS-1C platinum black electrode)
Temperature, K	Mass ratio of solute to solvent of 3-(2-ethoxy-2-oxoethyl)-1-vinyl-1H-imidazol-3-ium chloride	uncertainty
293.15	.00172	.0001204

System: benzene + 3-(2-ethoxy-2-oxoethyl)-1-vinyl-1H-imidazol-3-ium chloride; phases: Liquid, Crystal
Fixed: Pressure, kPa = 101
Property: Mass ratio of solute to solvent of 3-(2-ethoxy-2-oxoethyl)-1-vinyl-1H-imidazol-3-ium chloride (Liquid); method: electrical conductivity meter DDS-307 (DJS-1C platinum black electrode)
Temperature, K	Mass ratio of solute to solvent of 3-(2-ethoxy-2-oxoethyl)-1-vinyl-1H-imidazol-3-ium chloride	uncertainty
293.15	.00054	.0000378

System: water + 3-(1-ethoxy-1-oxopropan-2-yl)-1-vinyl-1H-imidazol-3-ium chloride; phases: Liquid mixture 1, Liquid mixture 2
Fixed: Pressure, kPa = 101
Property: Mass ratio of solute to solvent of 3-(1-ethoxy-1-oxopropan-2-yl)-1-vinyl-1H-imidazol-3-ium chloride (Liquid mixture 1); method: electrical conductivity meter DDS-307 (DJS-1C platinum black electrode)
Temperature, K	Mass ratio of solute to solvent of 3-(1-ethoxy-1-oxopropan-2-yl)-1-vinyl-1H-imidazol-3-ium chloride	uncertainty
293.15	3.46725	.069345

System: methanol + 3-(1-ethoxy-1-oxopropan-2-yl)-1-vinyl-1H-imidazol-3-ium chloride; phases: Liquid mixture 1, Liquid mixture 2
Fixed: Pressure, kPa = 101
Property: Mass ratio of solute to solvent of 3-(1-ethoxy-1-oxopropan-2-yl)-1-vinyl-1H-imidazol-3-ium chloride (Liquid mixture 1); method: electrical conductivity meter DDS-307 (DJS-1C platinum black electrode)
Temperature, K	Mass ratio of solute to solvent of 3-(1-ethoxy-1-oxopropan-2-yl)-1-vinyl-1H-imidazol-3-ium chloride	uncertainty
293.15	1.916	.03832

System: ethanol + 3-(1-ethoxy-1-oxopropan-2-yl)-1-vinyl-1H-imidazol-3-ium chloride; phases: Liquid mixture 1, Liquid mixture 2
Fixed: Pressure, kPa = 101
Property: Mass ratio of solute to solvent of 3-(1-ethoxy-1-oxopropan-2-yl)-1-vinyl-1H-imidazol-3-ium chloride (Liquid mixture 1); method: electrical conductivity meter DDS-307 (DJS-1C platinum black electrode)
Temperature, K	Mass ratio of solute to solvent of 3-(1-ethoxy-1-oxopropan-2-yl)-1-vinyl-1H-imidazol-3-ium chloride	uncertainty
293.15	1.26483	.0252966

System: acetone + 3-(1-ethoxy-1-oxopropan-2-yl)-1-vinyl-1H-imidazol-3-ium chloride; phases: Liquid mixture 1, Liquid mixture 2
Fixed: Pressure, kPa = 101
Property: Mass ratio of solute to solvent of 3-(1-ethoxy-1-oxopropan-2-yl)-1-vinyl-1H-imidazol-3-ium chloride (Liquid mixture 1); method: electrical conductivity meter DDS-307 (DJS-1C platinum black electrode)
Temperature, K	Mass ratio of solute to solvent of 3-(1-ethoxy-1-oxopropan-2-yl)-1-vinyl-1H-imidazol-3-ium chloride	uncertainty
293.15	.00879	.0006153

System: ethyl acetate + 3-(1-ethoxy-1-oxopropan-2-yl)-1-vinyl-1H-imidazol-3-ium chloride; phases: Liquid mixture 1, Liquid mixture 2
Fixed: Pressure, kPa = 101
Property: Mass ratio of solute to solvent of 3-(1-ethoxy-1-oxopropan-2-yl)-1-vinyl-1H-imidazol-3-ium chloride (Liquid mixture 1); method: electrical conductivity meter DDS-307 (DJS-1C platinum black electrode)
Temperature, K	Mass ratio of solute to solvent of 3-(1-ethoxy-1-oxopropan-2-yl)-1-vinyl-1H-imidazol-3-ium chloride	uncertainty
293.15	.00081	.0000567

System: chloroform + 3-(1-ethoxy-1-oxopropan-2-yl)-1-vinyl-1H-imidazol-3-ium chloride; phases: Liquid mixture 1, Liquid mixture 2
Fixed: Pressure, kPa = 101
Property: Mass ratio of solute to solvent of 3-(1-ethoxy-1-oxopropan-2-yl)-1-vinyl-1H-imidazol-3-ium chloride (Liquid mixture 1); method: electrical conductivity meter DDS-307 (DJS-1C platinum black electrode)
Temperature, K	Mass ratio of solute to solvent of 3-(1-ethoxy-1-oxopropan-2-yl)-1-vinyl-1H-imidazol-3-ium chloride	uncertainty
293.15	.1157	.008099

System: benzene + 3-(1-ethoxy-1-oxopropan-2-yl)-1-vinyl-1H-imidazol-3-ium chloride; phases: Liquid mixture 1, Liquid mixture 2
Fixed: Pressure, kPa = 101
Property: Mass ratio of solute to solvent of 3-(1-ethoxy-1-oxopropan-2-yl)-1-vinyl-1H-imidazol-3-ium chloride (Liquid mixture 1); method: electrical conductivity meter DDS-307 (DJS-1C platinum black electrode)
Temperature, K	Mass ratio of solute to solvent of 3-(1-ethoxy-1-oxopropan-2-yl)-1-vinyl-1H-imidazol-3-ium chloride	uncertainty
293.15	.0222	.001554

System: carbon tetrachloride + 3-(1-ethoxy-1-oxopropan-2-yl)-1-vinyl-1H-imidazol-3-ium chloride; phases: Liquid mixture 1, Liquid mixture 2
Fixed: Pressure, kPa = 101
Property: Mass ratio of solute to solvent of 3-(1-ethoxy-1-oxopropan-2-yl)-1-vinyl-1H-imidazol-3-ium chloride (Liquid mixture 1); method: electrical conductivity meter DDS-307 (DJS-1C platinum black electrode)
Temperature, K	Mass ratio of solute to solvent of 3-(1-ethoxy-1-oxopropan-2-yl)-1-vinyl-1H-imidazol-3-ium chloride	uncertainty
293.15	.0004	.000028

System: water + 1-ethenyl-3-octylimidazolium chloride; phases: Liquid, Crystal
Fixed: Pressure, kPa = 101
Property: Mass ratio of solute to solvent of 1-ethenyl-3-octylimidazolium chloride (Liquid); method: electrical conductivity meter DDS-307 (DJS-1C platinum black electrode)
Temperature, K	Mass ratio of solute to solvent of 1-ethenyl-3-octylimidazolium chloride	uncertainty
293.15	4.27234	.0854468

System: methanol + 1-ethenyl-3-octylimidazolium chloride; phases: Liquid, Crystal
Fixed: Pressure, kPa = 101
Property: Mass ratio of solute to solvent of 1-ethenyl-3-octylimidazolium chloride (Liquid); method: electrical conductivity meter DDS-307 (DJS-1C platinum black electrode)
Temperature, K	Mass ratio of solute to solvent of 1-ethenyl-3-octylimidazolium chloride	uncertainty
293.15	3.26951	.0653902

System: ethanol + 1-ethenyl-3-octylimidazolium chloride; phases: Liquid, Crystal
Fixed: Pressure, kPa = 101
Property: Mass ratio of solute to solvent of 1-ethenyl-3-octylimidazolium chloride (Liquid); method: electrical conductivity meter DDS-307 (DJS-1C platinum black electrode)
Temperature, K	Mass ratio of solute to solvent of 1-ethenyl-3-octylimidazolium chloride	uncertainty
293.15	1.60327	.0320654

System: acetone + 1-ethenyl-3-octylimidazolium chloride; phases: Liquid, Crystal
Fixed: Pressure, kPa = 101
Property: Mass ratio of solute to solvent of 1-ethenyl-3-octylimidazolium chloride (Liquid); method: electrical conductivity meter DDS-307 (DJS-1C platinum black electrode)
Temperature, K	Mass ratio of solute to solvent of 1-ethenyl-3-octylimidazolium chloride	uncertainty
293.15	.65932	.0461524

System: ethyl acetate + 1-ethenyl-3-octylimidazolium chloride; phases: Liquid, Crystal
Fixed: Pressure, kPa = 101
Property: Mass ratio of solute to solvent of 1-ethenyl-3-octylimidazolium chloride (Liquid); method: electrical conductivity meter DDS-307 (DJS-1C platinum black electrode)
Temperature, K	Mass ratio of solute to solvent of 1-ethenyl-3-octylimidazolium chloride	uncertainty
293.15	.00045	.0000315

System: chloroform + 1-ethenyl-3-octylimidazolium chloride; phases: Liquid, Crystal
Fixed: Pressure, kPa = 101
Property: Mass ratio of solute to solvent of 1-ethenyl-3-octylimidazolium chloride (Liquid); method: electrical conductivity meter DDS-307 (DJS-1C platinum black electrode)
Temperature, K	Mass ratio of solute to solvent of 1-ethenyl-3-octylimidazolium chloride	uncertainty
293.15	.58723	.0411061

System: benzene + 1-ethenyl-3-octylimidazolium chloride; phases: Liquid, Crystal
Fixed: Pressure, kPa = 101
Property: Mass ratio of solute to solvent of 1-ethenyl-3-octylimidazolium chloride (Liquid); method: electrical conductivity meter DDS-307 (DJS-1C platinum black electrode)
Temperature, K	Mass ratio of solute to solvent of 1-ethenyl-3-octylimidazolium chloride	uncertainty
293.15	.06594	.0046158

System: carbon tetrachloride + 1-ethenyl-3-octylimidazolium chloride; phases: Liquid, Crystal
Fixed: Pressure, kPa = 101
Property: Mass ratio of solute to solvent of 1-ethenyl-3-octylimidazolium chloride (Liquid); method: electrical conductivity meter DDS-307 (DJS-1C platinum black electrode)
Temperature, K	Mass ratio of solute to solvent of 1-ethenyl-3-octylimidazolium chloride	uncertainty
293.15	.00102	.0000714
