Measured thermophysical data. Densities and Viscosities of Ternary N,N'-Bis(2-pyridylmethylidene)-1,2-diiminoethane Schiff Base + Imidazolium Based Ionic Liquids + Acetonitrile Solutions at T = (298.15 to 313.15) K
Source: J. Chem. Eng. Data, 2015, 10.1021/je501054c
Compound 1: 1-propyl-3-methylimidazolium bromide, C7H13BrN2
Compound 2: 1-pentyl-3-methylimidazolium bromide, C9H17BrN2
Compound 3: 1-hexyl-3-methylimidazolium bromide, C10H19BrN2
Compound 4: 1-hexyl-3-methylimidazolium chloride, C10H19ClN2
Compound 5: N,N'-bis(2-pyridinylmethylene)-1,2-ethanediamine, C14H14N4
Compound 6: acetonitrile, C2H3N, purity 99.9%

System: acetonitrile; phases: Liquid
Property: Mass density, kg/m3 (Liquid); method: Vibrating tube method
Temperature, K	Pressure, kPa	Mass density, kg/m3	uncertainty
298.15	100	776.65	3.88325
303.15	100	771.43	3.85715
308.15	100	761.45	3.80725
313.15	100	755.36	3.7768
303.15	100	768.14	3.8407
308.15	100	760	3.8
313.15	100	752.55	3.76275
308.15	100	761.4	3.807
313.15	100	752.52	3.7626
308.15	100	763.2	3.816
313.15	100	755.34	3.7767

System: acetonitrile; phases: Liquid
Property: Viscosity, Pa*s (Liquid); method: Capillary tube (Ostwald; Ubbelohde) method
Pressure, kPa	Temperature, K	Viscosity, Pa*s	uncertainty
100	298.15	.000343	.00000343

System: acetonitrile + N,N'-bis(2-pyridinylmethylene)-1,2-ethanediamine + 1-propyl-3-methylimidazolium bromide; phases: Liquid
Fixed: Pressure, kPa = 100
Property: Mass density, kg/m3 (Liquid); method: Vibrating tube method
Solvent: Molality, mol/kg of N,N'-bis(2-pyridinylmethylene)-1,2-ethanediamine	Temperature, K	Molality, mol/kg of 1-propyl-3-methylimidazolium bromide	Mass density, kg/m3	uncertainty
0	298.15	0	776.65	3.88325
0	298.15	.0248	778.67	3.89335
0	298.15	.0423	780.09	3.90045
0	298.15	.0636	781.79	3.90895
0	298.15	.081	783.18	3.9159
0	298.15	.1036	784.95	3.92475
0	298.15	.123	786.44	3.9322
0	298.15	.1437	788.02	3.9401
0	298.15	.1636	789.52	3.9476
0	298.15	.1835	791.02	3.9551
0	298.15	.2042	792.57	3.96285
0	303.15	0	771.43	3.85715
0	303.15	.0248	773.46	3.8673
0	303.15	.0423	774.88	3.8744
0	303.15	.0636	776.59	3.88295
0	303.15	.081	777.98	3.8899
0	303.15	.1036	779.74	3.8987
0	303.15	.123	781.24	3.9062
0	303.15	.1437	782.86	3.9143
0	303.15	.1636	784.35	3.92175
0	303.15	.1835	785.84	3.9292
0	303.15	.2042	787.39	3.93695
0	308.15	0	761.45	3.80725
0	308.15	.0248	763.49	3.81745
0	308.15	.0423	764.92	3.8246
0	308.15	.0636	766.63	3.83315
0	308.15	.081	768.02	3.8401
0	308.15	.1036	769.8	3.849
0	308.15	.123	771.31	3.85655
0	308.15	.1437	772.93	3.86465
0	308.15	.1636	774.44	3.8722
0	308.15	.1835	775.93	3.87965
0	308.15	.2042	777.47	3.88735
0	313.15	0	755.36	3.7768
0	313.15	.0248	757.41	3.78705
0	313.15	.0423	758.84	3.7942
0	313.15	.0636	760.57	3.80285
0	313.15	.081	761.96	3.8098
0	313.15	.1036	763.74	3.8187
0	313.15	.123	765.27	3.82635
0	313.15	.1437	766.87	3.83435
0	313.15	.1636	768.39	3.84195
0	313.15	.1835	769.89	3.84945
0	313.15	.2042	771.44	3.8572
.396	298.15	0	779.08	3.8954
.396	298.15	.0282	781.4	3.907
.396	298.15	.0432	782.63	3.91315
.396	298.15	.0691	784.72	3.9236
.396	298.15	.0866	786.11	3.93055
.396	298.15	.109	787.88	3.9394
.396	298.15	.1215	788.84	3.9442
.396	298.15	.1426	790.46	3.9523
.396	298.15	.1658	792.24	3.9612
.396	298.15	.1808	793.38	3.9669
.396	298.15	.195	794.45	3.97225
.396	303.15	0	773.62	3.8681
.396	303.15	.0282	775.95	3.87975
.396	303.15	.0432	777.17	3.88585
.396	303.15	.0691	779.27	3.89635
.396	303.15	.0866	780.66	3.9033
.396	303.15	.109	782.43	3.91215
.396	303.15	.1215	783.39	3.91695
.396	303.15	.1426	785.03	3.92515
.396	303.15	.1658	786.81	3.93405
.396	303.15	.1808	787.94	3.9397
.396	303.15	.195	789	3.945
.396	308.15	0	766.62	3.8331
.396	308.15	.0282	768.95	3.84475
.396	308.15	.0432	770.18	3.8509
.396	308.15	.0691	772.28	3.8614
.396	308.15	.0866	773.69	3.86845
.396	308.15	.109	775.45	3.87725
.396	308.15	.1215	776.43	3.88215
.396	308.15	.1426	778.07	3.89035
.396	308.15	.1658	779.87	3.89935
.396	308.15	.1808	780.99	3.90495
.396	308.15	.195	782.05	3.91025
.396	313.15	0	760.23	3.80115
.396	313.15	.0282	762.58	3.8129
.396	313.15	.0432	763.81	3.81905
.396	313.15	.0691	765.92	3.8296
.396	313.15	.0866	767.32	3.8366
.396	313.15	.109	769.09	3.84545
.396	313.15	.1215	770.08	3.8504
.396	313.15	.1426	771.72	3.8586
.396	313.15	.1658	773.52	3.8676
.396	313.15	.1808	774.64	3.8732
.396	313.15	.195	775.7	3.8785
.0794	298.15	0	781.36	3.9068
.0794	298.15	.022	783.19	3.91595
.0794	298.15	.051	785.56	3.9278
.0794	298.15	.0638	786.6	3.933
.0794	298.15	.0821	788.06	3.9403
.0794	298.15	.1041	789.8	3.949
.0794	298.15	.1275	791.62	3.9581
.0794	298.15	.1432	792.84	3.9642
.0794	298.15	.1626	794.33	3.97165
.0794	298.15	.1858	796.09	3.98045
.0794	298.15	.2052	797.55	3.98775
.0794	303.15	0	775.79	3.87895
.0794	303.15	.022	777.8	3.889
.0794	303.15	.051	780.18	3.9009
.0794	303.15	.0638	781.22	3.9061
.0794	303.15	.0821	782.69	3.91345
.0794	303.15	.1041	784.44	3.9222
.0794	303.15	.1275	786.26	3.9313
.0794	303.15	.1432	787.48	3.9374
.0794	303.15	.1626	788.96	3.9448
.0794	303.15	.1858	790.73	3.95365
.0794	303.15	.2052	792.18	3.9609
.0794	308.15	0	769.83	3.84915
.0794	308.15	.022	771.67	3.85835
.0794	308.15	.051	774.05	3.87025
.0794	308.15	.0638	775.1	3.8755
.0794	308.15	.0821	776.57	3.88285
.0794	308.15	.1041	778.31	3.89155
.0794	308.15	.1275	780.16	3.9008
.0794	308.15	.1432	781.39	3.90695
.0794	308.15	.1626	782.88	3.9144
.0794	308.15	.1858	784.63	3.92315
.0794	308.15	.2052	786.08	3.9304
.0794	313.15	0	761.42	3.8071
.0794	313.15	.022	763.27	3.81635
.0794	313.15	.051	765.66	3.8283
.0794	313.15	.0638	766.72	3.8336
.0794	313.15	.0821	768.19	3.84095
.0794	313.15	.1041	769.94	3.8497
.0794	313.15	.1275	771.79	3.85895
.0794	313.15	.1432	773.01	3.86505
.0794	313.15	.1626	774.5	3.8725
.0794	313.15	.1858	776.26	3.8813
.0794	313.15	.2052	777.71	3.88855
.1172	298.15	0	783.63	3.91815
.1172	298.15	.02	785.31	3.92655
.1172	298.15	.0415	787.07	3.93535
.1172	298.15	.0649	788.98	3.9449
.1172	298.15	.0826	790.39	3.95195
.1172	298.15	.114	792.89	3.96445
.1172	298.15	.1255	793.79	3.96895
.1172	298.15	.1413	795.02	3.9751
.1172	298.15	.1643	796.77	3.98385
.1172	298.15	.1812	798.05	3.99025
.1172	298.15	.2058	799.88	3.9994
.1172	303.15	0	777.74	3.8887
.1172	303.15	.02	779.42	3.8971
.1172	303.15	.0415	781.19	3.90595
.1172	303.15	.0649	783.12	3.9156
.1172	303.15	.0826	784.53	3.92265
.1172	303.15	.114	787.03	3.93515
.1172	303.15	.1255	787.92	3.9396
.1172	303.15	.1413	789.15	3.94575
.1172	303.15	.1643	790.91	3.95455
.1172	303.15	.1812	792.17	3.96085
.1172	303.15	.2058	794.01	3.97005
.1172	308.15	0	772.75	3.86375
.1172	308.15	.02	774.44	3.8722
.1172	308.15	.0415	776.21	3.88105
.1172	308.15	.0649	778.13	3.89065
.1172	308.15	.0826	779.54	3.8977
.1172	308.15	.114	782.05	3.91025
.1172	308.15	.1255	782.95	3.91475
.1172	308.15	.1413	784.18	3.9209
.1172	308.15	.1643	785.93	3.92965
.1172	308.15	.1812	787.22	3.9361
.1172	308.15	.2058	789.06	3.9453
.1172	313.15	0	767.66	3.8383
.1172	313.15	.02	769.35	3.84675
.1172	313.15	.0415	771.14	3.8557
.1172	313.15	.0649	773.06	3.8653
.1172	313.15	.0826	774.48	3.8724
.1172	313.15	.114	776.98	3.8849
.1172	313.15	.1255	777.88	3.8894
.1172	313.15	.1413	779.11	3.89555
.1172	313.15	.1643	780.87	3.90435
.1172	313.15	.1812	782.15	3.91075
.1172	313.15	.2058	784	3.92
.1539	298.15	0	785.86	3.9293
.1539	298.15	.0217	787.69	3.93845
.1539	298.15	.0447	789.59	3.94795
.1539	298.15	.0597	790.81	3.95405
.1539	298.15	.0833	792.72	3.9636
.1539	298.15	.1018	794.18	3.9709
.1539	298.15	.1273	796.2	3.981
.1539	298.15	.1468	797.72	3.9886
.1539	298.15	.1635	799.01	3.99505
.1539	298.15	.1815	800.37	4.00185
.1539	298.15	.2033	801.99	4.00995
.1539	303.15	0	780.33	3.90165
.1539	303.15	.0217	782.16	3.9108
.1539	303.15	.0447	784.08	3.9204
.1539	303.15	.0597	785.32	3.9266
.1539	303.15	.0833	787.24	3.9362
.1539	303.15	.1018	788.72	3.9436
.1539	303.15	.1273	790.73	3.95365
.1539	303.15	.1468	792.27	3.96135
.1539	303.15	.1635	793.57	3.96785
.1539	303.15	.1815	794.93	3.97465
.1539	303.15	.2033	796.57	3.98285
.1539	308.15	0	775.54	3.8777
.1539	308.15	.0217	777.39	3.88695
.1539	308.15	.0447	779.3	3.8965
.1539	308.15	.0597	780.55	3.90275
.1539	308.15	.0833	782.47	3.91235
.1539	308.15	.1018	783.96	3.9198
.1539	308.15	.1273	786	3.93
.1539	308.15	.1468	787.54	3.9377
.1539	308.15	.1635	788.83	3.94415
.1539	308.15	.1815	790.19	3.95095
.1539	308.15	.2033	791.84	3.9592
.1539	313.15	0	770.79	3.85395
.1539	313.15	.0217	772.64	3.8632
.1539	313.15	.0447	774.57	3.87285
.1539	313.15	.0597	775.82	3.8791
.1539	313.15	.0833	777.76	3.8888
.1539	313.15	.1018	779.25	3.89625
.1539	313.15	.1273	781.28	3.9064
.1539	313.15	.1468	782.81	3.91405
.1539	313.15	.1635	784.1	3.9205
.1539	313.15	.1815	785.47	3.92735
.1539	313.15	.2033	787.11	3.93555

System: acetonitrile + N,N'-bis(2-pyridinylmethylene)-1,2-ethanediamine + 1-propyl-3-methylimidazolium bromide; phases: Liquid
Fixed: Pressure, kPa = 100
Fixed: Temperature, K = 298.15
Property: Viscosity, Pa*s (Liquid); method: Capillary tube (Ostwald; Ubbelohde) method
Solvent: Molality, mol/kg of N,N'-bis(2-pyridinylmethylene)-1,2-ethanediamine	Molality, mol/kg of 1-propyl-3-methylimidazolium bromide	Viscosity, Pa*s	uncertainty
0	0	.000343	.00000343
0	.0251	.0003488	.000003488
0	.0422	.0003525	.000003525
0	.0644	.0003573	.000003573
0	.0816	.0003607	.000003607
0	.1051	.0003633	.000003633
0	.1245	.0003675	.000003675
0	.1461	.0003724	.000003724
0	.1667	.0003771	.000003771
0	.1873	.00038	.0000038
0	.2082	.0003844	.000003844
.0396	0	.0003511	.000003511
.0396	.0281	.0003543	.000003543
.0396	.0433	.0003568	.000003568
.0396	.0694	.0003618	.000003618
.0396	.0878	.000366	.00000366
.0396	.1103	.0003695	.000003695
.0396	.1225	.0003727	.000003727
.0396	.145	.0003758	.000003758
.0396	.1688	.0003809	.000003809
.0396	.1843	.0003846	.000003846
.0396	.1988	.0003862	.000003862
.0794	0	.000367	.00000367
.0794	.022	.0003699	.000003699
.0794	.0513	.0003755	.000003755
.0794	.0644	.0003778	.000003778
.0794	.0827	.0003811	.000003811
.0794	.1051	.0003852	.000003852
.0794	.1286	.0003895	.000003895
.0794	.1451	.0003915	.000003915
.0794	.1657	.0003957	.000003957
.0794	.1895	.0004011	.000004011
.0794	.2093	.0004037	.000004037
.1172	0	.000374	.00000374
.1172	.02	.0003794	.000003794
.1172	.0412	.0003842	.000003842
.1172	.0655	.0003883	.000003883
.1172	.0837	.0003923	.000003923
.1172	.1154	.0003966	.000003966
.1172	.1266	.0003979	.000003979
.1172	.1431	.0004018	.000004018
.1172	.1668	.0004063	.000004063
.1172	.1843	.0004103	.000004103
.1172	.2103	.0004146	.000004146
.1539	0	.000381	.00000381
.1539	.022	.0003866	.000003866
.1539	.0452	.0003907	.000003907
.1539	.0603	.000394	.00000394
.1539	.0837	.0003976	.000003976
.1539	.1031	.0004005	.000004005
.1539	.1286	.0004049	.000004049
.1539	.1493	.0004083	.000004083
.1539	.1667	.0004123	.000004123
.1539	.1844	.0004157	.000004157
.1539	.2072	.0004198	.000004198

System: acetonitrile + N,N'-bis(2-pyridinylmethylene)-1,2-ethanediamine + 1-pentyl-3-methylimidazolium bromide; phases: Liquid
Fixed: Pressure, kPa = 100
Property: Mass density, kg/m3 (Liquid); method: Vibrating tube method
Solvent: Molality, mol/kg of N,N'-bis(2-pyridinylmethylene)-1,2-ethanediamine	Temperature, K	Molality, mol/kg of 1-pentyl-3-methylimidazolium bromide	Mass density, kg/m3	uncertainty
0	298.15	0	776.65	3.88325
0	298.15	.03	779.11	3.89555
0	298.15	.0509	780.82	3.9041
0	298.15	.0721	782.52	3.9126
0	298.15	.1016	784.87	3.92435
0	298.15	.123	786.55	3.93275
0	298.15	.1434	788.15	3.94075
0	298.15	.1628	789.62	3.9481
0	298.15	.1944	792	3.96
0	298.15	.211	793.26	3.9663
0	298.15	.2313	794.76	3.9738
0	303.15	0	768.14	3.8407
0	303.15	.03	770.63	3.85315
0	303.15	.0509	772.34	3.8617
0	303.15	.0721	774.06	3.8703
0	303.15	.1016	776.42	3.8821
0	303.15	.123	778.11	3.89055
0	303.15	.1434	779.71	3.89855
0	303.15	.1628	781.22	3.9061
0	303.15	.1944	783.62	3.9181
0	303.15	.211	784.87	3.92435
0	303.15	.2313	786.39	3.93195
0	308.15	0	760	3.8
0	308.15	.03	762.52	3.8126
0	308.15	.0509	764.26	3.8213
0	308.15	.0721	765.99	3.82995
0	308.15	.1016	768.38	3.8419
0	308.15	.123	770.11	3.85055
0	308.15	.1434	771.7	3.8585
0	308.15	.1628	773.22	3.8661
0	308.15	.1944	775.67	3.87835
0	308.15	.211	776.92	3.8846
0	308.15	.2313	778.44	3.8922
0	313.15	0	752.55	3.76275
0	313.15	.03	755.09	3.77545
0	313.15	.0509	756.83	3.78415
0	313.15	.0721	758.59	3.79295
0	313.15	.1016	760.99	3.80495
0	313.15	.123	762.71	3.81355
0	313.15	.1434	764.33	3.82165
0	313.15	.1628	765.86	3.8293
0	313.15	.1944	768.32	3.8416
0	313.15	.211	769.58	3.8479
0	313.15	.2313	771.12	3.8556
.0397	298.15	0	778.8	3.894
.0397	298.15	.0239	780.78	3.9039
.0397	298.15	.0472	782.7	3.9135
.0397	298.15	.0735	784.83	3.92415
.0397	298.15	.0973	786.73	3.93365
.0397	298.15	.1171	788.28	3.9414
.0397	298.15	.1415	790.18	3.9509
.0397	298.15	.1624	791.79	3.95895
.0397	298.15	.1857	793.56	3.9678
.0397	298.15	.2102	795.41	3.97705
.0397	298.15	.2331	797.1	3.9855
.0397	303.15	0	770.6	3.853
.0397	303.15	.0239	772.6	3.863
.0397	303.15	.0472	774.53	3.87265
.0397	303.15	.0735	776.67	3.88335
.0397	303.15	.0973	778.58	3.8929
.0397	303.15	.1171	780.15	3.90075
.0397	303.15	.1415	782.07	3.91035
.0397	303.15	.1624	783.69	3.91845
.0397	303.15	.1857	785.49	3.92745
.0397	303.15	.2102	787.33	3.93665
.0397	303.15	.2331	789.05	3.94525
.0397	308.15	0	762.7	3.8135
.0397	308.15	.0239	764.71	3.82355
.0397	308.15	.0472	766.65	3.83325
.0397	308.15	.0735	768.81	3.84405
.0397	308.15	.0973	770.73	3.85365
.0397	308.15	.1171	772.32	3.8616
.0397	308.15	.1415	774.25	3.87125
.0397	308.15	.1624	775.88	3.8794
.0397	308.15	.1857	777.69	3.88845
.0397	308.15	.2102	779.56	3.8978
.0397	308.15	.2331	781.28	3.9064
.0397	313.15	0	754.02	3.7701
.0397	313.15	.0239	756.04	3.7802
.0397	313.15	.0472	758	3.79
.0397	313.15	.0735	760.17	3.80085
.0397	313.15	.0973	762.11	3.81055
.0397	313.15	.1171	763.7	3.8185
.0397	313.15	.1415	765.64	3.8282
.0397	313.15	.1624	767.29	3.83645
.0397	313.15	.1857	769.09	3.84545
.0397	313.15	.2102	770.96	3.8548
.0397	313.15	.2331	772.7	3.8635
.076	298.15	0	781.24	3.9062
.076	298.15	.027	783.5	3.9175
.076	298.15	.0472	785.16	3.9258
.076	298.15	.0714	787.13	3.93565
.076	298.15	.0945	788.98	3.9449
.076	298.15	.1169	790.75	3.95375
.076	298.15	.1373	792.34	3.9617
.076	298.15	.1658	794.56	3.9728
.076	298.15	.1879	796.24	3.9812
.076	298.15	.2128	798.09	3.99045
.076	298.15	.2334	799.62	3.9981
.076	303.15	0	772.52	3.8626
.076	303.15	.027	774.79	3.87395
.076	303.15	.0472	776.47	3.88235
.076	303.15	.0714	778.46	3.8923
.076	303.15	.0945	780.34	3.9017
.076	303.15	.1169	782.12	3.9106
.076	303.15	.1373	783.74	3.9187
.076	303.15	.1658	786	3.93
.076	303.15	.1879	787.7	3.9385
.076	303.15	.2128	789.57	3.94785
.076	303.15	.2334	791.12	3.9556
.076	308.15	0	764.1	3.8205
.076	308.15	.027	766.39	3.83195
.076	308.15	.0472	768.08	3.8404
.076	308.15	.0714	770.09	3.85045
.076	308.15	.0945	771.98	3.8599
.076	308.15	.1169	773.79	3.86895
.076	308.15	.1373	775.4	3.877
.076	308.15	.1658	777.69	3.88845
.076	308.15	.1879	779.38	3.8969
.076	308.15	.2128	781.27	3.90635
.076	308.15	.2334	782.83	3.91415
.076	313.15	0	756.48	3.7824
.076	313.15	.027	758.79	3.79395
.076	313.15	.0472	760.48	3.8024
.076	313.15	.0714	762.5	3.8125
.076	313.15	.0945	764.39	3.82195
.076	313.15	.1169	766.22	3.8311
.076	313.15	.1373	767.85	3.83925
.076	313.15	.1658	770.12	3.8506
.076	313.15	.1879	771.85	3.85925
.076	313.15	.2128	773.75	3.86875
.076	313.15	.2334	775.33	3.87665
.1159	298.15	0	783.49	3.91745
.1159	298.15	.0309	786.08	3.9304
.1159	298.15	.0472	787.42	3.9371
.1159	298.15	.0718	789.44	3.9472
.1159	298.15	.0966	791.43	3.95715
.1159	298.15	.1176	793.09	3.96545
.1159	298.15	.1402	794.88	3.9744
.1159	298.15	.1662	796.89	3.98445
.1159	298.15	.1886	798.62	3.9931
.1159	298.15	.2145	800.56	4.0028
.1159	298.15	.2334	801.96	4.0098
.1159	303.15	0	775.25	3.87625
.1159	303.15	.0309	777.86	3.8893
.1159	303.15	.0472	779.21	3.89605
.1159	303.15	.0718	781.24	3.9062
.1159	303.15	.0966	783.24	3.9162
.1159	303.15	.1176	784.93	3.92465
.1159	303.15	.1402	786.71	3.93355
.1159	303.15	.1662	788.75	3.94375
.1159	303.15	.1886	790.45	3.95225
.1159	303.15	.2145	792.38	3.9619
.1159	303.15	.2334	793.79	3.96895
.1159	308.15	0	767.32	3.8366
.1159	308.15	.0309	769.95	3.84975
.1159	308.15	.0472	771.31	3.85655
.1159	308.15	.0718	773.34	3.8667
.1159	308.15	.0966	775.36	3.8768
.1159	308.15	.1176	777.06	3.8853
.1159	308.15	.1402	778.85	3.89425
.1159	308.15	.1662	780.91	3.90455
.1159	308.15	.1886	782.62	3.9131
.1159	308.15	.2145	784.57	3.92285
.1159	308.15	.2334	785.98	3.9299
.1159	313.15	0	759.62	3.7981
.1159	313.15	.0309	762.27	3.81135
.1159	313.15	.0472	763.64	3.8182
.1159	313.15	.0718	765.7	3.8285
.1159	313.15	.0966	767.73	3.83865
.1159	313.15	.1176	769.42	3.8471
.1159	313.15	.1402	771.22	3.8561
.1159	313.15	.1662	773.27	3.86635
.1159	313.15	.1886	775.05	3.87525
.1159	313.15	.2145	777	3.885
.1159	313.15	.2334	778.41	3.89205
.1487	298.15	0	786.71	3.93355
.1487	298.15	.0309	789.31	3.94655
.1487	298.15	.0475	790.69	3.95345
.1487	298.15	.072	792.69	3.96345
.1487	298.15	.0966	794.68	3.9734
.1487	298.15	.1178	796.36	3.9818
.1487	298.15	.1403	798.15	3.99075
.1487	298.15	.1668	800.2	4.001
.1487	298.15	.1886	801.87	4.00935
.1487	298.15	.2144	803.82	4.0191
.1487	298.15	.2332	805.21	4.02605
.1487	303.15	0	778.7	3.8935
.1487	303.15	.0309	781.32	3.9066
.1487	303.15	.0475	782.7	3.9135
.1487	303.15	.072	784.71	3.92355
.1487	303.15	.0966	786.71	3.93355
.1487	303.15	.1178	788.4	3.942
.1487	303.15	.1403	790.2	3.951
.1487	303.15	.1668	792.24	3.9612
.1487	303.15	.1886	793.89	3.96945
.1487	303.15	.2144	795.81	3.97905
.1487	303.15	.2332	797.2	3.986
.1487	308.15	0	769.46	3.8473
.1487	308.15	.0309	772.1	3.8605
.1487	308.15	.0475	773.5	3.8675
.1487	308.15	.072	775.53	3.87765
.1487	308.15	.0966	777.54	3.8877
.1487	308.15	.1178	779.25	3.89625
.1487	308.15	.1403	781.03	3.90515
.1487	308.15	.1668	783.11	3.91555
.1487	308.15	.1886	784.78	3.9239
.1487	308.15	.2144	786.72	3.9336
.1487	308.15	.2332	788.12	3.9406
.1487	313.15	0	761.79	3.80895
.1487	313.15	.0309	764.45	3.82225
.1487	313.15	.0475	765.87	3.82935
.1487	313.15	.072	767.91	3.83955
.1487	313.15	.0966	769.94	3.8497
.1487	313.15	.1178	771.65	3.85825
.1487	313.15	.1403	773.44	3.8672
.1487	313.15	.1668	775.54	3.8777
.1487	313.15	.1886	777.24	3.8862
.1487	313.15	.2144	779.21	3.89605
.1487	313.15	.2332	780.61	3.90305

System: acetonitrile + N,N'-bis(2-pyridinylmethylene)-1,2-ethanediamine + 1-pentyl-3-methylimidazolium bromide; phases: Liquid
Fixed: Pressure, kPa = 100
Fixed: Temperature, K = 298.15
Property: Viscosity, Pa*s (Liquid); method: Capillary tube (Ostwald; Ubbelohde) method
Solvent: Molality, mol/kg of N,N'-bis(2-pyridinylmethylene)-1,2-ethanediamine	Molality, mol/kg of 1-pentyl-3-methylimidazolium bromide	Viscosity, Pa*s	uncertainty
0	0	.000343	.00000343
0	.0301	.0003532	.000003532
0	.0511	.0003605	.000003605
0	.0726	.000366	.00000366
0	.1026	.0003724	.000003724
0	.1245	.0003782	.000003782
0	.1455	.0003814	.000003814
0	.1655	.0003873	.000003873
0	.1983	.0003928	.000003928
0	.2155	.0003975	.000003975
0	.2367	.0004016	.000004016
.0397	0	.000359	.00000359
.0397	.024	.0003647	.000003647
.0397	.0471	.0003696	.000003696
.0397	.0745	.000376	.00000376
.0397	.0978	.000382	.00000382
.0397	.1183	.0003868	.000003868
.0397	.1429	.0003914	.000003914
.0397	.1645	.0003948	.000003948
.0397	.1893	.0003997	.000003997
.0397	.2142	.000405	.00000405
.0397	.2382	.0004092	.000004092
.076	0	.0003695	.000003695
.076	.0271	.0003735	.000003735
.076	.0472	.0003765	.000003765
.076	.0716	.0003836	.000003836
.076	.096	.0003876	.000003876
.076	.1184	.0003908	.000003908
.076	.1389	.0003966	.000003966
.076	.1688	.0004011	.000004011
.076	.1916	.0004056	.000004056
.076	.2176	.0004098	.000004098
.076	.2385	.0004147	.000004147
.1159	0	.000374	.00000374
.1159	.031	.0003826	.000003826
.1159	.0475	.0003852	.000003852
.1159	.0724	.0003899	.000003899
.1159	.0975	.0003952	.000003952
.1159	.1191	.0003978	.000003978
.1159	.1422	.0004019	.000004019
.1159	.169	.0004077	.000004077
.1159	.1922	.0004123	.000004123
.1159	.2191	.0004172	.000004172
.1159	.2388	.0004209	.000004209
.1487	0	.000395	.00000395
.1487	.031	.0003989	.000003989
.1487	.0478	.0004024	.000004024
.1487	.0726	.0004068	.000004068
.1487	.0976	.0004124	.000004124
.1487	.1192	.0004174	.000004174
.1487	.1424	.0004205	.000004205
.1487	.1697	.0004261	.000004261
.1487	.1922	.0004301	.000004301
.1487	.219	.0004349	.000004349
.1487	.2387	.0004391	.000004391

System: acetonitrile + N,N'-bis(2-pyridinylmethylene)-1,2-ethanediamine + 1-hexyl-3-methylimidazolium bromide; phases: Liquid
Fixed: Pressure, kPa = 100
Property: Mass density, kg/m3 (Liquid); method: Vibrating tube method
Solvent: Molality, mol/kg of N,N'-bis(2-pyridinylmethylene)-1,2-ethanediamine	Temperature, K	Molality, mol/kg of 1-hexyl-3-methylimidazolium bromide	Mass density, kg/m3	uncertainty
0	298.15	0	776.65	3.88325
0	298.15	.0208	778.37	3.89185
0	298.15	.0449	780.33	3.90165
0	298.15	.0648	781.93	3.90965
0	298.15	.0817	783.29	3.91645
0	298.15	.1001	784.72	3.9236
0	298.15	.124	786.57	3.93285
0	298.15	.1424	788	3.94
0	298.15	.1649	789.72	3.9486
0	298.15	.1832	791.1	3.9555
0	298.15	.2011	792.44	3.9622
0	303.15	0	771.43	3.85715
0	303.15	.0208	773.15	3.86575
0	303.15	.0449	775.12	3.8756
0	303.15	.0648	776.74	3.8837
0	303.15	.0817	778.1	3.8905
0	303.15	.1001	779.55	3.89775
0	303.15	.124	781.42	3.9071
0	303.15	.1424	782.85	3.91425
0	303.15	.1649	784.57	3.92285
0	303.15	.1832	785.97	3.92985
0	303.15	.2011	787.33	3.93665
0	308.15	0	761.4	3.807
0	308.15	.0208	763.14	3.8157
0	308.15	.0449	765.12	3.8256
0	308.15	.0648	766.75	3.83375
0	308.15	.0817	768.12	3.8406
0	308.15	.1001	769.58	3.8479
0	308.15	.124	771.48	3.8574
0	308.15	.1424	772.92	3.8646
0	308.15	.1649	774.66	3.8733
0	308.15	.1832	776.06	3.8803
0	308.15	.2011	777.41	3.88705
0	313.15	0	752.52	3.7626
0	313.15	.0208	754.27	3.77135
0	313.15	.0449	756.27	3.78135
0	313.15	.0648	757.91	3.78955
0	313.15	.0817	759.29	3.79645
0	313.15	.1001	760.76	3.8038
0	313.15	.124	762.66	3.8133
0	313.15	.1424	764.1	3.8205
0	313.15	.1649	765.86	3.8293
0	313.15	.1832	767.28	3.8364
0	313.15	.2011	768.63	3.84315
.0412	298.15	0	778.98	3.8949
.0412	298.15	.0226	780.85	3.90425
.0412	298.15	.0402	782.29	3.91145
.0412	298.15	.0631	784.14	3.9207
.0412	298.15	.0811	785.57	3.92785
.0412	298.15	.1027	787.27	3.93635
.0412	298.15	.122	788.78	3.9439
.0412	298.15	.1437	790.46	3.9523
.0412	298.15	.1633	791.94	3.9597
.0412	298.15	.1779	793.05	3.96525
.0412	298.15	.2072	795.24	3.9762
.0412	303.15	0	773.9	3.8695
.0412	303.15	.0226	775.78	3.8789
.0412	303.15	.0402	777.22	3.8861
.0412	303.15	.0631	779.07	3.89535
.0412	303.15	.0811	780.52	3.9026
.0412	303.15	.1027	782.23	3.91115
.0412	303.15	.122	783.75	3.91875
.0412	303.15	.1437	785.44	3.9272
.0412	303.15	.1633	786.93	3.93465
.0412	303.15	.1779	788.03	3.94015
.0412	303.15	.2072	790.23	3.95115
.0412	308.15	0	765.55	3.82775
.0412	308.15	.0226	767.44	3.8372
.0412	308.15	.0402	768.9	3.8445
.0412	308.15	.0631	770.76	3.8538
.0412	308.15	.0811	772.22	3.8611
.0412	308.15	.1027	773.93	3.86965
.0412	308.15	.122	775.45	3.87725
.0412	308.15	.1437	777.14	3.8857
.0412	308.15	.1633	778.64	3.8932
.0412	308.15	.1779	779.76	3.8988
.0412	308.15	.2072	781.97	3.90985
.0412	313.15	0	759.53	3.79765
.0412	313.15	.0226	761.44	3.8072
.0412	313.15	.0402	762.91	3.81455
.0412	313.15	.0631	764.79	3.82395
.0412	313.15	.0811	766.25	3.83125
.0412	313.15	.1027	767.98	3.8399
.0412	313.15	.122	769.52	3.8476
.0412	313.15	.1437	771.24	3.8562
.0412	313.15	.1633	772.75	3.86375
.0412	313.15	.1779	773.86	3.8693
.0412	313.15	.2072	776.07	3.88035
.0707	298.15	0	781	3.905
.0707	298.15	.0215	782.78	3.9139
.0707	298.15	.0408	784.37	3.92185
.0707	298.15	.0625	786.13	3.93065
.0707	298.15	.083	787.77	3.93885
.0707	298.15	.1067	789.65	3.94825
.0707	298.15	.1191	790.62	3.9531
.0707	298.15	.1438	792.52	3.9626
.0707	298.15	.1614	793.87	3.96935
.0707	298.15	.1863	795.75	3.97875
.0707	298.15	.1997	796.74	3.9837
.0707	303.15	0	775.97	3.87985
.0707	303.15	.0215	777.77	3.88885
.0707	303.15	.0408	779.37	3.89685
.0707	303.15	.0625	781.14	3.9057
.0707	303.15	.083	782.8	3.914
.0707	303.15	.1067	784.71	3.92355
.0707	303.15	.1191	785.69	3.92845
.0707	303.15	.1438	787.63	3.93815
.0707	303.15	.1614	788.98	3.9449
.0707	303.15	.1863	790.91	3.95455
.0707	303.15	.1997	791.93	3.95965
.0707	308.15	0	767.82	3.8391
.0707	308.15	.0215	769.63	3.84815
.0707	308.15	.0408	771.25	3.85625
.0707	308.15	.0625	773.03	3.86515
.0707	308.15	.083	774.71	3.87355
.0707	308.15	.1067	776.62	3.8831
.0707	308.15	.1191	777.61	3.88805
.0707	308.15	.1438	779.57	3.89785
.0707	308.15	.1614	780.95	3.90475
.0707	308.15	.1863	782.87	3.91435
.0707	308.15	.1997	783.89	3.91945
.0707	313.15	0	761.2	3.806
.0707	313.15	.0215	763.02	3.8151
.0707	313.15	.0408	764.65	3.82325
.0707	313.15	.0625	766.45	3.83225
.0707	313.15	.083	768.14	3.8407
.0707	313.15	.1067	770.06	3.8503
.0707	313.15	.1191	771.05	3.85525
.0707	313.15	.1438	773.02	3.8651
.0707	313.15	.1614	774.41	3.87205
.0707	313.15	.1863	776.34	3.8817
.0707	313.15	.1997	777.36	3.8868
.1109	298.15	0	783.49	3.91745
.1109	298.15	.0228	785.4	3.927
.1109	298.15	.0374	786.61	3.93305
.1109	298.15	.0659	788.93	3.94465
.1109	298.15	.0863	790.55	3.95275
.1109	298.15	.1054	792.08	3.9604
.1109	298.15	.1207	793.27	3.96635
.1109	298.15	.1431	795.02	3.9751
.1109	298.15	.1645	796.65	3.98325
.1109	298.15	.1807	797.87	3.98935
.1109	298.15	.2019	799.45	3.99725
.1109	303.15	0	778.35	3.89175
.1109	303.15	.0228	780.27	3.90135
.1109	303.15	.0374	781.49	3.90745
.1109	303.15	.0659	783.83	3.91915
.1109	303.15	.0863	785.49	3.92745
.1109	303.15	.1054	786.99	3.93495
.1109	303.15	.1207	788.21	3.94105
.1109	303.15	.1431	789.96	3.9498
.1109	303.15	.1645	791.62	3.9581
.1109	303.15	.1807	792.83	3.96415
.1109	303.15	.2019	794.42	3.9721
.1109	308.15	0	771.54	3.8577
.1109	308.15	.0228	773.47	3.86735
.1109	308.15	.0374	774.7	3.8735
.1109	308.15	.0659	777.06	3.8853
.1109	308.15	.0863	778.72	3.8936
.1109	308.15	.1054	780.25	3.90125
.1109	308.15	.1207	781.47	3.90735
.1109	308.15	.1431	783.23	3.91615
.1109	308.15	.1645	784.89	3.92445
.1109	308.15	.1807	786.13	3.93065
.1109	308.15	.2019	787.73	3.93865
.1109	313.15	0	764.87	3.82435
.1109	313.15	.0228	766.82	3.8341
.1109	313.15	.0374	768.06	3.8403
.1109	313.15	.0659	770.43	3.85215
.1109	313.15	.0863	772.1	3.8605
.1109	313.15	.1054	773.65	3.86825
.1109	313.15	.1207	774.88	3.8744
.1109	313.15	.1431	776.65	3.88325
.1109	313.15	.1645	778.33	3.89165
.1109	313.15	.1807	779.57	3.89785
.1109	313.15	.2019	781.17	3.90585
.1441	298.15	0	785.8	3.929
.1441	298.15	.0208	787.55	3.93775
.1441	298.15	.0427	789.36	3.9468
.1441	298.15	.0631	791.03	3.95515
.1441	298.15	.0836	792.67	3.96335
.1441	298.15	.1006	794.03	3.97015
.1441	298.15	.1252	795.95	3.97975
.1441	298.15	.1346	796.69	3.98345
.1441	298.15	.16	798.64	3.9932
.1441	298.15	.187	800.67	4.00335
.1441	298.15	.204	801.93	4.00965
.1441	303.15	0	780.11	3.90055
.1441	303.15	.0208	781.87	3.90935
.1441	303.15	.0427	783.7	3.9185
.1441	303.15	.0631	785.38	3.9269
.1441	303.15	.0836	787.04	3.9352
.1441	303.15	.1006	788.39	3.94195
.1441	303.15	.1252	790.35	3.95175
.1441	303.15	.1346	791.09	3.95545
.1441	303.15	.16	793.05	3.96525
.1441	303.15	.187	795.11	3.97555
.1441	303.15	.204	796.37	3.98185
.1441	308.15	0	774.3	3.8715
.1441	308.15	.0208	776.08	3.8804
.1441	308.15	.0427	777.91	3.88955
.1441	308.15	.0631	779.6	3.898
.1441	308.15	.0836	781.27	3.90635
.1441	308.15	.1006	782.65	3.91325
.1441	308.15	.1252	784.61	3.92305
.1441	308.15	.1346	785.35	3.92675
.1441	308.15	.16	787.33	3.93665
.1441	308.15	.187	789.4	3.947
.1441	308.15	.204	790.67	3.95335
.1441	313.15	0	767.8	3.839
.1441	313.15	.0208	769.59	3.84795
.1441	313.15	.0427	771.43	3.85715
.1441	313.15	.0631	773.14	3.8657
.1441	313.15	.0836	774.82	3.8741
.1441	313.15	.1006	776.22	3.8811
.1441	313.15	.1252	778.17	3.89085
.1441	313.15	.1346	778.94	3.8947
.1441	313.15	.16	780.91	3.90455
.1441	313.15	.187	782.99	3.91495
.1441	313.15	.204	784.27	3.92135

System: acetonitrile + N,N'-bis(2-pyridinylmethylene)-1,2-ethanediamine + 1-hexyl-3-methylimidazolium bromide; phases: Liquid
Fixed: Pressure, kPa = 100
Fixed: Temperature, K = 298.15
Property: Viscosity, Pa*s (Liquid); method: Capillary tube (Ostwald; Ubbelohde) method
Solvent: Molality, mol/kg of N,N'-bis(2-pyridinylmethylene)-1,2-ethanediamine	Molality, mol/kg of 1-hexyl-3-methylimidazolium bromide	Viscosity, Pa*s	uncertainty
0	0	.000343	.00000343
0	.0209	.000353	.00000353
0	.0451	.0003625	.000003625
0	.0653	.000367	.00000367
0	.0824	.000372	.00000372
0	.1011	.0003774	.000003774
0	.1255	.0003842	.000003842
0	.1445	.0003882	.000003882
0	.1676	.0003937	.000003937
0	.1866	.0003982	.000003982
0	.2052	.0004022	.000004022
.0412	0	.000368	.00000368
.0412	.0226	.0003733	.000003733
.0412	.0403	.0003777	.000003777
.0412	.0634	.0003824	.000003824
.0412	.0818	.0003861	.000003861
.0412	.1037	.0003906	.000003906
.0412	.1235	.000396	.00000396
.0412	.1458	.0004015	.000004015
.0412	.166	.0004061	.000004061
.0412	.1811	.0004093	.000004093
.0412	.2116	.000417	.00000417
.0707	0	.000372	.00000372
.0707	.022	.0003784	.000003784
.0707	.0512	.000386	.00000386
.0707	.0644	.0003892	.000003892
.0707	.0827	.0003941	.000003941
.0707	.1051	.000399	.00000399
.0707	.1286	.0004041	.000004041
.0707	.1451	.0004074	.000004074
.0707	.1657	.0004122	.000004122
.0707	.1895	.0004185	.000004185
.0707	.2091	.0004229	.000004229
.1109	0	.000381	.00000381
.1109	.0228	.0003859	.000003859
.1109	.0375	.0003902	.000003902
.1109	.0664	.0003962	.000003962
.1109	.087	.0004011	.000004011
.1109	.1066	.0004058	.000004058
.1109	.1221	.0004086	.000004086
.1109	.1452	.0004129	.000004129
.1109	.1672	.0004187	.000004187
.1109	.184	.0004231	.000004231
.1109	.206	.0004281	.000004281
.1441	0	.000397	.00000397
.1441	.0209	.0004029	.000004029
.1441	.0428	.0004078	.000004078
.1441	.0634	.0004129	.000004129
.1441	.0841	.0004164	.000004164
.1441	.1013	.0004203	.000004203
.1441	.1262	.0004266	.000004266
.1441	.1359	.0004296	.000004296
.1441	.1617	.0004349	.000004349
.1441	.1892	.0004394	.000004394
.1441	.2067	.0004442	.000004442

System: acetonitrile + N,N'-bis(2-pyridinylmethylene)-1,2-ethanediamine + 1-hexyl-3-methylimidazolium chloride; phases: Liquid
Fixed: Pressure, kPa = 100
Property: Mass density, kg/m3 (Liquid); method: Vibrating tube method
Solvent: Molality, mol/kg of N,N'-bis(2-pyridinylmethylene)-1,2-ethanediamine	Temperature, K	Molality, mol/kg of 1-hexyl-3-methylimidazolium chloride	Mass density, kg/m3	uncertainty
0	298.15	0	776.65	3.88325
0	298.15	.0205	777.74	3.8887
0	298.15	.041	778.81	3.89405
0	298.15	.06	779.78	3.8989
0	298.15	.0809	780.84	3.9042
0	298.15	.1002	781.8	3.909
0	298.15	.1197	782.75	3.91375
0	298.15	.1374	783.62	3.9181
0	298.15	.1544	784.44	3.9222
0	298.15	.1788	785.56	3.9278
0	298.15	.1969	786.4	3.932
0	303.15	0	771.43	3.85715
0	303.15	.0205	772.53	3.86265
0	303.15	.041	773.62	3.8681
0	303.15	.06	774.61	3.87305
0	303.15	.0809	775.69	3.87845
0	303.15	.1002	776.66	3.8833
0	303.15	.1197	777.64	3.8882
0	303.15	.1374	778.51	3.89255
0	303.15	.1544	779.33	3.89665
0	303.15	.1788	780.48	3.9024
0	303.15	.1969	781.33	3.90665
0	308.15	0	763.2	3.816
0	308.15	.0205	764.33	3.82165
0	308.15	.041	765.43	3.82715
0	308.15	.06	766.44	3.8322
0	308.15	.0809	767.53	3.83765
0	308.15	.1002	768.53	3.84265
0	308.15	.1197	769.5	3.8475
0	308.15	.1374	770.4	3.852
0	308.15	.1544	771.23	3.85615
0	308.15	.1788	772.4	3.862
0	308.15	.1969	773.26	3.8663
0	313.15	0	755.34	3.7767
0	313.15	.0205	756.52	3.7826
0	313.15	.041	757.67	3.78835
0	313.15	.06	758.72	3.7936
0	313.15	.0809	759.86	3.7993
0	313.15	.1002	760.89	3.80445
0	313.15	.1197	761.94	3.8097
0	313.15	.1374	762.83	3.81415
0	313.15	.1544	763.72	3.8186
0	313.15	.1788	764.93	3.82465
0	313.15	.1969	765.84	3.8292
.0412	298.15	0	778.99	3.89495
.0412	298.15	.0204	780.08	3.9004
.0412	298.15	.0409	781.16	3.9058
.0412	298.15	.0597	782.14	3.9107
.0412	298.15	.0808	783.2	3.916
.0412	298.15	.1004	784.17	3.92085
.0412	298.15	.1199	785.15	3.92575
.0412	298.15	.1375	786	3.93
.0412	298.15	.1546	786.83	3.93415
.0412	298.15	.179	787.96	3.9398
.0412	298.15	.1967	788.79	3.94395
.0412	303.15	0	773.55	3.86775
.0412	303.15	.0204	774.66	3.8733
.0412	303.15	.0409	775.75	3.87875
.0412	303.15	.0597	776.73	3.88365
.0412	303.15	.0808	777.82	3.8891
.0412	303.15	.1004	778.81	3.89405
.0412	303.15	.1199	779.78	3.8989
.0412	303.15	.1375	780.66	3.9033
.0412	303.15	.1546	781.49	3.90745
.0412	303.15	.179	782.65	3.91325
.0412	303.15	.1967	783.47	3.91735
.0412	308.15	0	766.66	3.8333
.0412	308.15	.0204	767.78	3.8389
.0412	308.15	.0409	768.89	3.84445
.0412	308.15	.0597	769.89	3.84945
.0412	308.15	.0808	771	3.855
.0412	308.15	.1004	772	3.86
.0412	308.15	.1199	772.99	3.86495
.0412	308.15	.1375	773.87	3.86935
.0412	308.15	.1546	774.7	3.8735
.0412	308.15	.179	775.88	3.8794
.0412	308.15	.1967	776.73	3.88365
.0412	313.15	0	758.9	3.7945
.0412	313.15	.0204	760.07	3.80035
.0412	313.15	.0409	761.22	3.8061
.0412	313.15	.0597	762.27	3.81135
.0412	313.15	.0808	763.42	3.8171
.0412	313.15	.1004	764.47	3.82235
.0412	313.15	.1199	765.49	3.82745
.0412	313.15	.1375	766.39	3.83195
.0412	313.15	.1546	767.27	3.83635
.0412	313.15	.179	768.5	3.8425
.0412	313.15	.1967	769.36	3.8468
.085	298.15	0	781.2	3.906
.085	298.15	.0217	782.37	3.91185
.085	298.15	.0463	783.68	3.9184
.085	298.15	.0673	784.76	3.9238
.085	298.15	.0841	785.63	3.92815
.085	298.15	.1067	786.77	3.93385
.085	298.15	.1233	787.59	3.93795
.085	298.15	.147	788.74	3.9437
.085	298.15	.1614	789.44	3.9472
.085	298.15	.1802	790.33	3.95165
.085	298.15	.2005	791.27	3.95635
.085	303.15	0	776.45	3.88225
.085	303.15	.0217	777.64	3.8882
.085	303.15	.0463	778.96	3.8948
.085	303.15	.0673	780.05	3.90025
.085	303.15	.0841	780.94	3.9047
.085	303.15	.1067	782.09	3.91045
.085	303.15	.1233	782.93	3.91465
.085	303.15	.147	784.08	3.9204
.085	303.15	.1614	784.78	3.9239
.085	303.15	.1802	785.67	3.92835
.085	303.15	.2005	786.63	3.93315
.085	308.15	0	769.8	3.849
.085	308.15	.0217	771.01	3.85505
.085	308.15	.0463	772.35	3.86175
.085	308.15	.0673	773.47	3.86735
.085	308.15	.0841	774.36	3.8718
.085	308.15	.1067	775.52	3.8776
.085	308.15	.1233	776.39	3.88195
.085	308.15	.147	777.56	3.8878
.085	308.15	.1614	778.28	3.8914
.085	308.15	.1802	779.19	3.89595
.085	308.15	.2005	780.13	3.90065
.085	313.15	0	762.5	3.8125
.085	313.15	.0217	763.73	3.81865
.085	313.15	.0463	765.1	3.8255
.085	313.15	.0673	766.24	3.8312
.085	313.15	.0841	767.14	3.8357
.085	313.15	.1067	768.32	3.8416
.085	313.15	.1233	769.19	3.84595
.085	313.15	.147	770.39	3.85195
.085	313.15	.1614	771.09	3.85545
.085	313.15	.1802	772.02	3.8601
.085	313.15	.2005	773	3.865
.1136	298.15	0	783.49	3.91745
.1136	298.15	.0208	784.63	3.92315
.1136	298.15	.0402	785.67	3.92835
.1136	298.15	.0653	786.98	3.9349
.1136	298.15	.0876	788.13	3.94065
.1136	298.15	.1033	788.93	3.94465
.1136	298.15	.1241	789.95	3.94975
.1136	298.15	.1403	790.75	3.95375
.1136	298.15	.1613	791.76	3.9588
.1136	298.15	.1802	792.66	3.9633
.1136	298.15	.1999	793.58	3.9679
.1136	303.15	0	778.33	3.89165
.1136	303.15	.0208	779.49	3.89745
.1136	303.15	.0402	780.53	3.90265
.1136	303.15	.0653	781.86	3.9093
.1136	303.15	.0876	783.02	3.9151
.1136	303.15	.1033	783.82	3.9191
.1136	303.15	.1241	784.88	3.9244
.1136	303.15	.1403	785.69	3.92845
.1136	303.15	.1613	786.7	3.9335
.1136	303.15	.1802	787.6	3.938
.1136	303.15	.1999	788.52	3.9426
.1136	308.15	0	771.48	3.8574
.1136	308.15	.0208	772.65	3.86325
.1136	308.15	.0402	773.71	3.86855
.1136	308.15	.0653	775.06	3.8753
.1136	308.15	.0876	776.23	3.88115
.1136	308.15	.1033	777.05	3.88525
.1136	308.15	.1241	778.13	3.89065
.1136	308.15	.1403	778.94	3.8947
.1136	308.15	.1613	779.97	3.89985
.1136	308.15	.1802	780.87	3.90435
.1136	308.15	.1999	781.81	3.90905
.1136	313.15	0	764.85	3.82425
.1136	313.15	.0208	766.04	3.8302
.1136	313.15	.0402	767.12	3.8356
.1136	313.15	.0653	768.5	3.8425
.1136	313.15	.0876	769.68	3.8484
.1136	313.15	.1033	770.53	3.85265
.1136	313.15	.1241	771.62	3.8581
.1136	313.15	.1403	772.45	3.86225
.1136	313.15	.1613	773.49	3.86745
.1136	313.15	.1802	774.39	3.87195
.1136	313.15	.1999	775.35	3.87675
.1655	298.15	0	785.87	3.92935
.1655	298.15	.0214	787.05	3.93525
.1655	298.15	.0399	788.05	3.94025
.1655	298.15	.0651	789.39	3.94695
.1655	298.15	.087	790.53	3.95265
.1655	298.15	.1035	791.37	3.95685
.1655	298.15	.1244	792.43	3.96215
.1655	298.15	.1405	793.22	3.9661
.1655	298.15	.1615	794.23	3.97115
.1655	298.15	.1795	795.09	3.97545
.1655	298.15	.2002	796.06	3.9803
.1655	303.15	0	780.09	3.90045
.1655	303.15	.0214	781.29	3.90645
.1655	303.15	.0399	782.3	3.9115
.1655	303.15	.0651	783.66	3.9183
.1655	303.15	.087	784.81	3.92405
.1655	303.15	.1035	785.66	3.9283
.1655	303.15	.1244	786.75	3.93375
.1655	303.15	.1405	787.56	3.9378
.1655	303.15	.1615	788.57	3.94285
.1655	303.15	.1795	789.45	3.94725
.1655	303.15	.2002	790.43	3.95215
.1655	308.15	0	774.28	3.8714
.1655	308.15	.0214	775.49	3.87745
.1655	308.15	.0399	776.52	3.8826
.1655	308.15	.0651	777.9	3.8895
.1655	308.15	.087	779.07	3.89535
.1655	308.15	.1035	779.94	3.8997
.1655	308.15	.1244	781.02	3.9051
.1655	308.15	.1405	781.84	3.9092
.1655	308.15	.1615	782.89	3.91445
.1655	308.15	.1795	783.78	3.9189
.1655	308.15	.2002	784.78	3.9239
.1655	313.15	0	767.87	3.83935
.1655	313.15	.0214	769.11	3.84555
.1655	313.15	.0399	770.15	3.85075
.1655	313.15	.0651	771.56	3.8578
.1655	313.15	.087	772.75	3.86375
.1655	313.15	.1035	773.63	3.86815
.1655	313.15	.1244	774.73	3.87365
.1655	313.15	.1405	775.58	3.8779
.1655	313.15	.1615	776.63	3.88315
.1655	313.15	.1795	777.52	3.8876
.1655	313.15	.2002	778.53	3.89265

System: acetonitrile + N,N'-bis(2-pyridinylmethylene)-1,2-ethanediamine + 1-hexyl-3-methylimidazolium chloride; phases: Liquid
Fixed: Pressure, kPa = 100
Fixed: Temperature, K = 298.15
Property: Viscosity, Pa*s (Liquid); method: Capillary tube (Ostwald; Ubbelohde) method
Solvent: Molality, mol/kg of N,N'-bis(2-pyridinylmethylene)-1,2-ethanediamine	Molality, mol/kg of 1-hexyl-3-methylimidazolium chloride	Viscosity, Pa*s	uncertainty
0	0	.000343	.00000343
0	.022	.0003485	.000003485
0	.0461	.0003524	.000003524
0	.0622	.0003551	.000003551
0	.0814	.0003589	.000003589
0	.1057	.0003631	.000003631
0	.123	.000367	.00000367
0	.1423	.0003696	.000003696
0	.1606	.0003741	.000003741
0	.181	.0003776	.000003776
0	.2045	.0003813	.000003813
.0412	0	.000352	.00000352
.0412	.0261	.0003562	.000003562
.0412	.0411	.000358	.00000358
.0412	.0623	.000361	.00000361
.0412	.0805	.0003638	.000003638
.0412	.1077	.0003683	.000003683
.0412	.1321	.000372	.00000372
.0412	.1403	.0003743	.000003743
.0412	.1687	.000378	.00000378
.0412	.1841	.000381	.00000381
.0412	.2015	.0003833	.000003833
.085	0	.000357	.00000357
.085	.026	.0003614	.000003614
.085	.0411	.0003638	.000003638
.085	.0623	.0003673	.000003673
.085	.0804	.0003699	.000003699
.085	.1078	.0003741	.000003741
.085	.1321	.0003774	.000003774
.085	.1403	.0003794	.000003794
.085	.1687	.0003842	.000003842
.085	.1841	.000386	.00000386
.085	.2016	.0003891	.000003891
.1136	0	.000368	.00000368
.1136	.026	.000371	.00000371
.1136	.0411	.0003733	.000003733
.1136	.0623	.0003768	.000003768
.1136	.0804	.0003804	.000003804
.1136	.1077	.0003847	.000003847
.1136	.1321	.0003881	.000003881
.1136	.1403	.0003893	.000003893
.1136	.1687	.0003936	.000003936
.1136	.1842	.0003958	.000003958
.1136	.2015	.0003992	.000003992
.1655	0	.000375	.00000375
.1655	.0272	.0003802	.000003802
.1655	.04	.0003826	.000003826
.1655	.0653	.0003871	.000003871
.1655	.0875	.000391	.00000391
.1655	.1042	.0003927	.000003927
.1655	.1255	.0003951	.000003951
.1655	.1419	.0003991	.000003991
.1655	.1631	.0004024	.000004024
.1655	.1817	.0004058	.000004058
.1655	.2028	.000409	.00000409

System: acetonitrile + 1-propyl-3-methylimidazolium bromide; phases: Liquid
Property: Mass density, kg/m3 (Liquid); method: Vibrating tube method
Temperature, K	Molality, mol/kg of 1-propyl-3-methylimidazolium bromide	Pressure, kPa	Mass density, kg/m3	uncertainty
298.15	.0248	100	778.67	3.89335
298.15	.0423	100	780.09	3.90045
298.15	.0636	100	781.79	3.90895
298.15	.081	100	783.18	3.9159
298.15	.1036	100	784.95	3.92475
298.15	.123	100	786.44	3.9322
298.15	.1437	100	788.02	3.9401
298.15	.1636	100	789.52	3.9476
298.15	.1835	100	791.02	3.9551
298.15	.2042	100	792.57	3.96285
303.15	.0248	100	773.46	3.8673
303.15	.0423	100	774.88	3.8744
303.15	.0636	100	776.59	3.88295
303.15	.081	100	777.98	3.8899
303.15	.1036	100	779.74	3.8987
303.15	.123	100	781.24	3.9062
303.15	.1437	100	782.86	3.9143
303.15	.1636	100	784.35	3.92175
303.15	.1835	100	785.84	3.9292
303.15	.2042	100	787.39	3.93695
308.15	.0248	100	763.49	3.81745
308.15	.0423	100	764.92	3.8246
308.15	.0636	100	766.63	3.83315
308.15	.081	100	768.02	3.8401
308.15	.1036	100	769.8	3.849
308.15	.123	100	771.31	3.85655
308.15	.1437	100	772.93	3.86465
308.15	.1636	100	774.44	3.8722
308.15	.1835	100	775.93	3.87965
308.15	.2042	100	777.47	3.88735
313.15	.0248	100	757.41	3.78705
313.15	.0423	100	758.84	3.7942
313.15	.0636	100	760.57	3.80285
313.15	.081	100	761.96	3.8098
313.15	.1036	100	763.74	3.8187
313.15	.123	100	765.27	3.82635
313.15	.1437	100	766.87	3.83435
313.15	.1636	100	768.39	3.84195
313.15	.1835	100	769.89	3.84945
313.15	.2042	100	771.44	3.8572

System: acetonitrile + 1-propyl-3-methylimidazolium bromide; phases: Liquid
Property: Viscosity, Pa*s (Liquid); method: Capillary tube (Ostwald; Ubbelohde) method
Molality, mol/kg of 1-propyl-3-methylimidazolium bromide	Pressure, kPa	Temperature, K	Viscosity, Pa*s	uncertainty
.0251	100	298.15	.0003488	.000003488
.0422	100	298.15	.0003525	.000003525
.0644	100	298.15	.0003573	.000003573
.0816	100	298.15	.0003607	.000003607
.1051	100	298.15	.0003633	.000003633
.1245	100	298.15	.0003675	.000003675
.1461	100	298.15	.0003724	.000003724
.1667	100	298.15	.0003771	.000003771
.1873	100	298.15	.00038	.0000038
.2082	100	298.15	.0003844	.000003844

System: acetonitrile + N,N'-bis(2-pyridinylmethylene)-1,2-ethanediamine; phases: Liquid
Property: Mass density, kg/m3 (Liquid); method: Vibrating tube method
Molality, mol/kg of N,N'-bis(2-pyridinylmethylene)-1,2-ethanediamine	Temperature, K	Pressure, kPa	Mass density, kg/m3	uncertainty
.396	298.15	100	779.08	3.8954
.396	303.15	100	773.62	3.8681
.396	308.15	100	766.62	3.8331
.396	313.15	100	760.23	3.80115
.0794	298.15	100	781.36	3.9068
.0794	303.15	100	775.79	3.87895
.0794	308.15	100	769.83	3.84915
.0794	313.15	100	761.42	3.8071
.1172	298.15	100	783.63	3.91815
.1172	303.15	100	777.74	3.8887
.1172	308.15	100	772.75	3.86375
.1172	313.15	100	767.66	3.8383
.1539	298.15	100	785.86	3.9293
.1539	303.15	100	780.33	3.90165
.1539	308.15	100	775.54	3.8777
.1539	313.15	100	770.79	3.85395
.0397	298.15	100	778.8	3.894
.0397	303.15	100	770.6	3.853
.0397	308.15	100	762.7	3.8135
.0397	313.15	100	754.02	3.7701
.076	298.15	100	781.24	3.9062
.076	303.15	100	772.52	3.8626
.076	308.15	100	764.1	3.8205
.076	313.15	100	756.48	3.7824
.1159	298.15	100	783.49	3.91745
.1159	303.15	100	775.25	3.87625
.1159	308.15	100	767.32	3.8366
.1159	313.15	100	759.62	3.7981
.1487	298.15	100	786.71	3.93355
.1487	303.15	100	778.7	3.8935
.1487	308.15	100	769.46	3.8473
.1487	313.15	100	761.79	3.80895
.0412	298.15	100	778.98	3.8949
.0412	303.15	100	773.9	3.8695
.0412	308.15	100	765.55	3.82775
.0412	313.15	100	759.53	3.79765
.0707	298.15	100	781	3.905
.0707	303.15	100	775.97	3.87985
.0707	308.15	100	767.82	3.8391
.0707	313.15	100	761.2	3.806
.1109	298.15	100	783.49	3.91745
.1109	303.15	100	778.35	3.89175
.1109	308.15	100	771.54	3.8577
.1109	313.15	100	764.87	3.82435
.1441	298.15	100	785.8	3.929
.1441	303.15	100	780.11	3.90055
.1441	308.15	100	774.3	3.8715
.1441	313.15	100	767.8	3.839
.0412	298.15	100	778.99	3.89495
.0412	303.15	100	773.55	3.86775
.0412	308.15	100	766.66	3.8333
.0412	313.15	100	758.9	3.7945
.085	298.15	100	781.2	3.906
.085	303.15	100	776.45	3.88225
.085	308.15	100	769.8	3.849
.085	313.15	100	762.5	3.8125
.1136	298.15	100	783.49	3.91745
.1136	303.15	100	778.33	3.89165
.1136	308.15	100	771.48	3.8574
.1136	313.15	100	764.85	3.82425
.1655	298.15	100	785.87	3.92935
.1655	303.15	100	780.09	3.90045
.1655	308.15	100	774.28	3.8714
.1655	313.15	100	767.87	3.83935

System: acetonitrile + N,N'-bis(2-pyridinylmethylene)-1,2-ethanediamine; phases: Liquid
Property: Viscosity, Pa*s (Liquid); method: Capillary tube (Ostwald; Ubbelohde) method
Molality, mol/kg of N,N'-bis(2-pyridinylmethylene)-1,2-ethanediamine	Pressure, kPa	Temperature, K	Viscosity, Pa*s	uncertainty
.0396	100	298.15	.0003511	.000003511
.0794	100	298.15	.000367	.00000367
.1172	100	298.15	.000374	.00000374
.1539	100	298.15	.000381	.00000381
.0397	100	298.15	.000359	.00000359
.076	100	298.15	.0003695	.000003695
.1159	100	298.15	.000374	.00000374
.1487	100	298.15	.000395	.00000395
.0412	100	298.15	.000368	.00000368
.0707	100	298.15	.000372	.00000372
.1109	100	298.15	.000381	.00000381
.1441	100	298.15	.000397	.00000397
.0412	100	298.15	.000352	.00000352
.085	100	298.15	.000357	.00000357
.1136	100	298.15	.000368	.00000368
.1655	100	298.15	.000375	.00000375

System: acetonitrile + 1-pentyl-3-methylimidazolium bromide; phases: Liquid
Property: Mass density, kg/m3 (Liquid); method: Vibrating tube method
Temperature, K	Molality, mol/kg of 1-pentyl-3-methylimidazolium bromide	Pressure, kPa	Mass density, kg/m3	uncertainty
298.15	.03	100	779.11	3.89555
298.15	.0509	100	780.82	3.9041
298.15	.0721	100	782.52	3.9126
298.15	.1016	100	784.87	3.92435
298.15	.123	100	786.55	3.93275
298.15	.1434	100	788.15	3.94075
298.15	.1628	100	789.62	3.9481
298.15	.1944	100	792	3.96
298.15	.211	100	793.26	3.9663
298.15	.2313	100	794.76	3.9738
303.15	.03	100	770.63	3.85315
303.15	.0509	100	772.34	3.8617
303.15	.0721	100	774.06	3.8703
303.15	.1016	100	776.42	3.8821
303.15	.123	100	778.11	3.89055
303.15	.1434	100	779.71	3.89855
303.15	.1628	100	781.22	3.9061
303.15	.1944	100	783.62	3.9181
303.15	.211	100	784.87	3.92435
303.15	.2313	100	786.39	3.93195
308.15	.03	100	762.52	3.8126
308.15	.0509	100	764.26	3.8213
308.15	.0721	100	765.99	3.82995
308.15	.1016	100	768.38	3.8419
308.15	.123	100	770.11	3.85055
308.15	.1434	100	771.7	3.8585
308.15	.1628	100	773.22	3.8661
308.15	.1944	100	775.67	3.87835
308.15	.211	100	776.92	3.8846
308.15	.2313	100	778.44	3.8922
313.15	.03	100	755.09	3.77545
313.15	.0509	100	756.83	3.78415
313.15	.0721	100	758.59	3.79295
313.15	.1016	100	760.99	3.80495
313.15	.123	100	762.71	3.81355
313.15	.1434	100	764.33	3.82165
313.15	.1628	100	765.86	3.8293
313.15	.1944	100	768.32	3.8416
313.15	.211	100	769.58	3.8479
313.15	.2313	100	771.12	3.8556

System: acetonitrile + 1-pentyl-3-methylimidazolium bromide; phases: Liquid
Property: Viscosity, Pa*s (Liquid); method: Capillary tube (Ostwald; Ubbelohde) method
Molality, mol/kg of 1-pentyl-3-methylimidazolium bromide	Pressure, kPa	Temperature, K	Viscosity, Pa*s	uncertainty
.0301	100	298.15	.0003532	.000003532
.0511	100	298.15	.0003605	.000003605
.0726	100	298.15	.000366	.00000366
.1026	100	298.15	.0003724	.000003724
.1245	100	298.15	.0003782	.000003782
.1455	100	298.15	.0003814	.000003814
.1655	100	298.15	.0003873	.000003873
.1983	100	298.15	.0003928	.000003928
.2155	100	298.15	.0003975	.000003975
.2367	100	298.15	.0004016	.000004016

System: acetonitrile + 1-hexyl-3-methylimidazolium bromide; phases: Liquid
Property: Mass density, kg/m3 (Liquid); method: Vibrating tube method
Temperature, K	Molality, mol/kg of 1-hexyl-3-methylimidazolium bromide	Pressure, kPa	Mass density, kg/m3	uncertainty
298.15	.0208	100	778.37	3.89185
298.15	.0449	100	780.33	3.90165
298.15	.0648	100	781.93	3.90965
298.15	.0817	100	783.29	3.91645
298.15	.1001	100	784.72	3.9236
298.15	.124	100	786.57	3.93285
298.15	.1424	100	788	3.94
298.15	.1649	100	789.72	3.9486
298.15	.1832	100	791.1	3.9555
298.15	.2011	100	792.44	3.9622
303.15	.0208	100	773.15	3.86575
303.15	.0449	100	775.12	3.8756
303.15	.0648	100	776.74	3.8837
303.15	.0817	100	778.1	3.8905
303.15	.1001	100	779.55	3.89775
303.15	.124	100	781.42	3.9071
303.15	.1424	100	782.85	3.91425
303.15	.1649	100	784.57	3.92285
303.15	.1832	100	785.97	3.92985
303.15	.2011	100	787.33	3.93665
308.15	.0208	100	763.14	3.8157
308.15	.0449	100	765.12	3.8256
308.15	.0648	100	766.75	3.83375
308.15	.0817	100	768.12	3.8406
308.15	.1001	100	769.58	3.8479
308.15	.124	100	771.48	3.8574
308.15	.1424	100	772.92	3.8646
308.15	.1649	100	774.66	3.8733
308.15	.1832	100	776.06	3.8803
308.15	.2011	100	777.41	3.88705
313.15	.0208	100	754.27	3.77135
313.15	.0449	100	756.27	3.78135
313.15	.0648	100	757.91	3.78955
313.15	.0817	100	759.29	3.79645
313.15	.1001	100	760.76	3.8038
313.15	.124	100	762.66	3.8133
313.15	.1424	100	764.1	3.8205
313.15	.1649	100	765.86	3.8293
313.15	.1832	100	767.28	3.8364
313.15	.2011	100	768.63	3.84315

System: acetonitrile + 1-hexyl-3-methylimidazolium bromide; phases: Liquid
Property: Viscosity, Pa*s (Liquid); method: Capillary tube (Ostwald; Ubbelohde) method
Molality, mol/kg of 1-hexyl-3-methylimidazolium bromide	Pressure, kPa	Temperature, K	Viscosity, Pa*s	uncertainty
.0209	100	298.15	.000353	.00000353
.0451	100	298.15	.0003625	.000003625
.0653	100	298.15	.000367	.00000367
.0824	100	298.15	.000372	.00000372
.1011	100	298.15	.0003774	.000003774
.1255	100	298.15	.0003842	.000003842
.1445	100	298.15	.0003882	.000003882
.1676	100	298.15	.0003937	.000003937
.1866	100	298.15	.0003982	.000003982
.2052	100	298.15	.0004022	.000004022

System: acetonitrile + 1-hexyl-3-methylimidazolium chloride; phases: Liquid
Property: Mass density, kg/m3 (Liquid); method: Vibrating tube method
Temperature, K	Molality, mol/kg of 1-hexyl-3-methylimidazolium chloride	Pressure, kPa	Mass density, kg/m3	uncertainty
298.15	.0205	100	777.74	3.8887
298.15	.041	100	778.81	3.89405
298.15	.06	100	779.78	3.8989
298.15	.0809	100	780.84	3.9042
298.15	.1002	100	781.8	3.909
298.15	.1197	100	782.75	3.91375
298.15	.1374	100	783.62	3.9181
298.15	.1544	100	784.44	3.9222
298.15	.1788	100	785.56	3.9278
298.15	.1969	100	786.4	3.932
303.15	.0205	100	772.53	3.86265
303.15	.041	100	773.62	3.8681
303.15	.06	100	774.61	3.87305
303.15	.0809	100	775.69	3.87845
303.15	.1002	100	776.66	3.8833
303.15	.1197	100	777.64	3.8882
303.15	.1374	100	778.51	3.89255
303.15	.1544	100	779.33	3.89665
303.15	.1788	100	780.48	3.9024
303.15	.1969	100	781.33	3.90665
308.15	.0205	100	764.33	3.82165
308.15	.041	100	765.43	3.82715
308.15	.06	100	766.44	3.8322
308.15	.0809	100	767.53	3.83765
308.15	.1002	100	768.53	3.84265
308.15	.1197	100	769.5	3.8475
308.15	.1374	100	770.4	3.852
308.15	.1544	100	771.23	3.85615
308.15	.1788	100	772.4	3.862
308.15	.1969	100	773.26	3.8663
313.15	.0205	100	756.52	3.7826
313.15	.041	100	757.67	3.78835
313.15	.06	100	758.72	3.7936
313.15	.0809	100	759.86	3.7993
313.15	.1002	100	760.89	3.80445
313.15	.1197	100	761.94	3.8097
313.15	.1374	100	762.83	3.81415
313.15	.1544	100	763.72	3.8186
313.15	.1788	100	764.93	3.82465
313.15	.1969	100	765.84	3.8292

System: acetonitrile + 1-hexyl-3-methylimidazolium chloride; phases: Liquid
Property: Viscosity, Pa*s (Liquid); method: Capillary tube (Ostwald; Ubbelohde) method
Molality, mol/kg of 1-hexyl-3-methylimidazolium chloride	Pressure, kPa	Temperature, K	Viscosity, Pa*s	uncertainty
.022	100	298.15	.0003485	.000003485
.0461	100	298.15	.0003524	.000003524
.0622	100	298.15	.0003551	.000003551
.0814	100	298.15	.0003589	.000003589
.1057	100	298.15	.0003631	.000003631
.123	100	298.15	.000367	.00000367
.1423	100	298.15	.0003696	.000003696
.1606	100	298.15	.0003741	.000003741
.181	100	298.15	.0003776	.000003776
.2045	100	298.15	.0003813	.000003813
