Measured thermophysical data. Impact of Sulfonamide Structure on Solubility and Transfer Processes in Biologically Relevant Solvents
Source: J. Chem. Eng. Data, 2014, 10.1021/je500918t
Compound 1: N-phenylbenzenesulfonamide, C12H11NO2S
Compound 2: N-(3-chloro-2-pyridinyl)benzenesulfonamide, C11H9ClN2O2S
Compound 3: N-(2-chloro-3-pyridinyl)benzenesulfonamide, C11H9ClN2O2S
Compound 4: 6-[(phenylsulfonyl)amino]-3-pyridinecarboxylic acid, ethyl ester, C14H14N2O4S
Compound 5: N-(4-nitrophenyl)benzenesulfonamide, C12H10N2O4S
Compound 6: N-(2-chlorophenyl)benzenesulfonamide, C12H10ClNO2S
Compound 7: N-(2,3-dichlorophenyl)benzenesulfonamide, C12H9Cl2NO2S
Compound 8: N-(2,4-dibromophenyl)benzenesulfonamide, C12H9Br2NO2S
Compound 9: N-(2-nitrophenyl)benzenesulfonamide, C12H10N2O4S
Compound 10: N-(4-chlorophenyl)benzenesulfonamide, C12H10ClNO2S
Compound 11: N-(4-ethoxyphenyl)-4-nitrobenzenesulfonamide, C14H14N2O5S
Compound 12: 4-nitro-N-(thiazol-2-yl)benzenesulfonamide, C9H7N3O4S2
Compound 13: N-(3-((4-nitrophenyl)sulfonamido)pyridin-4-yl)acetamide, C13H12N4O5S
Compound 14: N-(5-methylpyridin-2-yl)-4-nitrobenzenesulfonamide, C12H11N3O4S
Compound 15: 4-amino-N-(4-nitrophenyl)benzenesulfonamide, C12H11N3O4S
Compound 16: 4-amino-N-(4-chlorophenyl)benzenesulfonamide, C12H11ClN2O2S
Compound 17: 4-amino-N-(4-ethylphenyl)benzenesulfonamide, C14H16N2O2S
Compound 18: 4-amino-N-(4-iodophenyl)benzenesulfonamide, C12H11IN2O2S
Compound 19: 4-amino-N-(4-methoxyphenyl)benzenesulfonamide, C13H14N2O3S
Compound 20: 4-amino-N-(2,3-dichlorophenyl)benzenesulfonamide, C12H10Cl2N2O2S
Compound 21: 4-amino-N-(3,4-dichlorophenyl)benzenesulfonamide, C12H10Cl2N2O2S
Compound 22: 4-amino-N-(4-cyanophenyl)benzenesulfonamide, C13H11N3O2S
Compound 23: 4-amino-N-(2,5-dichlorophenyl)benzenesulfonamide, C12H10Cl2N2O2S
Compound 24: 4-amino-N,N-diethylbenzenesulfonamide, C10H16N2O2S
Compound 25: 4-amino-N,N-dimethylbenzenesulfonamide, C8H12N2O2S
Compound 26: 4-amino-N,N-diphenylbenzenesulfonamide, C18H16N2O2S
Compound 27: 4-amino-N-methylbenzenesulfonamide, C7H10N2O2S
Compound 28: 4-amino-N-(4-chlorophenyl)-2-methylbenzenesulfonamide, C13H13ClN2O2S
Compound 29: 4-amino-2-chloro-N-(2-chlorophenyl)benzenesulfonamide, C12H10Cl2N2O2S
Compound 30: 4-amino-N-(2-chlorophenyl)-2-methylbenzenesulfonamide, C13H13ClN2O2S
Compound 31: 4-amino-2-chloro-N-(4-chlorophenyl)benzenesulfonamide, C12H10Cl2N2O2S
Compound 32: 4-amino-2-methyl-N-(2-nitrophenyl)benzenesulfonamide, C13H13N3O4S
Compound 33: 4-amino-N-(2,4,5-trichlorophenyl)benzenesulfonamide, C12H9Cl3N2O2S
Compound 34: 4-amino-N-(5-chloro-2-methylphenyl)benzenesulfonamide, C13H13ClN2O2S
Compound 35: 4-amino-N-(2-chloro-4-methylphenyl)benzenesulfonamide, C13H13ClN2O2S
Compound 36: 4-amino-N-(4-chloro-2-methylphenyl)benzenesulfonamide, C13H13ClN2O2S
Compound 37: 4-amino-N-(3-chloro-4-methylphenyl)benzenesulfonamide, C13H13ClN2O2S
Compound 38: 4-amino-N-(3-chloro-2-methoxyphenyl)benzenesulfonamide, C13H13ClN2O3S
Compound 39: 4-amino-N-(2-bromo-4-nitrophenyl)benzenesulfonamide, C12H10BrN3O4S
Compound 40: 1-octanol, C8H18O, purity 98%
Compound 41: n-hexane, C6H14, purity 98%
Compound 42: water, H2O, purity 99.8%

System: N-phenylbenzenesulfonamide; phases: Crystal, Liquid, Air at 1 atmosphere
Property: Normal melting temperature, K (Crystal); method: DSC/DTA
Normal melting temperature, K	uncertainty
383.5	.2

System: N-phenylbenzenesulfonamide; phases: Crystal, Liquid, Air at 1 atmosphere
Property: Molar enthalpy of transition or fusion, kJ/mol (Crystal); method: DSC
Molar enthalpy of transition or fusion, kJ/mol	uncertainty
23.5	.5

System: N-(3-chloro-2-pyridinyl)benzenesulfonamide; phases: Crystal, Liquid, Air at 1 atmosphere
Property: Normal melting temperature, K (Crystal); method: DSC/DTA
Normal melting temperature, K	uncertainty
404.1	.2

System: N-(3-chloro-2-pyridinyl)benzenesulfonamide; phases: Crystal, Liquid, Air at 1 atmosphere
Property: Molar enthalpy of transition or fusion, kJ/mol (Crystal); method: DSC
Molar enthalpy of transition or fusion, kJ/mol	uncertainty
28.1	.5

System: N-(2-chloro-3-pyridinyl)benzenesulfonamide; phases: Crystal, Liquid, Air at 1 atmosphere
Property: Normal melting temperature, K (Crystal); method: DSC/DTA
Normal melting temperature, K	uncertainty
426.2	.2

System: N-(2-chloro-3-pyridinyl)benzenesulfonamide; phases: Crystal, Liquid, Air at 1 atmosphere
Property: Molar enthalpy of transition or fusion, kJ/mol (Crystal); method: DSC
Molar enthalpy of transition or fusion, kJ/mol	uncertainty
37.6	.5

System: 6-[(phenylsulfonyl)amino]-3-pyridinecarboxylic acid, ethyl ester; phases: Crystal, Liquid, Air at 1 atmosphere
Property: Normal melting temperature, K (Crystal); method: DSC/DTA
Normal melting temperature, K	uncertainty
427.9	.2

System: 6-[(phenylsulfonyl)amino]-3-pyridinecarboxylic acid, ethyl ester; phases: Crystal, Liquid, Air at 1 atmosphere
Property: Molar enthalpy of transition or fusion, kJ/mol (Crystal); method: DSC
Molar enthalpy of transition or fusion, kJ/mol	uncertainty
22.5	.5

System: N-(4-nitrophenyl)benzenesulfonamide; phases: Crystal, Liquid, Air at 1 atmosphere
Property: Normal melting temperature, K (Crystal); method: DSC/DTA
Normal melting temperature, K	uncertainty
411.4	.2

System: N-(4-nitrophenyl)benzenesulfonamide; phases: Crystal, Liquid, Air at 1 atmosphere
Property: Molar enthalpy of transition or fusion, kJ/mol (Crystal); method: DSC
Molar enthalpy of transition or fusion, kJ/mol	uncertainty
28.7	.5

System: N-(2-chlorophenyl)benzenesulfonamide; phases: Crystal, Liquid, Air at 1 atmosphere
Property: Normal melting temperature, K (Crystal); method: DSC/DTA
Normal melting temperature, K	uncertainty
398.2	.2

System: N-(2-chlorophenyl)benzenesulfonamide; phases: Crystal, Liquid, Air at 1 atmosphere
Property: Molar enthalpy of transition or fusion, kJ/mol (Crystal); method: DSC
Molar enthalpy of transition or fusion, kJ/mol	uncertainty
33.5	.5

System: N-(2,3-dichlorophenyl)benzenesulfonamide; phases: Crystal, Liquid, Air at 1 atmosphere
Property: Normal melting temperature, K (Crystal); method: DSC/DTA
Normal melting temperature, K	uncertainty
387.2	.2

System: N-(2,3-dichlorophenyl)benzenesulfonamide; phases: Crystal, Liquid, Air at 1 atmosphere
Property: Molar enthalpy of transition or fusion, kJ/mol (Crystal); method: DSC
Molar enthalpy of transition or fusion, kJ/mol	uncertainty
27.2	.5

System: N-(2,4-dibromophenyl)benzenesulfonamide; phases: Crystal, Liquid, Air at 1 atmosphere
Property: Normal melting temperature, K (Crystal); method: DSC/DTA
Normal melting temperature, K	uncertainty
411.8	.2

System: N-(2,4-dibromophenyl)benzenesulfonamide; phases: Crystal, Liquid, Air at 1 atmosphere
Property: Molar enthalpy of transition or fusion, kJ/mol (Crystal); method: DSC
Molar enthalpy of transition or fusion, kJ/mol	uncertainty
31.9	.5

System: N-(2-nitrophenyl)benzenesulfonamide; phases: Crystal, Liquid, Air at 1 atmosphere
Property: Normal melting temperature, K (Crystal); method: DSC/DTA
Normal melting temperature, K	uncertainty
371.8	.2

System: N-(2-nitrophenyl)benzenesulfonamide; phases: Crystal, Liquid, Air at 1 atmosphere
Property: Molar enthalpy of transition or fusion, kJ/mol (Crystal); method: DSC
Molar enthalpy of transition or fusion, kJ/mol	uncertainty
22.3	.5

System: N-(4-chlorophenyl)benzenesulfonamide; phases: Crystal, Liquid, Air at 1 atmosphere
Property: Normal melting temperature, K (Crystal); method: DSC/DTA
Normal melting temperature, K	uncertainty
394.6	.2

System: N-(4-chlorophenyl)benzenesulfonamide; phases: Crystal, Liquid, Air at 1 atmosphere
Property: Molar enthalpy of transition or fusion, kJ/mol (Crystal); method: DSC
Molar enthalpy of transition or fusion, kJ/mol	uncertainty
25.8	.5

System: N-(4-ethoxyphenyl)-4-nitrobenzenesulfonamide; phases: Crystal, Liquid, Air at 1 atmosphere
Property: Normal melting temperature, K (Crystal); method: DSC/DTA
Normal melting temperature, K	uncertainty
445.2	.2

System: N-(4-ethoxyphenyl)-4-nitrobenzenesulfonamide; phases: Crystal, Liquid, Air at 1 atmosphere
Property: Molar enthalpy of transition or fusion, kJ/mol (Crystal); method: DSC
Molar enthalpy of transition or fusion, kJ/mol	uncertainty
38.9	.5

System: 4-nitro-N-(thiazol-2-yl)benzenesulfonamide; phases: Crystal, Liquid, Air at 1 atmosphere
Property: Normal melting temperature, K (Crystal); method: DSC/DTA
Normal melting temperature, K	uncertainty
529.8	.2

System: 4-nitro-N-(thiazol-2-yl)benzenesulfonamide; phases: Crystal, Liquid, Air at 1 atmosphere
Property: Molar enthalpy of transition or fusion, kJ/mol (Crystal); method: DSC
Molar enthalpy of transition or fusion, kJ/mol	uncertainty
31.8	.5

System: N-(3-((4-nitrophenyl)sulfonamido)pyridin-4-yl)acetamide; phases: Crystal, Liquid, Air at 1 atmosphere
Property: Normal melting temperature, K (Crystal); method: DSC/DTA
Normal melting temperature, K	uncertainty
511.1	.2

System: N-(3-((4-nitrophenyl)sulfonamido)pyridin-4-yl)acetamide; phases: Crystal, Liquid, Air at 1 atmosphere
Property: Molar enthalpy of transition or fusion, kJ/mol (Crystal); method: DSC
Molar enthalpy of transition or fusion, kJ/mol	uncertainty
41.4	.5

System: N-(5-methylpyridin-2-yl)-4-nitrobenzenesulfonamide; phases: Crystal, Liquid, Air at 1 atmosphere
Property: Normal melting temperature, K (Crystal); method: DSC/DTA
Normal melting temperature, K	uncertainty
434.1	.2

System: N-(5-methylpyridin-2-yl)-4-nitrobenzenesulfonamide; phases: Crystal, Liquid, Air at 1 atmosphere
Property: Molar enthalpy of transition or fusion, kJ/mol (Crystal); method: DSC
Molar enthalpy of transition or fusion, kJ/mol	uncertainty
45.7	.5

System: 4-amino-N-(4-nitrophenyl)benzenesulfonamide; phases: Crystal, Liquid, Air at 1 atmosphere
Property: Normal melting temperature, K (Crystal); method: DSC/DTA
Normal melting temperature, K	uncertainty
439	.2

System: 4-amino-N-(4-nitrophenyl)benzenesulfonamide; phases: Crystal, Liquid, Air at 1 atmosphere
Property: Molar enthalpy of transition or fusion, kJ/mol (Crystal); method: DSC
Molar enthalpy of transition or fusion, kJ/mol	uncertainty
27.9	.5

System: 4-amino-N-(4-chlorophenyl)benzenesulfonamide; phases: Crystal, Liquid, Air at 1 atmosphere
Property: Normal melting temperature, K (Crystal); method: DSC/DTA
Normal melting temperature, K	uncertainty
467.9	.2

System: 4-amino-N-(4-chlorophenyl)benzenesulfonamide; phases: Crystal, Liquid, Air at 1 atmosphere
Property: Molar enthalpy of transition or fusion, kJ/mol (Crystal); method: DSC
Molar enthalpy of transition or fusion, kJ/mol	uncertainty
23.8	.5

System: 4-amino-N-(4-ethylphenyl)benzenesulfonamide; phases: Crystal, Liquid, Air at 1 atmosphere
Property: Normal melting temperature, K (Crystal); method: DSC/DTA
Normal melting temperature, K	uncertainty
436.2	.2

System: 4-amino-N-(4-ethylphenyl)benzenesulfonamide; phases: Crystal, Liquid, Air at 1 atmosphere
Property: Molar enthalpy of transition or fusion, kJ/mol (Crystal); method: DSC
Molar enthalpy of transition or fusion, kJ/mol	uncertainty
36.3	.5

System: 4-amino-N-(4-iodophenyl)benzenesulfonamide; phases: Crystal, Liquid, Air at 1 atmosphere
Property: Normal melting temperature, K (Crystal); method: DSC/DTA
Normal melting temperature, K	uncertainty
468.7	.2

System: 4-amino-N-(4-iodophenyl)benzenesulfonamide; phases: Crystal, Liquid, Air at 1 atmosphere
Property: Molar enthalpy of transition or fusion, kJ/mol (Crystal); method: DSC
Molar enthalpy of transition or fusion, kJ/mol	uncertainty
36.4	.5

System: 4-amino-N-(4-methoxyphenyl)benzenesulfonamide; phases: Crystal, Liquid, Air at 1 atmosphere
Property: Normal melting temperature, K (Crystal); method: DSC/DTA
Normal melting temperature, K	uncertainty
467.4	.2

System: 4-amino-N-(4-methoxyphenyl)benzenesulfonamide; phases: Crystal, Liquid, Air at 1 atmosphere
Property: Molar enthalpy of transition or fusion, kJ/mol (Crystal); method: DSC
Molar enthalpy of transition or fusion, kJ/mol	uncertainty
38.6	.5

System: 4-amino-N-(2,3-dichlorophenyl)benzenesulfonamide; phases: Crystal, Liquid, Air at 1 atmosphere
Property: Normal melting temperature, K (Crystal); method: DSC/DTA
Normal melting temperature, K	uncertainty
454.3	.2

System: 4-amino-N-(2,3-dichlorophenyl)benzenesulfonamide; phases: Crystal, Liquid, Air at 1 atmosphere
Property: Molar enthalpy of transition or fusion, kJ/mol (Crystal); method: DSC
Molar enthalpy of transition or fusion, kJ/mol	uncertainty
40.9	.5

System: 4-amino-N-(3,4-dichlorophenyl)benzenesulfonamide; phases: Crystal, Liquid, Air at 1 atmosphere
Property: Normal melting temperature, K (Crystal); method: DSC/DTA
Normal melting temperature, K	uncertainty
497.9	.2

System: 4-amino-N-(3,4-dichlorophenyl)benzenesulfonamide; phases: Crystal, Liquid, Air at 1 atmosphere
Property: Molar enthalpy of transition or fusion, kJ/mol (Crystal); method: DSC
Molar enthalpy of transition or fusion, kJ/mol	uncertainty
30.8	.5

System: 4-amino-N-(4-cyanophenyl)benzenesulfonamide; phases: Crystal, Liquid, Air at 1 atmosphere
Property: Normal melting temperature, K (Crystal); method: DSC/DTA
Normal melting temperature, K	uncertainty
451.6	.2

System: 4-amino-N-(4-cyanophenyl)benzenesulfonamide; phases: Crystal, Liquid, Air at 1 atmosphere
Property: Molar enthalpy of transition or fusion, kJ/mol (Crystal); method: DSC
Molar enthalpy of transition or fusion, kJ/mol	uncertainty
30.9	.5

System: 4-amino-N-(2,5-dichlorophenyl)benzenesulfonamide; phases: Crystal, Liquid, Air at 1 atmosphere
Property: Normal melting temperature, K (Crystal); method: DSC/DTA
Normal melting temperature, K	uncertainty
445.9	.2

System: 4-amino-N-(2,5-dichlorophenyl)benzenesulfonamide; phases: Crystal, Liquid, Air at 1 atmosphere
Property: Molar enthalpy of transition or fusion, kJ/mol (Crystal); method: DSC
Molar enthalpy of transition or fusion, kJ/mol	uncertainty
41.3	.5

System: 4-amino-N,N-diethylbenzenesulfonamide; phases: Crystal, Liquid, Air at 1 atmosphere
Property: Normal melting temperature, K (Crystal); method: DSC/DTA
Normal melting temperature, K	uncertainty
378.8	.2

System: 4-amino-N,N-diethylbenzenesulfonamide; phases: Crystal, Liquid, Air at 1 atmosphere
Property: Molar enthalpy of transition or fusion, kJ/mol (Crystal); method: DSC
Molar enthalpy of transition or fusion, kJ/mol	uncertainty
19.4	.5

System: 4-amino-N,N-dimethylbenzenesulfonamide; phases: Crystal, Liquid, Air at 1 atmosphere
Property: Normal melting temperature, K (Crystal); method: DSC/DTA
Normal melting temperature, K	uncertainty
444.6	.2

System: 4-amino-N,N-dimethylbenzenesulfonamide; phases: Crystal, Liquid, Air at 1 atmosphere
Property: Molar enthalpy of transition or fusion, kJ/mol (Crystal); method: DSC
Molar enthalpy of transition or fusion, kJ/mol	uncertainty
29.7	.5

System: 4-amino-N,N-diphenylbenzenesulfonamide; phases: Crystal, Liquid, Air at 1 atmosphere
Property: Normal melting temperature, K (Crystal); method: DSC/DTA
Normal melting temperature, K	uncertainty
452.6	.2

System: 4-amino-N,N-diphenylbenzenesulfonamide; phases: Crystal, Liquid, Air at 1 atmosphere
Property: Molar enthalpy of transition or fusion, kJ/mol (Crystal); method: DSC
Molar enthalpy of transition or fusion, kJ/mol	uncertainty
35.1	.5

System: 4-amino-N-methylbenzenesulfonamide; phases: Crystal, Liquid, Air at 1 atmosphere
Property: Normal melting temperature, K (Crystal); method: DSC/DTA
Normal melting temperature, K	uncertainty
382.2	.2

System: 4-amino-N-methylbenzenesulfonamide; phases: Crystal, Liquid, Air at 1 atmosphere
Property: Molar enthalpy of transition or fusion, kJ/mol (Crystal); method: DSC
Molar enthalpy of transition or fusion, kJ/mol	uncertainty
17.1	.5

System: 4-amino-N-(4-chlorophenyl)-2-methylbenzenesulfonamide; phases: Crystal, Liquid, Air at 1 atmosphere
Property: Normal melting temperature, K (Crystal); method: DSC/DTA
Normal melting temperature, K	uncertainty
446.5	.2

System: 4-amino-N-(4-chlorophenyl)-2-methylbenzenesulfonamide; phases: Crystal, Liquid, Air at 1 atmosphere
Property: Molar enthalpy of transition or fusion, kJ/mol (Crystal); method: DSC
Molar enthalpy of transition or fusion, kJ/mol	uncertainty
35.7	.5

System: 4-amino-2-chloro-N-(2-chlorophenyl)benzenesulfonamide; phases: Crystal, Liquid, Air at 1 atmosphere
Property: Normal melting temperature, K (Crystal); method: DSC/DTA
Normal melting temperature, K	uncertainty
505	.2

System: 4-amino-2-chloro-N-(2-chlorophenyl)benzenesulfonamide; phases: Crystal, Liquid, Air at 1 atmosphere
Property: Molar enthalpy of transition or fusion, kJ/mol (Crystal); method: DSC
Molar enthalpy of transition or fusion, kJ/mol	uncertainty
51.4	.5

System: 4-amino-N-(2-chlorophenyl)-2-methylbenzenesulfonamide; phases: Crystal, Liquid, Air at 1 atmosphere
Property: Normal melting temperature, K (Crystal); method: DSC/DTA
Normal melting temperature, K	uncertainty
479.5	.2

System: 4-amino-N-(2-chlorophenyl)-2-methylbenzenesulfonamide; phases: Crystal, Liquid, Air at 1 atmosphere
Property: Molar enthalpy of transition or fusion, kJ/mol (Crystal); method: DSC
Molar enthalpy of transition or fusion, kJ/mol	uncertainty
47.3	.5

System: 4-amino-2-chloro-N-(4-chlorophenyl)benzenesulfonamide; phases: Crystal, Liquid, Air at 1 atmosphere
Property: Normal melting temperature, K (Crystal); method: DSC/DTA
Normal melting temperature, K	uncertainty
468.7	.2

System: 4-amino-2-chloro-N-(4-chlorophenyl)benzenesulfonamide; phases: Crystal, Liquid, Air at 1 atmosphere
Property: Molar enthalpy of transition or fusion, kJ/mol (Crystal); method: DSC
Molar enthalpy of transition or fusion, kJ/mol	uncertainty
34.9	.5

System: 4-amino-2-methyl-N-(2-nitrophenyl)benzenesulfonamide; phases: Crystal, Liquid, Air at 1 atmosphere
Property: Normal melting temperature, K (Crystal); method: DSC/DTA
Normal melting temperature, K	uncertainty
451.4	.2

System: 4-amino-2-methyl-N-(2-nitrophenyl)benzenesulfonamide; phases: Crystal, Liquid, Air at 1 atmosphere
Property: Molar enthalpy of transition or fusion, kJ/mol (Crystal); method: DSC
Molar enthalpy of transition or fusion, kJ/mol	uncertainty
40	.5

System: 4-amino-N-(2,4,5-trichlorophenyl)benzenesulfonamide; phases: Crystal, Liquid, Air at 1 atmosphere
Property: Normal melting temperature, K (Crystal); method: DSC/DTA
Normal melting temperature, K	uncertainty
461.2	.2

System: 4-amino-N-(2,4,5-trichlorophenyl)benzenesulfonamide; phases: Crystal, Liquid, Air at 1 atmosphere
Property: Molar enthalpy of transition or fusion, kJ/mol (Crystal); method: DSC
Molar enthalpy of transition or fusion, kJ/mol	uncertainty
39.7	.5

System: 4-amino-N-(5-chloro-2-methylphenyl)benzenesulfonamide; phases: Crystal, Liquid, Air at 1 atmosphere
Property: Normal melting temperature, K (Crystal); method: DSC/DTA
Normal melting temperature, K	uncertainty
422.7	.2

System: 4-amino-N-(5-chloro-2-methylphenyl)benzenesulfonamide; phases: Crystal, Liquid, Air at 1 atmosphere
Property: Molar enthalpy of transition or fusion, kJ/mol (Crystal); method: DSC
Molar enthalpy of transition or fusion, kJ/mol	uncertainty
36.8	.5

System: 4-amino-N-(2-chloro-4-methylphenyl)benzenesulfonamide; phases: Crystal, Liquid, Air at 1 atmosphere
Property: Normal melting temperature, K (Crystal); method: DSC/DTA
Normal melting temperature, K	uncertainty
428.8	.2

System: 4-amino-N-(2-chloro-4-methylphenyl)benzenesulfonamide; phases: Crystal, Liquid, Air at 1 atmosphere
Property: Molar enthalpy of transition or fusion, kJ/mol (Crystal); method: DSC
Molar enthalpy of transition or fusion, kJ/mol	uncertainty
31.7	.5

System: 4-amino-N-(4-chloro-2-methylphenyl)benzenesulfonamide; phases: Crystal, Liquid, Air at 1 atmosphere
Property: Normal melting temperature, K (Crystal); method: DSC/DTA
Normal melting temperature, K	uncertainty
422.7	.2

System: 4-amino-N-(4-chloro-2-methylphenyl)benzenesulfonamide; phases: Crystal, Liquid, Air at 1 atmosphere
Property: Molar enthalpy of transition or fusion, kJ/mol (Crystal); method: DSC
Molar enthalpy of transition or fusion, kJ/mol	uncertainty
36.8	.5

System: 4-amino-N-(3-chloro-4-methylphenyl)benzenesulfonamide; phases: Crystal, Liquid, Air at 1 atmosphere
Property: Normal melting temperature, K (Crystal); method: DSC/DTA
Normal melting temperature, K	uncertainty
477.6	.2

System: 4-amino-N-(3-chloro-4-methylphenyl)benzenesulfonamide; phases: Crystal, Liquid, Air at 1 atmosphere
Property: Molar enthalpy of transition or fusion, kJ/mol (Crystal); method: DSC
Molar enthalpy of transition or fusion, kJ/mol	uncertainty
45.6	.5

System: 4-amino-N-(3-chloro-2-methoxyphenyl)benzenesulfonamide; phases: Crystal, Liquid, Air at 1 atmosphere
Property: Normal melting temperature, K (Crystal); method: DSC/DTA
Normal melting temperature, K	uncertainty
403.9	.2

System: 4-amino-N-(3-chloro-2-methoxyphenyl)benzenesulfonamide; phases: Crystal, Liquid, Air at 1 atmosphere
Property: Molar enthalpy of transition or fusion, kJ/mol (Crystal); method: DSC
Molar enthalpy of transition or fusion, kJ/mol	uncertainty
30.7	.5

System: 4-amino-N-(2-bromo-4-nitrophenyl)benzenesulfonamide; phases: Crystal, Liquid, Air at 1 atmosphere
Property: Normal melting temperature, K (Crystal); method: DSC/DTA
Normal melting temperature, K	uncertainty
461	.2

System: 4-amino-N-(2-bromo-4-nitrophenyl)benzenesulfonamide; phases: Crystal, Liquid, Air at 1 atmosphere
Property: Molar enthalpy of transition or fusion, kJ/mol (Crystal); method: DSC
Molar enthalpy of transition or fusion, kJ/mol	uncertainty
39.6	.5

System: N-phenylbenzenesulfonamide + water; phases: Liquid, Crystal
Fixed: Pressure, kPa = 101
Property: Mole fraction of N-phenylbenzenesulfonamide (Liquid); method: spectrophotometric method
Temperature, K	Mole fraction of N-phenylbenzenesulfonamide	uncertainty
298	.00000849	.0000002547

System: 1-octanol + N-phenylbenzenesulfonamide; phases: Liquid, Crystal
Fixed: Pressure, kPa = 101
Property: Mole fraction of N-phenylbenzenesulfonamide (Liquid); method: spectrophotometric method
Temperature, K	Mole fraction of N-phenylbenzenesulfonamide	uncertainty
298	.0335	.001005

System: n-hexane + N-phenylbenzenesulfonamide; phases: Liquid, Crystal
Fixed: Pressure, kPa = 101
Property: Mole fraction of N-phenylbenzenesulfonamide (Liquid); method: spectrophotometric method
Temperature, K	Mole fraction of N-phenylbenzenesulfonamide	uncertainty
298	.000101	.00000303

System: water + N-(3-chloro-2-pyridinyl)benzenesulfonamide; phases: Liquid, Crystal
Fixed: Pressure, kPa = 101
Property: Mole fraction of N-(3-chloro-2-pyridinyl)benzenesulfonamide (Liquid); method: spectrophotometric method
Temperature, K	Mole fraction of N-(3-chloro-2-pyridinyl)benzenesulfonamide	uncertainty
298	.0000117	.000000351

System: 1-octanol + N-(3-chloro-2-pyridinyl)benzenesulfonamide; phases: Liquid, Crystal
Fixed: Pressure, kPa = 101
Property: Mole fraction of N-(3-chloro-2-pyridinyl)benzenesulfonamide (Liquid); method: spectrophotometric method
Temperature, K	Mole fraction of N-(3-chloro-2-pyridinyl)benzenesulfonamide	uncertainty
298	.00282	.0000846

System: n-hexane + N-(3-chloro-2-pyridinyl)benzenesulfonamide; phases: Liquid, Crystal
Fixed: Pressure, kPa = 101
Property: Mole fraction of N-(3-chloro-2-pyridinyl)benzenesulfonamide (Liquid); method: spectrophotometric method
Temperature, K	Mole fraction of N-(3-chloro-2-pyridinyl)benzenesulfonamide	uncertainty
298	.0000658	.000001974

System: water + N-(2-chloro-3-pyridinyl)benzenesulfonamide; phases: Liquid, Crystal
Fixed: Pressure, kPa = 101
Property: Mole fraction of N-(2-chloro-3-pyridinyl)benzenesulfonamide (Liquid); method: spectrophotometric method
Temperature, K	Mole fraction of N-(2-chloro-3-pyridinyl)benzenesulfonamide	uncertainty
298	.00000312	.0000000936

System: 1-octanol + N-(2-chloro-3-pyridinyl)benzenesulfonamide; phases: Liquid, Crystal
Fixed: Pressure, kPa = 101
Property: Mole fraction of N-(2-chloro-3-pyridinyl)benzenesulfonamide (Liquid); method: spectrophotometric method
Temperature, K	Mole fraction of N-(2-chloro-3-pyridinyl)benzenesulfonamide	uncertainty
298	.00151	.0000453

System: n-hexane + N-(2-chloro-3-pyridinyl)benzenesulfonamide; phases: Liquid, Crystal
Fixed: Pressure, kPa = 101
Property: Mole fraction of N-(2-chloro-3-pyridinyl)benzenesulfonamide (Liquid); method: spectrophotometric method
Temperature, K	Mole fraction of N-(2-chloro-3-pyridinyl)benzenesulfonamide	uncertainty
298	.0000263	.000000789

System: water + 6-[(phenylsulfonyl)amino]-3-pyridinecarboxylic acid, ethyl ester; phases: Liquid, Crystal
Fixed: Pressure, kPa = 101
Property: Mole fraction of 6-[(phenylsulfonyl)amino]-3-pyridinecarboxylic acid, ethyl ester (Liquid); method: spectrophotometric method
Temperature, K	Mole fraction of 6-[(phenylsulfonyl)amino]-3-pyridinecarboxylic acid, ethyl ester	uncertainty
298	.00000124	.0000000372

System: 1-octanol + 6-[(phenylsulfonyl)amino]-3-pyridinecarboxylic acid, ethyl ester; phases: Liquid, Crystal
Fixed: Pressure, kPa = 101
Property: Mole fraction of 6-[(phenylsulfonyl)amino]-3-pyridinecarboxylic acid, ethyl ester (Liquid); method: spectrophotometric method
Temperature, K	Mole fraction of 6-[(phenylsulfonyl)amino]-3-pyridinecarboxylic acid, ethyl ester	uncertainty
298	.0006	.000018

System: n-hexane + N-(4-nitrophenyl)benzenesulfonamide; phases: Liquid, Crystal
Fixed: Pressure, kPa = 101
Property: Mole fraction of N-(4-nitrophenyl)benzenesulfonamide (Liquid); method: spectrophotometric method
Temperature, K	Mole fraction of N-(4-nitrophenyl)benzenesulfonamide	uncertainty
298	.00000316	.0000000948

System: water + N-(2,4-dibromophenyl)benzenesulfonamide; phases: Liquid, Crystal
Fixed: Pressure, kPa = 101
Property: Mole fraction of N-(2,4-dibromophenyl)benzenesulfonamide (Liquid); method: spectrophotometric method
Temperature, K	Mole fraction of N-(2,4-dibromophenyl)benzenesulfonamide	uncertainty
298	.000000142	.00000000426

System: 1-octanol + N-(2,4-dibromophenyl)benzenesulfonamide; phases: Liquid, Crystal
Fixed: Pressure, kPa = 101
Property: Mole fraction of N-(2,4-dibromophenyl)benzenesulfonamide (Liquid); method: spectrophotometric method
Temperature, K	Mole fraction of N-(2,4-dibromophenyl)benzenesulfonamide	uncertainty
298	.00364	.0001092

System: n-hexane + N-(2,4-dibromophenyl)benzenesulfonamide; phases: Liquid, Crystal
Fixed: Pressure, kPa = 101
Property: Mole fraction of N-(2,4-dibromophenyl)benzenesulfonamide (Liquid); method: spectrophotometric method
Temperature, K	Mole fraction of N-(2,4-dibromophenyl)benzenesulfonamide	uncertainty
298	.0000000175	.000000000525

System: N-(2-nitrophenyl)benzenesulfonamide + water; phases: Liquid, Crystal
Fixed: Pressure, kPa = 101
Property: Mole fraction of N-(2-nitrophenyl)benzenesulfonamide (Liquid); method: spectrophotometric method
Temperature, K	Mole fraction of N-(2-nitrophenyl)benzenesulfonamide	uncertainty
298	.00000178	.0000000534

System: 1-octanol + N-(2-nitrophenyl)benzenesulfonamide; phases: Liquid, Crystal
Fixed: Pressure, kPa = 101
Property: Mole fraction of N-(2-nitrophenyl)benzenesulfonamide (Liquid); method: spectrophotometric method
Temperature, K	Mole fraction of N-(2-nitrophenyl)benzenesulfonamide	uncertainty
298	.0106	.000318

System: water + N-(4-ethoxyphenyl)-4-nitrobenzenesulfonamide; phases: Liquid, Crystal
Fixed: Pressure, kPa = 101
Property: Mole fraction of N-(4-ethoxyphenyl)-4-nitrobenzenesulfonamide (Liquid); method: spectrophotometric method
Temperature, K	Mole fraction of N-(4-ethoxyphenyl)-4-nitrobenzenesulfonamide	uncertainty
298	.000000341	.00000001023

System: 1-octanol + N-(4-ethoxyphenyl)-4-nitrobenzenesulfonamide; phases: Liquid, Crystal
Fixed: Pressure, kPa = 101
Property: Mole fraction of N-(4-ethoxyphenyl)-4-nitrobenzenesulfonamide (Liquid); method: spectrophotometric method
Temperature, K	Mole fraction of N-(4-ethoxyphenyl)-4-nitrobenzenesulfonamide	uncertainty
298	.00125	.0000375

System: n-hexane + N-(4-ethoxyphenyl)-4-nitrobenzenesulfonamide; phases: Liquid, Crystal
Fixed: Pressure, kPa = 101
Property: Mole fraction of N-(4-ethoxyphenyl)-4-nitrobenzenesulfonamide (Liquid); method: spectrophotometric method
Temperature, K	Mole fraction of N-(4-ethoxyphenyl)-4-nitrobenzenesulfonamide	uncertainty
298	.00000395	.0000001185

System: 4-nitro-N-(thiazol-2-yl)benzenesulfonamide + water; phases: Liquid, Crystal
Fixed: Pressure, kPa = 101
Property: Mole fraction of 4-nitro-N-(thiazol-2-yl)benzenesulfonamide (Liquid); method: spectrophotometric method
Temperature, K	Mole fraction of 4-nitro-N-(thiazol-2-yl)benzenesulfonamide	uncertainty
298	.00000423	.0000001269

System: 1-octanol + 4-nitro-N-(thiazol-2-yl)benzenesulfonamide; phases: Liquid, Crystal
Fixed: Pressure, kPa = 101
Property: Mole fraction of 4-nitro-N-(thiazol-2-yl)benzenesulfonamide (Liquid); method: spectrophotometric method
Temperature, K	Mole fraction of 4-nitro-N-(thiazol-2-yl)benzenesulfonamide	uncertainty
298	.809	.02427

System: water + N-(3-((4-nitrophenyl)sulfonamido)pyridin-4-yl)acetamide; phases: Liquid, Crystal
Fixed: Pressure, kPa = 101
Property: Mole fraction of N-(3-((4-nitrophenyl)sulfonamido)pyridin-4-yl)acetamide (Liquid); method: spectrophotometric method
Temperature, K	Mole fraction of N-(3-((4-nitrophenyl)sulfonamido)pyridin-4-yl)acetamide	uncertainty
298	.00000833	.0000002499

System: 1-octanol + N-(3-((4-nitrophenyl)sulfonamido)pyridin-4-yl)acetamide; phases: Liquid, Crystal
Fixed: Pressure, kPa = 101
Property: Mole fraction of N-(3-((4-nitrophenyl)sulfonamido)pyridin-4-yl)acetamide (Liquid); method: spectrophotometric method
Temperature, K	Mole fraction of N-(3-((4-nitrophenyl)sulfonamido)pyridin-4-yl)acetamide	uncertainty
298	.0000959	.000002877

System: water + N-(5-methylpyridin-2-yl)-4-nitrobenzenesulfonamide; phases: Liquid, Crystal
Fixed: Pressure, kPa = 101
Property: Mole fraction of N-(5-methylpyridin-2-yl)-4-nitrobenzenesulfonamide (Liquid); method: spectrophotometric method
Temperature, K	Mole fraction of N-(5-methylpyridin-2-yl)-4-nitrobenzenesulfonamide	uncertainty
298	.00000113	.0000000339

System: 1-octanol + N-(5-methylpyridin-2-yl)-4-nitrobenzenesulfonamide; phases: Liquid, Crystal
Fixed: Pressure, kPa = 101
Property: Mole fraction of N-(5-methylpyridin-2-yl)-4-nitrobenzenesulfonamide (Liquid); method: spectrophotometric method
Temperature, K	Mole fraction of N-(5-methylpyridin-2-yl)-4-nitrobenzenesulfonamide	uncertainty
298	.0000338	.000001014

System: 4-amino-N-(4-iodophenyl)benzenesulfonamide + water; phases: Liquid, Crystal
Fixed: Pressure, kPa = 101
Property: Mole fraction of 4-amino-N-(4-iodophenyl)benzenesulfonamide (Liquid); method: spectrophotometric method
Temperature, K	Mole fraction of 4-amino-N-(4-iodophenyl)benzenesulfonamide	uncertainty
298	.000000544	.00000001632

System: 1-octanol + 4-amino-N-(4-iodophenyl)benzenesulfonamide; phases: Liquid, Crystal
Fixed: Pressure, kPa = 101
Property: Mole fraction of 4-amino-N-(4-iodophenyl)benzenesulfonamide (Liquid); method: spectrophotometric method
Temperature, K	Mole fraction of 4-amino-N-(4-iodophenyl)benzenesulfonamide	uncertainty
298	.00163	.0000489

System: n-hexane + 4-amino-N-(2,3-dichlorophenyl)benzenesulfonamide; phases: Liquid, Crystal
Fixed: Pressure, kPa = 101
Property: Mole fraction of 4-amino-N-(2,3-dichlorophenyl)benzenesulfonamide (Liquid); method: spectrophotometric method
Temperature, K	Mole fraction of 4-amino-N-(2,3-dichlorophenyl)benzenesulfonamide	uncertainty
298	.00000605	.0000001815

System: n-hexane + 4-amino-N-(2,5-dichlorophenyl)benzenesulfonamide; phases: Liquid, Crystal
Fixed: Pressure, kPa = 101
Property: Mole fraction of 4-amino-N-(2,5-dichlorophenyl)benzenesulfonamide (Liquid); method: spectrophotometric method
Temperature, K	Mole fraction of 4-amino-N-(2,5-dichlorophenyl)benzenesulfonamide	uncertainty
298	.00000469	.0000001407

System: 4-amino-N,N-diethylbenzenesulfonamide + water; phases: Liquid, Crystal
Fixed: Pressure, kPa = 101
Property: Mole fraction of 4-amino-N,N-diethylbenzenesulfonamide (Liquid); method: spectrophotometric method
Temperature, K	Mole fraction of 4-amino-N,N-diethylbenzenesulfonamide	uncertainty
298	.0000427	.000001281

System: 1-octanol + 4-amino-N,N-diethylbenzenesulfonamide; phases: Liquid, Crystal
Fixed: Pressure, kPa = 101
Property: Mole fraction of 4-amino-N,N-diethylbenzenesulfonamide (Liquid); method: spectrophotometric method
Temperature, K	Mole fraction of 4-amino-N,N-diethylbenzenesulfonamide	uncertainty
298	.0108	.000324

System: n-hexane + 4-amino-N,N-diethylbenzenesulfonamide; phases: Liquid, Crystal
Fixed: Pressure, kPa = 101
Property: Mole fraction of 4-amino-N,N-diethylbenzenesulfonamide (Liquid); method: spectrophotometric method
Temperature, K	Mole fraction of 4-amino-N,N-diethylbenzenesulfonamide	uncertainty
298	.0000241	.000000723

System: 4-amino-N,N-dimethylbenzenesulfonamide + water; phases: Liquid, Crystal
Fixed: Pressure, kPa = 101
Property: Mole fraction of 4-amino-N,N-dimethylbenzenesulfonamide (Liquid); method: spectrophotometric method
Temperature, K	Mole fraction of 4-amino-N,N-dimethylbenzenesulfonamide	uncertainty
298	.0000321	.000000963

System: 1-octanol + 4-amino-N,N-dimethylbenzenesulfonamide; phases: Liquid, Crystal
Fixed: Pressure, kPa = 101
Property: Mole fraction of 4-amino-N,N-dimethylbenzenesulfonamide (Liquid); method: spectrophotometric method
Temperature, K	Mole fraction of 4-amino-N,N-dimethylbenzenesulfonamide	uncertainty
298	.000873	.00002619

System: n-hexane + 4-amino-N,N-dimethylbenzenesulfonamide; phases: Liquid, Crystal
Fixed: Pressure, kPa = 101
Property: Mole fraction of 4-amino-N,N-dimethylbenzenesulfonamide (Liquid); method: spectrophotometric method
Temperature, K	Mole fraction of 4-amino-N,N-dimethylbenzenesulfonamide	uncertainty
298	.0000029	.000000087

System: water + 4-amino-N,N-diphenylbenzenesulfonamide; phases: Liquid, Crystal
Fixed: Pressure, kPa = 101
Property: Mole fraction of 4-amino-N,N-diphenylbenzenesulfonamide (Liquid); method: spectrophotometric method
Temperature, K	Mole fraction of 4-amino-N,N-diphenylbenzenesulfonamide	uncertainty
298	.000000484	.00000001452

System: 1-octanol + 4-amino-N,N-diphenylbenzenesulfonamide; phases: Liquid, Crystal
Fixed: Pressure, kPa = 101
Property: Mole fraction of 4-amino-N,N-diphenylbenzenesulfonamide (Liquid); method: spectrophotometric method
Temperature, K	Mole fraction of 4-amino-N,N-diphenylbenzenesulfonamide	uncertainty
298	.000551	.00001653

System: n-hexane + 4-amino-N,N-diphenylbenzenesulfonamide; phases: Liquid, Crystal
Fixed: Pressure, kPa = 101
Property: Mole fraction of 4-amino-N,N-diphenylbenzenesulfonamide (Liquid); method: spectrophotometric method
Temperature, K	Mole fraction of 4-amino-N,N-diphenylbenzenesulfonamide	uncertainty
298	.0000054	.000000162

System: 4-amino-N-methylbenzenesulfonamide + water; phases: Liquid, Crystal
Fixed: Pressure, kPa = 101
Property: Mole fraction of 4-amino-N-methylbenzenesulfonamide (Liquid); method: spectrophotometric method
Temperature, K	Mole fraction of 4-amino-N-methylbenzenesulfonamide	uncertainty
298	.00103	.0000309

System: 1-octanol + 4-amino-N-methylbenzenesulfonamide; phases: Liquid, Crystal
Fixed: Pressure, kPa = 101
Property: Mole fraction of 4-amino-N-methylbenzenesulfonamide (Liquid); method: spectrophotometric method
Temperature, K	Mole fraction of 4-amino-N-methylbenzenesulfonamide	uncertainty
298	.00486	.0001458

System: n-hexane + 4-amino-N-(4-chlorophenyl)-2-methylbenzenesulfonamide; phases: Liquid, Crystal
Fixed: Pressure, kPa = 101
Property: Mole fraction of 4-amino-N-(4-chlorophenyl)-2-methylbenzenesulfonamide (Liquid); method: spectrophotometric method
Temperature, K	Mole fraction of 4-amino-N-(4-chlorophenyl)-2-methylbenzenesulfonamide	uncertainty
298	.00000459	.0000001377

System: n-hexane + 4-amino-N-(2-chlorophenyl)-2-methylbenzenesulfonamide; phases: Liquid, Crystal
Fixed: Pressure, kPa = 101
Property: Mole fraction of 4-amino-N-(2-chlorophenyl)-2-methylbenzenesulfonamide (Liquid); method: spectrophotometric method
Temperature, K	Mole fraction of 4-amino-N-(2-chlorophenyl)-2-methylbenzenesulfonamide	uncertainty
298	.00000108	.0000000324

System: n-hexane + 4-amino-2-methyl-N-(2-nitrophenyl)benzenesulfonamide; phases: Liquid, Crystal
Fixed: Pressure, kPa = 101
Property: Mole fraction of 4-amino-2-methyl-N-(2-nitrophenyl)benzenesulfonamide (Liquid); method: spectrophotometric method
Temperature, K	Mole fraction of 4-amino-2-methyl-N-(2-nitrophenyl)benzenesulfonamide	uncertainty
298	.00000322	.0000000966

System: n-hexane + 4-amino-N-(2,4,5-trichlorophenyl)benzenesulfonamide; phases: Liquid, Crystal
Fixed: Pressure, kPa = 101
Property: Mole fraction of 4-amino-N-(2,4,5-trichlorophenyl)benzenesulfonamide (Liquid); method: spectrophotometric method
Temperature, K	Mole fraction of 4-amino-N-(2,4,5-trichlorophenyl)benzenesulfonamide	uncertainty
298	.00006632	.0000019896

System: n-hexane + 4-amino-N-(2-chloro-4-methylphenyl)benzenesulfonamide; phases: Liquid, Crystal
Fixed: Pressure, kPa = 101
Property: Mole fraction of 4-amino-N-(2-chloro-4-methylphenyl)benzenesulfonamide (Liquid); method: spectrophotometric method
Temperature, K	Mole fraction of 4-amino-N-(2-chloro-4-methylphenyl)benzenesulfonamide	uncertainty
298	.00000243	.0000000729

System: water + 4-amino-N-(3-chloro-2-methoxyphenyl)benzenesulfonamide; phases: Liquid, Crystal
Fixed: Pressure, kPa = 101
Property: Mole fraction of 4-amino-N-(3-chloro-2-methoxyphenyl)benzenesulfonamide (Liquid); method: spectrophotometric method
Temperature, K	Mole fraction of 4-amino-N-(3-chloro-2-methoxyphenyl)benzenesulfonamide	uncertainty
298	.00000126	.0000000378

System: 1-octanol + 4-amino-N-(3-chloro-2-methoxyphenyl)benzenesulfonamide; phases: Liquid, Crystal
Fixed: Pressure, kPa = 101
Property: Mole fraction of 4-amino-N-(3-chloro-2-methoxyphenyl)benzenesulfonamide (Liquid); method: spectrophotometric method
Temperature, K	Mole fraction of 4-amino-N-(3-chloro-2-methoxyphenyl)benzenesulfonamide	uncertainty
298	.00383	.0001149

System: n-hexane + 4-amino-N-(3-chloro-2-methoxyphenyl)benzenesulfonamide; phases: Liquid, Crystal
Fixed: Pressure, kPa = 101
Property: Mole fraction of 4-amino-N-(3-chloro-2-methoxyphenyl)benzenesulfonamide (Liquid); method: spectrophotometric method
Temperature, K	Mole fraction of 4-amino-N-(3-chloro-2-methoxyphenyl)benzenesulfonamide	uncertainty
298	.00000312	.0000000936

System: water + 4-amino-N-(2-bromo-4-nitrophenyl)benzenesulfonamide; phases: Liquid, Crystal
Fixed: Pressure, kPa = 101
Property: Mole fraction of 4-amino-N-(2-bromo-4-nitrophenyl)benzenesulfonamide (Liquid); method: spectrophotometric method
Temperature, K	Mole fraction of 4-amino-N-(2-bromo-4-nitrophenyl)benzenesulfonamide	uncertainty
298	.000000301	.00000000903

System: 1-octanol + 4-amino-N-(2-bromo-4-nitrophenyl)benzenesulfonamide; phases: Liquid, Crystal
Fixed: Pressure, kPa = 101
Property: Mole fraction of 4-amino-N-(2-bromo-4-nitrophenyl)benzenesulfonamide (Liquid); method: spectrophotometric method
Temperature, K	Mole fraction of 4-amino-N-(2-bromo-4-nitrophenyl)benzenesulfonamide	uncertainty
298	.000308	.00000924
