Measured thermophysical data. Density, Viscosity, and Conductivity of Binary Mixtures of the Ionic Liquid N-(2-Hydroxyethyl)piperazinium Propionate with Water, Methanol, or Ethanol
Source: J. Chem. Eng. Data, 2015, 10.1021/je500380x
Compound 1: 2-(piperazin-1-yl)ethyl propionate, C9H18N2O2, purity 99.7%
Compound 2: methanol, CH4O, purity 99.7%
Compound 3: ethanol, C2H6O, purity 99.7%
Compound 4: water, H2O, purity 99.8%

System: methanol; phases: Liquid
Fixed: Pressure, kPa = 101.325
Property: Mass density, kg/m3 (Liquid); method: Vibrating tube method
Temperature, K	Mass density, kg/m3	uncertainty
298.15	786.671	.005

System: methanol; phases: Liquid
Fixed: Pressure, kPa = 101.325
Property: Viscosity, Pa*s (Liquid); method: Falling or rolling sphere viscometry
Temperature, K	Viscosity, Pa*s	uncertainty
298.15	.000559	.000005

System: ethanol; phases: Liquid
Fixed: Pressure, kPa = 101.325
Property: Mass density, kg/m3 (Liquid); method: Vibrating tube method
Temperature, K	Mass density, kg/m3	uncertainty
298.15	785.339	.005

System: ethanol; phases: Liquid
Fixed: Pressure, kPa = 101.325
Property: Viscosity, Pa*s (Liquid); method: Falling or rolling sphere viscometry
Temperature, K	Viscosity, Pa*s	uncertainty
298.15	.001083	.000005

System: water; phases: Liquid
Fixed: Pressure, kPa = 101.325
Property: Mass density, kg/m3 (Liquid); method: Vibrating tube method
Temperature, K	Mass density, kg/m3	uncertainty
298.15	997.077	.005

System: water; phases: Liquid
Fixed: Pressure, kPa = 101.325
Property: Viscosity, Pa*s (Liquid); method: Falling or rolling sphere viscometry
Temperature, K	Viscosity, Pa*s	uncertainty
298.15	.000887	.000005

System: water + 2-(piperazin-1-yl)ethyl propionate; phases: Liquid
Fixed: Pressure, kPa = 100
Property: Mass density, kg/m3 (Liquid); method: Vibrating tube method
Temperature, K	Molality, mol/kg of 2-(piperazin-1-yl)ethyl propionate	Mass density, kg/m3	uncertainty
293.15	0	998.22	.05
293.15	.05	1000.1	.05
293.15	.0999	1002.01	.05
293.15	.1996	1005.79	.05
293.15	.3	1009.71	.05
293.15	.3997	1013.54	.05
293.15	.5001	1017.42	.05
293.15	.5992	1021.32	.05
293.15	.6993	1025.14	.05
293.15	.7997	1029.27	.05
293.15	.9003	1033.09	.05
293.15	.9988	1037.12	.05
293.15	1.1994	1045.08	.05
293.15	1.4023	1053.12	.05
293.15	1.5997	1060.85	.05
293.15	1.8017	1068.6	.05
293.15	1.9982	1075.94	.05
293.15	2.1999	1083.11	.05
293.15	2.4022	1090.06	.05
293.15	2.6001	1096.1	.05
293.15	2.7984	1101.66	.05
293.15	3.0016	1106.84	.05
298.15	0	997.08	.05
298.15	.05	998.94	.05
298.15	.0999	1000.81	.05
298.15	.1996	1004.54	.05
298.15	.3	1008.41	.05
298.15	.3997	1012.17	.05
298.15	.5001	1015.99	.05
298.15	.5992	1019.83	.05
298.15	.6993	1023.57	.05
298.15	.7997	1027.65	.05
298.15	.9003	1031.4	.05
298.15	.9988	1035.35	.05
298.15	1.1994	1043.15	.05
298.15	1.4023	1051.04	.05
298.15	1.5997	1058.61	.05
298.15	1.8017	1066.22	.05
298.15	1.9982	1073.41	.05
298.15	2.1999	1080.44	.05
298.15	2.4022	1087.27	.05
298.15	2.6001	1093.23	.05
298.15	2.7984	1098.69	.05
298.15	3.0016	1103.78	.05
303.15	0	995.68	.05
303.15	.05	997.53	.05
303.15	.0999	999.38	.05
303.15	.1996	1003.06	.05
303.15	.3	1006.88	.05
303.15	.3997	1010.59	.05
303.15	.5001	1014.36	.05
303.15	.5992	1018.15	.05
303.15	.6993	1021.82	.05
303.15	.7997	1025.85	.05
303.15	.9003	1029.53	.05
303.15	.9988	1033.42	.05
303.15	1.1994	1041.09	.05
303.15	1.4023	1048.83	.05
303.15	1.5997	1056.27	.05
303.15	1.8017	1063.74	.05
303.15	1.9982	1070.79	.05
303.15	2.1999	1077.7	.05
303.15	2.4022	1084.44	.05
303.15	2.6001	1090.28	.05
303.15	2.7984	1095.67	.05
303.15	3.0016	1100.68	.05
308.15	0	994.07	.05
308.15	.05	995.91	.05
308.15	.0999	997.73	.05
308.15	.1996	1001.37	.05
308.15	.3	1005.16	.05
308.15	.3997	1008.83	.05
308.15	.5001	1012.54	.05
308.15	.5992	1016.24	.05
308.15	.6993	1019.8	.05
308.15	.7997	1023.89	.05
308.15	.9003	1027.51	.05
308.15	.9988	1031.34	.05
308.15	1.1994	1038.89	.05
308.15	1.4023	1046.51	.05
308.15	1.5997	1053.82	.05
308.15	1.8017	1061.17	.05
308.15	1.9982	1068.11	.05
308.15	2.1999	1074.9	.05
308.15	2.4022	1081.54	.05
308.15	2.6001	1087.28	.05
308.15	2.7984	1092.61	.05
308.15	3.0016	1097.53	.05
313.15	0	992.25	.05
313.15	.05	994.07	.05
313.15	.0999	995.89	.05
313.15	.1996	999.5	.05
313.15	.3	1003.25	.05
313.15	.3997	1006.85	.05
313.15	.5001	1010.55	.05
313.15	.5992	1014.22	.05
313.15	.6993	1017.89	.05
313.15	.7997	1021.76	.05
313.15	.9003	1025.33	.05
313.15	.9988	1029.11	.05
313.15	1.1994	1036.57	.05
313.15	1.4023	1044.07	.05
313.15	1.5997	1051.27	.05
313.15	1.8017	1058.51	.05
313.15	1.9982	1065.33	.05
313.15	2.1999	1072.02	.05
313.15	2.4022	1078.58	.05
313.15	2.6001	1084.23	.05
313.15	2.7984	1089.49	.05
313.15	3.0016	1094.34	.05
318.15	0	990.25	.05
318.15	.05	992.04	.05
318.15	.0999	993.83	.05
318.15	.1996	997.43	.05
318.15	.3	1001.16	.05
318.15	.3997	1004.61	.05
318.15	.5001	1008.39	.05
318.15	.5992	1012.05	.05
318.15	.6993	1015.67	.05
318.15	.7997	1019.49	.05
318.15	.9003	1023	.05
318.15	.9988	1026.75	.05
318.15	1.1994	1034.11	.05
318.15	1.4023	1041.51	.05
318.15	1.5997	1048.62	.05
318.15	1.8017	1055.75	.05
318.15	1.9982	1062.48	.05
318.15	2.1999	1069.07	.05
318.15	2.4022	1075.55	.05
318.15	2.6001	1081.13	.05
318.15	2.7984	1086.33	.05
318.15	3.0016	1091.09	.05
323.15	0	988.06	.05
323.15	.05	989.83	.05
323.15	.0999	991.62	.05
323.15	.1996	995.19	.05
323.15	.3	998.9	.05
323.15	.3997	1002.44	.05
323.15	.5001	1006.07	.05
323.15	.5992	1009.7	.05
323.15	.6993	1013.4	.05
323.15	.7997	1017.08	.05
323.15	.9003	1020.5	.05
323.15	.9988	1024.22	.05
323.15	1.1994	1031.52	.05
323.15	1.4023	1038.79	.05
323.15	1.5997	1045.84	.05
323.15	1.8017	1052.89	.05
323.15	1.9982	1059.54	.05
323.15	2.1999	1066.05	.05
323.15	2.4022	1072.45	.05
323.15	2.6001	1077.96	.05
323.15	2.7984	1083.11	.05
323.15	3.0016	1087.78	.05

System: water + 2-(piperazin-1-yl)ethyl propionate; phases: Liquid
Fixed: Pressure, kPa = 100
Property: Viscosity, Pa*s (Liquid); method: Falling or rolling sphere viscometry
Temperature, K	Molality, mol/kg of 2-(piperazin-1-yl)ethyl propionate	Viscosity, Pa*s	uncertainty
293.15	0	.000994	.00000497
293.15	.05	.001031	.000005155
293.15	.0999	.001081	.000005405
293.15	.1996	.001172	.00000586
293.15	.3	.001247	.000006235
293.15	.3997	.001349	.000006745
293.15	.5001	.001464	.00000732
293.15	.5992	.001581	.000007905
293.15	.6993	.001726	.00000863
293.15	.7997	.001883	.000009415
293.15	.9003	.002075	.000010375
293.15	.9988	.002263	.000011315
293.15	1.1994	.00277	.00001385
293.15	1.4023	.003472	.00001736
293.15	1.5997	.004338	.00002169
293.15	1.8017	.005445	.000027225
293.15	1.9982	.007039	.000035195
293.15	2.1999	.009362	.00004681
293.15	2.4022	.012397	.000061985
293.15	2.6001	.018484	.00009242
293.15	2.7984	.025903	.000129515
293.15	3.0016	.036817	.000184085
298.15	0	.000887	.000004435
298.15	.05	.00092	.0000046
298.15	.0999	.000962	.00000481
298.15	.1996	.001039	.000005195
298.15	.3	.001103	.000005515
298.15	.3997	.001187	.000005935
298.15	.5001	.001289	.000006445
298.15	.5992	.001389	.000006945
298.15	.6993	.00151	.00000755
298.15	.7997	.001644	.00000822
298.15	.9003	.001805	.000009025
298.15	.9988	.001964	.00000982
298.15	1.1994	.002388	.00001194
298.15	1.4023	.00291	.00001455
298.15	1.5997	.003684	.00001842
298.15	1.8017	.00458	.0000229
298.15	1.9982	.005865	.000029325
298.15	2.1999	.007721	.000038605
298.15	2.4022	.010136	.00005068
298.15	2.6001	.014885	.000074425
298.15	2.7984	.020536	.00010268
298.15	3.0016	.028695	.000143475
303.15	0	.000799	.000003995
303.15	.05	.000828	.00000414
303.15	.0999	.000864	.00000432
303.15	.1996	.00093	.00000465
303.15	.3	.000985	.000004925
303.15	.3997	.001058	.00000529
303.15	.5001	.001145	.000005725
303.15	.5992	.001232	.00000616
303.15	.6993	.001335	.000006675
303.15	.7997	.00145	.00000725
303.15	.9003	.001587	.000007935
303.15	.9988	.001722	.00000861
303.15	1.1994	.002079	.000010395
303.15	1.4023	.002519	.000012595
303.15	1.5997	.003163	.000015815
303.15	1.8017	.003903	.000019515
303.15	1.9982	.004953	.000024765
303.15	2.1999	.006458	.00003229
303.15	2.4022	.008415	.000042075
303.15	2.6001	.01217	.00006085
303.15	2.7984	.016601	.000083005
303.15	3.0016	.022767	.000113835
308.15	0	.000726	.00000363
308.15	.05	.00075	.00000375
308.15	.0999	.000783	.000003915
308.15	.1996	.000839	.000004195
308.15	.3	.000887	.000004435
308.15	.3997	.000951	.000004755
308.15	.5001	.001027	.000005135
308.15	.5992	.001102	.00000551
308.15	.6993	.00119	.00000595
308.15	.7997	.001292	.00000646
308.15	.9003	.001407	.000007035
308.15	.9988	.001524	.00000762
308.15	1.1994	.00183	.00000915
308.15	1.4023	.002203	.000011015
308.15	1.5997	.002745	.000013725
308.15	1.8017	.003361	.000016805
308.15	1.9982	.00423	.00002115
308.15	2.1999	.005468	.00002734
308.15	2.4022	.007079	.000035395
308.15	2.6001	.010115	.000050575
308.15	2.7984	.013607	.000068035
308.15	3.0016	.018367	.000091835
313.15	0	.000665	.000003325
313.15	.05	.000687	.000003435
313.15	.0999	.000714	.00000357
313.15	.1996	.000763	.000003815
313.15	.3	.000806	.00000403
313.15	.3997	.000861	.000004305
313.15	.5001	.000928	.00000464
313.15	.5992	.000994	.00000497
313.15	.6993	.001069	.000005345
313.15	.7997	.001159	.000005795
313.15	.9003	.001258	.00000629
313.15	.9988	.001361	.000006805
313.15	1.1994	.001623	.000008115
313.15	1.4023	.001944	.00000972
313.15	1.5997	.002407	.000012035
313.15	1.8017	.002925	.000014625
313.15	1.9982	.003651	.000018255
313.15	2.1999	.00468	.0000234
313.15	2.4022	.006032	.00003016
313.15	2.6001	.008455	.000042275
313.15	2.7984	.011321	.000056605
313.15	3.0016	.015061	.000075305
318.15	0	.000614	.00000307
318.15	.05	.000632	.00000316
318.15	.0999	.000658	.00000329
318.15	.1996	.0007	.0000035
318.15	.3	.000737	.000003685
318.15	.3997	.000785	.000003925
318.15	.5001	.000844	.00000422
318.15	.5992	.000902	.00000451
318.15	.6993	.000969	.000004845
318.15	.7997	.001048	.00000524
318.15	.9003	.001133	.000005665
318.15	.9988	.001222	.00000611
318.15	1.1994	.001452	.00000726
318.15	1.4023	.001729	.000008645
318.15	1.5997	.002122	.00001061
318.15	1.8017	.002566	.00001283
318.15	1.9982	.003183	.000015915
318.15	2.1999	.004044	.00002022
318.15	2.4022	.005196	.00002598
318.15	2.6001	.007174	.00003587
318.15	2.7984	.009493	.000047465
318.15	3.0016	.012495	.000062475
323.15	0	.000567	.000002835
323.15	.05	.000587	.000002935
323.15	.0999	.00061	.00000305
323.15	.1996	.000645	.000003225
323.15	.3	.000678	.00000339
323.15	.3997	.000722	.00000361
323.15	.5001	.000773	.000003865
323.15	.5992	.000825	.000004125
323.15	.6993	.000883	.000004415
323.15	.7997	.000953	.000004765
323.15	.9003	.001028	.00000514
323.15	.9988	.001106	.00000553
323.15	1.1994	.001307	.000006535
323.15	1.4023	.001549	.000007745
323.15	1.5997	.001895	.000009475
323.15	1.8017	.002274	.00001137
323.15	1.9982	.002797	.000013985
323.15	2.1999	.003527	.000017635
323.15	2.4022	.004525	.000022625
323.15	2.6001	.006112	.00003056
323.15	2.7984	.008069	.000040345
323.15	3.0016	.010488	.00005244

System: water + 2-(piperazin-1-yl)ethyl propionate; phases: Liquid
Fixed: Pressure, kPa = 100
Property: Electrical conductivity, S/m (Liquid); method: Alternating current cell with electrodes
Temperature, K	Molality, mol/kg of 2-(piperazin-1-yl)ethyl propionate	Electrical conductivity, S/m	uncertainty
293.15	.05	.239	.001195
293.15	.0999	.436	.00218
293.15	.1996	.762	.00381
293.15	.3	1.028	.00514
293.15	.3997	1.247	.006235
293.15	.5001	1.406	.00703
293.15	.5992	1.565	.007825
293.15	.6993	1.675	.008375
293.15	.7997	1.767	.008835
293.15	.9003	1.822	.00911
293.15	.9988	1.853	.009265
293.15	1.1994	1.863	.009315
293.15	1.4023	1.798	.00899
293.15	1.5997	1.682	.00841
293.15	1.8017	1.523	.007615
293.15	1.9982	1.35	.00675
293.15	2.1999	1.156	.00578
293.15	2.4022	.955	.004775
293.15	2.6001	.779	.003895
293.15	2.7984	.595	.002975
293.15	3.0016	.461	.002305
298.15	.05	.267	.001335
298.15	.0999	.486	.00243
298.15	.1996	.848	.00424
298.15	.3	1.149	.005745
298.15	.3997	1.395	.006975
298.15	.5001	1.598	.00799
298.15	.5992	1.765	.008825
298.15	.6993	1.889	.009445
298.15	.7997	1.998	.00999
298.15	.9003	2.07	.01035
298.15	.9988	2.12	.0106
298.15	1.1994	2.13	.01065
298.15	1.4023	2.06	.0103
298.15	1.5997	1.94	.0097
298.15	1.8017	1.76	.0088
298.15	1.9982	1.574	.00787
298.15	2.1999	1.361	.006805
298.15	2.4022	1.159	.005795
298.15	2.6001	.931	.004655
298.15	2.7984	.738	.00369
298.15	3.0016	.578	.00289
303.15	.05	.296	.00148
303.15	.0999	.538	.00269
303.15	.1996	.941	.004705
303.15	.3	1.277	.006385
303.15	.3997	1.558	.00779
303.15	.5001	1.777	.008885
303.15	.5992	1.969	.009845
303.15	.6993	2.11	.01055
303.15	.7997	2.23	.01115
303.15	.9003	2.31	.01155
303.15	.9988	2.37	.01185
303.15	1.1994	2.4	.012
303.15	1.4023	2.35	.01175
303.15	1.5997	2.22	.0111
303.15	1.8017	2.04	.0102
303.15	1.9982	1.828	.00914
303.15	2.1999	1.592	.00796
303.15	2.4022	1.369	.006845
303.15	2.6001	1.109	.005545
303.15	2.7984	.878	.00439
303.15	3.0016	.722	.00361
308.15	.05	.327	.001635
308.15	.0999	.595	.002975
308.15	.1996	1.042	.00521
308.15	.3	1.416	.00708
308.15	.3997	1.729	.008645
308.15	.5001	1.968	.00984
308.15	.5992	2.19	.01095
308.15	.6993	2.36	.0118
308.15	.7997	2.49	.01245
308.15	.9003	2.59	.01295
308.15	.9988	2.66	.0133
308.15	1.1994	2.7	.0135
308.15	1.4023	2.65	.01325
308.15	1.5997	2.53	.01265
308.15	1.8017	2.33	.01165
308.15	1.9982	2.11	.01055
308.15	2.1999	1.85	.00925
308.15	2.4022	1.6	.008
308.15	2.6001	1.305	.006525
308.15	2.7984	1.062	.00531
308.15	3.0016	.848	.00424
313.15	.05	.359	.001795
313.15	.0999	.651	.003255
313.15	.1996	1.143	.005715
313.15	.3	1.558	.00779
313.15	.3997	1.903	.009515
313.15	.5001	2.18	.0109
313.15	.5992	2.43	.01215
313.15	.6993	2.62	.0131
313.15	.7997	2.77	.01385
313.15	.9003	2.88	.0144
313.15	.9988	2.96	.0148
313.15	1.1994	3.02	.0151
313.15	1.4023	2.99	.01495
313.15	1.5997	2.84	.0142
313.15	1.8017	2.65	.01325
313.15	1.9982	2.4	.012
313.15	2.1999	2.13	.01065
313.15	2.4022	1.843	.009215
313.15	2.6001	1.53	.00765
313.15	2.7984	1.215	.006075
313.15	3.0016	.987	.004935
318.15	.05	.392	.00196
318.15	.0999	.711	.003555
318.15	.1996	1.253	.006265
318.15	.3	1.707	.008535
318.15	.3997	2.08	.0104
318.15	.5001	2.39	.01195
318.15	.5992	2.66	.0133
318.15	.6993	2.86	.0143
318.15	.7997	3.04	.0152
318.15	.9003	3.17	.01585
318.15	.9988	3.26	.0163
318.15	1.1994	3.34	.0167
318.15	1.4023	3.31	.01655
318.15	1.5997	3.19	.01595
318.15	1.8017	2.96	.0148
318.15	1.9982	2.7	.0135
318.15	2.1999	2.4	.012
318.15	2.4022	2.11	.01055
318.15	2.6001	1.774	.00887
318.15	2.7984	1.411	.007055
318.15	3.0016	1.169	.005845
323.15	.05	.426	.00213
323.15	.0999	.772	.00386
323.15	.1996	1.356	.00678
323.15	.3	1.854	.00927
323.15	.3997	2.27	.01135
323.15	.5001	2.61	.01305
323.15	.5992	2.92	.0146
323.15	.6993	3.14	.0157
323.15	.7997	3.34	.0167
323.15	.9003	3.48	.0174
323.15	.9988	3.59	.01795
323.15	1.1994	3.69	.01845
323.15	1.4023	3.64	.0182
323.15	1.5997	3.52	.0176
323.15	1.8017	3.28	.0164
323.15	1.9982	3	.015
323.15	2.1999	2.69	.01345
323.15	2.4022	2.38	.0119
323.15	2.6001	2.01	.01005
323.15	2.7984	1.628	.00814
323.15	3.0016	1.341	.006705

System: methanol + 2-(piperazin-1-yl)ethyl propionate; phases: Liquid
Fixed: Pressure, kPa = 100
Property: Mass density, kg/m3 (Liquid); method: Vibrating tube method
Temperature, K	Molality, mol/kg of 2-(piperazin-1-yl)ethyl propionate	Mass density, kg/m3	uncertainty
293.15	0	791.38	.05
293.15	.05	794.44	.05
293.15	.1001	797.52	.05
293.15	.2006	803.64	.05
293.15	.3003	809.65	.05
293.15	.3995	815.7	.05
293.15	.5005	821.73	.05
293.15	.6006	827.94	.05
293.15	.7007	834.12	.05
293.15	.8007	840.22	.05
293.15	.9008	846.35	.05
293.15	1.0012	852.36	.05
293.15	1.2005	864.62	.05
293.15	1.4011	877.59	.05
293.15	1.6	890.02	.05
293.15	1.801	903.1	.05
293.15	2.0003	916.07	.05
293.15	2.2026	929.95	.05
293.15	2.403	942.83	.05
293.15	2.6035	955.65	.05
293.15	2.8025	969.71	.05
293.15	3.0006	982.22	.05
298.15	0	786.67	.05
298.15	.05	789.75	.05
298.15	.1001	792.84	.05
298.15	.2006	798.96	.05
298.15	.3003	805.01	.05
298.15	.3995	811.06	.05
298.15	.5005	817.14	.05
298.15	.6006	823.36	.05
298.15	.7007	829.58	.05
298.15	.8007	835.68	.05
298.15	.9008	841.84	.05
298.15	1.0012	847.87	.05
298.15	1.2005	860.2	.05
298.15	1.4011	873.21	.05
298.15	1.6	885.7	.05
298.15	1.801	898.85	.05
298.15	2.0003	911.8	.05
298.15	2.2026	925.82	.05
298.15	2.403	938.76	.05
298.15	2.6035	951.62	.05
298.15	2.8025	964.72	.05
298.15	3.0006	978.3	.05
303.15	0	781.95	.05
303.15	.05	785.03	.05
303.15	.1001	788.13	.05
303.15	.2006	794.26	.05
303.15	.3003	800.33	.05
303.15	.3995	806.4	.05
303.15	.5005	812.5	.05
303.15	.6006	818.75	.05
303.15	.7007	824.99	.05
303.15	.8007	831.13	.05
303.15	.9008	837.3	.05
303.15	1.0012	843.36	.05
303.15	1.2005	855.75	.05
303.15	1.4011	868.82	.05
303.15	1.6	881.35	.05
303.15	1.801	894.62	.05
303.15	2.0003	907.8	.05
303.15	2.2026	921.66	.05
303.15	2.403	934.65	.05
303.15	2.6035	947.56	.05
303.15	2.8025	960.73	.05
303.15	3.0006	974.37	.05
308.15	0	777.2	.05
308.15	.05	780.29	.05
308.15	.1001	783.39	.05
308.15	.2006	789.53	.05
308.15	.3003	795.62	.05
308.15	.3995	801.72	.05
308.15	.5005	807.84	.05
308.15	.6006	814.12	.05
308.15	.7007	820.37	.05
308.15	.8007	826.54	.05
308.15	.9008	832.74	.05
308.15	1.0012	838.83	.05
308.15	1.2005	851.28	.05
308.15	1.4011	864.42	.05
308.15	1.6	876.97	.05
308.15	1.801	890.31	.05
308.15	2.0003	903.56	.05
308.15	2.2026	917.48	.05
308.15	2.403	930.52	.05
308.15	2.6035	943.48	.05
308.15	2.8025	956.73	.05
308.15	3.0006	970.42	.05
313.15	0	772.43	.05
313.15	.05	775.51	.05
313.15	.1001	778.61	.05
313.15	.2006	784.77	.05
313.15	.3003	790.88	.05
313.15	.3995	797	.05
313.15	.5005	803.15	.05
313.15	.6006	809.45	.05
313.15	.7007	815.73	.05
313.15	.8007	821.92	.05
313.15	.9008	828.14	.05
313.15	1.0012	834.22	.05
313.15	1.2005	846.77	.05
313.15	1.4011	859.97	.05
313.15	1.6	872.59	.05
313.15	1.801	885.98	.05
313.15	2.0003	899.28	.05
313.15	2.2026	913.27	.05
313.15	2.403	926.52	.05
313.15	2.6035	939.34	.05
313.15	2.8025	952.7	.05
313.15	3.0006	966.46	.05
318.15	0	767.62	.05
318.15	.05	770.7	.05
318.15	.1001	773.8	.05
318.15	.2006	779.98	.05
318.15	.3003	786.11	.05
318.15	.3995	792.25	.05
318.15	.5005	798.42	.05
318.15	.6006	804.74	.05
318.15	.7007	811.06	.05
318.15	.8007	817.27	.05
318.15	.9008	823.51	.05
318.15	1.0012	829.66	.05
318.15	1.2005	842.24	.05
318.15	1.4011	855.48	.05
318.15	1.6	868.17	.05
318.15	1.801	881.62	.05
318.15	2.0003	894.99	.05
318.15	2.2026	909.04	.05
318.15	2.403	922.36	.05
318.15	2.6035	935.25	.05
318.15	2.8025	948.64	.05
318.15	3.0006	962.47	.05
323.15	0	762.77	.05
323.15	.05	765.85	.05
323.15	.1001	768.95	.05
323.15	.2006	775.15	.05
323.15	.3003	781.29	.05
323.15	.3995	787.45	.05
323.15	.5005	793.64	.05
323.15	.6006	799.99	.05
323.15	.7007	806.34	.05
323.15	.8007	812.57	.05
323.15	.9008	818.85	.05
323.15	1.0012	825.02	.05
323.15	1.2005	837.66	.05
323.15	1.4011	850.96	.05
323.15	1.6	863.7	.05
323.15	1.801	877.22	.05
323.15	2.0003	890.65	.05
323.15	2.2026	904.77	.05
323.15	2.403	918.16	.05
323.15	2.6035	931.01	.05
323.15	2.8025	944.56	.05
323.15	3.0006	958.45	.05

System: methanol + 2-(piperazin-1-yl)ethyl propionate; phases: Liquid
Fixed: Pressure, kPa = 100
Property: Viscosity, Pa*s (Liquid); method: Falling or rolling sphere viscometry
Temperature, K	Molality, mol/kg of 2-(piperazin-1-yl)ethyl propionate	Viscosity, Pa*s	uncertainty
293.15	0	.000595	.000002975
293.15	.05	.000613	.000003065
293.15	.1001	.000632	.00000316
293.15	.2006	.000675	.000003375
293.15	.3003	.00072	.0000036
293.15	.3995	.000771	.000003855
293.15	.5005	.000828	.00000414
293.15	.6006	.00089	.00000445
293.15	.7007	.000954	.00000477
293.15	.8007	.001033	.000005165
293.15	.9008	.001118	.00000559
293.15	1.0012	.001219	.000006095
293.15	1.2005	.001426	.00000713
293.15	1.4011	.001719	.000008595
293.15	1.6	.00209	.00001045
293.15	1.801	.002581	.000012905
293.15	2.0003	.003261	.000016305
293.15	2.2026	.004138	.00002069
293.15	2.403	.005479	.000027395
293.15	2.6035	.00728	.0000364
293.15	2.8025	.009916	.00004958
293.15	3.0006	.014364	.00007182
298.15	0	.000559	.000002795
298.15	.05	.000576	.00000288
298.15	.1001	.000592	.00000296
298.15	.2006	.000629	.000003145
298.15	.3003	.000671	.000003355
298.15	.3995	.000716	.00000358
298.15	.5005	.000767	.000003835
298.15	.6006	.000823	.000004115
298.15	.7007	.000881	.000004405
298.15	.8007	.000952	.00000476
298.15	.9008	.001029	.000005145
298.15	1.0012	.001117	.000005585
298.15	1.2005	.001303	.000006515
298.15	1.4011	.001562	.00000781
298.15	1.6	.001888	.00000944
298.15	1.801	.002319	.000011595
298.15	2.0003	.002909	.000014545
298.15	2.2026	.003661	.000018305
298.15	2.403	.004801	.000024005
298.15	2.6035	.006312	.00003156
298.15	2.8025	.008495	.000042475
298.15	3.0006	.012126	.00006063
303.15	0	.000527	.000002635
303.15	.05	.000542	.00000271
303.15	.1001	.000556	.00000278
303.15	.2006	.000589	.000002945
303.15	.3003	.000627	.000003135
303.15	.3995	.000668	.00000334
303.15	.5005	.000713	.000003565
303.15	.6006	.000764	.00000382
303.15	.7007	.000816	.00000408
303.15	.8007	.000881	.000004405
303.15	.9008	.00095	.00000475
303.15	1.0012	.001028	.00000514
303.15	1.2005	.001194	.00000597
303.15	1.4011	.001425	.000007125
303.15	1.6	.001713	.000008565
303.15	1.801	.002093	.000010465
303.15	2.0003	.002606	.00001303
303.15	2.2026	.003257	.000016285
303.15	2.403	.004233	.000021165
303.15	2.6035	.005512	.00002756
303.15	2.8025	.007332	.00003666
303.15	3.0006	.010324	.00005162
308.15	0	.000498	.00000249
308.15	.05	.000512	.00000256
308.15	.1001	.000523	.000002615
308.15	.2006	.000554	.00000277
308.15	.3003	.000588	.00000294
308.15	.3995	.000625	.000003125
308.15	.5005	.000665	.000003325
308.15	.6006	.000711	.000003555
308.15	.7007	.000758	.00000379
308.15	.8007	.000817	.000004085
308.15	.9008	.000879	.000004395
308.15	1.0012	.000949	.000004745
308.15	1.2005	.001098	.00000549
308.15	1.4011	.001305	.000006525
308.15	1.6	.00156	.0000078
308.15	1.801	.001895	.000009475
308.15	2.0003	.002346	.00001173
308.15	2.2026	.002912	.00001456
308.15	2.403	.003753	.000018765
308.15	2.6035	.004841	.000024205
308.15	2.8025	.006372	.00003186
308.15	3.0006	.008863	.000044315
313.15	0	.000471	.000002355
313.15	.05	.000484	.00000242
313.15	.1001	.000494	.00000247
313.15	.2006	.000522	.00000261
313.15	.3003	.000552	.00000276
313.15	.3995	.000585	.000002925
313.15	.5005	.000623	.000003115
313.15	.6006	.000664	.00000332
313.15	.7007	.000706	.00000353
313.15	.8007	.00076	.0000038
313.15	.9008	.000815	.000004075
313.15	1.0012	.000878	.00000439
313.15	1.2005	.001012	.00000506
313.15	1.4011	.001197	.000005985
313.15	1.6	.001425	.000007125
313.15	1.801	.001723	.000008615
313.15	2.0003	.00212	.0000106
313.15	2.2026	.002614	.00001307
313.15	2.403	.003343	.000016715
313.15	2.6035	.004274	.00002137
313.15	2.8025	.005571	.000027855
313.15	3.0006	.007662	.00003831
318.15	0	.000448	.00000224
318.15	.05	.000459	.000002295
318.15	.1001	.000468	.00000234
318.15	.2006	.000493	.000002465
318.15	.3003	.000521	.000002605
318.15	.3995	.00055	.00000275
318.15	.5005	.000584	.00000292
318.15	.6006	.000622	.00000311
318.15	.7007	.00066	.0000033
318.15	.8007	.000708	.00000354
318.15	.9008	.000759	.000003795
318.15	1.0012	.000814	.00000407
318.15	1.2005	.000935	.000004675
318.15	1.4011	.001102	.00000551
318.15	1.6	.001306	.00000653
318.15	1.801	.001571	.000007855
318.15	2.0003	.001922	.00000961
318.15	2.2026	.002355	.000011775
318.15	2.403	.00299	.00001495
318.15	2.6035	.003793	.000018965
318.15	2.8025	.004897	.000024485
318.15	3.0006	.006668	.00003334
323.15	0	.000428	.00000214
323.15	.05	.000437	.000002185
323.15	.1001	.000445	.000002225
323.15	.2006	.000467	.000002335
323.15	.3003	.000492	.00000246
323.15	.3995	.000519	.000002595
323.15	.5005	.000549	.000002745
323.15	.6006	.000583	.000002915
323.15	.7007	.000617	.000003085
323.15	.8007	.000661	.000003305
323.15	.9008	.000707	.000003535
323.15	1.0012	.000757	.000003785
323.15	1.2005	.000866	.00000433
323.15	1.4011	.001016	.00000508
323.15	1.6	.001199	.000005995
323.15	1.801	.001436	.00000718
323.15	2.0003	.001748	.00000874
323.15	2.2026	.00213	.00001065
323.15	2.403	.002685	.000013425
323.15	2.6035	.003381	.000016905
323.15	2.8025	.004325	.000021625
323.15	3.0006	.005906	.00002953

System: methanol + 2-(piperazin-1-yl)ethyl propionate; phases: Liquid
Fixed: Pressure, kPa = 100
Property: Electrical conductivity, S/m (Liquid); method: Alternating current cell with electrodes
Temperature, K	Molality, mol/kg of 2-(piperazin-1-yl)ethyl propionate	Electrical conductivity, S/m	uncertainty
293.15	.05	.1277	.0006385
293.15	.1001	.211	.001055
293.15	.2006	.339	.001695
293.15	.3003	.432	.00216
293.15	.3995	.506	.00253
293.15	.5005	.566	.00283
293.15	.6006	.617	.003085
293.15	.7007	.657	.003285
293.15	.8007	.688	.00344
293.15	.9008	.712	.00356
293.15	1.0012	.732	.00366
293.15	1.2005	.757	.003785
293.15	1.4011	.752	.00376
293.15	1.6	.737	.003685
293.15	1.801	.706	.00353
293.15	2.0003	.656	.00328
293.15	2.2026	.605	.003025
293.15	2.403	.542	.00271
293.15	2.6035	.479	.002395
293.15	2.8025	.409	.002045
293.15	3.006	.342	.00171
298.15	.05	.1319	.0006595
298.15	.1001	.218	.00109
298.15	.2006	.351	.001755
298.15	.3003	.448	.00224
298.15	.3995	.525	.002625
298.15	.5005	.59	.00295
298.15	.6006	.644	.00322
298.15	.7007	.686	.00343
298.15	.8007	.72	.0036
298.15	.9008	.748	.00374
298.15	1.0012	.77	.00385
298.15	1.2005	.794	.00397
298.15	1.4011	.797	.003985
298.15	1.6	.784	.00392
298.15	1.801	.755	.003775
298.15	2.0003	.708	.00354
298.15	2.2026	.653	.003265
298.15	2.403	.587	.002935
298.15	2.6035	.518	.00259
298.15	2.8025	.457	.002285
298.15	3.006	.392	.00196
303.15	.05	.1356	.000678
303.15	.1001	.224	.00112
303.15	.2006	.362	.00181
303.15	.3003	.465	.002325
303.15	.3995	.547	.002735
303.15	.5005	.615	.003075
303.15	.6006	.672	.00336
303.15	.7007	.715	.003575
303.15	.8007	.756	.00378
303.15	.9008	.785	.003925
303.15	1.0012	.813	.004065
303.15	1.2005	.839	.004195
303.15	1.4011	.849	.004245
303.15	1.6	.837	.004185
303.15	1.801	.813	.004065
303.15	2.0003	.766	.00383
303.15	2.2026	.712	.00356
303.15	2.403	.648	.00324
303.15	2.6035	.571	.002855
303.15	2.8025	.505	.002525
303.15	3.006	.439	.002195
308.15	.05	.1391	.0006955
308.15	.1001	.232	.00116
308.15	.2006	.374	.00187
308.15	.3003	.482	.00241
308.15	.3995	.566	.00283
308.15	.5005	.641	.003205
308.15	.6006	.701	.003505
308.15	.7007	.748	.00374
308.15	.8007	.792	.00396
308.15	.9008	.824	.00412
308.15	1.0012	.858	.00429
308.15	1.2005	.883	.004415
308.15	1.4011	.892	.00446
308.15	1.6	.889	.004445
308.15	1.801	.862	.00431
308.15	2.0003	.818	.00409
308.15	2.2026	.766	.00383
308.15	2.403	.703	.003515
308.15	2.6035	.626	.00313
308.15	2.8025	.559	.002795
308.15	3.006	.483	.002415
313.15	.05	.1423	.0007115
313.15	.1001	.238	.00119
313.15	.2006	.384	.00192
313.15	.3003	.498	.00249
313.15	.3995	.586	.00293
313.15	.5005	.661	.003305
313.15	.6006	.729	.003645
313.15	.7007	.779	.003895
313.15	.8007	.823	.004115
313.15	.9008	.857	.004285
313.15	1.0012	.898	.00449
313.15	1.2005	.931	.004655
313.15	1.4011	.948	.00474
313.15	1.6	.941	.004705
313.15	1.801	.918	.00459
313.15	2.0003	.873	.004365
313.15	2.2026	.82	.0041
313.15	2.403	.751	.003755
313.15	2.6035	.674	.00337
313.15	2.8025	.599	.002995
313.15	3.006	.534	.00267
318.15	.05	.1451	.0007255
318.15	.1001	.243	.001215
318.15	.2006	.395	.001975
318.15	.3003	.511	.002555
318.15	.3995	.604	.00302
318.15	.5005	.685	.003425
318.15	.6006	.754	.00377
318.15	.7007	.806	.00403
318.15	.8007	.855	.004275
318.15	.9008	.891	.004455
318.15	1.0012	.936	.00468
318.15	1.2005	.975	.004875
318.15	1.4011	.994	.00497
318.15	1.6	.995	.004975
318.15	1.801	.971	.004855
318.15	2.0003	.932	.00466
318.15	2.2026	.874	.00437
318.15	2.403	.809	.004045
318.15	2.6035	.724	.00362
318.15	2.8025	.656	.00328
318.15	3.006	.583	.002915
323.15	.05	.1482	.000741
323.15	.1001	.244	.00122
323.15	.2006	.406	.00203
323.15	.3003	.529	.002645
323.15	.3995	.625	.003125
323.15	.5005	.709	.003545
323.15	.6006	.782	.00391
323.15	.7007	.833	.004165
323.15	.8007	.889	.004445
323.15	.9008	.927	.004635
323.15	1.0012	.976	.00488
323.15	1.2005	1.017	.005085
323.15	1.4011	1.042	.00521
323.15	1.6	1.045	.005225
323.15	1.801	1.032	.00516
323.15	2.0003	.996	.00498
323.15	2.2026	.933	.004665
323.15	2.403	.866	.00433
323.15	2.6035	.781	.003905
323.15	2.8025	.708	.00354
323.15	3.006	.636	.00318

System: ethanol + 2-(piperazin-1-yl)ethyl propionate; phases: Liquid
Fixed: Pressure, kPa = 100
Property: Mass density, kg/m3 (Liquid); method: Vibrating tube method
Temperature, K	Molality, mol/kg of 2-(piperazin-1-yl)ethyl propionate	Mass density, kg/m3	uncertainty
293.15	0	789.64	.05
293.15	.05	792.31	.05
293.15	.1	795.01	.05
293.15	.1985	800.36	.05
293.15	.3005	806.02	.05
293.15	.4001	811.4	.05
293.15	.5007	817.08	.05
293.15	.5998	822.5	.05
293.15	.7002	828.2	.05
293.15	.8	833.89	.05
293.15	.8957	839.61	.05
293.15	1	845.48	.05
293.15	1.1977	857.06	.05
293.15	1.4007	869.49	.05
293.15	1.6017	881.43	.05
293.15	1.7999	893.69	.05
293.15	2.0012	906.93	.05
293.15	2.1981	918.83	.05
293.15	2.3971	931.94	.05
293.15	2.5972	945.08	.05
293.15	2.7957	958.17	.05
293.15	3.0055	972.39	.05
298.15	0	785.34	.05
298.15	.05	788.01	.05
298.15	.1	790.73	.05
298.15	.1985	796.08	.05
298.15	.3005	801.71	.05
298.15	.4001	807.14	.05
298.15	.5007	812.78	.05
298.15	.5998	818.26	.05
298.15	.7002	823.96	.05
298.15	.8	829.67	.05
298.15	.8957	835.39	.05
298.15	1	841.3	.05
298.15	1.1977	852.92	.05
298.15	1.4007	865.42	.05
298.15	1.6017	877.35	.05
298.15	1.7999	889.66	.05
298.15	2.0012	902.95	.05
298.15	2.1981	914.88	.05
298.15	2.3971	928.01	.05
298.15	2.5972	941.19	.05
298.15	2.7957	954.36	.05
298.15	3.0055	968.58	.05
303.15	0	781.03	.05
303.15	.05	783.69	.05
303.15	.1	786.41	.05
303.15	.1985	791.76	.05
303.15	.3005	797.4	.05
303.15	.4001	802.85	.05
303.15	.5007	808.5	.05
303.15	.5998	813.99	.05
303.15	.7002	819.7	.05
303.15	.8	825.43	.05
303.15	.8957	831.17	.05
303.15	1	837.09	.05
303.15	1.1977	848.73	.05
303.15	1.4007	861.28	.05
303.15	1.6017	873.24	.05
303.15	1.7999	885.6	.05
303.15	2.0012	898.93	.05
303.15	2.1981	910.89	.05
303.15	2.3971	924.07	.05
303.15	2.5972	937.29	.05
303.15	2.7957	950.5	.05
303.15	3.0055	964.74	.05
308.15	0	776.68	.05
308.15	.05	779.32	.05
308.15	.1	782.05	.05
308.15	.1985	787.4	.05
308.15	.3005	793.06	.05
308.15	.4001	798.51	.05
308.15	.5007	804.18	.05
308.15	.5998	809.68	.05
308.15	.7002	815.4	.05
308.15	.8	821.15	.05
308.15	.8957	826.9	.05
308.15	1	832.84	.05
308.15	1.1977	844.51	.05
308.15	1.4007	857.11	.05
308.15	1.6017	869.1	.05
308.15	1.7999	881.5	.05
308.15	2.0012	894.88	.05
308.15	2.1981	906.86	.05
308.15	2.3971	920.09	.05
308.15	2.5972	933.36	.05
308.15	2.7957	946.62	.05
308.15	3.0055	960.85	.05
313.15	0	772.29	.05
313.15	.05	774.92	.05
313.15	.1	777.65	.05
313.15	.1985	783	.05
313.15	.3005	788.67	.05
313.15	.4001	794.13	.05
313.15	.5007	799.81	.05
313.15	.5998	805.32	.05
313.15	.7002	811.06	.05
313.15	.8	816.82	.05
313.15	.8957	822.6	.05
313.15	1	828.55	.05
313.15	1.1977	840.27	.05
313.15	1.4007	852.89	.05
313.15	1.6017	864.93	.05
313.15	1.7999	877.36	.05
313.15	2.0012	890.78	.05
313.15	2.1981	902.73	.05
313.15	2.3971	916.08	.05
313.15	2.5972	929.4	.05
313.15	2.7957	942.71	.05
313.15	3.0055	956.85	.05
318.15	0	767.86	.05
318.15	.05	770.48	.05
318.15	.1	773.2	.05
318.15	.1985	778.55	.05
318.15	.3005	784.23	.05
318.15	.4001	789.7	.05
318.15	.5007	795.39	.05
318.15	.5998	800.91	.05
318.15	.7002	806.67	.05
318.15	.8	812.45	.05
318.15	.8957	818.24	.05
318.15	1	824.21	.05
318.15	1.1977	835.97	.05
318.15	1.4007	848.63	.05
318.15	1.6017	860.7	.05
318.15	1.7999	873.18	.05
318.15	2.0012	886.65	.05
318.15	2.1981	898.68	.05
318.15	2.3971	912.04	.05
318.15	2.5972	925.4	.05
318.15	2.7957	938.75	.05
318.15	3.0055	953.35	.05
323.15	0	763.38	.05
323.15	.05	765.98	.05
323.15	.1	768.7	.05
323.15	.1985	774.05	.05
323.15	.3005	779.73	.05
323.15	.4001	785.21	.05
323.15	.5007	790.92	.05
323.15	.5998	796.46	.05
323.15	.7002	802.23	.05
323.15	.8	808.02	.05
323.15	.8957	813.82	.05
323.15	1	819.82	.05
323.15	1.1977	831.61	.05
323.15	1.4007	844.32	.05
323.15	1.6017	856.43	.05
323.15	1.7999	868.95	.05
323.15	2.0012	882.65	.05
323.15	2.1981	894.55	.05
323.15	2.3971	907.95	.05
323.15	2.5972	921.36	.05
323.15	2.7957	934.75	.05
323.15	3.0055	949.41	.05

System: ethanol + 2-(piperazin-1-yl)ethyl propionate; phases: Liquid
Fixed: Pressure, kPa = 100
Property: Viscosity, Pa*s (Liquid); method: Falling or rolling sphere viscometry
Temperature, K	Molality, mol/kg of 2-(piperazin-1-yl)ethyl propionate	Viscosity, Pa*s	uncertainty
293.15	0	.001189	.000005945
293.15	.05	.001231	.000006155
293.15	.1	.001291	.000006455
293.15	.1985	.001369	.000006845
293.15	.3005	.001473	.000007365
293.15	.4001	.001577	.000007885
293.15	.5007	.001711	.000008555
293.15	.5998	.001845	.000009225
293.15	.7002	.002	.00001
293.15	.8	.002198	.00001099
293.15	.8957	.002363	.000011815
293.15	1	.002582	.00001291
293.15	1.1977	.003081	.000015405
293.15	1.4007	.003774	.00001887
293.15	1.6017	.004697	.000023485
293.15	1.7999	.00593	.00002965
293.15	2.0012	.007934	.00003967
293.15	2.1981	.009733	.000048665
293.15	2.3971	.012861	.000064305
293.15	2.5972	.018803	.000094015
293.15	2.7957	.025226	.00012613
293.15	3.0055	.037453	.000187265
298.15	0	.001083	.000005415
298.15	.05	.00112	.0000056
298.15	.1	.001173	.000005865
298.15	.1985	.001241	.000006205
298.15	.3005	.001333	.000006665
298.15	.4001	.001424	.00000712
298.15	.5007	.001541	.000007705
298.15	.5998	.001658	.00000829
298.15	.7002	.001793	.000008965
298.15	.8	.001967	.000009835
298.15	.8957	.00211	.00001055
298.15	1	.002298	.00001149
298.15	1.1977	.002729	.000013645
298.15	1.4007	.003319	.000016595
298.15	1.6017	.004106	.00002053
298.15	1.7999	.005146	.00002573
298.15	2.0012	.006811	.000034055
298.15	2.1981	.008295	.000041475
298.15	2.3971	.010834	.00005417
298.15	2.5972	.015643	.000078215
298.15	2.7957	.0207	.0001035
298.15	3.0055	.030283	.000151415
303.15	0	.000989	.000004945
303.15	.05	.001021	.000005105
303.15	.1	.001069	.000005345
303.15	.1985	.0012	.000006
303.15	.3005	.001209	.000006045
303.15	.4001	.001289	.000006445
303.15	.5007	.001392	.00000696
303.15	.5998	.001495	.000007475
303.15	.7002	.001613	.000008065
303.15	.8	.001766	.00000883
303.15	.8957	.00189	.00000945
303.15	1	.002054	.00001027
303.15	1.1977	.002427	.000012135
303.15	1.4007	.002935	.000014675
303.15	1.6017	.003606	.00001803
303.15	1.7999	.004489	.000022445
303.15	2.0012	.005886	.00002943
303.15	2.1981	.007117	.000035585
303.15	2.3971	.009203	.000046015
303.15	2.5972	.013249	.000066245
303.15	2.7957	.017188	.00008594
303.15	3.0055	.024646	.00012323
308.15	0	.000905	.000004525
308.15	.05	.000934	.00000467
308.15	.1	.000976	.00000488
308.15	.1985	.001028	.00000514
308.15	.3005	.0011	.0000055
308.15	.4001	.001171	.000005855
308.15	.5007	.001261	.000006305
308.15	.5998	.001352	.00000676
308.15	.7002	.001456	.00000728
308.15	.8	.00159	.00000795
308.15	.8957	.001698	.00000849
308.15	1	.001841	.000009205
308.15	1.1977	.002166	.00001083
308.15	1.4007	.002605	.000013025
308.15	1.6017	.003182	.00001591
308.15	1.7999	.003932	.00001966
308.15	2.0012	.005113	.000025565
308.15	2.1981	.006285	.000031425
308.15	2.3971	.007874	.00003937
308.15	2.5972	.011179	.000055895
308.15	2.7957	.014397	.000071985
308.15	3.0055	.020294	.00010147
313.15	0	.000831	.000004155
313.15	.05	.000856	.00000428
313.15	.1	.000893	.000004465
313.15	.1985	.000939	.000004695
313.15	.3005	.001003	.000005015
313.15	.4001	.001066	.00000533
313.15	.5007	.001145	.000005725
313.15	.5998	.001225	.000006125
313.15	.7002	.001317	.000006585
313.15	.8	.001435	.000007175
313.15	.8957	.001529	.000007645
313.15	1	.001655	.000008275
313.15	1.1977	.00194	.0000097
313.15	1.4007	.002319	.000011595
313.15	1.6017	.002817	.000014085
313.15	1.7999	.003459	.000017295
313.15	2.0012	.004464	.00002232
313.15	2.1981	.005328	.00002664
313.15	2.3971	.006774	.00003387
313.15	2.5972	.009473	.000047365
313.15	2.7957	.012116	.00006058
313.15	3.0055	.016875	.000084375
318.15	0	.000765	.000003825
318.15	.05	.000787	.000003935
318.15	.1	.00082	.0000041
318.15	.1985	.00086	.0000043
318.15	.3005	.000916	.00000458
318.15	.4001	.000972	.00000486
318.15	.5007	.001043	.000005215
318.15	.5998	.001113	.000005565
318.15	.7002	.001194	.00000597
318.15	.8	.001299	.000006495
318.15	.8957	.001381	.000006905
318.15	1	.001492	.00000746
318.15	1.1977	.001741	.000008705
318.15	1.4007	.002071	.000010355
318.15	1.6017	.002503	.000012515
318.15	1.7999	.003057	.000015285
318.15	2.0012	.003912	.00001956
318.15	2.1981	.004647	.000023235
318.15	2.3971	.005859	.000029295
318.15	2.5972	.008129	.000040645
318.15	2.7957	.010271	.000051355
318.15	3.0055	.014203	.000071015
323.15	0	.000706	.00000353
323.15	.05	.000725	.000003625
323.15	.1	.000755	.000003775
323.15	.1985	.00079	.00000395
323.15	.3005	.00084	.0000042
323.15	.4001	.000889	.000004445
323.15	.5007	.000951	.000004755
323.15	.5998	.001014	.00000507
323.15	.7002	.001086	.00000543
323.15	.8	.001178	.00000589
323.15	.8957	.001251	.000006255
323.15	1	.001348	.00000674
323.15	1.1977	.001567	.000007835
323.15	1.4007	.001855	.000009275
323.15	1.6017	.002446	.00001223
323.15	1.7999	.002713	.000013565
323.15	2.0012	.003443	.000017215
323.15	2.1981	.004068	.00002034
323.15	2.3971	.005091	.000025455
323.15	2.5972	.006903	.000034515
323.15	2.7957	.008728	.00004364
323.15	3.0055	.012024	.00006012

System: ethanol + 2-(piperazin-1-yl)ethyl propionate; phases: Liquid
Fixed: Pressure, kPa = 100
Property: Electrical conductivity, S/m (Liquid); method: Alternating current cell with electrodes
Temperature, K	Molality, mol/kg of 2-(piperazin-1-yl)ethyl propionate	Electrical conductivity, S/m	uncertainty
293.15	.05	.01803	.00009015
293.15	.1	.0284	.000142
293.15	.1985	.0443	.0002215
293.15	.3005	.0571	.0002855
293.15	.4001	.0671	.0003355
293.15	.5007	.0769	.0003845
293.15	.5998	.0851	.0004255
293.15	.7002	.092	.00046
293.15	.8	.0988	.000494
293.15	.8957	.1048	.000524
293.15	1	.1105	.0005525
293.15	1.1977	.1189	.0005945
293.15	1.4007	.1259	.0006295
293.15	1.6017	.1296	.000648
293.15	1.7999	.1314	.000657
293.15	2.0012	.1308	.000654
293.15	2.1981	.1272	.000636
293.15	2.3971	.121	.000605
293.15	2.5972	.1137	.0005685
293.15	2.7957	.1062	.000531
293.15	3.0055	.0951	.0004755
298.15	.05	.01862	.0000931
298.15	.1	.0296	.000148
298.15	.1985	.0465	.0002325
298.15	.3005	.06	.0003
298.15	.4001	.071	.000355
298.15	.5007	.0816	.000408
298.15	.5998	.0904	.000452
298.15	.7002	.0977	.0004885
298.15	.8	.1058	.000529
298.15	.8957	.1123	.0005615
298.15	1	.1189	.0005945
298.15	1.1977	.1289	.0006445
298.15	1.4007	.1374	.000687
298.15	1.6017	.1415	.0007075
298.15	1.7999	.1443	.0007215
298.15	2.0012	.1447	.0007235
298.15	2.1981	.1423	.0007115
298.15	2.3971	.1378	.000689
298.15	2.5972	.1304	.000652
298.15	2.7957	.1237	.0006185
298.15	3.0055	.1136	.000568
303.15	.05	.01908	.0000954
303.15	.1	.0305	.0001525
303.15	.1985	.0483	.0002415
303.15	.3005	.0627	.0003135
303.15	.4001	.0745	.0003725
303.15	.5007	.0858	.000429
303.15	.5998	.0954	.000477
303.15	.7002	.1036	.000518
303.15	.8	.1125	.0005625
303.15	.8957	.1195	.0005975
303.15	1	.1272	.000636
303.15	1.1977	.1387	.0006935
303.15	1.4007	.1493	.0007465
303.15	1.6017	.1554	.000777
303.15	1.7999	.1597	.0007985
303.15	2.0012	.1614	.000807
303.15	2.1981	.159	.000795
303.15	2.3971	.155	.000775
303.15	2.5972	.1467	.0007335
303.15	2.7957	.1395	.0006975
303.15	3.0055	.1307	.0006535
308.15	.05	.01944	.0000972
308.15	.1	.0313	.0001565
308.15	.1985	.0499	.0002495
308.15	.3005	.0652	.000326
308.15	.4001	.0776	.000388
308.15	.5007	.0899	.0004495
308.15	.5998	.1004	.000502
308.15	.7002	.1093	.0005465
308.15	.8	.1188	.000594
308.15	.8957	.1263	.0006315
308.15	1	.1353	.0006765
308.15	1.1977	.1484	.000742
308.15	1.4007	.1609	.0008045
308.15	1.6017	.1686	.000843
308.15	1.7999	.1747	.0008735
308.15	2.0012	.1776	.000888
308.15	2.1981	.1772	.000886
308.15	2.3971	.173	.000865
308.15	2.5972	.1648	.000824
308.15	2.7957	.1577	.0007885
308.15	3.0055	.1479	.0007395
313.15	.05	.01968	.0000984
313.15	.1	.0323	.0001615
313.15	.1985	.0513	.0002565
313.15	.3005	.0674	.000337
313.15	.4001	.0806	.000403
313.15	.5007	.0937	.0004685
313.15	.5998	.1048	.000524
313.15	.7002	.1144	.000572
313.15	.8	.1253	.0006265
313.15	.8957	.1335	.0006675
313.15	1	.1433	.0007165
313.15	1.1977	.1581	.0007905
313.15	1.4007	.1717	.0008585
313.15	1.6017	.1817	.0009085
313.15	1.7999	.1892	.000946
313.15	2.0012	.1932	.000966
313.15	2.1981	.1946	.000973
313.15	2.3971	.193	.000965
313.15	2.5972	.1842	.000921
313.15	2.7957	.1767	.0008835
313.15	3.0055	.1661	.0008305
318.15	.05	.01982	.0000991
318.15	.1	.0328	.000164
318.15	.1985	.0525	.0002625
318.15	.3005	.0694	.000347
318.15	.4001	.0833	.0004165
318.15	.5007	.0972	.000486
318.15	.5998	.1091	.0005455
318.15	.7002	.1193	.0005965
318.15	.8	.1309	.0006545
318.15	.8957	.1399	.0006995
318.15	1	.1514	.000757
318.15	1.1977	.1677	.0008385
318.15	1.4007	.1837	.0009185
318.15	1.6017	.1952	.000976
318.15	1.7999	.204	.00102
318.15	2.0012	.211	.001055
318.15	2.1981	.214	.00107
318.15	2.3971	.212	.00106
318.15	2.5972	.207	.001035
318.15	2.7957	.1992	.000996
318.15	3.0055	.1878	.000939
323.15	.05	.01985	.00009925
323.15	.1	.0331	.0001655
323.15	.1985	.0536	.000268
323.15	.3005	.0711	.0003555
323.15	.4001	.0856	.000428
323.15	.5007	.1004	.000502
323.15	.5998	.1131	.0005655
323.15	.7002	.1239	.0006195
323.15	.8	.1365	.0006825
323.15	.8957	.1463	.0007315
323.15	1	.1591	.0007955
323.15	1.1977	.1778	.000889
323.15	1.4007	.1961	.0009805
323.15	1.6017	.209	.001045
323.15	1.7999	.222	.00111
323.15	2.0012	.231	.001155
323.15	2.1981	.237	.001185
323.15	2.3971	.236	.00118
323.15	2.5972	.232	.00116
323.15	2.7957	.224	.00112
323.15	3.0055	.213	.001065
