Measured thermophysical data. Liquid Liquid Extraction of Toluene from n-Alkanes using {[4empy][Tf2N] + [emim][DCA]} Ionic Liquid Mixtures
Source: J. Chem. Eng. Data, 2014, 10.1021/je5001439
Compound 1: 1-ethyl-3-methylimidazolium dicyanamide, C8H11N5, purity 98%
Compound 2: toluene, C7H8, purity 99.5%
Compound 3: hexane, C6H14, purity 99%
Compound 4: octane, C8H18, purity 99%
Compound 5: nonane, C9H20, purity 99%
Compound 6: sulfolane, C4H8O2S, purity 99%
Compound 7: 1-ethyl-4-methylpyridinium bis((trifluoromethyl)sulfonyl)amide, C10H12F6N2O4S2, purity 99%

System: toluene + hexane + 1-ethyl-3-methylimidazolium dicyanamide; phases: Liquid mixture 2, Liquid mixture 1
Fixed: Temperature, K = 313.2
Fixed: Pressure, kPa = 100
Property: Mole fraction of toluene (Liquid mixture 2); method: Chromatography
Property: Mole fraction of hexane (Liquid mixture 1); method: Chromatography
Property: Mole fraction of toluene (Liquid mixture 1); method: Chromatography
Mole fraction of hexane	Mole fraction of toluene	uncertainty	Mole fraction of hexane	uncertainty	Mole fraction of toluene	uncertainty
.0037	.0214	.0021	.9209	.0008	.0791	.0008

System: toluene + hexane + 1-ethyl-4-methylpyridinium bis((trifluoromethyl)sulfonyl)amide; phases: Liquid mixture 2, Liquid mixture 1
Fixed: Temperature, K = 313.2
Fixed: Pressure, kPa = 100
Property: Mole fraction of toluene (Liquid mixture 2); method: Chromatography
Property: Mole fraction of hexane (Liquid mixture 1); method: Chromatography
Property: Mole fraction of toluene (Liquid mixture 1); method: Chromatography
Mole fraction of hexane	Mole fraction of toluene	uncertainty	Mole fraction of hexane	uncertainty	Mole fraction of toluene	uncertainty
.0352	.0623	.0021	.94	.0008	.06	.0008

System: toluene + octane + 1-ethyl-3-methylimidazolium dicyanamide; phases: Liquid mixture 2, Liquid mixture 1
Fixed: Temperature, K = 313.2
Fixed: Pressure, kPa = 100
Property: Mole fraction of toluene (Liquid mixture 2); method: Chromatography
Property: Mole fraction of octane (Liquid mixture 1); method: Chromatography
Property: Mole fraction of toluene (Liquid mixture 1); method: Chromatography
Mole fraction of octane	Mole fraction of toluene	uncertainty	Mole fraction of octane	uncertainty	Mole fraction of toluene	uncertainty
.0022	.0226	.0021	.9047	.0008	.0953	.0008

System: toluene + octane + 1-ethyl-4-methylpyridinium bis((trifluoromethyl)sulfonyl)amide; phases: Liquid mixture 2, Liquid mixture 1
Fixed: Temperature, K = 313.2
Fixed: Pressure, kPa = 100
Property: Mole fraction of toluene (Liquid mixture 2); method: Chromatography
Property: Mole fraction of octane (Liquid mixture 1); method: Chromatography
Property: Mole fraction of toluene (Liquid mixture 1); method: Chromatography
Mole fraction of octane	Mole fraction of toluene	uncertainty	Mole fraction of octane	uncertainty	Mole fraction of toluene	uncertainty
.0245	.0644	.0021	.9257	.0008	.0743	.0008

System: toluene + nonane + 1-ethyl-3-methylimidazolium dicyanamide; phases: Liquid mixture 2, Liquid mixture 1
Fixed: Temperature, K = 313.2
Fixed: Pressure, kPa = 100
Property: Mole fraction of toluene (Liquid mixture 2); method: Chromatography
Property: Mole fraction of nonane (Liquid mixture 1); method: Chromatography
Property: Mole fraction of toluene (Liquid mixture 1); method: Chromatography
Mole fraction of nonane	Mole fraction of toluene	uncertainty	Mole fraction of nonane	uncertainty	Mole fraction of toluene	uncertainty
.0013	.0259	.0021	.9021	.0008	.0979	.0008

System: toluene + nonane + 1-ethyl-4-methylpyridinium bis((trifluoromethyl)sulfonyl)amide; phases: Liquid mixture 2, Liquid mixture 1
Fixed: Temperature, K = 313.2
Fixed: Pressure, kPa = 100
Property: Mole fraction of toluene (Liquid mixture 2); method: Chromatography
Property: Mole fraction of nonane (Liquid mixture 1); method: Chromatography
Property: Mole fraction of toluene (Liquid mixture 1); method: Chromatography
Mole fraction of nonane	Mole fraction of toluene	uncertainty	Mole fraction of nonane	uncertainty	Mole fraction of toluene	uncertainty
.0139	.0681	.0021	.9233	.0008	.0767	.0008

System: toluene + hexane + sulfolane; phases: Liquid mixture 2, Liquid mixture 1
Fixed: Pressure, kPa = 100
Fixed: Temperature, K = 313.2
Property: Mole fraction of toluene (Liquid mixture 2); method: Chromatography
Property: Mole fraction of hexane (Liquid mixture 1); method: Chromatography
Property: Mole fraction of toluene (Liquid mixture 1); method: Chromatography
Mole fraction of hexane	Mole fraction of toluene	uncertainty	Mole fraction of hexane	uncertainty	Mole fraction of toluene	uncertainty
.0113	.0247	.0012	.9334	.0008	.063	.0008

System: toluene + octane + sulfolane; phases: Liquid mixture 2, Liquid mixture 1
Fixed: Pressure, kPa = 100
Fixed: Temperature, K = 313.2
Property: Mole fraction of toluene (Liquid mixture 2); method: Chromatography
Property: Mole fraction of octane (Liquid mixture 1); method: Chromatography
Property: Mole fraction of toluene (Liquid mixture 1); method: Chromatography
Mole fraction of octane	Mole fraction of toluene	uncertainty	Mole fraction of octane	uncertainty	Mole fraction of toluene	uncertainty
.0076	.0272	.0012	.9182	.0008	.0773	.0008

System: toluene + nonane + sulfolane; phases: Liquid mixture 2, Liquid mixture 1
Fixed: Pressure, kPa = 100
Fixed: Temperature, K = 313.2
Property: Mole fraction of toluene (Liquid mixture 2); method: Chromatography
Property: Mole fraction of nonane (Liquid mixture 1); method: Chromatography
Property: Mole fraction of toluene (Liquid mixture 1); method: Chromatography
Mole fraction of nonane	Mole fraction of toluene	uncertainty	Mole fraction of nonane	uncertainty	Mole fraction of toluene	uncertainty
.0056	.0278	.0012	.9157	.0008	.08	.0008

System: hexane + 1-ethyl-3-methylimidazolium dicyanamide + 1-ethyl-4-methylpyridinium bis((trifluoromethyl)sulfonyl)amide; phases: Liquid mixture 1, Liquid mixture 2
Fixed: Temperature, K = 313.2
Fixed: Pressure, kPa = 100
Property: Mole fraction of 1-ethyl-4-methylpyridinium bis((trifluoromethyl)sulfonyl)amide (Liquid mixture 1); method: Chromatography
Property: Mole fraction of hexane (Liquid mixture 2); method: Chromatography
Property: Mole fraction of 1-ethyl-4-methylpyridinium bis((trifluoromethyl)sulfonyl)amide (Liquid mixture 2); method: Chromatography
Mole fraction of hexane	Mole fraction of 1-ethyl-4-methylpyridinium bis((trifluoromethyl)sulfonyl)amide	uncertainty	Mole fraction of hexane	uncertainty	Mole fraction of 1-ethyl-4-methylpyridinium bis((trifluoromethyl)sulfonyl)amide	uncertainty
1	0	.0008	.0106	.0009	.2968	.0008

System: octane + 1-ethyl-3-methylimidazolium dicyanamide + 1-ethyl-4-methylpyridinium bis((trifluoromethyl)sulfonyl)amide; phases: Liquid mixture 1, Liquid mixture 2
Fixed: Temperature, K = 313.2
Fixed: Pressure, kPa = 100
Property: Mole fraction of 1-ethyl-4-methylpyridinium bis((trifluoromethyl)sulfonyl)amide (Liquid mixture 1); method: Chromatography
Property: Mole fraction of octane (Liquid mixture 2); method: Chromatography
Property: Mole fraction of 1-ethyl-4-methylpyridinium bis((trifluoromethyl)sulfonyl)amide (Liquid mixture 2); method: Chromatography
Mole fraction of octane	Mole fraction of 1-ethyl-4-methylpyridinium bis((trifluoromethyl)sulfonyl)amide	uncertainty	Mole fraction of octane	uncertainty	Mole fraction of 1-ethyl-4-methylpyridinium bis((trifluoromethyl)sulfonyl)amide	uncertainty
1	0	.0008	.007	.0009	.2979	.0008

System: nonane + 1-ethyl-3-methylimidazolium dicyanamide + 1-ethyl-4-methylpyridinium bis((trifluoromethyl)sulfonyl)amide; phases: Liquid mixture 1, Liquid mixture 2
Fixed: Temperature, K = 313.2
Fixed: Pressure, kPa = 100
Property: Mole fraction of 1-ethyl-4-methylpyridinium bis((trifluoromethyl)sulfonyl)amide (Liquid mixture 1); method: Chromatography
Property: Mole fraction of nonane (Liquid mixture 2); method: Chromatography
Property: Mole fraction of 1-ethyl-4-methylpyridinium bis((trifluoromethyl)sulfonyl)amide (Liquid mixture 2); method: Chromatography
Mole fraction of nonane	Mole fraction of 1-ethyl-4-methylpyridinium bis((trifluoromethyl)sulfonyl)amide	uncertainty	Mole fraction of nonane	uncertainty	Mole fraction of 1-ethyl-4-methylpyridinium bis((trifluoromethyl)sulfonyl)amide	uncertainty
1	0	.0008	.0037	.0009	.2989	.0008

System: toluene + 1-ethyl-3-methylimidazolium dicyanamide + 1-ethyl-4-methylpyridinium bis((trifluoromethyl)sulfonyl)amide; phases: Liquid mixture 1, Liquid mixture 2
Fixed: Temperature, K = 313.2
Fixed: Pressure, kPa = .1
Property: Mole fraction of 1-ethyl-4-methylpyridinium bis((trifluoromethyl)sulfonyl)amide (Liquid mixture 1); method: Chromatography
Property: Mole fraction of toluene (Liquid mixture 2); method: Chromatography
Property: Mole fraction of 1-ethyl-4-methylpyridinium bis((trifluoromethyl)sulfonyl)amide (Liquid mixture 2); method: Chromatography
Mole fraction of toluene	Mole fraction of 1-ethyl-4-methylpyridinium bis((trifluoromethyl)sulfonyl)amide	uncertainty	Mole fraction of toluene	uncertainty	Mole fraction of 1-ethyl-4-methylpyridinium bis((trifluoromethyl)sulfonyl)amide	uncertainty
1	0	.0008	.5419	.0021	.1374	.0008
