Measured thermophysical data. Micellization Parameters of Six Gemini Quaternary Ammonium Surfactants from Measurements of Conductivity and Surface Tension
Source: J. Chem. Eng. Data, 2014, 10.1021/je500513b
Compound 1: N1,N3-didodecyl-N1,N1,N3,N3-tetramethylpropane-1,3-diaminium bromide, C31H68Br2N2, purity 99%
Compound 2: N1,N4-didodecyl-N1,N1,N4,N4-tetramethylbutane-1,4-diaminium bromide, C32H70Br2N2, purity 99%
Compound 3: N1,N6-didodecyl-N1,N1,N6,N6-tetramethylhexane-1,6-diaminium bromide, C34H74Br2N2, purity 99%
Compound 4: N1,N1,N3,N3-tetramethyl-N1,N3-ditetradecylpropane-1,3-diaminium bromide, C35H76Br2N2, purity 99%
Compound 5: N1,N1,N4,N4-tetramethyl-N1,N4-ditetradecylbutane-1,4-diaminium bromide, C36H78Br2N2, purity 99%
Compound 6: N,N,N',N'-tetramethyl-N,N'-ditetradecylhexane-1,6-diaminium bromide, C38H82Br2N2, purity 99%
Compound 7: water, H2O, purity 99.9%

System: water + N1,N3-didodecyl-N1,N1,N3,N3-tetramethylpropane-1,3-diaminium bromide; phases: Liquid, Gas
Fixed: Temperature, K = 298.15
Property: Surface tension liquid-gas, N/m (Liquid); method: Pendant drop shape
Molality, mol/kg of N1,N3-didodecyl-N1,N1,N3,N3-tetramethylpropane-1,3-diaminium bromide	Surface tension liquid-gas, N/m	uncertainty
0	.07198	.00007198
.0001	.06028	.00006028
.0002	.05137	.00005137
.0004	.04167	.00004167
.0006	.03601	.00003601
.0007	.03317	.00003317
.0008	.03287	.00003287
.00085	.03279	.00003279
.0009	.03284	.00003284
.001	.03276	.00003276
.0011	.03275	.00003275
.0012	.03281	.00003281
.0015	.03259	.00003259
.002	.03262	.00003262

System: water + N1,N3-didodecyl-N1,N1,N3,N3-tetramethylpropane-1,3-diaminium bromide; phases: Liquid
Fixed: Pressure, kPa = 100
Property: Electrical conductivity, S/m (Liquid); method: Mettler Toledo inLab 710
Temperature, K	Molality, mol/kg of N1,N3-didodecyl-N1,N1,N3,N3-tetramethylpropane-1,3-diaminium bromide	Electrical conductivity, S/m	uncertainty
298.15	.002	.023	.000115
298.15	.00191	.0225	.0001125
298.15	.00182	.0221	.0001105
298.15	.00174	.0217	.0001085
298.15	.00167	.0214	.000107
298.15	.0016	.0211	.0001055
298.15	.00154	.0208	.000104
298.15	.00143	.0203	.0001015
298.15	.00134	.0199	.0000995
298.15	.00125	.0195	.0000975
298.15	.00118	.0191	.0000955
298.15	.00111	.0187	.0000935
298.15	.00105	.0183	.0000915
298.15	.001	.0179	.0000895
298.15	.00095	.0175	.0000875
298.15	.00091	.0171	.0000855
298.15	.00087	.0168	.000084
298.15	.00083	.0165	.0000825
298.15	.0008	.0161	.0000805
298.15	.00077	.0156	.000078
298.15	.00074	.0151	.0000755
298.15	.0007	.0144	.000072
298.15	.00067	.0138	.000069
298.15	.00064	.0132	.000066
298.15	.00061	.0126	.000063
298.15	.00057	.0117	.0000585
303.15	.002	.0263	.0001315
303.15	.00191	.0256	.000128
303.15	.00182	.0251	.0001255
303.15	.00174	.0247	.0001235
303.15	.00167	.0242	.000121
303.15	.0016	.0237	.0001185
303.15	.00154	.0235	.0001175
303.15	.00143	.0229	.0001145
303.15	.00134	.0225	.0001125
303.15	.00125	.0221	.0001105
303.15	.00118	.0217	.0001085
303.15	.00111	.0212	.000106
303.15	.00105	.0209	.0001045
303.15	.001	.0205	.0001025
303.15	.00095	.02	.0001
303.15	.00091	.0195	.0000975
303.15	.00087	.0191	.0000955
303.15	.00083	.0185	.0000925
303.15	.0008	.0178	.000089
303.15	.00077	.0172	.000086
303.15	.00074	.0168	.000084
303.15	.0007	.0159	.0000795
303.15	.00067	.0152	.000076
303.15	.00064	.0146	.000073
303.15	.00061	.0139	.0000695
303.15	.00057	.0131	.0000655
308.15	.002	.0301	.0001505
308.15	.00186	.0291	.0001455
308.15	.00178	.0285	.0001425
308.15	.0017	.028	.00014
308.15	.00163	.0277	.0001385
308.15	.00154	.027	.000135
308.15	.00143	.0264	.000132
308.15	.00134	.0257	.0001285
308.15	.00125	.025	.000125
308.15	.00118	.0244	.000122
308.15	.00111	.024	.00012
308.15	.00105	.0234	.000117
308.15	.001	.0228	.000114
308.15	.00095	.0223	.0001115
308.15	.00091	.0216	.000108
308.15	.00087	.021	.000105
308.15	.00083	.0203	.0001015
308.15	.0008	.0196	.000098
308.15	.00077	.0191	.0000955
308.15	.00074	.0184	.000092
308.15	.0007	.0176	.000088
308.15	.00067	.0168	.000084
308.15	.00064	.0159	.0000795
313.15	.002	.0349	.0001745
313.15	.00191	.0343	.0001715
313.15	.00182	.0336	.000168
313.15	.00174	.0331	.0001655
313.15	.00167	.0327	.0001635
313.15	.00154	.0319	.0001595
313.15	.00143	.031	.000155
313.15	.00134	.0301	.0001505
313.15	.00125	.0293	.0001465
313.15	.00118	.0285	.0001425
313.15	.00111	.0277	.0001385
313.15	.00105	.027	.000135
313.15	.001	.0262	.000131
313.15	.00095	.0254	.000127
313.15	.00091	.0245	.0001225
313.15	.00087	.0237	.0001185
313.15	.00083	.0229	.0001145
313.15	.00079	.0217	.0001085
313.15	.00074	.0207	.0001035
313.15	.0007	.0197	.0000985
313.15	.00067	.0186	.000093
313.15	.00064	.0176	.000088
313.15	.00061	.0168	.000084
313.15	.00057	.0152	.000076
318.15	.002	.0399	.0001995
318.15	.00191	.039	.000195
318.15	.00182	.0383	.0001915
318.15	.00174	.0376	.000188
318.15	.00167	.037	.000185
318.15	.00154	.0357	.0001785
318.15	.00143	.0347	.0001735
318.15	.00134	.0335	.0001675
318.15	.00125	.0327	.0001635
318.15	.00118	.0318	.000159
318.15	.00111	.0308	.000154
318.15	.00105	.0299	.0001495
318.15	.001	.0289	.0001445
318.15	.00095	.028	.00014
318.15	.00091	.0271	.0001355
318.15	.00087	.0262	.000131
318.15	.00083	.0253	.0001265
318.15	.00079	.0245	.0001225
318.15	.00074	.0231	.0001155
318.15	.0007	.0219	.0001095
318.15	.00067	.0209	.0001045
318.15	.00064	.0199	.0000995
318.15	.00061	.0186	.000093
318.15	.00057	.0174	.000087
323.15	.002	.0451	.0002255
323.15	.00191	.044	.00022
323.15	.00182	.0434	.000217
323.15	.00174	.0427	.0002135
323.15	.00167	.042	.00021
323.15	.0016	.0413	.0002065
323.15	.00154	.0404	.000202
323.15	.00143	.0394	.000197
323.15	.00134	.0384	.000192
323.15	.00125	.0374	.000187
323.15	.00118	.036	.00018
323.15	.00111	.0349	.0001745
323.15	.00105	.0334	.000167
323.15	.001	.0319	.0001595
323.15	.00095	.0305	.0001525
323.15	.00091	.0293	.0001465
323.15	.00087	.0282	.000141
323.15	.00083	.0272	.000136
323.15	.00079	.0256	.000128
323.15	.00074	.0241	.0001205
323.15	.0007	.0229	.0001145
323.15	.00067	.0218	.000109
323.15	.00063	.0203	.0001015
323.15	.00059	.0191	.0000955

System: N1,N4-didodecyl-N1,N1,N4,N4-tetramethylbutane-1,4-diaminium bromide + water; phases: Liquid, Gas
Fixed: Temperature, K = 298.15
Property: Surface tension liquid-gas, N/m (Liquid); method: Pendant drop shape
Molality, mol/kg of N1,N4-didodecyl-N1,N1,N4,N4-tetramethylbutane-1,4-diaminium bromide	Surface tension liquid-gas, N/m	uncertainty
0	.07198	.00007198
.0001	.06026	.00006026
.0002	.05458	.00005458
.0004	.04736	.00004736
.0006	.04242	.00004242
.0007	.04035	.00004035
.0008	.03882	.00003882
.00085	.03823	.00003823
.0009	.03643	.00003643
.001	.03592	.00003592
.0011	.03545	.00003545
.0012	.03519	.00003519
.0015	.03513	.00003513
.002	.0351	.0000351

System: N1,N4-didodecyl-N1,N1,N4,N4-tetramethylbutane-1,4-diaminium bromide + water; phases: Liquid
Fixed: Pressure, kPa = 100
Property: Electrical conductivity, S/m (Liquid); method: Mettler Toledo inLab 710
Temperature, K	Molality, mol/kg of N1,N4-didodecyl-N1,N1,N4,N4-tetramethylbutane-1,4-diaminium bromide	Electrical conductivity, S/m	uncertainty
298.15	2	2.63	.01315
298.15	1.82	2.53	.01265
298.15	1.67	2.46	.0123
298.15	1.54	2.39	.01195
298.15	1.43	2.32	.0116
298.15	1.33	2.25	.01125
298.15	1.25	2.2	.011
298.15	1.18	2.13	.01065
298.15	1.11	2.06	.0103
298.15	1.05	2	.01
298.15	1	1.93	.00965
298.15	.95	1.86	.0093
298.15	.91	1.79	.00895
298.15	.87	1.73	.00865
298.15	.83	1.66	.0083
298.15	.78	1.57	.00785
298.15	.74	1.5	.0075
298.15	.7	1.42	.0071
298.15	.67	1.36	.0068
298.15	.63	1.28	.0064
298.15	.59	1.2	.006
298.15	.56	1.13	.00565
303.15	2	2.99	.01495
303.15	1.74	2.84	.0142
303.15	1.67	2.8	.014
303.15	1.54	2.72	.0136
303.15	1.43	2.63	.01315
303.15	1.33	2.56	.0128
303.15	1.25	2.47	.01235
303.15	1.18	2.41	.01205
303.15	1.11	2.34	.0117
303.15	1.05	2.25	.01125
303.15	1	2.18	.0109
303.15	.95	2.1	.0105
303.15	.91	2.01	.01005
303.15	.87	1.93	.00965
303.15	.83	1.86	.0093
303.15	.78	1.78	.0089
303.15	.74	1.69	.00845
303.15	.7	1.61	.00805
303.15	.67	1.53	.00765
303.15	.63	1.43	.00715
303.15	.57	1.32	.0066
308.15	2	3.39	.01695
308.15	1.82	3.27	.01635
308.15	1.67	3.16	.0158
308.15	1.54	3.08	.0154
308.15	1.43	2.98	.0149
308.15	1.33	2.9	.0145
308.15	1.25	2.8	.014
308.15	1.18	2.71	.01355
308.15	1.11	2.62	.0131
308.15	1.05	2.51	.01255
308.15	1	2.41	.01205
308.15	.95	2.32	.0116
308.15	.91	2.22	.0111
308.15	.87	2.14	.0107
308.15	.83	2.06	.0103
308.15	.78	1.95	.00975
308.15	.74	1.85	.00925
308.15	.7	1.76	.0088
308.15	.67	1.69	.00845
308.15	.63	1.59	.00795
308.15	.59	1.5	.0075
308.15	.56	1.42	.0071
313.15	2	3.84	.0192
313.15	1.9	3.77	.01885
313.15	1.82	3.7	.0185
313.15	1.74	3.64	.0182
313.15	1.67	3.58	.0179
313.15	1.54	3.46	.0173
313.15	1.43	3.34	.0167
313.15	1.33	3.24	.0162
313.15	1.25	3.13	.01565
313.15	1.18	3.01	.01505
313.15	1.11	2.87	.01435
313.15	1.05	2.76	.0138
313.15	1	2.64	.0132
313.15	.95	2.54	.0127
313.15	.89	2.38	.0119
313.15	.83	2.24	.0112
313.15	.78	2.12	.0106
313.15	.74	2	.01
313.15	.7	1.91	.00955
313.15	.66	1.78	.0089
313.15	.62	1.66	.0083
318.15	2	4.32	.0216
318.15	1.9	4.26	.0213
318.15	1.82	4.19	.02095
318.15	1.74	4.11	.02055
318.15	1.67	4.04	.0202
318.15	1.54	3.91	.01955
318.15	1.43	3.76	.0188
318.15	1.33	3.61	.01805
318.15	1.25	3.47	.01735
318.15	1.18	3.33	.01665
318.15	1.11	3.18	.0159
318.15	1.05	3.04	.0152
318.15	1	2.9	.0145
318.15	.95	2.78	.0139
318.15	.89	2.61	.01305
318.15	.83	2.45	.01225
318.15	.78	2.33	.01165
318.15	.74	2.19	.01095
318.15	.69	2.05	.01025
318.15	.65	1.91	.00955
318.15	.61	1.79	.00895
323.15	2	4.89	.02445
323.15	1.9	4.81	.02405
323.15	1.82	4.73	.02365
323.15	1.74	4.65	.02325
323.15	1.67	4.57	.02285
323.15	1.6	4.48	.0224
323.15	1.54	4.38	.0219
323.15	1.43	4.21	.02105
323.15	1.33	4.03	.02015
323.15	1.25	3.84	.0192
323.15	1.18	3.66	.0183
323.15	1.11	3.47	.01735
323.15	1.05	3.31	.01655
323.15	1	3.16	.0158
323.15	.95	3.03	.01515
323.15	.89	2.87	.01435
323.15	.83	2.72	.0136
323.15	.78	2.55	.01275
323.15	.74	2.4	.012
323.15	.69	2.24	.0112
323.15	.65	2.09	.01045
323.15	.61	1.97	.00985
323.15	.57	1.86	.0093

System: water + N1,N6-didodecyl-N1,N1,N6,N6-tetramethylhexane-1,6-diaminium bromide; phases: Liquid, Gas
Fixed: Temperature, K = 298.15
Property: Surface tension liquid-gas, N/m (Liquid); method: Pendant drop shape
Molality, mol/kg of N1,N6-didodecyl-N1,N1,N6,N6-tetramethylhexane-1,6-diaminium bromide	Surface tension liquid-gas, N/m	uncertainty
0	.07198	.00007198
.0001	.06145	.00006145
.0002	.0531	.0000531
.0004	.04733	.00004733
.0006	.04235	.00004235
.0007	.04001	.00004001
.0008	.03821	.00003821
.00085	.03813	.00003813
.0009	.03783	.00003783
.001	.03753	.00003753
.0011	.03734	.00003734
.0012	.03728	.00003728
.0015	.03738	.00003738
.002	.03723	.00003723

System: water + N1,N6-didodecyl-N1,N1,N6,N6-tetramethylhexane-1,6-diaminium bromide; phases: Liquid
Fixed: Pressure, kPa = 100
Property: Electrical conductivity, S/m (Liquid); method: Mettler Toledo inLab 710
Temperature, K	Molality, mol/kg of N1,N6-didodecyl-N1,N1,N6,N6-tetramethylhexane-1,6-diaminium bromide	Electrical conductivity, S/m	uncertainty
298.15	.002	.0269	.0001345
298.15	.00182	.0259	.0001295
298.15	.00167	.0249	.0001245
298.15	.00154	.024	.00012
298.15	.00143	.0231	.0001155
298.15	.00133	.0225	.0001125
298.15	.00125	.0219	.0001095
298.15	.00118	.0212	.000106
298.15	.00111	.0206	.000103
298.15	.00105	.02	.0001
298.15	.001	.0194	.000097
298.15	.00095	.0188	.000094
298.15	.00091	.0182	.000091
298.15	.00087	.0176	.000088
298.15	.00083	.017	.000085
298.15	.00077	.0159	.0000795
298.15	.00071	.0147	.0000735
298.15	.00067	.0138	.000069
298.15	.00063	.0132	.000066
298.15	.00059	.0123	.0000615
298.15	.00056	.0115	.0000575
303.15	.002	.0307	.0001535
303.15	.0019	.03	.00015
303.15	.00182	.0293	.0001465
303.15	.00174	.0287	.0001435
303.15	.00167	.0281	.0001405
303.15	.0016	.0276	.000138
303.15	.00154	.027	.000135
303.15	.00143	.0261	.0001305
303.15	.00133	.0252	.000126
303.15	.00125	.0244	.000122
303.15	.00118	.0237	.0001185
303.15	.00111	.023	.000115
303.15	.00105	.0223	.0001115
303.15	.001	.0216	.000108
303.15	.00095	.0209	.0001045
303.15	.00091	.0202	.000101
303.15	.00087	.0196	.000098
303.15	.00083	.0189	.0000945
303.15	.0008	.0183	.0000915
303.15	.00075	.0173	.0000865
303.15	.00071	.0166	.000083
303.15	.00068	.0158	.000079
303.15	.00065	.0151	.0000755
303.15	.00061	.0143	.0000715
303.15	.00057	.0136	.000068
308.15	.002	.0346	.000173
308.15	.0019	.0339	.0001695
308.15	.00182	.0332	.000166
308.15	.00174	.0325	.0001625
308.15	.00167	.0318	.000159
308.15	.0016	.0312	.000156
308.15	.00154	.0306	.000153
308.15	.00143	.0294	.000147
308.15	.00133	.0284	.000142
308.15	.00125	.0275	.0001375
308.15	.00118	.0266	.000133
308.15	.00111	.0257	.0001285
308.15	.00105	.0248	.000124
308.15	.001	.024	.00012
308.15	.00095	.0232	.000116
308.15	.00091	.0225	.0001125
308.15	.00087	.0217	.0001085
308.15	.00083	.0209	.0001045
308.15	.0008	.0203	.0001015
308.15	.00075	.0193	.0000965
308.15	.00071	.0182	.000091
308.15	.00068	.0175	.0000875
308.15	.00065	.0167	.0000835
313.15	.002	.0392	.000196
313.15	.0019	.0384	.000192
313.15	.00182	.0376	.000188
313.15	.00174	.0368	.000184
313.15	.00167	.036	.00018
313.15	.0016	.0353	.0001765
313.15	.00154	.0347	.0001735
313.15	.00143	.0333	.0001665
313.15	.00133	.0321	.0001605
313.15	.00125	.0308	.000154
313.15	.00118	.0299	.0001495
313.15	.00111	.0288	.000144
313.15	.00105	.0278	.000139
313.15	.001	.0269	.0001345
313.15	.00095	.0259	.0001295
313.15	.00091	.0248	.000124
313.15	.00087	.024	.00012
313.15	.00083	.023	.000115
313.15	.0008	.0222	.000111
313.15	.00075	.021	.000105
313.15	.00071	.02	.0001
313.15	.00068	.0191	.0000955
313.15	.00065	.0182	.000091
313.15	.00061	.0171	.0000855
313.15	.00057	.0163	.0000815
318.15	.002	.0446	.000223
318.15	.00192	.0437	.0002185
318.15	.00185	.0428	.000214
318.15	.00179	.042	.00021
318.15	.00172	.0413	.0002065
318.15	.00167	.0406	.000203
318.15	.00156	.0393	.0001965
318.15	.00147	.038	.00019
318.15	.00139	.0368	.000184
318.15	.00132	.0358	.000179
318.15	.00125	.0347	.0001735
318.15	.00119	.0337	.0001685
318.15	.00114	.0328	.000164
318.15	.00109	.0318	.000159
318.15	.00104	.031	.000155
318.15	.001	.0302	.000151
318.15	.00095	.0292	.000146
318.15	.00091	.0281	.0001405
318.15	.00085	.0265	.0001325
318.15	.0008	.0254	.000127
318.15	.00074	.0237	.0001185
318.15	.00069	.0222	.000111
318.15	.00065	.0206	.000103
318.15	.00061	.0193	.0000965
318.15	.00057	.0184	.000092
323.15	.002	.0501	.0002505
323.15	.00192	.0491	.0002455
323.15	.00185	.0482	.000241
323.15	.00179	.0473	.0002365
323.15	.00172	.0464	.000232
323.15	.00167	.0455	.0002275
323.15	.00156	.0443	.0002215
323.15	.00147	.0433	.0002165
323.15	.00139	.0418	.000209
323.15	.00132	.0406	.000203
323.15	.00125	.0393	.0001965
323.15	.00119	.038	.00019
323.15	.00114	.0367	.0001835
323.15	.00109	.0355	.0001775
323.15	.00104	.0343	.0001715
323.15	.001	.0331	.0001655
323.15	.00095	.0317	.0001585
323.15	.00091	.0305	.0001525
323.15	.00085	.0288	.000144
323.15	.0008	.0271	.0001355
323.15	.00074	.025	.000125
323.15	.00069	.0235	.0001175
323.15	.00065	.022	.00011

System: water + N1,N1,N3,N3-tetramethyl-N1,N3-ditetradecylpropane-1,3-diaminium bromide; phases: Liquid, Gas
Fixed: Temperature, K = 298.15
Property: Surface tension liquid-gas, N/m (Liquid); method: Pendant drop shape
Molality, mol/kg of N1,N1,N3,N3-tetramethyl-N1,N3-ditetradecylpropane-1,3-diaminium bromide	Surface tension liquid-gas, N/m	uncertainty
0	.07198	.00007198
.00001	.05745	.00005745
.00002	.05365	.00005365
.00003	.05048	.00005048
.00004	.04751	.00004751
.00005	.04548	.00004548
.00006	.04244	.00004244
.00007	.04027	.00004027
.00008	.03827	.00003827
.00009	.037	.000037
.0001	.03552	.00003552
.00012	.03427	.00003427
.00014	.03418	.00003418
.00017	.03406	.00003406
.0002	.03381	.00003381
.0003	.03392	.00003392

System: water + N1,N1,N3,N3-tetramethyl-N1,N3-ditetradecylpropane-1,3-diaminium bromide; phases: Liquid
Fixed: Pressure, kPa = 100
Property: Electrical conductivity, S/m (Liquid); method: Mettler Toledo inLab 710
Temperature, K	Molality, mol/kg of N1,N1,N3,N3-tetramethyl-N1,N3-ditetradecylpropane-1,3-diaminium bromide	Electrical conductivity, S/m	uncertainty
298.15	.00025	.00372	.0000186
298.15	.000238	.00365	.00001825
298.15	.000227	.00358	.0000179
298.15	.000217	.00352	.0000176
298.15	.000208	.00348	.0000174
298.15	.0002	.00343	.00001715
298.15	.000192	.00338	.0000169
298.15	.000182	.00331	.00001655
298.15	.000172	.00325	.00001625
298.15	.000164	.00318	.0000159
298.15	.000156	.00311	.00001555
298.15	.000147	.00303	.00001515
298.15	.000139	.00294	.0000147
298.15	.000132	.00285	.00001425
298.15	.000125	.00274	.0000137
298.15	.000119	.00264	.0000132
298.15	.000111	.0025	.0000125
298.15	.000104	.00236	.0000118
298.15	.000098	.00224	.0000112
298.15	.000093	.00212	.0000106
303.15	.00025	.00443	.00002215
303.15	.000238	.00434	.0000217
303.15	.000227	.00426	.0000213
303.15	.000217	.00418	.0000209
303.15	.000208	.00412	.0000206
303.15	.0002	.00405	.00002025
303.15	.000192	.00399	.00001995
303.15	.000182	.0039	.0000195
303.15	.000172	.00381	.00001905
303.15	.000164	.00373	.00001865
303.15	.000156	.00364	.0000182
303.15	.000147	.00351	.00001755
303.15	.000139	.00337	.00001685
303.15	.000132	.00324	.0000162
303.15	.000125	.00311	.00001555
303.15	.000119	.003	.000015
303.15	.000111	.00283	.00001415
303.15	.000104	.00267	.00001335
303.15	.000098	.00251	.00001255
308.15	.00025	.00498	.0000249
308.15	.000238	.00488	.0000244
308.15	.000227	.00479	.00002395
308.15	.000217	.00471	.00002355
308.15	.000208	.00464	.0000232
308.15	.0002	.00455	.00002275
308.15	.000192	.00448	.0000224
308.15	.000182	.00434	.0000217
308.15	.000172	.00421	.00002105
308.15	.000164	.00411	.00002055
308.15	.000156	.00398	.0000199
308.15	.000147	.00382	.0000191
308.15	.000139	.00367	.00001835
308.15	.000132	.0035	.0000175
308.15	.000125	.00335	.00001675
308.15	.000119	.00323	.00001615
308.15	.000111	.00302	.0000151
308.15	.000104	.00288	.0000144
308.15	.000098	.00274	.0000137
308.15	.000093	.0026	.000013
313.15	.00025	.00594	.0000297
313.15	.000238	.00582	.0000291
313.15	.000227	.00574	.0000287
313.15	.000217	.00564	.0000282
313.15	.000208	.00552	.0000276
313.15	.0002	.00542	.0000271
313.15	.000192	.00532	.0000266
313.15	.000182	.00513	.00002565
313.15	.000172	.00497	.00002485
313.15	.000164	.00479	.00002395
313.15	.000156	.00463	.00002315
313.15	.000147	.00441	.00002205
313.15	.000139	.00423	.00002115
313.15	.000132	.00407	.00002035
313.15	.000125	.00391	.00001955
313.15	.000119	.00382	.0000191
313.15	.000111	.00364	.0000182
313.15	.000104	.00343	.00001715
313.15	.000098	.00324	.0000162
313.15	.000093	.00309	.00001545
318.15	.00025	.00684	.0000342
318.15	.000238	.0067	.0000335
318.15	.000227	.00656	.0000328
318.15	.000217	.00642	.0000321
318.15	.000208	.00628	.0000314
318.15	.0002	.00614	.0000307
318.15	.000192	.00599	.00002995
318.15	.000182	.00572	.0000286
318.15	.000172	.0055	.0000275
318.15	.000164	.00528	.0000264
318.15	.000156	.00506	.0000253
318.15	.000147	.00478	.0000239
318.15	.000139	.00454	.0000227
318.15	.000132	.00435	.00002175
318.15	.000125	.0042	.000021
318.15	.000119	.00404	.0000202
318.15	.000111	.00382	.0000191
318.15	.000104	.00361	.00001805
318.15	.000098	.00345	.00001725
318.15	.000093	.00331	.00001655
323.15	.00025	.00754	.0000377
323.15	.000238	.00737	.00003685
323.15	.000227	.0072	.000036
323.15	.000217	.00704	.0000352
323.15	.000208	.00688	.0000344
323.15	.0002	.00669	.00003345
323.15	.000192	.00651	.00003255
323.15	.000182	.0062	.000031
323.15	.000172	.00593	.00002965
323.15	.000164	.00565	.00002825
323.15	.000156	.00542	.0000271
323.15	.000147	.00512	.0000256
323.15	.000139	.00486	.0000243
323.15	.000132	.00462	.0000231
323.15	.000125	.00441	.00002205
323.15	.000119	.00422	.0000211
323.15	.000111	.004	.00002
323.15	.000104	.00382	.0000191
323.15	.000098	.00363	.00001815
323.15	.000093	.00348	.0000174

System: water + N1,N1,N4,N4-tetramethyl-N1,N4-ditetradecylbutane-1,4-diaminium bromide; phases: Liquid, Gas
Fixed: Temperature, K = 298.15
Property: Surface tension liquid-gas, N/m (Liquid); method: Pendant drop shape
Molality, mol/kg of N1,N1,N4,N4-tetramethyl-N1,N4-ditetradecylbutane-1,4-diaminium bromide	Surface tension liquid-gas, N/m	uncertainty
0	.07198	.00007198
.00001	.05866	.00005866
.00002	.05616	.00005616
.00003	.05187	.00005187
.00004	.05069	.00005069
.00005	.04928	.00004928
.00006	.04786	.00004786
.00007	.04548	.00004548
.00008	.04402	.00004402
.00009	.04309	.00004309
.0001	.04213	.00004213
.00012	.03963	.00003963
.00014	.03901	.00003901
.00017	.03887	.00003887
.0002	.03831	.00003831
.0003	.03721	.00003721

System: water + N1,N1,N4,N4-tetramethyl-N1,N4-ditetradecylbutane-1,4-diaminium bromide; phases: Liquid
Fixed: Pressure, kPa = 100
Property: Electrical conductivity, S/m (Liquid); method: Mettler Toledo inLab 710
Temperature, K	Molality, mol/kg of N1,N1,N4,N4-tetramethyl-N1,N4-ditetradecylbutane-1,4-diaminium bromide	Electrical conductivity, S/m	uncertainty
298.15	.0003	.00459	.00002295
298.15	.000286	.00448	.0000224
298.15	.000273	.00438	.0000219
298.15	.000261	.0043	.0000215
298.15	.00025	.00422	.0000211
298.15	.00024	.00416	.0000208
298.15	.000231	.00409	.00002045
298.15	.000218	.00399	.00001995
298.15	.000207	.0039	.0000195
298.15	.000197	.00382	.0000191
298.15	.000188	.00373	.00001865
298.15	.000176	.00364	.0000182
298.15	.000167	.00354	.0000177
298.15	.000158	.00344	.0000172
298.15	.00015	.00333	.00001665
298.15	.000143	.00321	.00001605
298.15	.000133	.003	.000015
298.15	.000125	.00286	.0000143
298.15	.000118	.0027	.0000135
298.15	.000111	.00256	.0000128
303.15	.0003	.00512	.0000256
303.15	.000286	.00499	.00002495
303.15	.000273	.00489	.00002445
303.15	.000261	.00482	.0000241
303.15	.00025	.00473	.00002365
303.15	.00024	.00465	.00002325
303.15	.000231	.00457	.00002285
303.15	.000218	.00447	.00002235
303.15	.000207	.00436	.0000218
303.15	.000197	.00427	.00002135
303.15	.000188	.00418	.0000209
303.15	.000176	.00405	.00002025
303.15	.000167	.00391	.00001955
303.15	.000158	.00377	.00001885
303.15	.00015	.00365	.00001825
303.15	.000143	.00354	.0000177
303.15	.000133	.00333	.00001665
303.15	.000125	.00313	.00001565
303.15	.000118	.00296	.0000148
308.15	.0003	.00597	.00002985
308.15	.000286	.00584	.0000292
308.15	.000273	.00572	.0000286
308.15	.000261	.0056	.000028
308.15	.00025	.00549	.00002745
308.15	.00024	.00539	.00002695
308.15	.000231	.00529	.00002645
308.15	.000218	.00514	.0000257
308.15	.000207	.005	.000025
308.15	.000197	.00487	.00002435
308.15	.000188	.00475	.00002375
308.15	.000176	.00458	.0000229
308.15	.000167	.00442	.0000221
308.15	.000158	.00423	.00002115
308.15	.00015	.00407	.00002035
308.15	.000143	.00392	.0000196
308.15	.000133	.00371	.00001855
308.15	.000125	.00351	.00001755
308.15	.000118	.00332	.0000166
308.15	.000111	.00315	.00001575
313.15	.0003	.00681	.00003405
313.15	.000286	.00667	.00003335
313.15	.000273	.00652	.0000326
313.15	.000261	.00641	.00003205
313.15	.00025	.00628	.0000314
313.15	.00024	.00617	.00003085
313.15	.000231	.00606	.0000303
313.15	.000218	.00588	.0000294
313.15	.000207	.00574	.0000287
313.15	.000197	.00557	.00002785
313.15	.000188	.0054	.000027
313.15	.000176	.00514	.0000257
313.15	.000167	.00491	.00002455
313.15	.000158	.00468	.0000234
313.15	.00015	.00448	.0000224
313.15	.000143	.00426	.0000213
313.15	.000133	.00401	.00002005
313.15	.000125	.00375	.00001875
313.15	.000118	.00354	.0000177
313.15	.000111	.00337	.00001685
318.15	.0003	.0074	.000037
318.15	.000286	.00724	.0000362
318.15	.000273	.00708	.0000354
318.15	.000261	.00694	.0000347
318.15	.00025	.0068	.000034
318.15	.00024	.00667	.00003335
318.15	.000231	.00655	.00003275
318.15	.000218	.00632	.0000316
318.15	.000207	.00612	.0000306
318.15	.000197	.00593	.00002965
318.15	.000188	.00576	.0000288
318.15	.000176	.00548	.0000274
318.15	.000167	.00524	.0000262
318.15	.000158	.005	.000025
318.15	.00015	.00486	.0000243
318.15	.000143	.00463	.00002315
318.15	.000133	.00436	.0000218
318.15	.000125	.00411	.00002055
318.15	.000118	.00387	.00001935
323.15	.0003	.00877	.00004385
323.15	.000286	.00858	.0000429
323.15	.000273	.00839	.00004195
323.15	.000261	.00823	.00004115
323.15	.00025	.00805	.00004025
323.15	.00024	.00786	.0000393
323.15	.000231	.00772	.0000386
323.15	.000218	.00745	.00003725
323.15	.000207	.00712	.0000356
323.15	.000197	.00682	.0000341
323.15	.000188	.00653	.00003265
323.15	.000176	.0062	.000031
323.15	.000167	.00588	.0000294
323.15	.000158	.00563	.00002815
323.15	.00015	.00538	.0000269
323.15	.000143	.00514	.0000257
323.15	.000133	.0049	.0000245
323.15	.000125	.00465	.00002325
323.15	.000118	.00442	.0000221
323.15	.000111	.00418	.0000209

System: water + N,N,N',N'-tetramethyl-N,N'-ditetradecylhexane-1,6-diaminium bromide; phases: Liquid, Gas
Fixed: Temperature, K = 298.15
Property: Surface tension liquid-gas, N/m (Liquid); method: Pendant drop shape
Molality, mol/kg of N,N,N',N'-tetramethyl-N,N'-ditetradecylhexane-1,6-diaminium bromide	Surface tension liquid-gas, N/m	uncertainty
0	.07198	.00007198
.00001	.0618	.0000618
.00002	.05601	.00005601
.00003	.05248	.00005248
.00004	.05087	.00005087
.00005	.04903	.00004903
.00006	.0471	.0000471
.00007	.04598	.00004598
.00008	.04305	.00004305
.0001	.0421	.0000421
.00012	.0415	.0000415
.00014	.04055	.00004055
.00017	.03984	.00003984
.0002	.03913	.00003913
.0003	.03857	.00003857
.0004	.0384	.0000384

System: water + N,N,N',N'-tetramethyl-N,N'-ditetradecylhexane-1,6-diaminium bromide; phases: Liquid
Fixed: Pressure, kPa = 100
Property: Electrical conductivity, S/m (Liquid); method: Mettler Toledo inLab 710
Temperature, K	Molality, mol/kg of N,N,N',N'-tetramethyl-N,N'-ditetradecylhexane-1,6-diaminium bromide	Electrical conductivity, S/m	uncertainty
298.15	.0003	.00481	.00002405
298.15	.000286	.00469	.00002345
298.15	.000273	.00456	.0000228
298.15	.000261	.00445	.00002225
298.15	.00025	.00434	.0000217
298.15	.00024	.00423	.00002115
298.15	.000231	.00413	.00002065
298.15	.000214	.00396	.0000198
298.15	.0002	.0038	.000019
298.15	.000188	.00365	.00001825
298.15	.000176	.00352	.0000176
298.15	.000167	.00338	.0000169
298.15	.000158	.00326	.0000163
298.15	.00015	.00312	.0000156
298.15	.000143	.003	.000015
298.15	.000136	.00289	.00001445
298.15	.00013	.0028	.000014
298.15	.000125	.00273	.00001365
298.15	.00012	.00265	.00001325
298.15	.000115	.00256	.0000128
298.15	.000111	.00247	.00001235
303.15	.0003	.00556	.0000278
303.15	.000286	.00539	.00002695
303.15	.000273	.00524	.0000262
303.15	.000261	.00513	.00002565
303.15	.00025	.00502	.0000251
303.15	.00024	.00491	.00002455
303.15	.000231	.00479	.00002395
303.15	.000218	.00464	.0000232
303.15	.000207	.0045	.0000225
303.15	.000197	.00435	.00002175
303.15	.000188	.00424	.0000212
303.15	.000176	.00407	.00002035
303.15	.000167	.00391	.00001955
303.15	.000158	.00375	.00001875
303.15	.00015	.00361	.00001805
303.15	.000143	.00347	.00001735
303.15	.000133	.00327	.00001635
303.15	.000125	.00311	.00001555
303.15	.000118	.00293	.00001465
303.15	.000111	.00278	.0000139
308.15	.0003	.00639	.00003195
308.15	.000286	.00621	.00003105
308.15	.000273	.00604	.0000302
308.15	.000261	.00587	.00002935
308.15	.00025	.00573	.00002865
308.15	.00024	.0056	.000028
308.15	.000231	.00548	.0000274
308.15	.000218	.00529	.00002645
308.15	.000207	.00512	.0000256
308.15	.000197	.00493	.00002465
308.15	.000188	.00478	.0000239
308.15	.000176	.00458	.0000229
308.15	.000167	.00438	.0000219
308.15	.000158	.00418	.0000209
308.15	.00015	.004	.00002
308.15	.000143	.00386	.0000193
308.15	.000133	.00369	.00001845
308.15	.000125	.00353	.00001765
308.15	.000118	.00339	.00001695
308.15	.000111	.00326	.0000163
313.15	.0003	.00704	.0000352
313.15	.000286	.00681	.00003405
313.15	.000273	.00663	.00003315
313.15	.000261	.00647	.00003235
313.15	.00025	.00633	.00003165
313.15	.00024	.00617	.00003085
313.15	.000231	.00602	.0000301
313.15	.000218	.00582	.0000291
313.15	.000207	.00562	.0000281
313.15	.000197	.00541	.00002705
313.15	.000188	.00523	.00002615
313.15	.000176	.00494	.0000247
313.15	.000167	.00467	.00002335
313.15	.000158	.00449	.00002245
313.15	.00015	.00429	.00002145
313.15	.000143	.00411	.00002055
313.15	.000133	.00386	.0000193
313.15	.000125	.00364	.0000182
313.15	.000118	.00353	.00001765
313.15	.000111	.00342	.0000171
318.15	.0003	.00822	.0000411
318.15	.000286	.008	.00004
318.15	.000273	.00777	.00003885
318.15	.000261	.00755	.00003775
318.15	.00025	.00734	.0000367
318.15	.00024	.00714	.0000357
318.15	.000231	.00694	.0000347
318.15	.000218	.00665	.00003325
318.15	.000207	.00638	.0000319
318.15	.000197	.00613	.00003065
318.15	.000188	.00588	.0000294
318.15	.000176	.00559	.00002795
318.15	.000167	.00529	.00002645
318.15	.000158	.00503	.00002515
318.15	.00015	.00478	.0000239
318.15	.000143	.00454	.0000227
318.15	.000133	.00431	.00002155
318.15	.000125	.00407	.00002035
318.15	.000118	.00387	.00001935
318.15	.000111	.00369	.00001845
323.15	.0003	.0088	.000044
323.15	.000286	.00856	.0000428
323.15	.000273	.00832	.0000416
323.15	.000261	.00808	.0000404
323.15	.00025	.00784	.0000392
323.15	.00024	.0076	.000038
323.15	.000231	.00736	.0000368
323.15	.000218	.00702	.0000351
323.15	.000207	.00676	.0000338
323.15	.000197	.00647	.00003235
323.15	.000188	.00618	.0000309
323.15	.000176	.00586	.0000293
323.15	.000167	.00554	.0000277
323.15	.000158	.00526	.0000263
323.15	.00015	.00504	.0000252
323.15	.000143	.00482	.0000241
323.15	.000133	.00452	.0000226
323.15	.000125	.00426	.0000213
323.15	.000118	.004	.00002
323.15	.000111	.00384	.0000192
