Measured thermophysical data. Excess Properties and Spectral Investigation for the Binary System Diethylene Glycol Dimethyl Ether + Water at T = (293.15, 298.15, 303.15, 308.15 and 313.15) K
Source: J. Chem. Eng. Data, 2015, 10.1021/je500389t
Compound 1: water, H2O, purity 99.9%
Compound 2: diethylene glycol, dimethyl ether, C6H14O3, purity 99.2%

System: water; phases: Liquid
Property: Mass density, kg/m3 (Liquid); method: Pycnometric method
Temperature, K	Pressure, kPa	Mass density, kg/m3	uncertainty
293.15	101	998.2	1
298.15	101	997	1
303.15	101	995.6	1
308.15	101	994	1
313.15	101	992.2	1

System: water; phases: Liquid
Property: Viscosity, Pa*s (Liquid); method: Capillary tube (Ostwald; Ubbelohde) method
Temperature, K	Pressure, kPa	Viscosity, Pa*s	uncertainty
293.15	101	.00101	.00002
298.15	101	.00089	.00002
303.15	101	.000801	.00002
308.15	101	.000723	.00002
313.15	101	.000656	.00002

System: diethylene glycol, dimethyl ether; phases: Liquid
Property: Mass density, kg/m3 (Liquid); method: Pycnometric method
Temperature, K	Pressure, kPa	Mass density, kg/m3	uncertainty
293.15	101	945.2	1
298.15	101	939.8	1
303.15	101	935	1
308.15	101	930.7	1
313.15	101	925.4	1

System: diethylene glycol, dimethyl ether; phases: Liquid
Property: Viscosity, Pa*s (Liquid); method: Capillary tube (Ostwald; Ubbelohde) method
Temperature, K	Pressure, kPa	Viscosity, Pa*s	uncertainty
293.15	101	.00109	.00002
298.15	101	.000998	.00002
303.15	101	.000914	.00002
308.15	101	.000834	.00002
313.15	101	.000785	.00002

System: diethylene glycol, dimethyl ether + water; phases: Liquid
Fixed: Pressure, kPa = 101
Property: Mass density, kg/m3 (Liquid); method: Pycnometric method
Mole fraction of diethylene glycol, dimethyl ether	Temperature, K	Mass density, kg/m3	uncertainty
0	293.15	998.2	1
.0147	293.15	1000.9	1
.0325	293.15	1004.6	1
.0548	293.15	1008.4	1
.0822	293.15	1010.3	1
.1183	293.15	1009.2	1
.1676	293.15	1003.2	1
.2384	293.15	993.6	1
.2866	293.15	987.3	1
.3468	293.15	980.1	1
.4495	293.15	970.7	1
.5426	293.15	963.6	1
.699	293.15	955.5	1
.7996	293.15	951.2	1
.8928	293.15	948.3	1
1	293.15	945.2	1
0	298.15	997	1
.0147	298.15	998.8	1
.0325	298.15	1002.7	1
.0548	298.15	1005.5	1
.0822	298.15	1006.8	1
.1183	298.15	1004.8	1
.1676	298.15	998.7	1
.2384	298.15	988.3	1
.2866	298.15	982	1
.3468	298.15	974.9	1
.4495	298.15	965.4	1
.5426	298.15	958.5	1
.699	298.15	950.2	1
.7996	298.15	945.9	1
.8928	298.15	942.9	1
1	298.15	939.8	1
0	303.15	995.6	1
.0147	303.15	997.5	1
.0325	303.15	1000.2	1
.0548	303.15	1002.4	1
.0822	303.15	1003.1	1
.1183	303.15	1000.3	1
.1676	303.15	994.1	1
.2384	303.15	983.9	1
.2866	303.15	977.5	1
.3468	303.15	970.4	1
.4495	303.15	960.9	1
.5426	303.15	953.8	1
.699	303.15	945.4	1
.7996	303.15	941.2	1
.8928	303.15	938.1	1
1	303.15	935	1
0	308.15	994	1
.0147	308.15	995.3	1
.0325	308.15	998.1	1
.0548	308.15	999.6	1
.0822	308.15	999.7	1
.1183	308.15	996.5	1
.1676	308.15	990.1	1
.2384	308.15	979.3	1
.2866	308.15	973.2	1
.3468	308.15	965.6	1
.4495	308.15	956.2	1
.5426	308.15	949.2	1
.699	308.15	941	1
.7996	308.15	936.4	1
.8928	308.15	933.3	1
1	308.15	930.7	1
0	313.15	992.2	1
.0147	313.15	994.3	1
.0325	313.15	995.2	1
.0548	313.15	995.9	1
.0822	313.15	995.8	1
.1183	313.15	992.1	1
.1676	313.15	985.4	1
.2384	313.15	974.5	1
.2866	313.15	968	1
.3468	313.15	960.8	1
.4495	313.15	951.1	1
.5426	313.15	943.8	1
.699	313.15	935.7	1
.7996	313.15	931.4	1
.8928	313.15	928.2	1
1	313.15	925.4	1

System: diethylene glycol, dimethyl ether + water; phases: Liquid
Fixed: Pressure, kPa = 101
Property: Viscosity, Pa*s (Liquid); method: Capillary tube (Ostwald; Ubbelohde) method
Mole fraction of diethylene glycol, dimethyl ether	Temperature, K	Viscosity, Pa*s	uncertainty
0	293.15	.00101	.00002
.0147	293.15	.00139	.00002
.0325	293.15	.0019	.00002
.0548	293.15	.00256	.00002
.0822	293.15	.00321	.00002
.1183	293.15	.00365	.00002
.1676	293.15	.00363	.00002
.2384	293.15	.00312	.00002
.2866	293.15	.00275	.00002
.3468	293.15	.00236	.00002
.4495	293.15	.00197	.00002
.5426	293.15	.00161	.00002
.699	293.15	.00132	.00002
.7996	293.15	.00121	.00002
.8928	293.15	.00114	.00002
1	293.15	.00109	.00002
0	298.15	.00089	.00002
.0147	298.15	.00122	.00002
.0325	298.15	.00166	.00002
.0548	298.15	.0022	.00002
.0822	298.15	.00273	.00002
.1183	298.15	.0031	.00002
.1676	298.15	.00309	.00002
.2384	298.15	.0027	.00002
.2866	298.15	.00242	.00002
.3468	298.15	.0021	.00002
.4495	298.15	.00177	.00002
.5426	298.15	.00147	.00002
.699	298.15	.0012	.00002
.7996	298.15	.00111	.00002
.8928	298.15	.00105	.00002
1	298.15	.000998	.00002
0	303.15	.000801	.00002
.0147	303.15	.00106	.00002
.0325	303.15	.00141	.00002
.0548	303.15	.00182	.00002
.0822	303.15	.00222	.00002
.1183	303.15	.00251	.00002
.1676	303.15	.00253	.00002
.2384	303.15	.00224	.00002
.2866	303.15	.00201	.00002
.3468	303.15	.00177	.00002
.4495	303.15	.00147	.00002
.5426	303.15	.00127	.00002
.699	303.15	.00108	.00002
.7996	303.15	.000997	.00002
.8928	303.15	.000955	.00002
1	303.15	.000914	.00002
0	308.15	.000723	.00002
.0147	308.15	.000939	.00002
.0325	308.15	.00123	.00002
.0548	308.15	.001576	.00002
.0822	308.15	.00191	.00002
.1183	308.15	.00213	.00002
.1676	308.15	.00214	.00002
.2384	308.15	.00192	.00002
.2866	308.15	.00175	.00002
.3468	308.15	.0015	.00002
.4495	308.15	.00131	.00002
.5426	308.15	.00114	.00002
.699	308.15	.001	.00002
.7996	308.15	.000902	.00002
.8928	308.15	.000862	.00002
1	308.15	.000834	.00002
0	313.15	.000656	.00002
.0147	313.15	.000865	.00002
.0325	313.15	.00109	.00002
.0548	313.15	.00141	.00002
.0822	313.15	.0017	.00002
.1183	313.15	.00188	.00002
.1676	313.15	.0019	.00002
.2384	313.15	.00172	.00002
.2866	313.15	.00158	.00002
.3468	313.15	.00142	.00002
.4495	313.15	.00121	.00002
.5426	313.15	.00106	.00002
.699	313.15	.000941	.00002
.7996	313.15	.000851	.00002
.8928	313.15	.000817	.00002
1	313.15	.000785	.00002
