Measured thermophysical data. Solubilities of C-Tetraalkylcalix[4]resorcinarenes in SCCO2: Experimental Measurements, Characterization, and Correlation
Source: J. Chem. Eng. Data, 2015, 10.1021/je500990f
Compound 1: carbon dioxide, CO2, purity 99.98%
Compound 2: 2,8,14,20-tetramethyl-4,6,10,12,16,18,22,24-octahidroxyresorci[4]arene, calix[4]resorcinarene, C32H32O8, purity 94.2%
Compound 3: 2,4,6,8-tetrapentyl-1,3,5,7(1,3)-tetrabenzenacyclooctaphan-1(4),1(6),3(4),3(6),5(4),5(6),7(4),7(6)-octaol, C48H64O8, purity 90.2%

System: 2,8,14,20-tetramethyl-4,6,10,12,16,18,22,24-octahidroxyresorci[4]arene, calix[4]resorcinarene; phases: Crystal, Liquid, Air at 1 atmosphere
Property: Normal melting temperature, K (Crystal); method: DSC/DTA
Normal melting temperature, K	uncertainty
605.65	1

System: 2,4,6,8-tetrapentyl-1,3,5,7(1,3)-tetrabenzenacyclooctaphan-1(4),1(6),3(4),3(6),5(4),5(6),7(4),7(6)-octaol; phases: Crystal, Liquid, Air at 1 atmosphere
Property: Normal melting temperature, K (Crystal); method: DSC/DTA
Normal melting temperature, K	uncertainty
613.71	1

System: carbon dioxide + 2,8,14,20-tetramethyl-4,6,10,12,16,18,22,24-octahidroxyresorci[4]arene, calix[4]resorcinarene; phases: Fluid (supercritical or subcritical phases), Crystal
Property: Mole fraction of 2,8,14,20-tetramethyl-4,6,10,12,16,18,22,24-octahidroxyresorci[4]arene, calix[4]resorcinarene (Fluid (supercritical or subcritical phases)); method: UV spectroscopy
Temperature, K	Pressure, kPa	Mole fraction of 2,8,14,20-tetramethyl-4,6,10,12,16,18,22,24-octahidroxyresorci[4]arene, calix[4]resorcinarene	uncertainty
313.2	12000	.000001563	.00000012504
313.2	15000	.00000171	.0000001368
313.2	17000	.00000174	.0000001392
313.2	20000	.000001862	.00000014896
313.2	23000	.000001909	.00000015272
313.2	25000	.00000201	.0000001608
313.2	30000	.000002155	.0000001724
313.2	35000	.000002264	.00000018112
323.2	12000	.000000991	.00000007928
323.2	15000	.000001721	.00000013768
323.2	17000	.000002575	.000000206
323.2	20000	.000002877	.00000023016
323.2	23000	.00000332	.0000002656
323.2	25000	.000003407	.00000027256
323.2	30000	.000004061	.00000032488
323.2	35000	.000005182	.00000041456
333.2	12000	.000001339	.00000010712
333.2	15000	.000003391	.00000027128
333.2	17000	.000003913	.00000031304
333.2	20000	.000004322	.00000034576
333.2	23000	.000004555	.0000003644
333.2	25000	.000004679	.00000037432
333.2	30000	.000005132	.00000041056
333.2	35000	.00000661	.0000005288

System: carbon dioxide + 2,4,6,8-tetrapentyl-1,3,5,7(1,3)-tetrabenzenacyclooctaphan-1(4),1(6),3(4),3(6),5(4),5(6),7(4),7(6)-octaol; phases: Fluid (supercritical or subcritical phases), Crystal
Property: Mole fraction of 2,4,6,8-tetrapentyl-1,3,5,7(1,3)-tetrabenzenacyclooctaphan-1(4),1(6),3(4),3(6),5(4),5(6),7(4),7(6)-octaol (Fluid (supercritical or subcritical phases)); method: UV spectroscopy
Temperature, K	Pressure, kPa	Mole fraction of 2,4,6,8-tetrapentyl-1,3,5,7(1,3)-tetrabenzenacyclooctaphan-1(4),1(6),3(4),3(6),5(4),5(6),7(4),7(6)-octaol	uncertainty
313.2	12000	.000000496	.00000003968
313.2	15000	.000000768	.00000006144
313.2	17000	.000001026	.00000008208
313.2	20000	.00000135	.000000108
313.2	23000	.000001648	.00000013184
313.2	25000	.000001818	.00000014544
313.2	30000	.00000198	.0000001584
313.2	35000	.000002097	.00000016776
323.2	12000	.000000566	.00000004528
323.2	15000	.000001258	.00000010064
323.2	17000	.000001692	.00000013536
323.2	20000	.000002403	.00000019224
323.2	23000	.000002804	.00000022432
323.2	25000	.000002996	.00000023968
323.2	30000	.000003977	.00000031816
323.2	35000	.00000489	.0000003912
333.2	12000	.000000685	.0000000548
333.2	15000	.00000176	.0000001408
333.2	17000	.00000281	.0000002248
333.2	20000	.00000354	.0000002832
333.2	23000	.000004223	.00000033784
333.2	25000	.000004407	.00000035256
333.2	30000	.00000505	.000000404
333.2	35000	.000006216	.00000049728
