Measured thermophysical data. Enhancing liquid-phase olefin-paraffin separations using novel silver-based ionic liquids
Source: J. Chem. Eng. Data, 2015, 10.1021/je5004669
Compound 1: 1-pentene, C5H10, purity 98%
Compound 2: pentane, C5H12, purity 98%
Compound 3: 1-hexene, C6H12, purity 97%
Compound 4: hexane, C6H14, purity 95%
Compound 5: 1-heptene, C7H14, purity 97%
Compound 6: heptane, C7H16, purity 97%
Compound 7: 1-octene, C8H16, purity 98%
Compound 8: octane, C8H18, purity 98%
Compound 9: bis(N,N-dimethylbenzamide-.kappa.O)-silver(1+) bis((perfluoroethyl)sulfonyl)amide, C22H22AgF10N3O6S2, purity 98%
Compound 10: bis(1-propanamine)-silver(1+) bis((trifluoromethyl)sulfonyl)amide, C8H18AgF6N3O4S2, purity 98%
Compound 11: water, H2O, purity 99.8%

System: bis(N,N-dimethylbenzamide-.kappa.O)-silver(1+) bis((perfluoroethyl)sulfonyl)amide; phases: Liquid
Fixed: Pressure, kPa = 101.325
Property: Mass density, kg/m3 (Liquid); method: Vibrating tube method
Temperature, K	Mass density, kg/m3	uncertainty
293	1491.1	.1
298	1486.1	.1
303	1480.9	.1
313	1470.5	.1
323	1460.2	.1
333	1450	.1
343	1439.8	.1
353	1429.7	.1
363	1419.7	.1

System: bis(N,N-dimethylbenzamide-.kappa.O)-silver(1+) bis((perfluoroethyl)sulfonyl)amide; phases: Liquid
Fixed: Pressure, kPa = 101.325
Property: Viscosity, Pa*s (Liquid); method: Capillary tube (Ostwald; Ubbelohde) method
Temperature, K	Viscosity, Pa*s	uncertainty
293.2	.6512	.026048
298.1	.4917	.019668
303.2	.3376	.013504
308.2	.2309	.009236
313.2	.1619	.006476
318.3	.1163	.004652
323.2	.08565	.003426
328.2	.06522	.0026088
333.2	.05111	.0020444
338.2	.04075	.00163
343.2	.03344	.0013376
348.2	.02768	.0011072
353.2	.0228	.000912
358.1	.01876	.0007504
363.1	.01542	.0006168
368.1	.01283	.0005132

System: bis(1-propanamine)-silver(1+) bis((trifluoromethyl)sulfonyl)amide; phases: Liquid
Fixed: Pressure, kPa = 101.325
Property: Mass density, kg/m3 (Liquid); method: Vibrating tube method
Temperature, K	Mass density, kg/m3	uncertainty
293	1637.5	.1
298	1632	.1
303	1626.3	.1
313	1614.7	.1
323	1603.5	.1
333	1592.3	.1

System: bis(1-propanamine)-silver(1+) bis((trifluoromethyl)sulfonyl)amide; phases: Liquid
Fixed: Pressure, kPa = 101.325
Property: Viscosity, Pa*s (Liquid); method: Capillary tube (Ostwald; Ubbelohde) method
Temperature, K	Viscosity, Pa*s	uncertainty
293.2	.04609	.0018436
298.1	.036	.00144
303.2	.03107	.0012428
308.2	.02703	.0010812
313.2	.02528	.0010112
318.3	.02128	.0008512
323.2	.01821	.0007284
328.2	.01585	.000634
333.2	.01484	.0005936

System: 1-pentene + bis(N,N-dimethylbenzamide-.kappa.O)-silver(1+) bis((perfluoroethyl)sulfonyl)amide; phases: Liquid mixture 1, Liquid mixture 2
Fixed: Pressure, kPa = 101
Property: Amount ratio of solute to solvent of 1-pentene (Liquid mixture 1); method: HNMR
Temperature, K	Amount ratio of solute to solvent of 1-pentene	uncertainty
293	2.23	.005

System: 1-pentene + bis(1-propanamine)-silver(1+) bis((trifluoromethyl)sulfonyl)amide; phases: Liquid mixture 1, Liquid mixture 2
Fixed: Pressure, kPa = 101
Property: Amount ratio of solute to solvent of 1-pentene (Liquid mixture 1); method: HNMR
Temperature, K	Amount ratio of solute to solvent of 1-pentene	uncertainty
293	.74	.005

System: pentane + bis(N,N-dimethylbenzamide-.kappa.O)-silver(1+) bis((perfluoroethyl)sulfonyl)amide; phases: Liquid mixture 1, Liquid mixture 2
Fixed: Pressure, kPa = 101
Property: Amount ratio of solute to solvent of pentane (Liquid mixture 1); method: HNMR
Temperature, K	Amount ratio of solute to solvent of pentane	uncertainty
293	.17	.005

System: pentane + bis(1-propanamine)-silver(1+) bis((trifluoromethyl)sulfonyl)amide; phases: Liquid mixture 1, Liquid mixture 2
Fixed: Pressure, kPa = 101
Property: Amount ratio of solute to solvent of pentane (Liquid mixture 1); method: HNMR
Temperature, K	Amount ratio of solute to solvent of pentane	uncertainty
293	.36	.005

System: 1-hexene + bis(N,N-dimethylbenzamide-.kappa.O)-silver(1+) bis((perfluoroethyl)sulfonyl)amide; phases: Liquid mixture 1, Liquid mixture 2
Fixed: Pressure, kPa = 101
Property: Amount ratio of solute to solvent of 1-hexene (Liquid mixture 1); method: HNMR
Temperature, K	Amount ratio of solute to solvent of 1-hexene	uncertainty
293	2.11	.005

System: 1-hexene + bis(1-propanamine)-silver(1+) bis((trifluoromethyl)sulfonyl)amide; phases: Liquid mixture 1, Liquid mixture 2
Fixed: Pressure, kPa = 101
Property: Amount ratio of solute to solvent of 1-hexene (Liquid mixture 1); method: HNMR
Temperature, K	Amount ratio of solute to solvent of 1-hexene	uncertainty
293	.71	.005

System: hexane + bis(N,N-dimethylbenzamide-.kappa.O)-silver(1+) bis((perfluoroethyl)sulfonyl)amide; phases: Liquid mixture 1, Liquid mixture 2
Fixed: Pressure, kPa = 101
Property: Amount ratio of solute to solvent of hexane (Liquid mixture 1); method: HNMR
Temperature, K	Amount ratio of solute to solvent of hexane	uncertainty
293	.14	.005

System: hexane + bis(1-propanamine)-silver(1+) bis((trifluoromethyl)sulfonyl)amide; phases: Liquid mixture 1, Liquid mixture 2
Fixed: Pressure, kPa = 101
Property: Amount ratio of solute to solvent of hexane (Liquid mixture 1); method: HNMR
Temperature, K	Amount ratio of solute to solvent of hexane	uncertainty
293	.32	.005

System: 1-heptene + bis(N,N-dimethylbenzamide-.kappa.O)-silver(1+) bis((perfluoroethyl)sulfonyl)amide; phases: Liquid mixture 1, Liquid mixture 2
Fixed: Pressure, kPa = 101
Property: Amount ratio of solute to solvent of 1-heptene (Liquid mixture 1); method: HNMR
Temperature, K	Amount ratio of solute to solvent of 1-heptene	uncertainty
293	1.57	.005

System: 1-heptene + bis(1-propanamine)-silver(1+) bis((trifluoromethyl)sulfonyl)amide; phases: Liquid mixture 1, Liquid mixture 2
Fixed: Pressure, kPa = 101
Property: Amount ratio of solute to solvent of 1-heptene (Liquid mixture 1); method: HNMR
Temperature, K	Amount ratio of solute to solvent of 1-heptene	uncertainty
293	.67	.005

System: heptane + bis(N,N-dimethylbenzamide-.kappa.O)-silver(1+) bis((perfluoroethyl)sulfonyl)amide; phases: Liquid mixture 1, Liquid mixture 2
Fixed: Pressure, kPa = 101
Property: Amount ratio of solute to solvent of heptane (Liquid mixture 1); method: HNMR
Temperature, K	Amount ratio of solute to solvent of heptane	uncertainty
293	.1	.005

System: heptane + bis(1-propanamine)-silver(1+) bis((trifluoromethyl)sulfonyl)amide; phases: Liquid mixture 1, Liquid mixture 2
Fixed: Pressure, kPa = 101
Property: Amount ratio of solute to solvent of heptane (Liquid mixture 1); method: HNMR
Temperature, K	Amount ratio of solute to solvent of heptane	uncertainty
293	.19	.005

System: 1-octene + bis(N,N-dimethylbenzamide-.kappa.O)-silver(1+) bis((perfluoroethyl)sulfonyl)amide; phases: Liquid mixture 1, Liquid mixture 2
Fixed: Pressure, kPa = 101
Property: Amount ratio of solute to solvent of 1-octene (Liquid mixture 1); method: HNMR
Temperature, K	Amount ratio of solute to solvent of 1-octene	uncertainty
293	1.47	.005

System: 1-octene + bis(1-propanamine)-silver(1+) bis((trifluoromethyl)sulfonyl)amide; phases: Liquid mixture 1, Liquid mixture 2
Fixed: Pressure, kPa = 101
Property: Amount ratio of solute to solvent of 1-octene (Liquid mixture 1); method: HNMR
Temperature, K	Amount ratio of solute to solvent of 1-octene	uncertainty
293	.49	.005

System: octane + bis(N,N-dimethylbenzamide-.kappa.O)-silver(1+) bis((perfluoroethyl)sulfonyl)amide; phases: Liquid mixture 1, Liquid mixture 2
Fixed: Pressure, kPa = 101
Property: Amount ratio of solute to solvent of octane (Liquid mixture 1); method: HNMR
Temperature, K	Amount ratio of solute to solvent of octane	uncertainty
293	.06	.005

System: octane + bis(1-propanamine)-silver(1+) bis((trifluoromethyl)sulfonyl)amide; phases: Liquid mixture 1, Liquid mixture 2
Fixed: Pressure, kPa = 101
Property: Amount ratio of solute to solvent of octane (Liquid mixture 1); method: HNMR
Temperature, K	Amount ratio of solute to solvent of octane	uncertainty
293	.17	.005

System: 1-pentene + water + bis(1-propanamine)-silver(1+) bis((trifluoromethyl)sulfonyl)amide; phases: Liquid mixture 2, Liquid mixture 1
Property: Mole fraction of water (Liquid mixture 2); method: Other
Property: Mole fraction of 1-pentene (Liquid mixture 1); method: Other
Property: Mole fraction of water (Liquid mixture 1); method: Other
Temperature, K	Pressure, kPa	Mole fraction of 1-pentene	Mole fraction of water	uncertainty	Mole fraction of 1-pentene	uncertainty	Mole fraction of water	uncertainty
293	101.325	1	0	.02	.418	.02	.018	.02

System: pentane + water + bis(1-propanamine)-silver(1+) bis((trifluoromethyl)sulfonyl)amide; phases: Liquid mixture 2, Liquid mixture 1
Property: Mole fraction of water (Liquid mixture 2); method: Other
Property: Mole fraction of pentane (Liquid mixture 1); method: Other
Property: Mole fraction of water (Liquid mixture 1); method: Other
Temperature, K	Pressure, kPa	Mole fraction of pentane	Mole fraction of water	uncertainty	Mole fraction of pentane	uncertainty	Mole fraction of water	uncertainty
293	101.325	1	0	.02	.259	.02	.023	.02

System: 1-hexene + water + bis(1-propanamine)-silver(1+) bis((trifluoromethyl)sulfonyl)amide; phases: Liquid mixture 2, Liquid mixture 1
Property: Mole fraction of water (Liquid mixture 2); method: Other
Property: Mole fraction of 1-hexene (Liquid mixture 1); method: Other
Property: Mole fraction of water (Liquid mixture 1); method: Other
Temperature, K	Pressure, kPa	Mole fraction of 1-hexene	Mole fraction of water	uncertainty	Mole fraction of 1-hexene	uncertainty	Mole fraction of water	uncertainty
293	101.325	1	0	.02	.409	.02	.018	.02

System: hexane + water + bis(1-propanamine)-silver(1+) bis((trifluoromethyl)sulfonyl)amide; phases: Liquid mixture 2, Liquid mixture 1
Property: Mole fraction of water (Liquid mixture 2); method: Other
Property: Mole fraction of hexane (Liquid mixture 1); method: Other
Property: Mole fraction of water (Liquid mixture 1); method: Other
Temperature, K	Pressure, kPa	Mole fraction of hexane	Mole fraction of water	uncertainty	Mole fraction of hexane	uncertainty	Mole fraction of water	uncertainty
293	101.325	1	0	.005	.237	.005	.024	.005

System: 1-heptene + water + bis(1-propanamine)-silver(1+) bis((trifluoromethyl)sulfonyl)amide; phases: Liquid mixture 2, Liquid mixture 1
Property: Mole fraction of water (Liquid mixture 2); method: Other
Property: Mole fraction of 1-heptene (Liquid mixture 1); method: Other
Property: Mole fraction of water (Liquid mixture 1); method: Other
Temperature, K	Pressure, kPa	Mole fraction of 1-heptene	Mole fraction of water	uncertainty	Mole fraction of 1-heptene	uncertainty	Mole fraction of water	uncertainty
293	101.325	1	0	.02	.394	.02	.019	.02

System: heptane + water + bis(1-propanamine)-silver(1+) bis((trifluoromethyl)sulfonyl)amide; phases: Liquid mixture 2, Liquid mixture 1
Property: Mole fraction of water (Liquid mixture 2); method: Other
Property: Mole fraction of heptane (Liquid mixture 1); method: Other
Property: Mole fraction of water (Liquid mixture 1); method: Other
Temperature, K	Pressure, kPa	Mole fraction of heptane	Mole fraction of water	uncertainty	Mole fraction of heptane	uncertainty	Mole fraction of water	uncertainty
293	101.325	1	0	.02	.154	.02	.026	.02

System: 1-octene + water + bis(1-propanamine)-silver(1+) bis((trifluoromethyl)sulfonyl)amide; phases: Liquid mixture 2, Liquid mixture 1
Property: Mole fraction of water (Liquid mixture 2); method: Other
Property: Mole fraction of 1-octene (Liquid mixture 1); method: Other
Property: Mole fraction of water (Liquid mixture 1); method: Other
Temperature, K	Pressure, kPa	Mole fraction of 1-octene	Mole fraction of water	uncertainty	Mole fraction of 1-octene	uncertainty	Mole fraction of water	uncertainty
293	101.325	1	0	.02	.323	.02	.021	.02

System: octane + water + bis(1-propanamine)-silver(1+) bis((trifluoromethyl)sulfonyl)amide; phases: Liquid mixture 2, Liquid mixture 1
Property: Mole fraction of water (Liquid mixture 2); method: Other
Property: Mole fraction of octane (Liquid mixture 1); method: Other
Property: Mole fraction of water (Liquid mixture 1); method: Other
Temperature, K	Pressure, kPa	Mole fraction of octane	Mole fraction of water	uncertainty	Mole fraction of octane	uncertainty	Mole fraction of water	uncertainty
293	101.325	1	0	.02	.103	.02	.023	.02

System: 1-pentene + water + bis(N,N-dimethylbenzamide-.kappa.O)-silver(1+) bis((perfluoroethyl)sulfonyl)amide; phases: Liquid mixture 2, Liquid mixture 1
Property: Mole fraction of water (Liquid mixture 2); method: Other
Property: Mole fraction of 1-pentene (Liquid mixture 1); method: Other
Property: Mole fraction of water (Liquid mixture 1); method: Other
Temperature, K	Pressure, kPa	Mole fraction of 1-pentene	Mole fraction of water	uncertainty	Mole fraction of 1-pentene	uncertainty	Mole fraction of water	uncertainty
293	101.325	1	0	.02	.679	.02	.017	.02
293	101.325	1	0	.02	.47	.02	.305	.02
293	101.325	1	0	.02	.434	.02	.356	.02
293	101.325	1	0	.02	.408	.02	.388	.02
293	101.325	1	0	.02	.33	.02	.495	.02

System: pentane + water + bis(N,N-dimethylbenzamide-.kappa.O)-silver(1+) bis((perfluoroethyl)sulfonyl)amide; phases: Liquid mixture 2, Liquid mixture 1
Property: Mole fraction of water (Liquid mixture 2); method: Other
Property: Mole fraction of water (Liquid mixture 1); method: Other
Property: Mole fraction of pentane (Liquid mixture 1); method: Other
Temperature, K	Pressure, kPa	Mole fraction of pentane	Mole fraction of water	uncertainty	Mole fraction of water	uncertainty	Mole fraction of pentane	uncertainty
293	101.325	1	0	.02	.041	.02	.137	.02
293	101.325	1	0	.02	.517	.02	.069	.02
293	101.325	1	0	.02	.564	.02	.06	.02
293	101.325	1	0	.02	.624	.02	.056	.02
293	101.325	1	0	.02	.789	.02	.03	.02

System: 1-hexene + water + bis(N,N-dimethylbenzamide-.kappa.O)-silver(1+) bis((perfluoroethyl)sulfonyl)amide; phases: Liquid mixture 2, Liquid mixture 1
Property: Mole fraction of water (Liquid mixture 2); method: Other
Property: Mole fraction of 1-hexene (Liquid mixture 1); method: Other
Property: Mole fraction of water (Liquid mixture 1); method: Other
Temperature, K	Pressure, kPa	Mole fraction of 1-hexene	Mole fraction of water	uncertainty	Mole fraction of 1-hexene	uncertainty	Mole fraction of water	uncertainty
293	101.325	1	0	.02	.669	.02	.013	.02
293	101.325	1	0	.02	.555	.02	.167	.02
293	101.325	1	0	.02	.413	.02	.372	.02
293	101.325	1	0	.02	.373	.02	.429	.02
293	101.325	1	0	.02	.346	.02	.467	.02

System: hexane + water + bis(N,N-dimethylbenzamide-.kappa.O)-silver(1+) bis((perfluoroethyl)sulfonyl)amide; phases: Liquid mixture 2, Liquid mixture 1
Property: Mole fraction of water (Liquid mixture 2); method: Other
Property: Mole fraction of water (Liquid mixture 1); method: Other
Property: Mole fraction of hexane (Liquid mixture 1); method: Other
Temperature, K	Pressure, kPa	Mole fraction of hexane	Mole fraction of water	uncertainty	Mole fraction of water	uncertainty	Mole fraction of hexane	uncertainty
293	101.325	1	0	.02	.042	.02	.12	.02
293	101.325	1	0	.02	.441	.02	.07	.02
293	101.325	1	0	.02	.623	.02	.049	.02
293	101.325	1	0	.02	.706	.02	.037	.02
293	101.325	1	0	.02	.765	.02	.031	.02

System: 1-heptene + water + bis(N,N-dimethylbenzamide-.kappa.O)-silver(1+) bis((perfluoroethyl)sulfonyl)amide; phases: Liquid mixture 2, Liquid mixture 1
Property: Mole fraction of water (Liquid mixture 2); method: Other
Property: Mole fraction of water (Liquid mixture 1); method: Other
Property: Mole fraction of 1-heptene (Liquid mixture 1); method: Other
Temperature, K	Pressure, kPa	Mole fraction of 1-heptene	Mole fraction of water	uncertainty	Mole fraction of water	uncertainty	Mole fraction of 1-heptene	uncertainty
293	101.325	1	0	.02	.012	.02	.604	.02
293	101.325	1	0	.02	.249	.02	.453	.02
293	101.325	1	0	.02	.337	.02	.397	.02
293	101.325	1	0	.02	.382	.02	.364	.02
293	101.325	1	0	.02	.449	.02	.321	.02

System: heptane + water + bis(N,N-dimethylbenzamide-.kappa.O)-silver(1+) bis((perfluoroethyl)sulfonyl)amide; phases: Liquid mixture 2, Liquid mixture 1
Property: Mole fraction of water (Liquid mixture 2); method: Other
Property: Mole fraction of water (Liquid mixture 1); method: Other
Property: Mole fraction of heptane (Liquid mixture 1); method: Other
Temperature, K	Pressure, kPa	Mole fraction of heptane	Mole fraction of water	uncertainty	Mole fraction of water	uncertainty	Mole fraction of heptane	uncertainty
293	101.325	1	0	.02	.043	.02	.087	.02
293	101.325	1	0	.02	.532	.02	.043	.02
293	101.325	1	0	.02	.586	.02	.035	.02
293	101.325	1	0	.02	.646	.02	.03	.02
293	101.325	1	0	.02	.751	.02	.021	.02

System: 1-octene + water + bis(N,N-dimethylbenzamide-.kappa.O)-silver(1+) bis((perfluoroethyl)sulfonyl)amide; phases: Liquid mixture 2, Liquid mixture 1
Property: Mole fraction of water (Liquid mixture 2); method: Other
Property: Mole fraction of water (Liquid mixture 1); method: Other
Property: Mole fraction of 1-octene (Liquid mixture 1); method: Other
Temperature, K	Pressure, kPa	Mole fraction of 1-octene	Mole fraction of water	uncertainty	Mole fraction of water	uncertainty	Mole fraction of 1-octene	uncertainty
293	101.325	1	0	.02	.006	.02	.592	.02
293	101.325	1	0	.02	.227	.02	.455	.02
293	101.325	1	0	.02	.349	.02	.38	.02
293	101.325	1	0	.02	.393	.02	.35	.02
293	101.325	1	0	.02	.459	.02	.306	.02

System: octane + water + bis(N,N-dimethylbenzamide-.kappa.O)-silver(1+) bis((perfluoroethyl)sulfonyl)amide; phases: Liquid mixture 2, Liquid mixture 1
Property: Mole fraction of water (Liquid mixture 2); method: Other
Property: Mole fraction of water (Liquid mixture 1); method: Other
Property: Mole fraction of octane (Liquid mixture 1); method: Other
Temperature, K	Pressure, kPa	Mole fraction of octane	Mole fraction of water	uncertainty	Mole fraction of water	uncertainty	Mole fraction of octane	uncertainty
293	101.325	1	0	.02	.045	.02	.055	.02
293	101.325	1	0	.02	.472	.02	.03	.02
293	101.325	1	0	.02	.651	.02	.024	.02
293	101.325	1	0	.02	.739	.02	.015	.02
293	101.325	1	0	.02	.767	.02	.013	.02
