Measured thermophysical data. Solubility and Solvation Thermodynamics of a Series of Homologous a-Amino Acids in Nonaqueous Binary Mixtures of Ethylene Glycol and Dimethyl Sulfoxide
Source: J. Chem. Eng. Data, 2015, 10.1021/je5007899
Compound 1: glycine, C2H5NO2
Compound 2: DL-alanine, C3H7NO2
Compound 3: DL-.alpha.-aminobutanoic acid, C4H9NO2
Compound 4: DL-norvaline, C5H11NO2
Compound 5: ethylene glycol, C2H6O2
Compound 6: DMSO, C2H6OS

System: glycine + DMSO + ethylene glycol; phases: Liquid, Crystal
Fixed: Pressure, kPa = 101
Property: Molality, mol/kg of glycine (Liquid); method: Titration
Temperature, K	Solvent: Mass fraction of DMSO	Molality, mol/kg of glycine	uncertainty
288.15	0	.1453	.001
288.15	.2	.1061	.001
288.15	.4	.0775	.001
288.15	.6	.059	.001
288.15	.8	.0506	.001
288.15	1	.033	.001
293.15	0	.158	.001
293.15	.2	.1117	.001
293.15	.4	.0837	.001
293.15	.6	.0637	.001
293.15	.8	.0561	.001
293.15	1	.0359	.001
298.15	0	.1754	.001
298.15	.2	.1331	.001
298.15	.4	.0919	.001
298.15	.6	.0709	.001
298.15	.8	.0609	.001
298.15	1	.042	.001
303.15	0	.1832	.001
303.15	.2	.1462	.001
303.15	.4	.1055	.001
303.15	.6	.0764	.001
303.15	.8	.0651	.001
303.15	1	.0451	.001
308.15	0	.19	.001
308.15	.2	.155	.001
308.15	.4	.1168	.001
308.15	.6	.0825	.001
308.15	.8	.0705	.001
308.15	1	.0504	.001

System: DMSO + ethylene glycol + DL-alanine; phases: Liquid, Crystal
Fixed: Pressure, kPa = 101
Property: Molality, mol/kg of DL-alanine (Liquid); method: Titration
Temperature, K	Solvent: Mass fraction of DMSO	Molality, mol/kg of DL-alanine	uncertainty
288.15	0	.1353	.001
288.15	.2	.0953	.001
288.15	.4	.0759	.001
288.15	.6	.0607	.001
288.15	.8	.0508	.001
288.15	1	.0338	.001
293.15	0	.1432	.001
293.15	.2	.101	.001
293.15	.4	.0876	.001
293.15	.6	.0659	.001
293.15	.8	.0545	.001
293.15	1	.0389	.001
298.15	0	.1536	.001
298.15	.2	.1106	.001
298.15	.4	.0934	.001
298.15	.6	.0707	.001
298.15	.8	.0597	.001
298.15	1	.0458	.001
303.15	0	.159	.001
303.15	.2	.1176	.001
303.15	.4	.1022	.001
303.15	.6	.0752	.001
303.15	.8	.0642	.001
303.15	1	.0503	.001
308.15	0	.1661	.001
308.15	.2	.1241	.001
308.15	.4	.1082	.001
308.15	.6	.0791	.001
308.15	.8	.0702	.001
308.15	1	.0571	.001

System: DMSO + ethylene glycol + DL-.alpha.-aminobutanoic acid; phases: Liquid, Crystal
Fixed: Pressure, kPa = 101
Property: Molality, mol/kg of DL-.alpha.-aminobutanoic acid (Liquid); method: Titration
Temperature, K	Solvent: Mass fraction of DMSO	Molality, mol/kg of DL-.alpha.-aminobutanoic acid	uncertainty
288.15	0	.2037	.001
288.15	.2	.1538	.001
288.15	.4	.1135	.001
288.15	.6	.0891	.001
288.15	.8	.0643	.001
288.15	1	.0483	.001
293.15	0	.2122	.001
293.15	.2	.1607	.001
293.15	.4	.1221	.001
293.15	.6	.0945	.001
293.15	.8	.0721	.001
293.15	1	.0541	.001
298.15	0	.2234	.001
298.15	.2	.169	.001
298.15	.4	.1325	.001
298.15	.6	.1054	.001
298.15	.8	.0784	.001
298.15	1	.0617	.001
303.15	0	.2389	.001
303.15	.2	.1813	.001
303.15	.4	.1453	.001
303.15	.6	.1111	.001
303.15	.8	.0887	.001
303.15	1	.0675	.001
308.15	0	.2568	.001
308.15	.2	.1957	.001
308.15	.4	.1523	.001
308.15	.6	.1179	.001
308.15	.8	.0945	.001
308.15	1	.0712	.001

System: DMSO + ethylene glycol + DL-norvaline; phases: Liquid, Crystal
Fixed: Pressure, kPa = 101
Property: Molality, mol/kg of DL-norvaline (Liquid); method: Titration
Temperature, K	Solvent: Mass fraction of DMSO	Molality, mol/kg of DL-norvaline	uncertainty
288.15	0	.1191	.001
288.15	.2	.0908	.001
288.15	.4	.0761	.001
288.15	.6	.0613	.001
288.15	.8	.0518	.001
288.15	1	.0345	.001
293.15	0	.1301	.001
293.15	.2	.0989	.001
293.15	.4	.0813	.001
293.15	.6	.0662	.001
293.15	.8	.057	.001
293.15	1	.0378	.001
298.15	0	.1394	.001
298.15	.2	.1084	.001
298.15	.4	.0888	.001
298.15	.6	.0723	.001
298.15	.8	.0607	.001
298.15	1	.0424	.001
303.15	0	.1569	.001
303.15	.2	.1167	.001
303.15	.4	.0991	.001
303.15	.6	.0793	.001
303.15	.8	.0666	.001
303.15	1	.0491	.001
308.15	0	.1752	.001
308.15	.2	.1265	.001
308.15	.4	.1143	.001
308.15	.6	.0931	.001
308.15	.8	.0727	.001
308.15	1	.0549	.001

System: glycine + ethylene glycol; phases: Liquid, Crystal
Property: Molality, mol/kg of glycine (Liquid); method: Titration
Temperature, K	Pressure, kPa	Molality, mol/kg of glycine	uncertainty
288.15	101	.1453	.001
293.15	101	.158	.001
298.15	101	.1754	.001
303.15	101	.1832	.001
308.15	101	.19	.001

System: glycine + DMSO; phases: Liquid, Crystal
Property: Molality, mol/kg of glycine (Liquid); method: Titration
Temperature, K	Pressure, kPa	Molality, mol/kg of glycine	uncertainty
288.15	101	.033	.001
293.15	101	.0359	.001
298.15	101	.042	.001
303.15	101	.0451	.001
308.15	101	.0504	.001

System: ethylene glycol + DL-alanine; phases: Liquid, Crystal
Property: Molality, mol/kg of DL-alanine (Liquid); method: Titration
Temperature, K	Pressure, kPa	Molality, mol/kg of DL-alanine	uncertainty
288.15	101	.1353	.001
293.15	101	.1432	.001
298.15	101	.1536	.001
303.15	101	.159	.001
308.15	101	.1661	.001

System: DMSO + DL-alanine; phases: Liquid, Crystal
Property: Molality, mol/kg of DL-alanine (Liquid); method: Titration
Temperature, K	Pressure, kPa	Molality, mol/kg of DL-alanine	uncertainty
288.15	101	.0338	.001
293.15	101	.0389	.001
298.15	101	.0458	.001
303.15	101	.0503	.001
308.15	101	.0571	.001

System: ethylene glycol + DL-.alpha.-aminobutanoic acid; phases: Liquid, Crystal
Property: Molality, mol/kg of DL-.alpha.-aminobutanoic acid (Liquid); method: Titration
Temperature, K	Pressure, kPa	Molality, mol/kg of DL-.alpha.-aminobutanoic acid	uncertainty
288.15	101	.2037	.001
293.15	101	.2122	.001
298.15	101	.2234	.001
303.15	101	.2389	.001
308.15	101	.2568	.001

System: DMSO + DL-.alpha.-aminobutanoic acid; phases: Liquid, Crystal
Property: Molality, mol/kg of DL-.alpha.-aminobutanoic acid (Liquid); method: Titration
Temperature, K	Pressure, kPa	Molality, mol/kg of DL-.alpha.-aminobutanoic acid	uncertainty
288.15	101	.0483	.001
293.15	101	.0541	.001
298.15	101	.0617	.001
303.15	101	.0675	.001
308.15	101	.0712	.001

System: ethylene glycol + DL-norvaline; phases: Liquid, Crystal
Property: Molality, mol/kg of DL-norvaline (Liquid); method: Titration
Temperature, K	Pressure, kPa	Molality, mol/kg of DL-norvaline	uncertainty
288.15	101	.1191	.001
293.15	101	.1301	.001
298.15	101	.1394	.001
303.15	101	.1569	.001
308.15	101	.1752	.001

System: DMSO + DL-norvaline; phases: Liquid, Crystal
Property: Molality, mol/kg of DL-norvaline (Liquid); method: Titration
Temperature, K	Pressure, kPa	Molality, mol/kg of DL-norvaline	uncertainty
288.15	101	.0345	.001
293.15	101	.0378	.001
298.15	101	.0424	.001
303.15	101	.0491	.001
308.15	101	.0549	.001
