Measured thermophysical data. Dialkylphosphate-Based Ionic Liquids as Solvents to Extract Toluene from Heptane
Source: J. Chem. Eng. Data, 2015, 10.1021/je501170h
Compound 1: toluene, C7H8, purity 99.5%
Compound 2: heptane, C7H16, purity 99%
Compound 3: 1,3-dimethylimidazolium dimethylphosphate, C7H15N2O4P, purity 98%
Compound 4: 1-ethyl-3-methylimidazolium diethylphosphate, C10H21N2O4P, purity 98%
Compound 5: 1-butyl-3-methylimidazolium dibutylphosphate, C16H33N2O4P, purity 98%

System: toluene + heptane + 1,3-dimethylimidazolium dimethylphosphate; phases: Liquid mixture 2, Liquid mixture 1
Fixed: Pressure, kPa = 101.3
Fixed: Temperature, K = 298.2
Property: Mole fraction of heptane (Liquid mixture 2); method: Chromatography
Property: Mole fraction of toluene (Liquid mixture 1); method: Chromatography
Property: Mole fraction of heptane (Liquid mixture 1); method: Chromatography
Mole fraction of toluene	Mole fraction of heptane	uncertainty	Mole fraction of toluene	uncertainty	Mole fraction of heptane	uncertainty
0	.006	.001	0	.001	1	.001
.022	.006	.001	.048	.001	.952	.001
.068	.005	.001	.165	.001	.835	.001
.107	.005	.001	.262	.001	.738	.001
.143	.004	.001	.384	.001	.616	.001
.165	.004	.001	.443	.001	.557	.001
.199	.004	.001	.535	.001	.465	.001
.238	.003	.001	.685	.001	.315	.001
.268	.003	.001	.801	.001	.199	.001

System: toluene + heptane + 1-ethyl-3-methylimidazolium diethylphosphate; phases: Liquid mixture 2, Liquid mixture 1
Fixed: Temperature, K = 298.2
Fixed: Pressure, kPa = 101.3
Property: Mole fraction of heptane (Liquid mixture 2); method: Chromatography
Property: Mole fraction of toluene (Liquid mixture 1); method: Chromatography
Property: Mole fraction of heptane (Liquid mixture 1); method: Chromatography
Mole fraction of toluene	Mole fraction of heptane	uncertainty	Mole fraction of toluene	uncertainty	Mole fraction of heptane	uncertainty
0	.009	.001	0	.001	1	.001
.031	.009	.001	.059	.001	.941	.001
.072	.008	.001	.143	.001	.857	.001
.117	.008	.001	.237	.001	.763	.001
.17	.007	.001	.354	.001	.646	.001
.194	.006	.001	.436	.001	.564	.001
.249	.006	.001	.569	.001	.431	.001
.295	.006	.001	.684	.001	.316	.001
.331	.005	.001	.782	.001	.218	.001

System: toluene + heptane + 1-butyl-3-methylimidazolium dibutylphosphate; phases: Liquid mixture 2, Liquid mixture 1
Fixed: Temperature, K = 298.2
Fixed: Pressure, kPa = 101.3
Property: Mole fraction of heptane (Liquid mixture 2); method: Chromatography
Property: Mole fraction of toluene (Liquid mixture 1); method: Chromatography
Property: Mole fraction of heptane (Liquid mixture 1); method: Chromatography
Mole fraction of toluene	Mole fraction of heptane	uncertainty	Mole fraction of toluene	uncertainty	Mole fraction of heptane	uncertainty
0	.025	.001	0	.001	1	.001
.029	.024	.001	.047	.001	.953	.001
.074	.023	.001	.126	.001	.874	.001
.138	.023	.001	.242	.001	.758	.001
.197	.023	.001	.356	.001	.644	.001
.23	.022	.001	.429	.001	.571	.001
.265	.021	.001	.515	.001	.485	.001
.319	.019	.001	.624	.001	.376	.001
.378	.019	.001	.747	.001	.253	.001

System: heptane + 1,3-dimethylimidazolium dimethylphosphate; phases: Liquid mixture 1, Liquid mixture 2
Fixed: Pressure, kPa = 101
Property: Mole fraction of heptane (Liquid mixture 1); method: Chromatography
Temperature, K	Mole fraction of heptane	uncertainty
298.2	1	.001

System: heptane + 1,3-dimethylimidazolium dimethylphosphate; phases: Liquid mixture 2, Liquid mixture 1
Fixed: Pressure, kPa = 101
Property: Mole fraction of heptane (Liquid mixture 2); method: Chromatography
Temperature, K	Mole fraction of heptane	uncertainty
298.2	.006	.001

System: heptane + 1-ethyl-3-methylimidazolium diethylphosphate; phases: Liquid mixture 1, Liquid mixture 2
Fixed: Pressure, kPa = 101
Property: Mole fraction of heptane (Liquid mixture 1); method: Chromatography
Temperature, K	Mole fraction of heptane	uncertainty
298.2	1	.001

System: heptane + 1-ethyl-3-methylimidazolium diethylphosphate; phases: Liquid mixture 2, Liquid mixture 1
Fixed: Pressure, kPa = 101
Property: Mole fraction of heptane (Liquid mixture 2); method: Chromatography
Temperature, K	Mole fraction of heptane	uncertainty
298.2	.009	.001

System: heptane + 1-butyl-3-methylimidazolium dibutylphosphate; phases: Liquid mixture 1, Liquid mixture 2
Fixed: Pressure, kPa = 101
Property: Mole fraction of heptane (Liquid mixture 1); method: Chromatography
Temperature, K	Mole fraction of heptane	uncertainty
298.2	1	.001

System: heptane + 1-butyl-3-methylimidazolium dibutylphosphate; phases: Liquid mixture 2, Liquid mixture 1
Fixed: Pressure, kPa = 101
Property: Mole fraction of heptane (Liquid mixture 2); method: Chromatography
Temperature, K	Mole fraction of heptane	uncertainty
298.2	.025	.001
