Measured thermophysical data. Solubilities of Calix[6]arene and 4-tert-Butylcalix[4]arene in Pressurized Hot Water
Source: J. Chem. Eng. Data, 2014, 10.1021/je500149k
Compound 1: calix[6]arene, C42H36O6
Compound 2: 4-tert-butylcalix(4)arene, C44H56O4
Compound 3: water, H2O

System: water + calix[6]arene; phases: Liquid, Crystal
Property: Mole fraction of calix[6]arene (Liquid); method: Chromatography
Temperature, K	Pressure, kPa	Mole fraction of calix[6]arene	uncertainty
433.2	4900	.000000893	
453.2	5000	.00000217	
473.2	4900	.00000478	
493.2	5100	.0000125	
513.2	5400	.0000285	
533.2	5500	.0000595	

System: water + 4-tert-butylcalix(4)arene; phases: Liquid, Crystal
Property: Mole fraction of 4-tert-butylcalix(4)arene (Liquid); method: Chromatography
Temperature, K	Pressure, kPa	Mole fraction of 4-tert-butylcalix(4)arene	uncertainty
433.2	5100	.00000000443	
453.2	5100	.0000000168	
473.2	5400	.0000000734	
493.2	5100	.000000457	
513.2	5100	.00000253	
