Measured thermophysical data. Studies on the Physicochemical Properties of Ionic Liquids Based On 1-Octyl-3-methylimidazolium Amino Acids
Source: J. Chem. Eng. Data, 2015, 10.1021/je501162f
Compound 1: 1-methyl-3-octylimidazolium glycinate, C14H27N3O2, purity 98%
Compound 2: 1-methyl-3-octylimidazolium L-alaninate, C15H29N3O2, purity 98%
Compound 3: 1-methyl-3-octyl-1H-imidazol-3-ium L-serinate, C15H29N3O3, purity 98%
Compound 4: 1-methyl-3-octyl-1H-imidazol-3-ium L-prolinate, C17H31N3O2, purity 98%
Compound 5: 1-methyl-3-octylimidazolium L-asparaginate, C16H30N4O3, purity 98%

System: 1-methyl-3-octylimidazolium glycinate; phases: Glass, Liquid, Air at 1 atmosphere
Property: Triple point temperature, K (Glass); method: DSC/DTA
Triple point temperature, K	uncertainty
204	

System: 1-methyl-3-octylimidazolium glycinate; phases: Liquid
Fixed: Pressure, kPa = 101.325
Property: Mass density, kg/m3 (Liquid); method: Vibrating tube method
Temperature, K	Mass density, kg/m3	uncertainty
293.15	1041.7	1
303.15	1035.3	1
313.15	1029.1	1
323.15	1023	1
333.15	1016.8	1
343.15	1010.6	1
353.15	1004.4	1
363.15	998.6	1
373.15	992.8	1

System: 1-methyl-3-octylimidazolium glycinate; phases: Liquid
Fixed: Pressure, kPa = 101.325
Property: Viscosity, Pa*s (Liquid); method: Concentric cylinders viscometry
Temperature, K	Viscosity, Pa*s	uncertainty
293.15	.4864	.004864
303.15	.2482	.002482
313.15	.1379	.001379
323.15	.0824	.000824
333.15	.0523	.000523
343.15	.0349	.000349
353.15	.0244	.000244
363.15	.0177	.000177
373.15	.0133	.000133

System: 1-methyl-3-octylimidazolium glycinate; phases: Liquid, Air at 1 atmosphere
Property: Surface tension liquid-gas, N/m (Liquid); method: Pendant drop shape
Temperature, K	Surface tension liquid-gas, N/m	uncertainty
293.15	.03537	.00025
303.15	.03398	.00025
313.15	.03281	.00025
323.15	.03135	.00025
333.15	.03007	.00025
343.15	.02875	.00025
353.15	.02742	.00025

System: 1-methyl-3-octylimidazolium glycinate; phases: Liquid
Fixed: Pressure, kPa = 101.325
Property: Molar heat capacity at constant pressure, J/K/mol (Liquid); method: Small sample (50 mg) scanning calorimetry
Temperature, K	Molar heat capacity at constant pressure, J/K/mol	uncertainty
293.15	504.06	25.203
303.15	511.67	25.5835
313.15	518.04	25.902
323.15	526.8	26.34
333.15	536.66	26.833
343.15	546.99	27.3495
353.15	555.85	27.7925

System: 1-methyl-3-octylimidazolium L-alaninate; phases: Glass, Liquid, Air at 1 atmosphere
Property: Triple point temperature, K (Glass); method: DSC/DTA
Triple point temperature, K	uncertainty
207	

System: 1-methyl-3-octylimidazolium L-alaninate; phases: Liquid
Fixed: Pressure, kPa = 101.325
Property: Mass density, kg/m3 (Liquid); method: Vibrating tube method
Temperature, K	Mass density, kg/m3	uncertainty
293.15	985.3	1
303.15	982.1	1
313.15	978.6	1
323.15	975.8	1
333.15	972.9	1
343.15	969.3	1
353.15	966.3	1
363.15	962.6	1
373.15	959.7	1

System: 1-methyl-3-octylimidazolium L-alaninate; phases: Liquid
Fixed: Pressure, kPa = 101.325
Property: Viscosity, Pa*s (Liquid); method: Concentric cylinders viscometry
Temperature, K	Viscosity, Pa*s	uncertainty
293.15	.7051	.007051
303.15	.3473	.003473
313.15	.1846	.001846
323.15	.1069	.001069
333.15	.0657	.000657
343.15	.0429	.000429
353.15	.0291	.000291
363.15	.0207	.000207
373.15	.0152	.000152

System: 1-methyl-3-octylimidazolium L-alaninate; phases: Liquid, Air at 1 atmosphere
Property: Surface tension liquid-gas, N/m (Liquid); method: Pendant drop shape
Temperature, K	Surface tension liquid-gas, N/m	uncertainty
293.15	.02824	.00025
303.15	.0279	.00025
313.15	.02723	.00025
323.15	.02661	.00025
333.15	.026105	.00025
343.15	.02555	.00025
353.15	.02499	.00025

System: 1-methyl-3-octylimidazolium L-alaninate; phases: Liquid
Fixed: Pressure, kPa = 101.325
Property: Molar heat capacity at constant pressure, J/K/mol (Liquid); method: Small sample (50 mg) scanning calorimetry
Temperature, K	Molar heat capacity at constant pressure, J/K/mol	uncertainty
293.15	592.06	29.603
303.15	600.95	30.0475
313.15	609.08	30.454
323.15	620.49	31.0245
333.15	632.82	31.641
343.15	645.14	32.257
353.15	657.43	32.8715

System: 1-methyl-3-octyl-1H-imidazol-3-ium L-serinate; phases: Glass, Liquid, Air at 1 atmosphere
Property: Triple point temperature, K (Glass); method: DSC/DTA
Triple point temperature, K	uncertainty
219	

System: 1-methyl-3-octyl-1H-imidazol-3-ium L-serinate; phases: Liquid
Fixed: Pressure, kPa = 101.325
Property: Mass density, kg/m3 (Liquid); method: Vibrating tube method
Temperature, K	Mass density, kg/m3	uncertainty
293.15	1075.6	1
303.15	1069.3	1
313.15	1062.7	1
323.15	1056.1	1
333.15	1049.7	1
343.15	1043.3	1
353.15	1036.9	1
363.15	1030.5	1
373.15	1024.2	1

System: 1-methyl-3-octyl-1H-imidazol-3-ium L-serinate; phases: Liquid
Fixed: Pressure, kPa = 101.325
Property: Viscosity, Pa*s (Liquid); method: Concentric cylinders viscometry
Temperature, K	Viscosity, Pa*s	uncertainty
293.15	2.853	.02853
303.15	1.1787	.011787
313.15	.5362	.005362
323.15	.2712	.002712
333.15	.1496	.001496
343.15	.0889	.000889
353.15	.0562	.000562
363.15	.0375	.000375
373.15	.0262	.000262

System: 1-methyl-3-octyl-1H-imidazol-3-ium L-serinate; phases: Liquid, Air at 1 atmosphere
Property: Surface tension liquid-gas, N/m (Liquid); method: Pendant drop shape
Temperature, K	Surface tension liquid-gas, N/m	uncertainty
293.15	.03429	.00025
303.15	.0328	.00025
313.15	.0322	.00025
323.15	.0316	.00025
333.15	.031	.00025
343.15	.03001	.00025
353.15	.02923	.00025

System: 1-methyl-3-octyl-1H-imidazol-3-ium L-serinate; phases: Liquid
Fixed: Pressure, kPa = 101.325
Property: Molar heat capacity at constant pressure, J/K/mol (Liquid); method: Small sample (50 mg) scanning calorimetry
Temperature, K	Molar heat capacity at constant pressure, J/K/mol	uncertainty
293.15	599.21	29.9605
303.15	607.97	30.3985
313.15	614.69	30.7345
323.15	624.21	31.2105
333.15	634.19	31.7095
343.15	644.72	32.236
353.15	655.67	32.7835

System: 1-methyl-3-octyl-1H-imidazol-3-ium L-prolinate; phases: Glass, Liquid, Air at 1 atmosphere
Property: Triple point temperature, K (Glass); method: DSC/DTA
Triple point temperature, K	uncertainty
211	

System: 1-methyl-3-octyl-1H-imidazol-3-ium L-prolinate; phases: Liquid
Fixed: Pressure, kPa = 101.325
Property: Mass density, kg/m3 (Liquid); method: Vibrating tube method
Temperature, K	Mass density, kg/m3	uncertainty
293.15	1064.5	1
303.15	1058.2	1
313.15	1051.8	1
323.15	1045.5	1
333.15	1039.1	1
343.15	1032.8	1
353.15	1026.4	1
363.15	1020.1	1
373.15	1013.9	1

System: 1-methyl-3-octyl-1H-imidazol-3-ium L-prolinate; phases: Liquid
Fixed: Pressure, kPa = 101.325
Property: Viscosity, Pa*s (Liquid); method: Concentric cylinders viscometry
Temperature, K	Viscosity, Pa*s	uncertainty
293.15	1.9698	.019698
303.15	.8399	.008399
313.15	.4012	.004012
323.15	.211	.00211
333.15	.1203	.001203
343.15	.0732	.000732
353.15	.0472	.000472
363.15	.0319	.000319
373.15	.0224	.000224

System: 1-methyl-3-octyl-1H-imidazol-3-ium L-prolinate; phases: Liquid, Air at 1 atmosphere
Property: Surface tension liquid-gas, N/m (Liquid); method: Pendant drop shape
Temperature, K	Surface tension liquid-gas, N/m	uncertainty
293.15	.02928	.00025
303.15	.02888	.00025
313.15	.02846	.00025
323.15	.02817	.00025
333.15	.02776	.00025
343.15	.02762	.00025
353.15	.02714	.00025

System: 1-methyl-3-octyl-1H-imidazol-3-ium L-prolinate; phases: Liquid
Fixed: Pressure, kPa = 101.325
Property: Molar heat capacity at constant pressure, J/K/mol (Liquid); method: Small sample (50 mg) scanning calorimetry
Temperature, K	Molar heat capacity at constant pressure, J/K/mol	uncertainty
293.15	561.68	28.084
303.15	569.53	28.4765
313.15	578.89	28.9445
323.15	590.88	29.544
333.15	603.42	30.171
343.15	615.85	30.7925
353.15	627.51	31.3755

System: 1-methyl-3-octylimidazolium L-asparaginate; phases: Glass, Liquid, Air at 1 atmosphere
Property: Triple point temperature, K (Glass); method: DSC/DTA
Triple point temperature, K	uncertainty
229	

System: 1-methyl-3-octylimidazolium L-asparaginate; phases: Liquid
Fixed: Pressure, kPa = 101.325
Property: Mass density, kg/m3 (Liquid); method: Vibrating tube method
Temperature, K	Mass density, kg/m3	uncertainty
303.15	1061.7	1
313.15	1057.2	1
323.15	1052.2	1
333.15	1048.6	1
343.15	1044.1	1
353.15	1039	1
363.15	1034.4	1
373.15	1030.1	1

System: 1-methyl-3-octylimidazolium L-asparaginate; phases: Liquid
Fixed: Pressure, kPa = 101.325
Property: Viscosity, Pa*s (Liquid); method: Concentric cylinders viscometry
Temperature, K	Viscosity, Pa*s	uncertainty
303.15	3.5199	.035199
313.15	1.4368	.014368
323.15	.6591	.006591
333.15	.3333	.003333
343.15	.1826	.001826
353.15	.1071	.001071
363.15	.0666	.000666
373.15	.0435	.000435

System: 1-methyl-3-octylimidazolium L-asparaginate; phases: Liquid, Air at 1 atmosphere
Property: Surface tension liquid-gas, N/m (Liquid); method: Pendant drop shape
Temperature, K	Surface tension liquid-gas, N/m	uncertainty
293.15	.03432	.00025
303.15	.0337	.00025
313.15	.03296	.00025
323.15	.03199	.00025
333.15	.03173	.00025
343.15	.03088	.00025
353.15	.03019	.00025

System: 1-methyl-3-octylimidazolium L-asparaginate; phases: Liquid
Fixed: Pressure, kPa = 101.325
Property: Molar heat capacity at constant pressure, J/K/mol (Liquid); method: Small sample (50 mg) scanning calorimetry
Temperature, K	Molar heat capacity at constant pressure, J/K/mol	uncertainty
293.15	654	32.7
303.15	662.93	33.1465
313.15	670.78	33.539
323.15	682.99	34.1495
333.15	694.16	34.708
343.15	705.81	35.2905
353.15	717.01	35.8505
