Measured thermophysical data. Solid Phase Behavior in the Chiral Systems of Various 2-Hydroxy-2-phenylacetic Acid (Mandelic Acid) Derivatives
Source: J. Chem. Eng. Data, 2015, 10.1021/je500845d
Compound 1: 2-(4-chlorophenyl)-2-hydroxyacetic acid, C8H7ClO3, purity 99.5%
Compound 2: (S)-2-(4-chlorophenyl)-2-hydroxyacetic acid, C8H7ClO3, purity 99.5%
Compound 3: 2-(2-bromophenyl)-2-hydroxyacetic acid, C8H7BrO3, purity 99.5%
Compound 4: (S)-2-(2-bromophenyl)-2-hydroxyacetic acid, C8H7BrO3, purity 99.5%
Compound 5: 2-(3-bromophenyl)-2-hydroxyacetic acid, C8H7BrO3, purity 99.5%
Compound 6: (S)-2-(3-bromophenyl)-2-hydroxyacetic acid, C8H7BrO3, purity 99.5%
Compound 7: 2-(4-bromophenyl)-2-hydroxyacetic acid, C8H7BrO3, purity 99.5%
Compound 8: (S)-2-(4-bromophenyl)-2-hydroxyacetic acid, C8H7BrO3, purity 99.5%
Compound 9: 2-hydroxy-2-(2-iodophenyl)acetic acid, C8H7IO3, purity 99.5%
Compound 10: 2-hydroxy-2-(3-iodophenyl)acetic acid, C8H7IO3, purity 99.5%
Compound 11: 2-hydroxy-2-(4-iodophenyl)acetic acid, C8H7IO3, purity 99.5%
Compound 12: 2-hydroxy-2-(o-tolyl)acetic acid, C9H10O3, purity 99.5%
Compound 13: 2-hydroxy-2-(m-tolyl)acetic acid, C9H10O3, purity 99.5%
Compound 14: (S)-2-hydroxy-2-(m-tolyl)acetic acid, C9H10O3, purity 99.5%
Compound 15: 2-hydroxy-2-(p-tolyl)acetic acid, C9H10O3, purity 99.5%
Compound 16: (S)-2-hydroxy-2-(p-tolyl)acetic acid, C9H10O3, purity 99.5%
Compound 17: 2-chloro-4-fluoromandelic acid, C8H6ClFO3, purity 99.5%
Compound 18: (S)-2-(2-chloro-4-fluorophenyl)-2-hydroxyacetic acid, C8H6ClFO3, purity 99.5%
Compound 19: 2-(4-chloro-2-fluorophenyl)-2-hydroxyacetic acid, C8H6ClFO3, purity 99.5%
Compound 20: (S)-2-(4-chloro-2-fluorophenyl)-2-hydroxyacetic acid, C8H6ClFO3, purity 99.5%

System: 2-(4-chlorophenyl)-2-hydroxyacetic acid; phases: Crystal, Liquid, Air at 1 atmosphere
Property: Normal melting temperature, K (Crystal); method: DSC/DTA
Normal melting temperature, K	uncertainty
393.2	.45

System: 2-(4-chlorophenyl)-2-hydroxyacetic acid; phases: Crystal, Liquid, Air at 1 atmosphere
Property: Molar enthalpy of transition or fusion, kJ/mol (Crystal); method: DSC
Molar enthalpy of transition or fusion, kJ/mol	uncertainty
16.2	.6

System: (S)-2-(4-chlorophenyl)-2-hydroxyacetic acid; phases: Crystal, Liquid, Air at 1 atmosphere
Property: Normal melting temperature, K (Crystal); method: DSC/DTA
Normal melting temperature, K	uncertainty
392.7	.45

System: (S)-2-(4-chlorophenyl)-2-hydroxyacetic acid; phases: Crystal, Liquid, Air at 1 atmosphere
Property: Molar enthalpy of transition or fusion, kJ/mol (Crystal); method: DSC
Molar enthalpy of transition or fusion, kJ/mol	uncertainty
27.1	.6

System: 2-(2-bromophenyl)-2-hydroxyacetic acid; phases: Crystal, Liquid, Air at 1 atmosphere
Property: Normal melting temperature, K (Crystal); method: DSC/DTA
Normal melting temperature, K	uncertainty
359.9	.45

System: 2-(2-bromophenyl)-2-hydroxyacetic acid; phases: Crystal, Liquid, Air at 1 atmosphere
Property: Molar enthalpy of transition or fusion, kJ/mol (Crystal); method: DSC
Molar enthalpy of transition or fusion, kJ/mol	uncertainty
22.3	.6

System: (S)-2-(2-bromophenyl)-2-hydroxyacetic acid; phases: Crystal, Liquid, Air at 1 atmosphere
Property: Normal melting temperature, K (Crystal); method: DSC/DTA
Normal melting temperature, K	uncertainty
392.5	.45

System: (S)-2-(2-bromophenyl)-2-hydroxyacetic acid; phases: Crystal, Liquid, Air at 1 atmosphere
Property: Molar enthalpy of transition or fusion, kJ/mol (Crystal); method: DSC
Molar enthalpy of transition or fusion, kJ/mol	uncertainty
22.4	.6

System: 2-(3-bromophenyl)-2-hydroxyacetic acid; phases: Crystal, Liquid, Air at 1 atmosphere
Property: Normal melting temperature, K (Crystal); method: DSC/DTA
Normal melting temperature, K	uncertainty
392.7	.45

System: 2-(3-bromophenyl)-2-hydroxyacetic acid; phases: Crystal, Liquid, Air at 1 atmosphere
Property: Molar enthalpy of transition or fusion, kJ/mol (Crystal); method: DSC
Molar enthalpy of transition or fusion, kJ/mol	uncertainty
30.1	.6

System: (S)-2-(3-bromophenyl)-2-hydroxyacetic acid; phases: Crystal, Liquid, Air at 1 atmosphere
Property: Normal melting temperature, K (Crystal); method: DSC/DTA
Normal melting temperature, K	uncertainty
376.2	.45

System: (S)-2-(3-bromophenyl)-2-hydroxyacetic acid; phases: Crystal, Liquid, Air at 1 atmosphere
Property: Molar enthalpy of transition or fusion, kJ/mol (Crystal); method: DSC
Molar enthalpy of transition or fusion, kJ/mol	uncertainty
23	.6

System: 2-(4-bromophenyl)-2-hydroxyacetic acid; phases: Crystal, Liquid, Air at 1 atmosphere
Property: Normal melting temperature, K (Crystal); method: DSC/DTA
Normal melting temperature, K	uncertainty
391.2	.45

System: 2-(4-bromophenyl)-2-hydroxyacetic acid; phases: Crystal, Liquid, Air at 1 atmosphere
Property: Molar enthalpy of transition or fusion, kJ/mol (Crystal); method: DSC
Molar enthalpy of transition or fusion, kJ/mol	uncertainty
17.8	.6

System: (S)-2-(4-bromophenyl)-2-hydroxyacetic acid; phases: Crystal, Liquid, Air at 1 atmosphere
Property: Normal melting temperature, K (Crystal); method: DSC/DTA
Normal melting temperature, K	uncertainty
400.7	.45

System: (S)-2-(4-bromophenyl)-2-hydroxyacetic acid; phases: Crystal, Liquid, Air at 1 atmosphere
Property: Molar enthalpy of transition or fusion, kJ/mol (Crystal); method: DSC
Molar enthalpy of transition or fusion, kJ/mol	uncertainty
17.2	.6

System: 2-hydroxy-2-(2-iodophenyl)acetic acid; phases: Crystal, Liquid, Air at 1 atmosphere
Property: Normal melting temperature, K (Crystal); method: DSC/DTA
Normal melting temperature, K	uncertainty
382.1	.45

System: 2-hydroxy-2-(2-iodophenyl)acetic acid; phases: Crystal, Liquid, Air at 1 atmosphere
Property: Molar enthalpy of transition or fusion, kJ/mol (Crystal); method: DSC
Molar enthalpy of transition or fusion, kJ/mol	uncertainty
25	.6

System: 2-hydroxy-2-(3-iodophenyl)acetic acid; phases: Crystal, Liquid, Air at 1 atmosphere
Property: Normal melting temperature, K (Crystal); method: DSC/DTA
Normal melting temperature, K	uncertainty
370.1	.45

System: 2-hydroxy-2-(3-iodophenyl)acetic acid; phases: Crystal, Liquid, Air at 1 atmosphere
Property: Molar enthalpy of transition or fusion, kJ/mol (Crystal); method: DSC
Molar enthalpy of transition or fusion, kJ/mol	uncertainty
24.6	.6

System: 2-hydroxy-2-(4-iodophenyl)acetic acid; phases: Crystal, Liquid, Air at 1 atmosphere
Property: Normal melting temperature, K (Crystal); method: DSC/DTA
Normal melting temperature, K	uncertainty
415.3	.45

System: 2-hydroxy-2-(4-iodophenyl)acetic acid; phases: Crystal, Liquid, Air at 1 atmosphere
Property: Molar enthalpy of transition or fusion, kJ/mol (Crystal); method: DSC
Molar enthalpy of transition or fusion, kJ/mol	uncertainty
30.4	.6

System: 2-hydroxy-2-(o-tolyl)acetic acid; phases: Crystal, Liquid, Air at 1 atmosphere
Property: Normal melting temperature, K (Crystal); method: DSC/DTA
Normal melting temperature, K	uncertainty
376.9	.45

System: 2-hydroxy-2-(o-tolyl)acetic acid; phases: Crystal, Liquid, Air at 1 atmosphere
Property: Molar enthalpy of transition or fusion, kJ/mol (Crystal); method: DSC
Molar enthalpy of transition or fusion, kJ/mol	uncertainty
21.5	.6

System: 2-hydroxy-2-(m-tolyl)acetic acid; phases: Crystal, Liquid, Air at 1 atmosphere
Property: Normal melting temperature, K (Crystal); method: DSC/DTA
Normal melting temperature, K	uncertainty
365.5	.45

System: 2-hydroxy-2-(m-tolyl)acetic acid; phases: Crystal, Liquid, Air at 1 atmosphere
Property: Molar enthalpy of transition or fusion, kJ/mol (Crystal); method: DSC
Molar enthalpy of transition or fusion, kJ/mol	uncertainty
25.6	.6

System: (S)-2-hydroxy-2-(m-tolyl)acetic acid; phases: Crystal, Liquid, Air at 1 atmosphere
Property: Normal melting temperature, K (Crystal); method: DSC/DTA
Normal melting temperature, K	uncertainty
382.8	.45

System: (S)-2-hydroxy-2-(m-tolyl)acetic acid; phases: Crystal, Liquid, Air at 1 atmosphere
Property: Molar enthalpy of transition or fusion, kJ/mol (Crystal); method: DSC
Molar enthalpy of transition or fusion, kJ/mol	uncertainty
29.2	.6

System: 2-hydroxy-2-(p-tolyl)acetic acid; phases: Crystal, Liquid, Air at 1 atmosphere
Property: Normal melting temperature, K (Crystal); method: DSC/DTA
Normal melting temperature, K	uncertainty
416.9	.45

System: 2-hydroxy-2-(p-tolyl)acetic acid; phases: Crystal, Liquid, Air at 1 atmosphere
Property: Molar enthalpy of transition or fusion, kJ/mol (Crystal); method: DSC
Molar enthalpy of transition or fusion, kJ/mol	uncertainty
25.6	.6

System: (S)-2-hydroxy-2-(p-tolyl)acetic acid; phases: Crystal, Liquid, Air at 1 atmosphere
Property: Normal melting temperature, K (Crystal); method: DSC/DTA
Normal melting temperature, K	uncertainty
404.6	.45

System: (S)-2-hydroxy-2-(p-tolyl)acetic acid; phases: Crystal, Liquid, Air at 1 atmosphere
Property: Molar enthalpy of transition or fusion, kJ/mol (Crystal); method: DSC
Molar enthalpy of transition or fusion, kJ/mol	uncertainty
22.4	.6

System: 2-chloro-4-fluoromandelic acid; phases: Crystal, Liquid, Air at 1 atmosphere
Property: Normal melting temperature, K (Crystal); method: DSC/DTA
Normal melting temperature, K	uncertainty
370.7	.45

System: 2-chloro-4-fluoromandelic acid; phases: Crystal, Liquid, Air at 1 atmosphere
Property: Molar enthalpy of transition or fusion, kJ/mol (Crystal); method: DSC
Molar enthalpy of transition or fusion, kJ/mol	uncertainty
18.2	.6

System: (S)-2-(2-chloro-4-fluorophenyl)-2-hydroxyacetic acid; phases: Crystal, Liquid, Air at 1 atmosphere
Property: Normal melting temperature, K (Crystal); method: DSC/DTA
Normal melting temperature, K	uncertainty
405.9	.45

System: (S)-2-(2-chloro-4-fluorophenyl)-2-hydroxyacetic acid; phases: Crystal, Liquid, Air at 1 atmosphere
Property: Molar enthalpy of transition or fusion, kJ/mol (Crystal); method: DSC
Molar enthalpy of transition or fusion, kJ/mol	uncertainty
20.1	.6

System: 2-(4-chloro-2-fluorophenyl)-2-hydroxyacetic acid; phases: Crystal, Liquid, Air at 1 atmosphere
Property: Normal melting temperature, K (Crystal); method: DSC/DTA
Normal melting temperature, K	uncertainty
363.6	.45

System: 2-(4-chloro-2-fluorophenyl)-2-hydroxyacetic acid; phases: Crystal, Liquid, Air at 1 atmosphere
Property: Molar enthalpy of transition or fusion, kJ/mol (Crystal); method: DSC
Molar enthalpy of transition or fusion, kJ/mol	uncertainty
17.7	.6

System: (S)-2-(4-chloro-2-fluorophenyl)-2-hydroxyacetic acid; phases: Crystal, Liquid, Air at 1 atmosphere
Property: Normal melting temperature, K (Crystal); method: DSC/DTA
Normal melting temperature, K	uncertainty
380.9	.45

System: (S)-2-(4-chloro-2-fluorophenyl)-2-hydroxyacetic acid; phases: Crystal, Liquid, Air at 1 atmosphere
Property: Molar enthalpy of transition or fusion, kJ/mol (Crystal); method: DSC
Molar enthalpy of transition or fusion, kJ/mol	uncertainty
15.1	.6

System: 2-(2-bromophenyl)-2-hydroxyacetic acid + (S)-2-(2-bromophenyl)-2-hydroxyacetic acid; phases: Crystal, Crystal, Liquid, Air at 1 atmosphere
Fixed: Pressure, kPa = 101.325
Property: Eutectic composition: mole fraction of (S)-2-(2-bromophenyl)-2-hydroxyacetic acid (Crystal); method: Derived from phase diagram analysis
Eutectic composition: mole fraction of (S)-2-(2-bromophenyl)-2-hydroxyacetic acid	uncertainty
.5	.05

System: 2-(2-bromophenyl)-2-hydroxyacetic acid + (S)-2-(2-bromophenyl)-2-hydroxyacetic acid; phases: Crystal, Crystal, Liquid, Air at 1 atmosphere
Fixed: Pressure, kPa = 101.325
Property: Eutectic temperature, K (Crystal); method: DSC/DTA
Eutectic temperature, K	uncertainty
356.5	

System: 2-(2-bromophenyl)-2-hydroxyacetic acid + (S)-2-(2-bromophenyl)-2-hydroxyacetic acid; phases: Liquid, Crystal
Fixed: Pressure, kPa = 101
Property: Solid-liquid equilibrium temperature, K (Liquid); method: DSC/DTA
Mole fraction of (S)-2-(2-bromophenyl)-2-hydroxyacetic acid	Solid-liquid equilibrium temperature, K	uncertainty
.5	359.9	

System: 2-(2-bromophenyl)-2-hydroxyacetic acid + (S)-2-(2-bromophenyl)-2-hydroxyacetic acid; phases: Liquid, Crystal
Fixed: Pressure, kPa = 101
Property: Solid-liquid equilibrium temperature, K (Liquid); method: DSC/DTA
Mole fraction of (S)-2-(2-bromophenyl)-2-hydroxyacetic acid	Solid-liquid equilibrium temperature, K	uncertainty
.65	368.2	3
.7	375.1	3
.75	378	3
.8	379.5	3
.85	385	3
.9	390.4	3
.95	391.7	3
1	392.5	3

System: 2-(3-bromophenyl)-2-hydroxyacetic acid + (S)-2-(3-bromophenyl)-2-hydroxyacetic acid; phases: Crystal, Crystal of intercomponent compound 1, Liquid, Air at 1 atmosphere
Fixed: Pressure, kPa = 101.325
Property: Eutectic composition: mole fraction of (S)-2-(3-bromophenyl)-2-hydroxyacetic acid (Crystal); method: Derived from phase diagram analysis
Eutectic composition: mole fraction of (S)-2-(3-bromophenyl)-2-hydroxyacetic acid	uncertainty
.9	.05

System: 2-(3-bromophenyl)-2-hydroxyacetic acid + (S)-2-(3-bromophenyl)-2-hydroxyacetic acid; phases: Crystal of intercomponent compound 1, Crystal, Liquid, Air at 1 atmosphere
Fixed: Pressure, kPa = 101.325
Property: Eutectic temperature, K (Crystal of intercomponent compound 1); method: DSC/DTA
Eutectic temperature, K	uncertainty
367.4	

System: 2-(3-bromophenyl)-2-hydroxyacetic acid + (S)-2-(3-bromophenyl)-2-hydroxyacetic acid; phases: Liquid, Crystal of intercomponent compound 1
Fixed: Pressure, kPa = 101
Property: Solid-liquid equilibrium temperature, K (Liquid); method: DSC/DTA
Mole fraction of (S)-2-(3-bromophenyl)-2-hydroxyacetic acid	Solid-liquid equilibrium temperature, K	uncertainty
.5	392.7	2
.55	391.4	2
.65	389.6	2
.7	388	2
.75	384.2	2
.8	380.8	2
.85	375	2

System: 2-(3-bromophenyl)-2-hydroxyacetic acid + (S)-2-(3-bromophenyl)-2-hydroxyacetic acid; phases: Liquid, Crystal
Fixed: Pressure, kPa = 101
Property: Solid-liquid equilibrium temperature, K (Liquid); method: DSC/DTA
Mole fraction of (S)-2-(3-bromophenyl)-2-hydroxyacetic acid	Solid-liquid equilibrium temperature, K	uncertainty
.95	376	2
1	376.2	2

System: 2-hydroxy-2-(m-tolyl)acetic acid + (S)-2-hydroxy-2-(m-tolyl)acetic acid; phases: Crystal, Crystal of intercomponent compound 1, Liquid, Air at 1 atmosphere
Fixed: Pressure, kPa = 101.325
Property: Eutectic composition: mole fraction of (S)-2-hydroxy-2-(m-tolyl)acetic acid (Crystal); method: Derived from phase diagram analysis
Eutectic composition: mole fraction of (S)-2-hydroxy-2-(m-tolyl)acetic acid	uncertainty
.6	.1

System: 2-hydroxy-2-(m-tolyl)acetic acid + (S)-2-hydroxy-2-(m-tolyl)acetic acid; phases: Crystal of intercomponent compound 1, Crystal, Liquid, Air at 1 atmosphere
Fixed: Pressure, kPa = 101.325
Property: Eutectic temperature, K (Crystal of intercomponent compound 1); method: DSC/DTA
Eutectic temperature, K	uncertainty
360.4	

System: 2-hydroxy-2-(m-tolyl)acetic acid + (S)-2-hydroxy-2-(m-tolyl)acetic acid; phases: Liquid, Crystal
Fixed: Pressure, kPa = 101
Property: Solid-liquid equilibrium temperature, K (Liquid); method: DSC/DTA
Mole fraction of (S)-2-hydroxy-2-(m-tolyl)acetic acid	Solid-liquid equilibrium temperature, K	uncertainty
.75	370.9	2
.8	372.8	2
.85	376.1	2
.9	378.7	2
.95	382	2
1	382.8	2

System: 2-hydroxy-2-(m-tolyl)acetic acid + (S)-2-hydroxy-2-(m-tolyl)acetic acid; phases: Liquid, Crystal of intercomponent compound 1
Fixed: Pressure, kPa = 101
Property: Solid-liquid equilibrium temperature, K (Liquid); method: DSC/DTA
Mole fraction of (S)-2-hydroxy-2-(m-tolyl)acetic acid	Solid-liquid equilibrium temperature, K	uncertainty
.5	365.5	
