Measured thermophysical data. Solubilities of Three Phosphorus Flame Retardants in Selected Organic Solvents
Source: J. Chem. Eng. Data, 2015, 10.1021/je501173n
Compound 1: P,P'-(1,4-piperazinediyl) bis-phosphonic acid P,P,P',P'-tetraphenyl ester, C28H28N2O6P2, purity 99%
Compound 2: N,N'-[1,3-phenylene bis(methylene)] bis-(phosphoramidic acid) P,P,P',P'-tetraphenyl ester, C32H30N2O6P2, purity 99%
Compound 3: 4-(hydroxymethyl)-1-oxido-2,6,7-trioxa-1-phosphabicyclo[2.2.2]octane, C5H9O5P, purity 99%
Compound 4: 1-methoxy-2-propanol, C4H10O2, purity 99%
Compound 5: 1-propoxy-2-propanol, C6H14O2, purity 93%
Compound 6: 1-methoxy-2-propyl acetate, C6H12O3, purity 99%
Compound 7: dipropylene glycol monomethyl ether, C7H16O3, purity 98%

System: 1-methoxy-2-propanol + P,P'-(1,4-piperazinediyl) bis-phosphonic acid P,P,P',P'-tetraphenyl ester; phases: Liquid, Crystal
Fixed: Pressure, kPa = 101
Property: Mole fraction of P,P'-(1,4-piperazinediyl) bis-phosphonic acid P,P,P',P'-tetraphenyl ester (Liquid); method: gravimetric method
Temperature, K	Mole fraction of P,P'-(1,4-piperazinediyl) bis-phosphonic acid P,P,P',P'-tetraphenyl ester	uncertainty
293.15	.000356	.00000712
298.15	.0004471	.000008942
303.15	.0005885	.00001177
308.15	.0007821	.000015642
313.15	.0010188	.000020376
318.15	.0013197	.000026394
323.15	.0016756	.000033512
328.15	.0021536	.000043072
333.15	.0028239	.000056478
338.15	.003666	.00007332
343.15	.0045726	.000091452

System: 1-propoxy-2-propanol + P,P'-(1,4-piperazinediyl) bis-phosphonic acid P,P,P',P'-tetraphenyl ester; phases: Liquid, Crystal
Fixed: Pressure, kPa = 101
Property: Mole fraction of P,P'-(1,4-piperazinediyl) bis-phosphonic acid P,P,P',P'-tetraphenyl ester (Liquid); method: gravimetric method
Temperature, K	Mole fraction of P,P'-(1,4-piperazinediyl) bis-phosphonic acid P,P,P',P'-tetraphenyl ester	uncertainty
293.15	.0003531	.000007062
298.15	.0004445	.00000889
303.15	.0005643	.000011286
308.15	.0007147	.000014294
313.15	.0008926	.000017852
318.15	.0011212	.000022424
323.15	.0014117	.000028234
328.15	.0017739	.000035478
333.15	.0021865	.00004373
338.15	.0027494	.000054988
343.15	.0033889	.000067778

System: 1-methoxy-2-propyl acetate + P,P'-(1,4-piperazinediyl) bis-phosphonic acid P,P,P',P'-tetraphenyl ester; phases: Liquid, Crystal
Fixed: Pressure, kPa = 101
Property: Mole fraction of P,P'-(1,4-piperazinediyl) bis-phosphonic acid P,P,P',P'-tetraphenyl ester (Liquid); method: gravimetric method
Temperature, K	Mole fraction of P,P'-(1,4-piperazinediyl) bis-phosphonic acid P,P,P',P'-tetraphenyl ester	uncertainty
293.15	.000351	.00000702
298.15	.0004429	.000008858
303.15	.0005172	.000010344
308.15	.0006301	.000012602
313.15	.0007623	.000015246
318.15	.0009451	.000018902
323.15	.0011485	.00002297
328.15	.0014094	.000028188
333.15	.0016953	.000033906
338.15	.0020391	.000040782
343.15	.0024822	.000049644

System: dipropylene glycol monomethyl ether + P,P'-(1,4-piperazinediyl) bis-phosphonic acid P,P,P',P'-tetraphenyl ester; phases: Liquid, Crystal
Fixed: Pressure, kPa = 101
Property: Mole fraction of P,P'-(1,4-piperazinediyl) bis-phosphonic acid P,P,P',P'-tetraphenyl ester (Liquid); method: gravimetric method
Temperature, K	Mole fraction of P,P'-(1,4-piperazinediyl) bis-phosphonic acid P,P,P',P'-tetraphenyl ester	uncertainty
293.15	.0009736	.000019472
298.15	.0011658	.000023316
303.15	.0013929	.000027858
308.15	.0016713	.000033426
313.15	.0019927	.000039854
318.15	.0023624	.000047248
323.15	.0029029	.000058058
328.15	.0034419	.000068838
333.15	.0040808	.000081616
338.15	.0047426	.000094852
343.15	.005623	.00011246

System: 1-methoxy-2-propanol + N,N'-[1,3-phenylene bis(methylene)] bis-(phosphoramidic acid) P,P,P',P'-tetraphenyl ester; phases: Liquid, Crystal
Fixed: Pressure, kPa = 101
Property: Mole fraction of N,N'-[1,3-phenylene bis(methylene)] bis-(phosphoramidic acid) P,P,P',P'-tetraphenyl ester (Liquid); method: gravimetric method
Temperature, K	Mole fraction of N,N'-[1,3-phenylene bis(methylene)] bis-(phosphoramidic acid) P,P,P',P'-tetraphenyl ester	uncertainty
293.15	.0006088	.000012176
298.15	.0007585	.00001517
303.15	.0009355	.00001871
308.15	.0011357	.000022714
313.15	.001379	.00002758
318.15	.0016928	.000033856
323.15	.0020369	.000040738
328.15	.0025537	.000051074
333.15	.0030455	.00006091
338.15	.0037365	.00007473
343.15	.0043174	.000086348

System: 1-propoxy-2-propanol + N,N'-[1,3-phenylene bis(methylene)] bis-(phosphoramidic acid) P,P,P',P'-tetraphenyl ester; phases: Liquid, Crystal
Fixed: Pressure, kPa = 101
Property: Mole fraction of N,N'-[1,3-phenylene bis(methylene)] bis-(phosphoramidic acid) P,P,P',P'-tetraphenyl ester (Liquid); method: gravimetric method
Temperature, K	Mole fraction of N,N'-[1,3-phenylene bis(methylene)] bis-(phosphoramidic acid) P,P,P',P'-tetraphenyl ester	uncertainty
293.15	.0005083	.000005083
298.15	.0006364	.000006364
303.15	.0007656	.000007656
308.15	.0009638	.000009638
313.15	.0012132	.000012132
318.15	.0014415	.000014415
323.15	.0018187	.000018187
328.15	.0021613	.000021613
333.15	.0025944	.000025944
338.15	.0031608	.000031608
343.15	.003737	.00003737

System: 1-methoxy-2-propyl acetate + N,N'-[1,3-phenylene bis(methylene)] bis-(phosphoramidic acid) P,P,P',P'-tetraphenyl ester; phases: Liquid, Crystal
Fixed: Pressure, kPa = 101
Property: Mole fraction of N,N'-[1,3-phenylene bis(methylene)] bis-(phosphoramidic acid) P,P,P',P'-tetraphenyl ester (Liquid); method: gravimetric method
Temperature, K	Mole fraction of N,N'-[1,3-phenylene bis(methylene)] bis-(phosphoramidic acid) P,P,P',P'-tetraphenyl ester	uncertainty
293.15	.0031898	.000063796
298.15	.0037283	.000074566
303.15	.0043041	.000086082
308.15	.0049027	.000098054
313.15	.0054739	.000109478
318.15	.0063494	.000126988
323.15	.0070761	.000141522
328.15	.0079004	.000158008
333.15	.0089095	.00017819
338.15	.010027	.00020054
343.15	.011514	.00023028

System: dipropylene glycol monomethyl ether + N,N'-[1,3-phenylene bis(methylene)] bis-(phosphoramidic acid) P,P,P',P'-tetraphenyl ester; phases: Liquid, Crystal
Fixed: Pressure, kPa = 101
Property: Mole fraction of N,N'-[1,3-phenylene bis(methylene)] bis-(phosphoramidic acid) P,P,P',P'-tetraphenyl ester (Liquid); method: gravimetric method
Temperature, K	Mole fraction of N,N'-[1,3-phenylene bis(methylene)] bis-(phosphoramidic acid) P,P,P',P'-tetraphenyl ester	uncertainty
293.15	.0026741	.000053482
298.15	.0033088	.000066176
303.15	.0040132	.000080264
308.15	.0048671	.000097342
313.15	.0058438	.000116876
318.15	.007136	.00014272
323.15	.0082889	.000165778
328.15	.0099546	.000199092
333.15	.011602	.00023204
338.15	.013781	.00027562
343.15	.015573	.00031146

System: 1-methoxy-2-propanol + 4-(hydroxymethyl)-1-oxido-2,6,7-trioxa-1-phosphabicyclo[2.2.2]octane; phases: Liquid, Crystal
Fixed: Pressure, kPa = 101
Property: Mole fraction of 4-(hydroxymethyl)-1-oxido-2,6,7-trioxa-1-phosphabicyclo[2.2.2]octane (Liquid); method: gravimetric method
Temperature, K	Mole fraction of 4-(hydroxymethyl)-1-oxido-2,6,7-trioxa-1-phosphabicyclo[2.2.2]octane	uncertainty
293.15	.019507	.0000039014
298.15	.023146	.0000046292
303.15	.026921	.0000053842
308.15	.030641	.0000061282
313.15	.036296	.0000072592
318.15	.040611	.0000081222
323.15	.047294	.0000094588
328.15	.053989	.0000107978
333.15	.061633	.0000123266
338.15	.069602	.0000139204
343.15	.078602	.0000157204

System: 1-propoxy-2-propanol + 4-(hydroxymethyl)-1-oxido-2,6,7-trioxa-1-phosphabicyclo[2.2.2]octane; phases: Liquid, Crystal
Fixed: Pressure, kPa = 101
Property: Mole fraction of 4-(hydroxymethyl)-1-oxido-2,6,7-trioxa-1-phosphabicyclo[2.2.2]octane (Liquid); method: gravimetric method
Temperature, K	Mole fraction of 4-(hydroxymethyl)-1-oxido-2,6,7-trioxa-1-phosphabicyclo[2.2.2]octane	uncertainty
293.15	.0019199	.000038398
298.15	.0026034	.000052068
303.15	.0033414	.000066828
308.15	.004269	.00008538
313.15	.0055562	.000111124
318.15	.0071804	.000143608
323.15	.0092853	.000185706
328.15	.011658	.00023316
333.15	.014783	.00029566
338.15	.018776	.00037552
343.15	.023375	.0004675

System: 1-methoxy-2-propyl acetate + 4-(hydroxymethyl)-1-oxido-2,6,7-trioxa-1-phosphabicyclo[2.2.2]octane; phases: Liquid, Crystal
Fixed: Pressure, kPa = 101
Property: Mole fraction of 4-(hydroxymethyl)-1-oxido-2,6,7-trioxa-1-phosphabicyclo[2.2.2]octane (Liquid); method: gravimetric method
Temperature, K	Mole fraction of 4-(hydroxymethyl)-1-oxido-2,6,7-trioxa-1-phosphabicyclo[2.2.2]octane	uncertainty
293.15	.0006206	.000012412
298.15	.0008379	.000016758
303.15	.0011312	.000022624
308.15	.0015473	.000030946
313.15	.0020132	.000040264
318.15	.0025527	.000051054
323.15	.0033353	.000066706
328.15	.0044591	.000089182
333.15	.0056142	.000112284
338.15	.0074031	.000148062
343.15	.0095685	.00019137

System: 4-(hydroxymethyl)-1-oxido-2,6,7-trioxa-1-phosphabicyclo[2.2.2]octane + dipropylene glycol monomethyl ether; phases: Liquid, Crystal
Fixed: Pressure, kPa = 101
Property: Mole fraction of 4-(hydroxymethyl)-1-oxido-2,6,7-trioxa-1-phosphabicyclo[2.2.2]octane (Liquid); method: gravimetric method
Temperature, K	Mole fraction of 4-(hydroxymethyl)-1-oxido-2,6,7-trioxa-1-phosphabicyclo[2.2.2]octane	uncertainty
293.15	.011263	.00022526
298.15	.013092	.00026184
303.15	.015132	.00030264
308.15	.017421	.00034842
313.15	.020058	.00040116
318.15	.023398	.00046796
323.15	.026801	.00053602
328.15	.031041	.00062082
333.15	.035241	.00070482
338.15	.039353	.00078706
343.15	.044833	.00089666
