Measured thermophysical data. Phase Behavior of Liquid Crystal + CO2 Mixtures
Source: J. Chem. Eng. Data, 2014, 10.1021/je500124r
Compound 1: carbon dioxide, CO2
Compound 2: 4-ethyl-4'-propyl-1,1'-bi(cyclohexane), C17H32, purity 98%
Compound 3: 4-butyl-4'-propyl bicyclohexyl, C19H36, purity 98%
Compound 4: 4'-(heptyloxy)-4-biphenylcarbonitrile, C20H23NO, purity 99.9%
Compound 5: 4'-n-pentyl-4-biphenylcarbonitrile, C18H19N, purity 99%
Compound 6: N-4-(hexyloxybenzylidene)-4-aminobenzonitrile, C20H22N2O, purity 98%

System: carbon dioxide + 4-ethyl-4'-propyl-1,1'-bi(cyclohexane); phases: Liquid, Gas
Fixed: Mole fraction of carbon dioxide = .052
Property: Vapor or sublimation pressure, kPa (Liquid); method: Closed cell (Static) method
Temperature, K	Vapor or sublimation pressure, kPa	uncertainty
336.1	703	5
340.35	719	5
344.48	744	5
348.74	764	5
352.76	784	5
357.19	805	5
361.78	830	5
366.96	860	5

System: carbon dioxide + 4-butyl-4'-propyl bicyclohexyl; phases: Liquid, Gas
Fixed: Mole fraction of carbon dioxide = .057
Property: Vapor or sublimation pressure, kPa (Liquid); method: Closed cell (Static) method
Temperature, K	Vapor or sublimation pressure, kPa	uncertainty
367.98	927	5
373.8	953	5
379.93	988	5
385.81	1023	5
391.88	1059	5
397.78	1084	5
403.79	1114	5
409.83	1135	5
416.31	1160	5
422.85	1185	5

System: carbon dioxide + N-4-(hexyloxybenzylidene)-4-aminobenzonitrile; phases: Liquid, Gas
Fixed: Mole fraction of carbon dioxide = .066
Property: Vapor or sublimation pressure, kPa (Liquid); method: Closed cell (Static) method
Temperature, K	Vapor or sublimation pressure, kPa	uncertainty
368.01	1064	5
373.38	1099	5
378.92	1129	5
384.33	1165	5
389.93	1200	5
395.33	1235	5
400.83	1271	5
406.28	1306	5
411.75	1341	5
417.22	1371	5
422.7	1407	5

System: carbon dioxide + 4'-(heptyloxy)-4-biphenylcarbonitrile; phases: Liquid, Gas
Fixed: Mole fraction of carbon dioxide = .063
Property: Vapor or sublimation pressure, kPa (Liquid); method: Closed cell (Static) method
Temperature, K	Vapor or sublimation pressure, kPa	uncertainty
343.14	810	5
345.36	825	5
348.64	840	5
351.67	855	5
356.15	885	5
360.53	911	5
366.14	941	5

System: carbon dioxide + 4'-n-pentyl-4-biphenylcarbonitrile; phases: Liquid, Gas
Fixed: Mole fraction of carbon dioxide = .055
Property: Vapor or sublimation pressure, kPa (Liquid); method: Closed cell (Static) method
Temperature, K	Vapor or sublimation pressure, kPa	uncertainty
301.81	477	5
303.48	482	5
313.59	547	5
323.49	603	5
333.53	673	5
343.45	739	5
353.65	804	5
363.63	880	5
