Measured thermophysical data. Solubility of (2Z)-N-Cyclohexyl-2-(3-hydroxybenzylidine) Hydrazine Carbothioamide in Different Pure Solvents at (298.15 to 338.15) K
Source: J. Chem. Eng. Data, 2014, 10.1021/je5003708
Compound 1: (Z)-N-cyclohexyl-2-(3-hydroxybenzylidene)hydrazine-1-carbothioamide, C14H19N3OS, purity 99.4%
Compound 2: water, H2O, purity 99.9%
Compound 3: ethanol, C2H6O, purity 99.9%
Compound 4: 1,2-propanediol, C3H8O2, purity 99.5%
Compound 5: 3,6-dioxa-1-octanol, C6H14O3, purity 99.9%
Compound 6: 1,2-ethanediol, C2H6O2, purity 99.6%
Compound 7: 2-propanol, C3H8O, purity 99.7%
Compound 8: ethyl ethanoate, C4H8O2, purity 99.8%

System: (Z)-N-cyclohexyl-2-(3-hydroxybenzylidene)hydrazine-1-carbothioamide + water; phases: Liquid, Crystal
Fixed: Pressure, kPa = 100
Property: Mole fraction of (Z)-N-cyclohexyl-2-(3-hydroxybenzylidene)hydrazine-1-carbothioamide (Liquid); method: UV-Visible spectrophotometer
Temperature, K	Mole fraction of (Z)-N-cyclohexyl-2-(3-hydroxybenzylidene)hydrazine-1-carbothioamide	uncertainty
298.15	.00000039	.00000000468
308.15	.000000585	.00000000702
318.15	.000000909	.000000010908
328.15	.00000136	.00000001632
338.15	.00000188	.00000002256

System: (Z)-N-cyclohexyl-2-(3-hydroxybenzylidene)hydrazine-1-carbothioamide + ethanol; phases: Liquid, Crystal
Fixed: Pressure, kPa = 100
Property: Mole fraction of (Z)-N-cyclohexyl-2-(3-hydroxybenzylidene)hydrazine-1-carbothioamide (Liquid); method: UV-Visible spectrophotometer
Temperature, K	Mole fraction of (Z)-N-cyclohexyl-2-(3-hydroxybenzylidene)hydrazine-1-carbothioamide	uncertainty
298.15	.01345	.0001614
308.15	.01411	.00016932
318.15	.01486	.00017832
328.15	.01556	.00018672
338.15	.01641	.00019692

System: (Z)-N-cyclohexyl-2-(3-hydroxybenzylidene)hydrazine-1-carbothioamide + 1,2-propanediol; phases: Liquid, Crystal
Fixed: Pressure, kPa = 100
Property: Mole fraction of (Z)-N-cyclohexyl-2-(3-hydroxybenzylidene)hydrazine-1-carbothioamide (Liquid); method: UV-Visible spectrophotometer
Temperature, K	Mole fraction of (Z)-N-cyclohexyl-2-(3-hydroxybenzylidene)hydrazine-1-carbothioamide	uncertainty
298.15	.03186	.00038232
308.15	.03317	.00039804
318.15	.03445	.0004134
328.15	.03599	.00043188
338.15	.03764	.00045168

System: (Z)-N-cyclohexyl-2-(3-hydroxybenzylidene)hydrazine-1-carbothioamide + 3,6-dioxa-1-octanol; phases: Liquid, Crystal
Fixed: Pressure, kPa = 100
Property: Mole fraction of (Z)-N-cyclohexyl-2-(3-hydroxybenzylidene)hydrazine-1-carbothioamide (Liquid); method: UV-Visible spectrophotometer
Temperature, K	Mole fraction of (Z)-N-cyclohexyl-2-(3-hydroxybenzylidene)hydrazine-1-carbothioamide	uncertainty
298.15	.0938	.0011256
308.15	.09775	.001173
318.15	.10206	.00122472
328.15	.10633	.00127596
338.15	.11056	.00132672

System: (Z)-N-cyclohexyl-2-(3-hydroxybenzylidene)hydrazine-1-carbothioamide + 1,2-ethanediol; phases: Liquid, Crystal
Fixed: Pressure, kPa = 100
Property: Mole fraction of (Z)-N-cyclohexyl-2-(3-hydroxybenzylidene)hydrazine-1-carbothioamide (Liquid); method: UV-Visible spectrophotometer
Temperature, K	Mole fraction of (Z)-N-cyclohexyl-2-(3-hydroxybenzylidene)hydrazine-1-carbothioamide	uncertainty
298.15	.00185	.0000222
308.15	.00225	.000027
318.15	.0029	.0000348
328.15	.00358	.00004296
338.15	.00454	.00005448

System: (Z)-N-cyclohexyl-2-(3-hydroxybenzylidene)hydrazine-1-carbothioamide + 2-propanol; phases: Liquid, Crystal
Fixed: Pressure, kPa = 100
Property: Mole fraction of (Z)-N-cyclohexyl-2-(3-hydroxybenzylidene)hydrazine-1-carbothioamide (Liquid); method: UV-Visible spectrophotometer
Temperature, K	Mole fraction of (Z)-N-cyclohexyl-2-(3-hydroxybenzylidene)hydrazine-1-carbothioamide	uncertainty
298.15	.03025	.000363
308.15	.03127	.00037524
318.15	.03233	.00038796
328.15	.03346	.00040152
338.15	.03451	.00041412

System: (Z)-N-cyclohexyl-2-(3-hydroxybenzylidene)hydrazine-1-carbothioamide + ethyl ethanoate; phases: Liquid, Crystal
Fixed: Pressure, kPa = 100
Property: Mole fraction of (Z)-N-cyclohexyl-2-(3-hydroxybenzylidene)hydrazine-1-carbothioamide (Liquid); method: UV-Visible spectrophotometer
Temperature, K	Mole fraction of (Z)-N-cyclohexyl-2-(3-hydroxybenzylidene)hydrazine-1-carbothioamide	uncertainty
298.15	.01041	.00012492
308.15	.01168	.00014016
318.15	.01316	.00015792
328.15	.01474	.00017688
338.15	.01667	.00020004
