Measured thermophysical data. Interactions of Saccharides in Aqueous Glycine and Leucine Solutions at Different Temperatures (293.15 313.15) K: A Viscometric Study
Source: J. Chem. Eng. Data, 2015, 10.1021/je500647a
Compound 1: glycine, C2H5NO2, purity 99%
Compound 2: L-leucine, C6H13NO2, purity 99%
Compound 3: D-(-)-ribose, C5H10O5, purity 99%
Compound 4: D-maltose, C12H22O11, purity 95%
Compound 5: D-(+)-raffinose, C18H32O16, purity 99%
Compound 6: water, H2O, purity 99.99%

System: D-(-)-ribose + glycine + water; phases: Liquid
Fixed: Pressure, kPa = 101
Property: Viscosity, Pa*s (Liquid); method: Capillary tube (Ostwald; Ubbelohde) method
Solvent: Molality, mol/kg of glycine	Molality, mol/kg of D-(-)-ribose	Temperature, K	Viscosity, Pa*s	uncertainty
0	0	293.15	.0010019	.000002
0	.05	293.15	.0010191	.000002
0	.055	293.15	.001021	.000002
0	.06	293.15	.0010225	.000002
0	.065	293.15	.0010241	.000002
0	.07	293.15	.0010261	.000002
0	.075	293.15	.0010272	.000002
0	.08	293.15	.001029	.000002
0	.085	293.15	.0010314	.000002
0	.09	293.15	.0010328	.000002
0	.1	293.15	.0010355	.000002
0	0	298.15	.0008903	.000002
0	.05	298.15	.0009032	.000002
0	.055	298.15	.0009047	.000002
0	.06	298.15	.000906	.000002
0	.065	298.15	.0009073	.000002
0	.07	298.15	.0009085	.000002
0	.075	298.15	.00091	.000002
0	.08	298.15	.0009114	.000002
0	.085	298.15	.0009127	.000002
0	.09	298.15	.0009143	.000002
0	.1	298.15	.0009168	.000002
0	0	303.15	.0007973	.000002
0	.05	303.15	.0008071	.000002
0	.055	303.15	.0008082	.000002
0	.06	303.15	.0008092	.000002
0	.065	303.15	.0008101	.000002
0	.07	303.15	.0008113	.000002
0	.075	303.15	.0008125	.000002
0	.08	303.15	.0008135	.000002
0	.085	303.15	.0008146	.000002
0	.09	303.15	.0008157	.000002
0	.1	303.15	.0008183	.000002
0	0	308.15	.000719	.000002
0	.05	308.15	.0007261	.000002
0	.055	308.15	.000727	.000002
0	.06	308.15	.0007277	.000002
0	.065	308.15	.0007286	.000002
0	.07	308.15	.0007292	.000002
0	.075	308.15	.0007302	.000002
0	.08	308.15	.0007313	.000002
0	.085	308.15	.0007321	.000002
0	.09	308.15	.0007333	.000002
0	.1	308.15	.0007353	.000002
0	0	313.15	.0006526	.000002
0	.05	313.15	.000657	.000002
0	.055	313.15	.0006576	.000002
0	.06	313.15	.0006581	.000002
0	.065	313.15	.0006587	.000002
0	.07	313.15	.0006595	.000002
0	.075	313.15	.0006601	.000002
0	.08	313.15	.0006607	.000002
0	.085	313.15	.0006616	.000002
0	.09	313.15	.0006626	.000002
0	.1	313.15	.0006642	.000002
.025	0	293.15	.0010112	.000002
.025	.05	293.15	.0010289	.000002
.025	.055	293.15	.0010306	.000002
.025	.06	293.15	.0010323	.000002
.025	.065	293.15	.0010339	.000002
.025	.07	293.15	.0010357	.000002
.025	.075	293.15	.0010377	.000002
.025	.08	293.15	.0010393	.000002
.025	.085	293.15	.0010417	.000002
.025	.09	293.15	.0010428	.000002
.025	.1	293.15	.0010454	.000002
.025	0	298.15	.0008923	.000002
.025	.05	298.15	.0009062	.000002
.025	.055	298.15	.0009077	.000002
.025	.06	298.15	.0009096	.000002
.025	.065	298.15	.0009105	.000002
.025	.07	298.15	.0009122	.000002
.025	.075	298.15	.0009141	.000002
.025	.08	298.15	.0009152	.000002
.025	.085	298.15	.0009164	.000002
.025	.09	298.15	.0009177	.000002
.025	.1	298.15	.0009204	.000002
.025	0	303.15	.0007994	.000002
.025	.05	303.15	.0008094	.000002
.025	.055	303.15	.0008106	.000002
.025	.06	303.15	.0008112	.000002
.025	.065	303.15	.0008126	.000002
.025	.07	303.15	.0008133	.000002
.025	.075	303.15	.000815	.000002
.025	.08	303.15	.000816	.000002
.025	.085	303.15	.0008171	.000002
.025	.09	303.15	.0008181	.000002
.025	.1	303.15	.0008208	.000002
.025	0	308.15	.0007201	.000002
.025	.05	308.15	.0007278	.000002
.025	.055	308.15	.0007288	.000002
.025	.06	308.15	.0007297	.000002
.025	.065	308.15	.0007309	.000002
.025	.07	308.15	.000732	.000002
.025	.075	308.15	.0007329	.000002
.025	.08	308.15	.0007336	.000002
.025	.085	308.15	.0007344	.000002
.025	.09	308.15	.0007355	.000002
.025	.1	308.15	.0007372	.000002
.025	0	313.15	.0006549	.000002
.025	.05	313.15	.0006587	.000002
.025	.055	313.15	.0006593	.000002
.025	.06	313.15	.0006601	.000002
.025	.065	313.15	.0006612	.000002
.025	.07	313.15	.0006617	.000002
.025	.075	313.15	.0006621	.000002
.025	.08	313.15	.0006629	.000002
.025	.085	313.15	.0006634	.000002
.025	.09	313.15	.0006645	.000002
.025	.1	313.15	.000666	.000002
.05	0	293.15	.0010161	.000002
.05	.05	293.15	.0010349	.000002
.05	.055	293.15	.0010371	.000002
.05	.06	293.15	.0010389	.000002
.05	.065	293.15	.0010403	.000002
.05	.07	293.15	.0010422	.000002
.05	.075	293.15	.0010441	.000002
.05	.08	293.15	.001045	.000002
.05	.085	293.15	.001048	.000002
.05	.09	293.15	.0010495	.000002
.05	.1	293.15	.001053	.000002
.05	0	298.15	.0008947	.000002
.05	.05	298.15	.00091	.000002
.05	.055	298.15	.0009114	.000002
.05	.06	298.15	.0009132	.000002
.05	.065	298.15	.0009149	.000002
.05	.07	298.15	.0009166	.000002
.05	.075	298.15	.0009182	.000002
.05	.08	298.15	.0009195	.000002
.05	.085	298.15	.0009206	.000002
.05	.09	298.15	.000922	.000002
.05	.1	298.15	.0009247	.000002
.05	0	303.15	.0008017	.000002
.05	.05	303.15	.0008124	.000002
.05	.055	303.15	.0008135	.000002
.05	.06	303.15	.0008146	.000002
.05	.065	303.15	.0008161	.000002
.05	.07	303.15	.0008173	.000002
.05	.075	303.15	.0008185	.000002
.05	.08	303.15	.0008195	.000002
.05	.085	303.15	.0008206	.000002
.05	.09	303.15	.000822	.000002
.05	.1	303.15	.000824	.000002
.05	0	308.15	.0007213	.000002
.05	.05	308.15	.0007301	.000002
.05	.055	308.15	.0007315	.000002
.05	.06	308.15	.0007328	.000002
.05	.065	308.15	.0007335	.000002
.05	.07	308.15	.0007346	.000002
.05	.075	308.15	.000736	.000002
.05	.08	308.15	.0007366	.000002
.05	.085	308.15	.0007376	.000002
.05	.09	308.15	.0007385	.000002
.05	.1	308.15	.0007406	.000002
.05	0	313.15	.0006563	.000002
.05	.05	313.15	.0006605	.000002
.05	.055	313.15	.0006612	.000002
.05	.06	313.15	.0006619	.000002
.05	.065	313.15	.0006626	.000002
.05	.07	313.15	.0006632	.000002
.05	.075	313.15	.0006641	.000002
.05	.08	313.15	.0006648	.000002
.05	.085	313.15	.0006654	.000002
.05	.09	313.15	.0006663	.000002
.05	.1	313.15	.0006681	.000002
.1	0	293.15	.0010216	.000002
.1	.05	293.15	.0010431	.000002
.1	.055	293.15	.0010453	.000002
.1	.06	293.15	.0010482	.000002
.1	.065	293.15	.0010488	.000002
.1	.07	293.15	.0010514	.000002
.1	.075	293.15	.0010534	.000002
.1	.08	293.15	.0010549	.000002
.1	.085	293.15	.0010555	.000002
.1	.09	293.15	.0010578	.000002
.1	.1	293.15	.0010644	.000002
.1	0	298.15	.0009011	.000002
.1	.05	298.15	.0009164	.000002
.1	.055	298.15	.0009182	.000002
.1	.06	298.15	.0009191	.000002
.1	.065	298.15	.0009207	.000002
.1	.07	298.15	.000922	.000002
.1	.075	298.15	.0009239	.000002
.1	.08	298.15	.000925	.000002
.1	.085	298.15	.0009263	.000002
.1	.09	298.15	.0009286	.000002
.1	.1	298.15	.0009321	.000002
.1	0	303.15	.0008056	.000002
.1	.05	303.15	.0008161	.000002
.1	.055	303.15	.0008169	.000002
.1	.06	303.15	.0008183	.000002
.1	.065	303.15	.0008196	.000002
.1	.07	303.15	.0008207	.000002
.1	.075	303.15	.0008217	.000002
.1	.08	303.15	.0008229	.000002
.1	.085	303.15	.000824	.000002
.1	.09	303.15	.0008252	.000002
.1	.1	303.15	.0008282	.000002
.1	0	308.15	.0007236	.000002
.1	.05	308.15	.000734	.000002
.1	.055	308.15	.0007352	.000002
.1	.06	308.15	.0007364	.000002
.1	.065	308.15	.0007372	.000002
.1	.07	308.15	.0007384	.000002
.1	.075	308.15	.0007394	.000002
.1	.08	308.15	.0007406	.000002
.1	.085	308.15	.0007416	.000002
.1	.09	308.15	.0007429	.000002
.1	.1	308.15	.0007451	.000002
.1	0	313.15	.0006582	.000002
.1	.05	313.15	.0006627	.000002
.1	.055	313.15	.0006636	.000002
.1	.06	313.15	.0006641	.000002
.1	.065	313.15	.0006648	.000002
.1	.07	313.15	.0006654	.000002
.1	.075	313.15	.0006664	.000002
.1	.08	313.15	.0006671	.000002
.1	.085	313.15	.000668	.000002
.1	.09	313.15	.000669	.000002
.1	.1	313.15	.0006704	.000002

System: glycine + D-maltose + water; phases: Liquid
Fixed: Pressure, kPa = 101
Property: Viscosity, Pa*s (Liquid); method: Capillary tube (Ostwald; Ubbelohde) method
Solvent: Molality, mol/kg of glycine	Molality, mol/kg of D-maltose	Temperature, K	Viscosity, Pa*s	uncertainty
0	.05	293.15	.0010215	.000002
0	.055	293.15	.0010254	.000002
0	.06	293.15	.0010295	.000002
0	.065	293.15	.0010334	.000002
0	.07	293.15	.0010365	.000002
0	.075	293.15	.0010413	.000002
0	.08	293.15	.0010452	.000002
0	.085	293.15	.0010495	.000002
0	.09	293.15	.0010537	.000002
0	.1	293.15	.0010619	.000002
0	.05	298.15	.0009029	.000002
0	.055	298.15	.0009064	.000002
0	.06	298.15	.0009093	.000002
0	.065	298.15	.0009119	.000002
0	.07	298.15	.0009159	.000002
0	.075	298.15	.0009193	.000002
0	.08	298.15	.0009231	.000002
0	.085	298.15	.0009262	.000002
0	.09	298.15	.0009294	.000002
0	.1	298.15	.0009361	.000002
0	.05	303.15	.0008044	.000002
0	.055	303.15	.0008074	.000002
0	.06	303.15	.0008099	.000002
0	.065	303.15	.000812	.000002
0	.07	303.15	.0008144	.000002
0	.075	303.15	.0008178	.000002
0	.08	303.15	.0008202	.000002
0	.085	303.15	.000823	.000002
0	.09	303.15	.0008261	.000002
0	.1	303.15	.000833	.000002
0	.05	308.15	.0007221	.000002
0	.055	308.15	.000724	.000002
0	.06	308.15	.0007266	.000002
0	.065	308.15	.0007287	.000002
0	.07	308.15	.0007315	.000002
0	.075	308.15	.0007341	.000002
0	.08	308.15	.0007362	.000002
0	.085	308.15	.0007383	.000002
0	.09	308.15	.0007406	.000002
0	.1	308.15	.0007449	.000002
0	.05	313.15	.0006529	.000002
0	.055	313.15	.0006549	.000002
0	.06	313.15	.0006564	.000002
0	.065	313.15	.0006586	.000002
0	.07	313.15	.0006606	.000002
0	.075	313.15	.0006619	.000002
0	.08	313.15	.0006645	.000002
0	.085	313.15	.0006669	.000002
0	.09	313.15	.0006687	.000002
0	.1	313.15	.0006724	.000002
.025	.05	293.15	.0010281	.000002
.025	.055	293.15	.0010317	.000002
.025	.06	293.15	.0010362	.000002
.025	.065	293.15	.00104	.000002
.025	.07	293.15	.0010447	.000002
.025	.075	293.15	.0010482	.000002
.025	.08	293.15	.0010514	.000002
.025	.085	293.15	.0010558	.000002
.025	.09	293.15	.00106	.000002
.025	.1	293.15	.0010682	.000002
.025	.05	298.15	.0009064	.000002
.025	.055	298.15	.0009095	.000002
.025	.06	298.15	.0009131	.000002
.025	.065	298.15	.0009167	.000002
.025	.07	298.15	.0009192	.000002
.025	.075	298.15	.0009229	.000002
.025	.08	298.15	.0009265	.000002
.025	.085	298.15	.0009308	.000002
.025	.09	298.15	.0009341	.000002
.025	.1	298.15	.0009403	.000002
.025	.05	303.15	.0008081	.000002
.025	.055	303.15	.0008107	.000002
.025	.06	303.15	.0008137	.000002
.025	.065	303.15	.0008167	.000002
.025	.07	303.15	.000819	.000002
.025	.075	303.15	.0008216	.000002
.025	.08	303.15	.0008249	.000002
.025	.085	303.15	.0008279	.000002
.025	.09	303.15	.0008309	.000002
.025	.1	303.15	.0008371	.000002
.025	.05	308.15	.0007246	.000002
.025	.055	308.15	.0007268	.000002
.025	.06	308.15	.0007292	.000002
.025	.065	308.15	.0007313	.000002
.025	.07	308.15	.000734	.000002
.025	.075	308.15	.000736	.000002
.025	.08	308.15	.0007383	.000002
.025	.085	308.15	.0007414	.000002
.025	.09	308.15	.0007439	.000002
.025	.1	308.15	.0007489	.000002
.025	.05	313.15	.0006557	.000002
.025	.055	313.15	.0006571	.000002
.025	.06	313.15	.0006588	.000002
.025	.065	313.15	.0006605	.000002
.025	.07	313.15	.0006625	.000002
.025	.075	313.15	.0006642	.000002
.025	.08	313.15	.0006668	.000002
.025	.085	313.15	.000669	.000002
.025	.09	313.15	.0006713	.000002
.025	.1	313.15	.000676	.000002
.05	.05	293.15	.0010368	.000002
.05	.055	293.15	.0010399	.000002
.05	.06	293.15	.0010444	.000002
.05	.065	293.15	.0010478	.000002
.05	.07	293.15	.0010533	.000002
.05	.075	293.15	.0010572	.000002
.05	.08	293.15	.0010614	.000002
.05	.085	293.15	.0010651	.000002
.05	.09	293.15	.0010697	.000002
.05	.1	293.15	.0010777	.000002
.05	.05	298.15	.0009102	.000002
.05	.055	298.15	.0009133	.000002
.05	.06	298.15	.0009171	.000002
.05	.065	298.15	.0009203	.000002
.05	.07	298.15	.0009242	.000002
.05	.075	298.15	.000927	.000002
.05	.08	298.15	.000931	.000002
.05	.085	298.15	.0009348	.000002
.05	.09	298.15	.0009385	.000002
.05	.1	298.15	.0009451	.000002
.05	.05	303.15	.0008121	.000002
.05	.055	303.15	.0008148	.000002
.05	.06	303.15	.0008179	.000002
.05	.065	303.15	.0008208	.000002
.05	.07	303.15	.0008236	.000002
.05	.075	303.15	.000827	.000002
.05	.08	303.15	.0008294	.000002
.05	.085	303.15	.000833	.000002
.05	.09	303.15	.0008359	.000002
.05	.1	303.15	.0008417	.000002
.05	.05	308.15	.0007274	.000002
.05	.055	308.15	.00073	.000002
.05	.06	308.15	.0007323	.000002
.05	.065	308.15	.0007348	.000002
.05	.07	308.15	.0007379	.000002
.05	.075	308.15	.0007398	.000002
.05	.08	308.15	.0007426	.000002
.05	.085	308.15	.0007447	.000002
.05	.09	308.15	.0007477	.000002
.05	.1	308.15	.0007525	.000002
.05	.05	313.15	.0006582	.000002
.05	.055	313.15	.0006602	.000002
.05	.06	313.15	.0006622	.000002
.05	.065	313.15	.0006639	.000002
.05	.07	313.15	.0006655	.000002
.05	.075	313.15	.0006675	.000002
.05	.08	313.15	.0006704	.000002
.05	.085	313.15	.0006727	.000002
.05	.09	313.15	.0006754	.000002
.05	.1	313.15	.0006789	.000002
.1	.05	293.15	.0010449	.000002
.1	.055	293.15	.0010489	.000002
.1	.06	293.15	.0010532	.000002
.1	.065	293.15	.0010573	.000002
.1	.07	293.15	.0010623	.000002
.1	.075	293.15	.0010667	.000002
.1	.08	293.15	.0010709	.000002
.1	.085	293.15	.0010754	.000002
.1	.09	293.15	.0010795	.000002
.1	.1	293.15	.0010876	.000002
.1	.05	298.15	.0009169	.000002
.1	.055	298.15	.0009202	.000002
.1	.06	298.15	.0009234	.000002
.1	.065	298.15	.0009277	.000002
.1	.07	298.15	.0009307	.000002
.1	.075	298.15	.000934	.000002
.1	.08	298.15	.0009377	.000002
.1	.085	298.15	.0009417	.000002
.1	.09	298.15	.0009452	.000002
.1	.1	298.15	.0009527	.000002
.1	.05	303.15	.0008181	.000002
.1	.055	303.15	.0008208	.000002
.1	.06	303.15	.0008236	.000002
.1	.065	303.15	.000827	.000002
.1	.07	303.15	.0008306	.000002
.1	.075	303.15	.0008334	.000002
.1	.08	303.15	.0008363	.000002
.1	.085	303.15	.0008395	.000002
.1	.09	303.15	.0008427	.000002
.1	.1	303.15	.0008486	.000002
.1	.05	308.15	.000732	.000002
.1	.055	308.15	.0007342	.000002
.1	.06	308.15	.0007367	.000002
.1	.065	308.15	.0007395	.000002
.1	.07	308.15	.0007425	.000002
.1	.075	308.15	.0007448	.000002
.1	.08	308.15	.0007472	.000002
.1	.085	308.15	.0007503	.000002
.1	.09	308.15	.0007533	.000002
.1	.1	308.15	.0007576	.000002
.1	.05	313.15	.0006621	.000002
.1	.055	313.15	.000664	.000002
.1	.06	313.15	.0006661	.000002
.1	.065	313.15	.0006685	.000002
.1	.07	313.15	.0006705	.000002
.1	.075	313.15	.0006724	.000002
.1	.08	313.15	.0006748	.000002
.1	.085	313.15	.000677	.000002
.1	.09	313.15	.0006799	.000002
.1	.1	313.15	.0006839	.000002

System: glycine + D-(+)-raffinose + water; phases: Liquid
Fixed: Pressure, kPa = 101
Property: Viscosity, Pa*s (Liquid); method: Capillary tube (Ostwald; Ubbelohde) method
Solvent: Molality, mol/kg of glycine	Molality, mol/kg of D-(+)-raffinose	Temperature, K	Viscosity, Pa*s	uncertainty
0	.05	293.15	.0010555	.000002
0	.055	293.15	.0010613	.000002
0	.06	293.15	.0010661	.000002
0	.065	293.15	.0010714	.000002
0	.07	293.15	.001079	.000002
0	.075	293.15	.0010873	.000002
0	.08	293.15	.0010948	.000002
0	.085	293.15	.0011014	.000002
0	.09	293.15	.0011079	.000002
0	.1	293.15	.0011179	.000002
0	.05	298.15	.0009281	.000002
0	.055	298.15	.0009343	.000002
0	.06	298.15	.00094	.000002
0	.065	298.15	.0009448	.000002
0	.07	298.15	.0009488	.000002
0	.075	298.15	.0009553	.000002
0	.08	298.15	.0009597	.000002
0	.085	298.15	.0009674	.000002
0	.09	298.15	.0009724	.000002
0	.1	298.15	.0009824	.000002
0	.05	303.15	.0008259	.000002
0	.055	303.15	.0008302	.000002
0	.06	303.15	.0008349	.000002
0	.065	303.15	.0008402	.000002
0	.07	303.15	.0008435	.000002
0	.075	303.15	.0008485	.000002
0	.08	303.15	.0008521	.000002
0	.085	303.15	.0008569	.000002
0	.09	303.15	.0008631	.000002
0	.1	303.15	.0008719	.000002
0	.05	308.15	.0007393	.000002
0	.055	308.15	.0007424	.000002
0	.06	308.15	.0007474	.000002
0	.065	308.15	.0007516	.000002
0	.07	308.15	.0007547	.000002
0	.075	308.15	.0007585	.000002
0	.08	308.15	.0007625	.000002
0	.085	308.15	.0007663	.000002
0	.09	308.15	.00077	.000002
0	.1	308.15	.0007775	.000002
0	.05	313.15	.0006657	.000002
0	.055	313.15	.0006688	.000002
0	.06	313.15	.000673	.000002
0	.065	313.15	.0006764	.000002
0	.07	313.15	.0006792	.000002
0	.075	313.15	.0006822	.000002
0	.08	313.15	.0006857	.000002
0	.085	313.15	.0006881	.000002
0	.09	313.15	.0006925	.000002
0	.1	313.15	.000698	.000002
.025	.05	293.15	.0010614	.000002
.025	.055	293.15	.0010678	.000002
.025	.06	293.15	.0010742	.000002
.025	.065	293.15	.0010795	.000002
.025	.07	293.15	.0010862	.000002
.025	.075	293.15	.0010932	.000002
.025	.08	293.15	.0011005	.000002
.025	.085	293.15	.0011071	.000002
.025	.09	293.15	.0011134	.000002
.025	.1	293.15	.0011263	.000002
.025	.05	298.15	.000932	.000002
.025	.055	298.15	.000937	.000002
.025	.06	298.15	.0009425	.000002
.025	.065	298.15	.0009483	.000002
.025	.07	298.15	.0009532	.000002
.025	.075	298.15	.0009586	.000002
.025	.08	298.15	.0009644	.000002
.025	.085	298.15	.0009715	.000002
.025	.09	298.15	.0009763	.000002
.025	.1	298.15	.0009865	.000002
.025	.05	303.15	.0008298	.000002
.025	.055	303.15	.0008345	.000002
.025	.06	303.15	.0008392	.000002
.025	.065	303.15	.0008444	.000002
.025	.07	303.15	.0008494	.000002
.025	.075	303.15	.0008543	.000002
.025	.08	303.15	.000858	.000002
.025	.085	303.15	.0008628	.000002
.025	.09	303.15	.0008675	.000002
.025	.1	303.15	.0008769	.000002
.025	.05	308.15	.0007422	.000002
.025	.055	308.15	.000747	.000002
.025	.06	308.15	.0007504	.000002
.025	.065	308.15	.0007554	.000002
.025	.07	308.15	.0007591	.000002
.025	.075	308.15	.0007625	.000002
.025	.08	308.15	.0007659	.000002
.025	.085	308.15	.0007704	.000002
.025	.09	308.15	.0007754	.000002
.025	.1	308.15	.0007823	.000002
.025	.05	313.15	.0006693	.000002
.025	.055	313.15	.0006718	.000002
.025	.06	313.15	.0006749	.000002
.025	.065	313.15	.000678	.000002
.025	.07	313.15	.0006815	.000002
.025	.075	313.15	.0006848	.000002
.025	.08	313.15	.0006881	.000002
.025	.085	313.15	.0006926	.000002
.025	.09	313.15	.0006954	.000002
.025	.1	313.15	.0007016	.000002
.05	.05	293.15	.0010672	.000002
.05	.055	293.15	.0010741	.000002
.05	.06	293.15	.00108	.000002
.05	.065	293.15	.0010866	.000002
.05	.07	293.15	.001092	.000002
.05	.075	293.15	.0010993	.000002
.05	.08	293.15	.0011062	.000002
.05	.085	293.15	.0011143	.000002
.05	.09	293.15	.0011213	.000002
.05	.1	293.15	.0011322	.000002
.05	.05	298.15	.0009363	.000002
.05	.055	298.15	.0009424	.000002
.05	.06	298.15	.0009484	.000002
.05	.065	298.15	.0009541	.000002
.05	.07	298.15	.0009601	.000002
.05	.075	298.15	.0009652	.000002
.05	.08	298.15	.0009714	.000002
.05	.085	298.15	.0009769	.000002
.05	.09	298.15	.0009826	.000002
.05	.1	298.15	.0009923	.000002
.05	.05	303.15	.000835	.000002
.05	.055	303.15	.0008393	.000002
.05	.06	303.15	.0008442	.000002
.05	.065	303.15	.0008487	.000002
.05	.07	303.15	.0008531	.000002
.05	.075	303.15	.000858	.000002
.05	.08	303.15	.0008629	.000002
.05	.085	303.15	.0008681	.000002
.05	.09	303.15	.0008735	.000002
.05	.1	303.15	.0008833	.000002
.05	.05	308.15	.0007459	.000002
.05	.055	308.15	.0007498	.000002
.05	.06	308.15	.0007539	.000002
.05	.065	308.15	.0007582	.000002
.05	.07	308.15	.0007623	.000002
.05	.075	308.15	.0007663	.000002
.05	.08	308.15	.0007697	.000002
.05	.085	308.15	.0007744	.000002
.05	.09	308.15	.0007788	.000002
.05	.1	308.15	.0007867	.000002
.05	.05	313.15	.000671	.000002
.05	.055	313.15	.0006744	.000002
.05	.06	313.15	.0006781	.000002
.05	.065	313.15	.0006817	.000002
.05	.07	313.15	.0006849	.000002
.05	.075	313.15	.0006886	.000002
.05	.08	313.15	.0006917	.000002
.05	.085	313.15	.0006953	.000002
.05	.09	313.15	.0006979	.000002
.05	.1	313.15	.0007046	.000002
.1	.05	293.15	.0010766	.000002
.1	.055	293.15	.0010826	.000002
.1	.06	293.15	.0010892	.000002
.1	.065	293.15	.0010956	.000002
.1	.07	293.15	.0011037	.000002
.1	.075	293.15	.0011101	.000002
.1	.08	293.15	.0011174	.000002
.1	.085	293.15	.0011239	.000002
.1	.09	293.15	.0011307	.000002
.1	.1	293.15	.0011435	.000002
.1	.05	298.15	.0009466	.000002
.1	.055	298.15	.0009519	.000002
.1	.06	298.15	.0009577	.000002
.1	.065	298.15	.0009632	.000002
.1	.07	298.15	.0009684	.000002
.1	.075	298.15	.0009747	.000002
.1	.08	298.15	.0009811	.000002
.1	.085	298.15	.0009872	.000002
.1	.09	298.15	.0009934	.000002
.1	.1	298.15	.001004	.000002
.1	.05	303.15	.0008425	.000002
.1	.055	303.15	.0008467	.000002
.1	.06	303.15	.0008514	.000002
.1	.065	303.15	.0008554	.000002
.1	.07	303.15	.0008605	.000002
.1	.075	303.15	.0008664	.000002
.1	.08	303.15	.0008713	.000002
.1	.085	303.15	.0008762	.000002
.1	.09	303.15	.0008817	.000002
.1	.1	303.15	.0008923	.000002
.1	.05	308.15	.0007516	.000002
.1	.055	308.15	.0007555	.000002
.1	.06	308.15	.0007596	.000002
.1	.065	308.15	.0007639	.000002
.1	.07	308.15	.0007672	.000002
.1	.075	308.15	.000772	.000002
.1	.08	308.15	.0007767	.000002
.1	.085	308.15	.0007809	.000002
.1	.09	308.15	.0007854	.000002
.1	.1	308.15	.0007939	.000002
.1	.05	313.15	.0006765	.000002
.1	.055	313.15	.0006802	.000002
.1	.06	313.15	.0006836	.000002
.1	.065	313.15	.0006866	.000002
.1	.07	313.15	.0006898	.000002
.1	.075	313.15	.000693	.000002
.1	.08	313.15	.0006963	.000002
.1	.085	313.15	.0007007	.000002
.1	.09	313.15	.0007051	.000002
.1	.1	313.15	.0007123	.000002

System: D-(-)-ribose + L-leucine + water; phases: Liquid
Fixed: Pressure, kPa = 101
Property: Viscosity, Pa*s (Liquid); method: Capillary tube (Ostwald; Ubbelohde) method
Solvent: Molality, mol/kg of L-leucine	Molality, mol/kg of D-(-)-ribose	Temperature, K	Viscosity, Pa*s	uncertainty
0	0	293.15	.0010019	.000002
0	.05	293.15	.0010191	.000002
0	.055	293.15	.001021	.000002
0	.06	293.15	.0010225	.000002
0	.065	293.15	.0010241	.000002
0	.07	293.15	.0010261	.000002
0	.075	293.15	.0010272	.000002
0	.08	293.15	.001029	.000002
0	.085	293.15	.0010314	.000002
0	.09	293.15	.0010328	.000002
0	.1	293.15	.0010355	.000002
0	0	298.15	.0008903	.000002
0	.05	298.15	.0009032	.000002
0	.055	298.15	.0009047	.000002
0	.06	298.15	.000906	.000002
0	.065	298.15	.0009073	.000002
0	.07	298.15	.0009085	.000002
0	.075	298.15	.00091	.000002
0	.08	298.15	.0009114	.000002
0	.085	298.15	.0009127	.000002
0	.09	298.15	.0009143	.000002
0	.1	298.15	.0009168	.000002
0	0	303.15	.0007973	.000002
0	.05	303.15	.0008071	.000002
0	.055	303.15	.0008082	.000002
0	.06	303.15	.0008092	.000002
0	.065	303.15	.0008101	.000002
0	.07	303.15	.0008113	.000002
0	.075	303.15	.0008125	.000002
0	.08	303.15	.0008135	.000002
0	.085	303.15	.0008146	.000002
0	.09	303.15	.0008157	.000002
0	.1	303.15	.0008183	.000002
0	0	308.15	.000719	.000002
0	.05	308.15	.0007261	.000002
0	.055	308.15	.000727	.000002
0	.06	308.15	.0007277	.000002
0	.065	308.15	.0007286	.000002
0	.07	308.15	.0007292	.000002
0	.075	308.15	.0007302	.000002
0	.08	308.15	.0007313	.000002
0	.085	308.15	.0007321	.000002
0	.09	308.15	.0007333	.000002
0	.1	308.15	.0007353	.000002
0	0	313.15	.0006526	.000002
0	.05	313.15	.000657	.000002
0	.055	313.15	.0006576	.000002
0	.06	313.15	.0006581	.000002
0	.065	313.15	.0006587	.000002
0	.07	313.15	.0006595	.000002
0	.075	313.15	.0006601	.000002
0	.08	313.15	.0006607	.000002
0	.085	313.15	.0006616	.000002
0	.09	313.15	.0006626	.000002
0	.1	313.15	.0006642	.000002
.025	0	293.15	.0010195	.000002
.025	.05	293.15	.0010337	.000002
.025	.055	293.15	.0010352	.000002
.025	.06	293.15	.0010364	.000002
.025	.065	293.15	.001038	.000002
.025	.07	293.15	.0010401	.000002
.025	.075	293.15	.0010412	.000002
.025	.08	293.15	.0010431	.000002
.025	.085	293.15	.0010444	.000002
.025	.09	293.15	.0010463	.000002
.025	.1	293.15	.0010492	.000002
.025	0	298.15	.0008932	.000002
.025	.05	298.15	.0009081	.000002
.025	.055	298.15	.0009095	.000002
.025	.06	298.15	.0009108	.000002
.025	.065	298.15	.0009124	.000002
.025	.07	298.15	.0009141	.000002
.025	.075	298.15	.0009157	.000002
.025	.08	298.15	.000917	.000002
.025	.085	298.15	.0009184	.000002
.025	.09	298.15	.0009198	.000002
.025	.1	298.15	.0009222	.000002
.025	0	303.15	.0007948	.000002
.025	.05	303.15	.0008103	.000002
.025	.055	303.15	.0008116	.000002
.025	.06	303.15	.0008129	.000002
.025	.065	303.15	.0008143	.000002
.025	.07	303.15	.0008158	.000002
.025	.075	303.15	.0008172	.000002
.025	.08	303.15	.0008183	.000002
.025	.085	303.15	.0008198	.000002
.025	.09	303.15	.000821	.000002
.025	.1	303.15	.0008236	.000002
.025	0	308.15	.0007187	.000002
.025	.05	308.15	.0007281	.000002
.025	.055	308.15	.0007292	.000002
.025	.06	308.15	.0007303	.000002
.025	.065	308.15	.0007313	.000002
.025	.07	308.15	.0007324	.000002
.025	.075	308.15	.0007334	.000002
.025	.08	308.15	.0007342	.000002
.025	.085	308.15	.0007352	.000002
.025	.09	308.15	.0007363	.000002
.025	.1	308.15	.0007384	.000002
.025	0	313.15	.0006481	.000002
.025	.05	313.15	.0006586	.000002
.025	.055	313.15	.0006597	.000002
.025	.06	313.15	.0006606	.000002
.025	.065	313.15	.0006618	.000002
.025	.07	313.15	.0006629	.000002
.025	.075	313.15	.0006638	.000002
.025	.08	313.15	.0006646	.000002
.025	.085	313.15	.0006656	.000002
.025	.09	313.15	.0006665	.000002
.025	.1	313.15	.0006684	.000002
.05	0	293.15	.0010223	.000002
.05	.05	293.15	.0010423	.000002
.05	.055	293.15	.0010446	.000002
.05	.06	293.15	.0010462	.000002
.05	.065	293.15	.0010482	.000002
.05	.07	293.15	.0010501	.000002
.05	.075	293.15	.001052	.000002
.05	.08	293.15	.0010535	.000002
.05	.085	293.15	.0010548	.000002
.05	.09	293.15	.0010572	.000002
.05	.1	293.15	.0010612	.000002
.05	0	298.15	.0008936	.000002
.05	.05	298.15	.0009126	.000002
.05	.055	298.15	.0009144	.000002
.05	.06	298.15	.0009162	.000002
.05	.065	298.15	.0009179	.000002
.05	.07	298.15	.0009194	.000002
.05	.075	298.15	.0009209	.000002
.05	.08	298.15	.0009225	.000002
.05	.085	298.15	.0009242	.000002
.05	.09	298.15	.0009257	.000002
.05	.1	298.15	.0009293	.000002
.05	0	303.15	.0008021	.000002
.05	.05	303.15	.0008146	.000002
.05	.055	303.15	.0008159	.000002
.05	.06	303.15	.0008169	.000002
.05	.065	303.15	.0008184	.000002
.05	.07	303.15	.0008193	.000002
.05	.075	303.15	.000821	.000002
.05	.08	303.15	.0008222	.000002
.05	.085	303.15	.0008234	.000002
.05	.09	303.15	.0008245	.000002
.05	.1	303.15	.0008269	.000002
.05	0	308.15	.0007237	.000002
.05	.05	308.15	.0007318	.000002
.05	.055	308.15	.0007327	.000002
.05	.06	308.15	.000734	.000002
.05	.065	308.15	.0007347	.000002
.05	.07	308.15	.0007359	.000002
.05	.075	308.15	.0007367	.000002
.05	.08	308.15	.0007379	.000002
.05	.085	308.15	.0007385	.000002
.05	.09	308.15	.0007396	.000002
.05	.1	308.15	.0007417	.000002
.05	0	313.15	.0006571	.000002
.05	.05	313.15	.0006627	.000002
.05	.055	313.15	.0006636	.000002
.05	.06	313.15	.0006644	.000002
.05	.065	313.15	.0006655	.000002
.05	.07	313.15	.0006662	.000002
.05	.075	313.15	.0006669	.000002
.05	.08	313.15	.0006675	.000002
.05	.085	313.15	.0006683	.000002
.05	.09	313.15	.0006691	.000002
.05	.1	313.15	.0006709	.000002
.1	0	293.15	.0010263	.000002
.1	.05	293.15	.0010526	.000002
.1	.055	293.15	.0010548	.000002
.1	.06	293.15	.0010581	.000002
.1	.065	293.15	.0010589	.000002
.1	.07	293.15	.0010615	.000002
.1	.075	293.15	.0010636	.000002
.1	.08	293.15	.0010651	.000002
.1	.085	293.15	.0010676	.000002
.1	.09	293.15	.0010696	.000002
.1	.1	293.15	.0010746	.000002
.1	0	298.15	.0008992	.000002
.1	.05	298.15	.0009183	.000002
.1	.055	298.15	.0009199	.000002
.1	.06	298.15	.0009211	.000002
.1	.065	298.15	.0009227	.000002
.1	.07	298.15	.000924	.000002
.1	.075	298.15	.0009259	.000002
.1	.08	298.15	.0009272	.000002
.1	.085	298.15	.0009294	.000002
.1	.09	298.15	.0009312	.000002
.1	.1	298.15	.0009353	.000002
.1	0	303.15	.0008011	.000002
.1	.05	303.15	.0008166	.000002
.1	.055	303.15	.0008181	.000002
.1	.06	303.15	.0008196	.000002
.1	.065	303.15	.000821	.000002
.1	.07	303.15	.0008222	.000002
.1	.075	303.15	.0008236	.000002
.1	.08	303.15	.0008249	.000002
.1	.085	303.15	.0008263	.000002
.1	.09	303.15	.0008278	.000002
.1	.1	303.15	.0008307	.000002
.1	0	308.15	.0007223	.000002
.1	.05	308.15	.0007341	.000002
.1	.055	308.15	.0007356	.000002
.1	.06	308.15	.0007367	.000002
.1	.065	308.15	.0007381	.000002
.1	.07	308.15	.0007393	.000002
.1	.075	308.15	.0007404	.000002
.1	.08	308.15	.0007412	.000002
.1	.085	308.15	.0007426	.000002
.1	.09	308.15	.0007434	.000002
.1	.1	308.15	.0007459	.000002
.1	0	313.15	.0006533	.000002
.1	.05	313.15	.0006657	.000002
.1	.055	313.15	.0006668	.000002
.1	.06	313.15	.0006677	.000002
.1	.065	313.15	.0006685	.000002
.1	.07	313.15	.0006691	.000002
.1	.075	313.15	.0006702	.000002
.1	.08	313.15	.0006709	.000002
.1	.085	313.15	.0006718	.000002
.1	.09	313.15	.0006728	.000002
.1	.1	313.15	.0006742	.000002

System: L-leucine + D-maltose + water; phases: Liquid
Fixed: Pressure, kPa = 101
Property: Viscosity, Pa*s (Liquid); method: Capillary tube (Ostwald; Ubbelohde) method
Solvent: Molality, mol/kg of L-leucine	Molality, mol/kg of D-maltose	Temperature, K	Viscosity, Pa*s	uncertainty
0	.05	293.15	.0010215	.000002
0	.055	293.15	.0010254	.000002
0	.06	293.15	.0010295	.000002
0	.065	293.15	.0010334	.000002
0	.07	293.15	.0010365	.000002
0	.075	293.15	.0010413	.000002
0	.08	293.15	.0010452	.000002
0	.085	293.15	.0010495	.000002
0	.09	293.15	.0010537	.000002
0	.1	293.15	.0010619	.000002
0	.05	298.15	.0009029	.000002
0	.055	298.15	.0009064	.000002
0	.06	298.15	.0009093	.000002
0	.065	298.15	.0009119	.000002
0	.07	298.15	.0009159	.000002
0	.075	298.15	.0009193	.000002
0	.08	298.15	.0009231	.000002
0	.085	298.15	.0009262	.000002
0	.09	298.15	.0009294	.000002
0	.1	298.15	.0009361	.000002
0	.05	303.15	.0008044	.000002
0	.055	303.15	.0008074	.000002
0	.06	303.15	.0008099	.000002
0	.065	303.15	.000812	.000002
0	.07	303.15	.0008144	.000002
0	.075	303.15	.0008178	.000002
0	.08	303.15	.0008202	.000002
0	.085	303.15	.000823	.000002
0	.09	303.15	.0008261	.000002
0	.1	303.15	.000833	.000002
0	.05	308.15	.0007221	.000002
0	.055	308.15	.000724	.000002
0	.06	308.15	.0007266	.000002
0	.065	308.15	.0007287	.000002
0	.07	308.15	.0007315	.000002
0	.075	308.15	.0007341	.000002
0	.08	308.15	.0007362	.000002
0	.085	308.15	.0007383	.000002
0	.09	308.15	.0007406	.000002
0	.1	308.15	.0007449	.000002
0	.05	313.15	.0006529	.000002
0	.055	313.15	.0006549	.000002
0	.06	313.15	.0006564	.000002
0	.065	313.15	.0006586	.000002
0	.07	313.15	.0006606	.000002
0	.075	313.15	.0006619	.000002
0	.08	313.15	.0006645	.000002
0	.085	313.15	.0006669	.000002
0	.09	313.15	.0006687	.000002
0	.1	313.15	.0006724	.000002
.025	.05	293.15	.0010312	.000002
.025	.055	293.15	.0010345	.000002
.025	.06	293.15	.0010383	.000002
.025	.065	293.15	.0010423	.000002
.025	.07	293.15	.001046	.000002
.025	.075	293.15	.0010502	.000002
.025	.08	293.15	.001054	.000002
.025	.085	293.15	.0010573	.000002
.025	.09	293.15	.001061	.000002
.025	.1	293.15	.0010689	.000002
.025	.05	298.15	.0009085	.000002
.025	.055	298.15	.000912	.000002
.025	.06	298.15	.0009152	.000002
.025	.065	298.15	.0009187	.000002
.025	.07	298.15	.0009214	.000002
.025	.075	298.15	.0009251	.000002
.025	.08	298.15	.0009286	.000002
.025	.085	298.15	.0009331	.000002
.025	.09	298.15	.0009366	.000002
.025	.1	298.15	.0009434	.000002
.025	.05	303.15	.0008088	.000002
.025	.055	303.15	.0008115	.000002
.025	.06	303.15	.0008144	.000002
.025	.065	303.15	.0008174	.000002
.025	.07	303.15	.0008205	.000002
.025	.075	303.15	.0008241	.000002
.025	.08	303.15	.000827	.000002
.025	.085	303.15	.0008302	.000002
.025	.09	303.15	.000833	.000002
.025	.1	303.15	.000839	.000002
.025	.05	308.15	.0007263	.000002
.025	.055	308.15	.0007288	.000002
.025	.06	308.15	.0007314	.000002
.025	.065	308.15	.0007332	.000002
.025	.07	308.15	.0007355	.000002
.025	.075	308.15	.0007388	.000002
.025	.08	308.15	.0007414	.000002
.025	.085	308.15	.0007439	.000002
.025	.09	308.15	.0007466	.000002
.025	.1	308.15	.0007517	.000002
.025	.05	313.15	.0006551	.000002
.025	.055	313.15	.0006569	.000002
.025	.06	313.15	.0006592	.000002
.025	.065	313.15	.0006616	.000002
.025	.07	313.15	.0006637	.000002
.025	.075	313.15	.0006663	.000002
.025	.08	313.15	.0006683	.000002
.025	.085	313.15	.0006705	.000002
.025	.09	313.15	.0006731	.000002
.025	.1	313.15	.0006774	.000002
.05	.05	293.15	.0010396	.000002
.05	.055	293.15	.0010438	.000002
.05	.06	293.15	.0010475	.000002
.05	.065	293.15	.001052	.000002
.05	.07	293.15	.0010555	.000002
.05	.075	293.15	.0010601	.000002
.05	.08	293.15	.0010639	.000002
.05	.085	293.15	.0010683	.000002
.05	.09	293.15	.0010725	.000002
.05	.1	293.15	.0010796	.000002
.05	.05	298.15	.0009136	.000002
.05	.055	298.15	.0009174	.000002
.05	.06	298.15	.000921	.000002
.05	.065	298.15	.0009248	.000002
.05	.07	298.15	.0009279	.000002
.05	.075	298.15	.000932	.000002
.05	.08	298.15	.0009362	.000002
.05	.085	298.15	.0009399	.000002
.05	.09	298.15	.0009435	.000002
.05	.1	298.15	.0009501	.000002
.05	.05	303.15	.0008129	.000002
.05	.055	303.15	.0008163	.000002
.05	.06	303.15	.0008192	.000002
.05	.065	303.15	.0008218	.000002
.05	.07	303.15	.000825	.000002
.05	.075	303.15	.000828	.000002
.05	.08	303.15	.0008313	.000002
.05	.085	303.15	.0008343	.000002
.05	.09	303.15	.0008371	.000002
.05	.1	303.15	.0008427	.000002
.05	.05	308.15	.0007302	.000002
.05	.055	308.15	.0007324	.000002
.05	.06	308.15	.0007345	.000002
.05	.065	308.15	.0007372	.000002
.05	.07	308.15	.0007395	.000002
.05	.075	308.15	.0007421	.000002
.05	.08	308.15	.0007452	.000002
.05	.085	308.15	.0007475	.000002
.05	.09	308.15	.0007504	.000002
.05	.1	308.15	.0007548	.000002
.05	.05	313.15	.0006608	.000002
.05	.055	313.15	.000663	.000002
.05	.06	313.15	.0006646	.000002
.05	.065	313.15	.0006662	.000002
.05	.07	313.15	.0006681	.000002
.05	.075	313.15	.00067	.000002
.05	.08	313.15	.0006731	.000002
.05	.085	313.15	.0006753	.000002
.05	.09	313.15	.0006779	.000002
.05	.1	313.15	.0006826	.000002
.1	.05	293.15	.0010484	.000002
.1	.055	293.15	.0010529	.000002
.1	.06	293.15	.0010559	.000002
.1	.065	293.15	.0010633	.000002
.1	.07	293.15	.0010666	.000002
.1	.075	293.15	.0010709	.000002
.1	.08	293.15	.0010754	.000002
.1	.085	293.15	.0010791	.000002
.1	.09	293.15	.001083	.000002
.1	.1	293.15	.0010906	.000002
.1	.05	298.15	.0009214	.000002
.1	.055	298.15	.0009253	.000002
.1	.06	298.15	.0009289	.000002
.1	.065	298.15	.0009328	.000002
.1	.07	298.15	.0009364	.000002
.1	.075	298.15	.0009405	.000002
.1	.08	298.15	.000945	.000002
.1	.085	298.15	.0009484	.000002
.1	.09	298.15	.0009522	.000002
.1	.1	298.15	.0009593	.000002
.1	.05	303.15	.0008191	.000002
.1	.055	303.15	.000822	.000002
.1	.06	303.15	.0008253	.000002
.1	.065	303.15	.0008283	.000002
.1	.07	303.15	.000832	.000002
.1	.075	303.15	.0008357	.000002
.1	.08	303.15	.0008386	.000002
.1	.085	303.15	.0008419	.000002
.1	.09	303.15	.0008453	.000002
.1	.1	303.15	.0008516	.000002
.1	.05	308.15	.0007332	.000002
.1	.055	308.15	.0007356	.000002
.1	.06	308.15	.0007384	.000002
.1	.065	308.15	.0007411	.000002
.1	.07	308.15	.0007441	.000002
.1	.075	308.15	.0007467	.000002
.1	.08	308.15	.0007495	.000002
.1	.085	308.15	.0007522	.000002
.1	.09	308.15	.0007552	.000002
.1	.1	308.15	.0007595	.000002
.1	.05	313.15	.0006647	.000002
.1	.055	313.15	.0006664	.000002
.1	.06	313.15	.000669	.000002
.1	.065	313.15	.000671	.000002
.1	.07	313.15	.0006725	.000002
.1	.075	313.15	.0006752	.000002
.1	.08	313.15	.0006777	.000002
.1	.085	313.15	.0006806	.000002
.1	.09	313.15	.0006827	.000002
.1	.1	313.15	.0006866	.000002

System: L-leucine + D-(+)-raffinose + water; phases: Liquid
Fixed: Pressure, kPa = 101
Property: Viscosity, Pa*s (Liquid); method: Capillary tube (Ostwald; Ubbelohde) method
Solvent: Molality, mol/kg of L-leucine	Molality, mol/kg of D-(+)-raffinose	Temperature, K	Viscosity, Pa*s	uncertainty
0	.05	293.15	.0010555	.000002
0	.055	293.15	.0010613	.000002
0	.06	293.15	.0010661	.000002
0	.065	293.15	.0010714	.000002
0	.07	293.15	.001079	.000002
0	.075	293.15	.0010873	.000002
0	.08	293.15	.0010948	.000002
0	.085	293.15	.0011014	.000002
0	.09	293.15	.0011079	.000002
0	.1	293.15	.0011179	.000002
0	.05	298.15	.0009281	.000002
0	.055	298.15	.0009343	.000002
0	.06	298.15	.00094	.000002
0	.065	298.15	.0009448	.000002
0	.07	298.15	.0009488	.000002
0	.075	298.15	.0009553	.000002
0	.08	298.15	.0009597	.000002
0	.085	298.15	.0009674	.000002
0	.09	298.15	.0009724	.000002
0	.1	298.15	.0009824	.000002
0	.05	303.15	.0008259	.000002
0	.055	303.15	.0008302	.000002
0	.06	303.15	.0008349	.000002
0	.065	303.15	.0008402	.000002
0	.07	303.15	.0008435	.000002
0	.075	303.15	.0008485	.000002
0	.08	303.15	.0008521	.000002
0	.085	303.15	.0008569	.000002
0	.09	303.15	.0008631	.000002
0	.1	303.15	.0008719	.000002
0	.05	308.15	.0007393	.000002
0	.055	308.15	.0007424	.000002
0	.06	308.15	.0007474	.000002
0	.065	308.15	.0007516	.000002
0	.07	308.15	.0007547	.000002
0	.075	308.15	.0007585	.000002
0	.08	308.15	.0007625	.000002
0	.085	308.15	.0007663	.000002
0	.09	308.15	.00077	.000002
0	.1	308.15	.0007775	.000002
0	.05	313.15	.0006657	.000002
0	.055	313.15	.0006688	.000002
0	.06	313.15	.000673	.000002
0	.065	313.15	.0006764	.000002
0	.07	313.15	.0006792	.000002
0	.075	313.15	.0006822	.000002
0	.08	313.15	.0006857	.000002
0	.085	313.15	.0006881	.000002
0	.09	313.15	.0006925	.000002
0	.1	313.15	.000698	.000002
.025	.05	293.15	.0010646	.000002
.025	.055	293.15	.0010714	.000002
.025	.06	293.15	.0010783	.000002
.025	.065	293.15	.001084	.000002
.025	.07	293.15	.0010897	.000002
.025	.075	293.15	.0010966	.000002
.025	.08	293.15	.0011049	.000002
.025	.085	293.15	.0011109	.000002
.025	.09	293.15	.0011161	.000002
.025	.1	293.15	.0011273	.000002
.025	.05	298.15	.000934	.000002
.025	.055	298.15	.000939	.000002
.025	.06	298.15	.0009443	.000002
.025	.065	298.15	.0009489	.000002
.025	.07	298.15	.0009547	.000002
.025	.075	298.15	.0009604	.000002
.025	.08	298.15	.0009672	.000002
.025	.085	298.15	.0009731	.000002
.025	.09	298.15	.0009785	.000002
.025	.1	298.15	.0009883	.000002
.025	.05	303.15	.0008314	.000002
.025	.055	303.15	.0008366	.000002
.025	.06	303.15	.0008413	.000002
.025	.065	303.15	.0008459	.000002
.025	.07	303.15	.0008511	.000002
.025	.075	303.15	.0008562	.000002
.025	.08	303.15	.000861	.000002
.025	.085	303.15	.0008659	.000002
.025	.09	303.15	.0008707	.000002
.025	.1	303.15	.0008809	.000002
.025	.05	308.15	.0007448	.000002
.025	.055	308.15	.0007485	.000002
.025	.06	308.15	.0007527	.000002
.025	.065	308.15	.000757	.000002
.025	.07	308.15	.0007612	.000002
.025	.075	308.15	.0007649	.000002
.025	.08	308.15	.0007686	.000002
.025	.085	308.15	.0007734	.000002
.025	.09	308.15	.0007778	.000002
.025	.1	308.15	.0007858	.000002
.025	.05	313.15	.0006681	.000002
.025	.055	313.15	.0006716	.000002
.025	.06	313.15	.0006754	.000002
.025	.065	313.15	.0006796	.000002
.025	.07	313.15	.0006832	.000002
.025	.075	313.15	.000687	.000002
.025	.08	313.15	.0006901	.000002
.025	.085	313.15	.0006937	.000002
.025	.09	313.15	.0006964	.000002
.025	.1	313.15	.0007031	.000002
.05	.05	293.15	.0010752	.000002
.05	.055	293.15	.0010806	.000002
.05	.06	293.15	.0010863	.000002
.05	.065	293.15	.0010931	.000002
.05	.07	293.15	.001099	.000002
.05	.075	293.15	.0011058	.000002
.05	.08	293.15	.0011125	.000002
.05	.085	293.15	.0011199	.000002
.05	.09	293.15	.0011275	.000002
.05	.1	293.15	.0011421	.000002
.05	.05	298.15	.0009429	.000002
.05	.055	298.15	.0009474	.000002
.05	.06	298.15	.0009533	.000002
.05	.065	298.15	.0009592	.000002
.05	.07	298.15	.0009642	.000002
.05	.075	298.15	.0009703	.000002
.05	.08	298.15	.0009762	.000002
.05	.085	298.15	.0009831	.000002
.05	.09	298.15	.0009894	.000002
.05	.1	298.15	.0010019	.000002
.05	.05	303.15	.0008394	.000002
.05	.055	303.15	.0008446	.000002
.05	.06	303.15	.00085	.000002
.05	.065	303.15	.0008547	.000002
.05	.07	303.15	.0008592	.000002
.05	.075	303.15	.0008643	.000002
.05	.08	303.15	.0008694	.000002
.05	.085	303.15	.0008749	.000002
.05	.09	303.15	.000879	.000002
.05	.1	303.15	.0008901	.000002
.05	.05	308.15	.0007513	.000002
.05	.055	308.15	.0007561	.000002
.05	.06	308.15	.0007593	.000002
.05	.065	308.15	.0007644	.000002
.05	.07	308.15	.0007686	.000002
.05	.075	308.15	.0007727	.000002
.05	.08	308.15	.0007758	.000002
.05	.085	308.15	.0007817	.000002
.05	.09	308.15	.0007859	.000002
.05	.1	308.15	.0007932	.000002
.05	.05	313.15	.000675	.000002
.05	.055	313.15	.000679	.000002
.05	.06	313.15	.0006824	.000002
.05	.065	313.15	.0006852	.000002
.05	.07	313.15	.0006879	.000002
.05	.075	313.15	.0006912	.000002
.05	.08	313.15	.0006958	.000002
.05	.085	313.15	.0006994	.000002
.05	.09	313.15	.0007027	.000002
.05	.1	313.15	.000711	.000002
.1	.05	293.15	.0010845	.000002
.1	.055	293.15	.0010913	.000002
.1	.06	293.15	.0010976	.000002
.1	.065	293.15	.0011042	.000002
.1	.07	293.15	.0011116	.000002
.1	.075	293.15	.0011191	.000002
.1	.08	293.15	.0011257	.000002
.1	.085	293.15	.0011326	.000002
.1	.09	293.15	.001141	.000002
.1	.1	293.15	.0011529	.000002
.1	.05	298.15	.000953	.000002
.1	.055	298.15	.0009595	.000002
.1	.06	298.15	.000965	.000002
.1	.065	298.15	.0009706	.000002
.1	.07	298.15	.0009777	.000002
.1	.075	298.15	.0009842	.000002
.1	.08	298.15	.0009905	.000002
.1	.085	298.15	.0009964	.000002
.1	.09	298.15	.0010027	.000002
.1	.1	298.15	.0010141	.000002
.1	.05	303.15	.0008498	.000002
.1	.055	303.15	.0008546	.000002
.1	.06	303.15	.0008599	.000002
.1	.065	303.15	.0008662	.000002
.1	.07	303.15	.0008713	.000002
.1	.075	303.15	.0008776	.000002
.1	.08	303.15	.0008826	.000002
.1	.085	303.15	.0008876	.000002
.1	.09	303.15	.0008938	.000002
.1	.1	303.15	.0009036	.000002
.1	.05	308.15	.0007579	.000002
.1	.055	308.15	.0007622	.000002
.1	.06	308.15	.0007671	.000002
.1	.065	308.15	.000772	.000002
.1	.07	308.15	.0007769	.000002
.1	.075	308.15	.0007805	.000002
.1	.08	308.15	.000785	.000002
.1	.085	308.15	.0007897	.000002
.1	.09	308.15	.0007944	.000002
.1	.1	308.15	.0008036	.000002
.1	.05	313.15	.0006797	.000002
.1	.055	313.15	.0006839	.000002
.1	.06	313.15	.0006873	.000002
.1	.065	313.15	.0006912	.000002
.1	.07	313.15	.0006946	.000002
.1	.075	313.15	.0006984	.000002
.1	.08	313.15	.000702	.000002
.1	.085	313.15	.0007061	.000002
.1	.09	313.15	.0007105	.000002
.1	.1	313.15	.000719	.000002

System: D-(-)-ribose + water; phases: Liquid
Property: Viscosity, Pa*s (Liquid); method: Capillary tube (Ostwald; Ubbelohde) method
Molality, mol/kg of D-(-)-ribose	Temperature, K	Pressure, kPa	Viscosity, Pa*s	uncertainty
.05	293.15	101	.0010191	.000002
.055	293.15	101	.001021	.000002
.06	293.15	101	.0010225	.000002
.065	293.15	101	.0010241	.000002
.07	293.15	101	.0010261	.000002
.075	293.15	101	.0010272	.000002
.08	293.15	101	.001029	.000002
.085	293.15	101	.0010314	.000002
.09	293.15	101	.0010328	.000002
.1	293.15	101	.0010355	.000002
.05	298.15	101	.0009032	.000002
.055	298.15	101	.0009047	.000002
.06	298.15	101	.000906	.000002
.065	298.15	101	.0009073	.000002
.07	298.15	101	.0009085	.000002
.075	298.15	101	.00091	.000002
.08	298.15	101	.0009114	.000002
.085	298.15	101	.0009127	.000002
.09	298.15	101	.0009143	.000002
.1	298.15	101	.0009168	.000002
.05	303.15	101	.0008071	.000002
.055	303.15	101	.0008082	.000002
.06	303.15	101	.0008092	.000002
.065	303.15	101	.0008101	.000002
.07	303.15	101	.0008113	.000002
.075	303.15	101	.0008125	.000002
.08	303.15	101	.0008135	.000002
.085	303.15	101	.0008146	.000002
.09	303.15	101	.0008157	.000002
.1	303.15	101	.0008183	.000002
.05	308.15	101	.0007261	.000002
.055	308.15	101	.000727	.000002
.06	308.15	101	.0007277	.000002
.065	308.15	101	.0007286	.000002
.07	308.15	101	.0007292	.000002
.075	308.15	101	.0007302	.000002
.08	308.15	101	.0007313	.000002
.085	308.15	101	.0007321	.000002
.09	308.15	101	.0007333	.000002
.1	308.15	101	.0007353	.000002
.05	313.15	101	.000657	.000002
.055	313.15	101	.0006576	.000002
.06	313.15	101	.0006581	.000002
.065	313.15	101	.0006587	.000002
.07	313.15	101	.0006595	.000002
.075	313.15	101	.0006601	.000002
.08	313.15	101	.0006607	.000002
.085	313.15	101	.0006616	.000002
.09	313.15	101	.0006626	.000002
.1	313.15	101	.0006642	.000002

System: glycine + water; phases: Liquid
Property: Viscosity, Pa*s (Liquid); method: Capillary tube (Ostwald; Ubbelohde) method
Molality, mol/kg of glycine	Temperature, K	Pressure, kPa	Viscosity, Pa*s	uncertainty
.025	293.15	101	.0010112	.000002
.025	298.15	101	.0008923	.000002
.025	303.15	101	.0007994	.000002
.025	308.15	101	.0007201	.000002
.025	313.15	101	.0006549	.000002
.05	293.15	101	.0010161	.000002
.05	298.15	101	.0008947	.000002
.05	303.15	101	.0008017	.000002
.05	308.15	101	.0007213	.000002
.05	313.15	101	.0006563	.000002
.1	293.15	101	.0010216	.000002
.1	298.15	101	.0009011	.000002
.1	303.15	101	.0008056	.000002
.1	308.15	101	.0007236	.000002
.1	313.15	101	.0006582	.000002

System: D-maltose + water; phases: Liquid
Property: Viscosity, Pa*s (Liquid); method: Capillary tube (Ostwald; Ubbelohde) method
Molality, mol/kg of D-maltose	Temperature, K	Pressure, kPa	Viscosity, Pa*s	uncertainty
.05	293.15	101	.0010215	.000002
.055	293.15	101	.0010254	.000002
.06	293.15	101	.0010295	.000002
.065	293.15	101	.0010334	.000002
.07	293.15	101	.0010365	.000002
.075	293.15	101	.0010413	.000002
.08	293.15	101	.0010452	.000002
.085	293.15	101	.0010495	.000002
.09	293.15	101	.0010537	.000002
.1	293.15	101	.0010619	.000002
.05	298.15	101	.0009029	.000002
.055	298.15	101	.0009064	.000002
.06	298.15	101	.0009093	.000002
.065	298.15	101	.0009119	.000002
.07	298.15	101	.0009159	.000002
.075	298.15	101	.0009193	.000002
.08	298.15	101	.0009231	.000002
.085	298.15	101	.0009262	.000002
.09	298.15	101	.0009294	.000002
.1	298.15	101	.0009361	.000002
.05	303.15	101	.0008044	.000002
.055	303.15	101	.0008074	.000002
.06	303.15	101	.0008099	.000002
.065	303.15	101	.000812	.000002
.07	303.15	101	.0008144	.000002
.075	303.15	101	.0008178	.000002
.08	303.15	101	.0008202	.000002
.085	303.15	101	.000823	.000002
.09	303.15	101	.0008261	.000002
.1	303.15	101	.000833	.000002
.05	308.15	101	.0007221	.000002
.055	308.15	101	.000724	.000002
.06	308.15	101	.0007266	.000002
.065	308.15	101	.0007287	.000002
.07	308.15	101	.0007315	.000002
.075	308.15	101	.0007341	.000002
.08	308.15	101	.0007362	.000002
.085	308.15	101	.0007383	.000002
.09	308.15	101	.0007406	.000002
.1	308.15	101	.0007449	.000002
.05	313.15	101	.0006529	.000002
.055	313.15	101	.0006549	.000002
.06	313.15	101	.0006564	.000002
.065	313.15	101	.0006586	.000002
.07	313.15	101	.0006606	.000002
.075	313.15	101	.0006619	.000002
.08	313.15	101	.0006645	.000002
.085	313.15	101	.0006669	.000002
.09	313.15	101	.0006687	.000002
.1	313.15	101	.0006724	.000002

System: D-(+)-raffinose + water; phases: Liquid
Property: Viscosity, Pa*s (Liquid); method: Capillary tube (Ostwald; Ubbelohde) method
Molality, mol/kg of D-(+)-raffinose	Temperature, K	Pressure, kPa	Viscosity, Pa*s	uncertainty
.05	293.15	101	.0010555	.000002
.055	293.15	101	.0010613	.000002
.06	293.15	101	.0010661	.000002
.065	293.15	101	.0010714	.000002
.07	293.15	101	.001079	.000002
.075	293.15	101	.0010873	.000002
.08	293.15	101	.0010948	.000002
.085	293.15	101	.0011014	.000002
.09	293.15	101	.0011079	.000002
.1	293.15	101	.0011179	.000002
.05	298.15	101	.0009281	.000002
.055	298.15	101	.0009343	.000002
.06	298.15	101	.00094	.000002
.065	298.15	101	.0009448	.000002
.07	298.15	101	.0009488	.000002
.075	298.15	101	.0009553	.000002
.08	298.15	101	.0009597	.000002
.085	298.15	101	.0009674	.000002
.09	298.15	101	.0009724	.000002
.1	298.15	101	.0009824	.000002
.05	303.15	101	.0008259	.000002
.055	303.15	101	.0008302	.000002
.06	303.15	101	.0008349	.000002
.065	303.15	101	.0008402	.000002
.07	303.15	101	.0008435	.000002
.075	303.15	101	.0008485	.000002
.08	303.15	101	.0008521	.000002
.085	303.15	101	.0008569	.000002
.09	303.15	101	.0008631	.000002
.1	303.15	101	.0008719	.000002
.05	308.15	101	.0007393	.000002
.055	308.15	101	.0007424	.000002
.06	308.15	101	.0007474	.000002
.065	308.15	101	.0007516	.000002
.07	308.15	101	.0007547	.000002
.075	308.15	101	.0007585	.000002
.08	308.15	101	.0007625	.000002
.085	308.15	101	.0007663	.000002
.09	308.15	101	.00077	.000002
.1	308.15	101	.0007775	.000002
.05	313.15	101	.0006657	.000002
.055	313.15	101	.0006688	.000002
.06	313.15	101	.000673	.000002
.065	313.15	101	.0006764	.000002
.07	313.15	101	.0006792	.000002
.075	313.15	101	.0006822	.000002
.08	313.15	101	.0006857	.000002
.085	313.15	101	.0006881	.000002
.09	313.15	101	.0006925	.000002
.1	313.15	101	.000698	.000002

System: L-leucine + water; phases: Liquid
Property: Viscosity, Pa*s (Liquid); method: Capillary tube (Ostwald; Ubbelohde) method
Molality, mol/kg of L-leucine	Temperature, K	Pressure, kPa	Viscosity, Pa*s	uncertainty
.025	293.15	101	.0010195	.000002
.025	298.15	101	.0008932	.000002
.025	303.15	101	.0007948	.000002
.025	308.15	101	.0007187	.000002
.025	313.15	101	.0006481	.000002
.05	293.15	101	.0010223	.000002
.05	298.15	101	.0008936	.000002
.05	303.15	101	.0008021	.000002
.05	308.15	101	.0007237	.000002
.05	313.15	101	.0006571	.000002
.1	293.15	101	.0010263	.000002
.1	298.15	101	.0008992	.000002
.1	303.15	101	.0008011	.000002
.1	308.15	101	.0007223	.000002
.1	313.15	101	.0006533	.000002
