Measured thermophysical data. Solubility of Tetranitrodimerglycoluril (TNDGU) in Different Solvents at Temperatures between 293.15 K and 313.15 K
Source: J. Chem. Eng. Data, 2014, 10.1021/je500392g
Compound 1: tetranitrodimerglycoluril, C10H8N12O12, purity 99.4%
Compound 2: methanol, CH4O, purity 99.8%
Compound 3: propane, C3H8, purity 99.5%
Compound 4: ethyl ethanoate, C4H8O2, purity 99.7%
Compound 5: ethanenitrile, C2H3N, purity 99.5%

System: methanol + tetranitrodimerglycoluril; phases: Liquid, Crystal
Fixed: Pressure, kPa = 100
Property: Mole fraction of tetranitrodimerglycoluril (Liquid); method: gravimetric method
Temperature, K	Mole fraction of tetranitrodimerglycoluril	uncertainty
293.15	.0000091	.000000455
298.15	.00001067	.0000005335
303.15	.00001261	.0000006305
308.15	.00001516	.000000758
313.15	.00001741	.0000008705

System: propane + tetranitrodimerglycoluril; phases: Liquid, Crystal
Fixed: Pressure, kPa = 100
Property: Mole fraction of tetranitrodimerglycoluril (Liquid); method: gravimetric method
Temperature, K	Mole fraction of tetranitrodimerglycoluril	uncertainty
293.15	.0001119	.000005595
298.15	.0001423	.000007115
303.15	.0002057	.000010285
308.15	.0002594	.00001297
313.15	.0003197	.000015985

System: ethyl ethanoate + tetranitrodimerglycoluril; phases: Liquid, Crystal
Fixed: Pressure, kPa = 100
Property: Mole fraction of tetranitrodimerglycoluril (Liquid); method: gravimetric method
Temperature, K	Mole fraction of tetranitrodimerglycoluril	uncertainty
293.15	.0001293	.000006465
298.15	.0001552	.00000776
303.15	.0001997	.000009985
308.15	.000247	.00001235
313.15	.0003198	.00001599

System: ethanenitrile + tetranitrodimerglycoluril; phases: Liquid, Crystal
Fixed: Pressure, kPa = 100
Property: Mole fraction of tetranitrodimerglycoluril (Liquid); method: gravimetric method
Temperature, K	Mole fraction of tetranitrodimerglycoluril	uncertainty
293.15	.0001505	.000007525
298.15	.0001818	.00000909
303.15	.000248	.0000124
308.15	.0003096	.00001548
313.15	.000379	.00001895
