Measured thermophysical data. Solubilities of 5,10,15,20-Tetraphenylporphyrin and 5,10,15,20-Tetraphenylporphyrin Manganese(III) Chloride in Binary Ethanol + Water Solvent Mixtures
Source: J. Chem. Eng. Data, 2015, 10.1021/je501002a
Compound 1: 5,10,15,20-tetraphenylporphyrin, C44H30N4, purity 98%
Compound 2: 5,10,15,20-tetraphenylporphyrin manganese(III) chloride, C44H28ClMnN4, purity 98%
Compound 3: ethanol, C2H6O, purity 99.7%
Compound 4: water, H2O, purity 99.8%

System: ethanol + 5,10,15,20-tetraphenylporphyrin + water; phases: Liquid, Crystal
Fixed: Pressure, kPa = 100
Property: Mole fraction of 5,10,15,20-tetraphenylporphyrin (Liquid); method: UV-4802 spectrophotometer
Solvent: Mass fraction of ethanol	Temperature, K	Mole fraction of 5,10,15,20-tetraphenylporphyrin	uncertainty
1	303.2	.000001757	.00000005271
1	313.2	.000002313	.00000006939
1	323.2	.000003057	.00000009171
1	333.2	.000004012	.00000012036
.98	303.2	.000001057	.00000003171
.98	313.2	.000001337	.00000004011
.98	323.2	.000001732	.00000005196
.98	333.2	.000002289	.00000006867
.96	303.2	.000000755	.00000002265
.96	313.2	.000000924	.00000002772
.96	323.2	.000001176	.00000003528
.96	333.2	.000001519	.00000004557
.94	303.2	.000000581	.00000001743
.94	313.2	.000000704	.00000002112
.94	323.2	.000000859	.00000002577
.94	333.2	.000001067	.00000003201
.92	303.2	.000000466	.00000001398
.92	313.2	.000000542	.00000001626
.92	323.2	.000000648	.00000001944
.92	333.2	.000000798	.00000002394
.9	303.2	.000000371	.00000001113
.9	313.2	.000000425	.00000001275
.9	323.2	.000000508	.00000001524
.9	333.2	.000000598	.00000001794

System: ethanol + water + 5,10,15,20-tetraphenylporphyrin manganese(III) chloride; phases: Liquid, Crystal
Fixed: Pressure, kPa = 100
Property: Mole fraction of 5,10,15,20-tetraphenylporphyrin manganese(III) chloride (Liquid); method: UV-4802 spectrophotometer
Solvent: Mass fraction of ethanol	Temperature, K	Mole fraction of 5,10,15,20-tetraphenylporphyrin manganese(III) chloride	uncertainty
1	303.2	.002993	.00008979
1	313.2	.002997	.00008991
1	323.2	.003002	.00009006
1	333.2	.003012	.00009036
.98	303.2	.002723	.00008169
.98	313.2	.002729	.00008187
.98	323.2	.002732	.00008196
.98	333.2	.002736	.00008208
.96	303.2	.002419	.00007257
.96	313.2	.00242	.0000726
.96	323.2	.002424	.00007272
.96	333.2	.00243	.0000729
.94	303.2	.002118	.00006354
.94	313.2	.002119	.00006357
.94	323.2	.00212	.0000636
.94	333.2	.002125	.00006375
.92	303.2	.001896	.00005688
.92	313.2	.001898	.00005694
.92	323.2	.001896	.00005688
.92	333.2	.001897	.00005691
.9	303.2	.001712	.00005136
.9	313.2	.001714	.00005142
.9	323.2	.001719	.00005157
.9	333.2	.001722	.00005166
.88	303.2	.001549	.00004647
.88	313.2	.001551	.00004653
.88	323.2	.001555	.00004665
.88	333.2	.001557	.00004671
.86	303.2	.00141	.0000423
.86	313.2	.00141	.0000423
.86	323.2	.001411	.00004233
.86	333.2	.001414	.00004242
.84	303.2	.00127	.0000381
.84	313.2	.001272	.00003816
.84	323.2	.001275	.00003825
.84	333.2	.001282	.00003846
.82	303.2	.00115	.0000345
.82	313.2	.001151	.00003453
.82	323.2	.001153	.00003459
.82	333.2	.001157	.00003471
.8	303.2	.001032	.00003096
.8	313.2	.001034	.00003102
.8	323.2	.001036	.00003108
.8	333.2	.001039	.00003117

System: ethanol + 5,10,15,20-tetraphenylporphyrin; phases: Liquid, Crystal
Property: Mole fraction of 5,10,15,20-tetraphenylporphyrin (Liquid); method: UV-4802 spectrophotometer
Temperature, K	Pressure, kPa	Mole fraction of 5,10,15,20-tetraphenylporphyrin	uncertainty
303.2	100	.000001757	.00000005271
313.2	100	.000002313	.00000006939
323.2	100	.000003057	.00000009171
333.2	100	.000004012	.00000012036

System: ethanol + 5,10,15,20-tetraphenylporphyrin manganese(III) chloride; phases: Liquid, Crystal
Property: Mole fraction of 5,10,15,20-tetraphenylporphyrin manganese(III) chloride (Liquid); method: UV-4802 spectrophotometer
Temperature, K	Pressure, kPa	Mole fraction of 5,10,15,20-tetraphenylporphyrin manganese(III) chloride	uncertainty
303.2	100	.002993	.00008979
313.2	100	.002997	.00008991
323.2	100	.003002	.00009006
333.2	100	.003012	.00009036
