Measured thermophysical data. Measurement and Correlation of Solubility of Tetraphenyl Piperazine-1,4-diyldiphosphonate in Mixed Solvents
Source: J. Chem. Eng. Data, 2015, 10.1021/je500678z
Compound 1: tetraphenyl piperazine-1,4-diylbis(phosphonate), C28H28N2O6P2, purity 99.2%
Compound 2: ethanol, C2H6O, purity 99.5%
Compound 3: dichloromethane, CH2Cl2, purity 99.5%
Compound 4: n-hexane, C6H14, purity 99.5%

System: ethanol + dichloromethane + tetraphenyl piperazine-1,4-diylbis(phosphonate); phases: Liquid, Crystal
Fixed: Pressure, kPa = 101
Property: Mole fraction of tetraphenyl piperazine-1,4-diylbis(phosphonate) (Liquid); method: gravimetric method
Solvent: Mole fraction of dichloromethane	Temperature, K	Mole fraction of tetraphenyl piperazine-1,4-diylbis(phosphonate)	uncertainty
1	283.15	.00567	.00006
.829	283.15	.00679	.00004
.683	283.15	.00396	.00002
.558	283.15	.00306	.00005
.446	283.15	.00202	.00003
.352	283.15	.00149	.00002
.264	283.15	.000839	.000005
.189	283.15	.000601	.000003
.119	283.15	.000479	.000003
.057	283.15	.000402	.000002
1	288.15	.00642	.00004
.829	288.15	.00964	.00005
.683	288.15	.00546	.00006
.558	288.15	.00382	.00003
.446	288.15	.0026	.00004
.352	288.15	.00153	.00003
.264	288.15	.000855	.00001
.189	288.15	.000681	.000005
.119	288.15	.000547	.000005
.057	288.15	.000469	.000004
1	293.15	.00731	.00006
.829	293.15	.0122	.00007
.683	293.15	.00738	.00008
.558	293.15	.00551	.00006
.446	293.15	.00348	.00002
.352	293.15	.0019	.00004
.264	293.15	.001018	.000009
.189	293.15	.000842	.000006
.119	293.15	.000635	.000004
.057	293.15	.00055	.000003
1	298.15	.00843	.00007
.829	298.15	.01384	.00009
.683	298.15	.00911	.00008
.558	298.15	.00738	.00009
.446	298.15	.00432	.00005
.352	298.15	.00227	.00002
.264	298.15	.001238	.00008
.189	298.15	.00097	.000005
.119	298.15	.000712	.000006
.057	298.15	.000616	.000005
1	303.15	.01025	.00008
.829	303.15	.01749	.00012
.683	303.15	.01215	.00013
.558	303.15	.00964	.0001
.446	303.15	.00581	.00008
.352	303.15	.00319	.00004
.264	303.15	.001802	.000011
.189	303.15	.001177	.000009
.119	303.15	.000871	.000008
.057	303.15	.000686	.000006
1	308.15	.01334	.00009
.829	308.15	.0222	.00015
.683	308.15	.01555	.00014
.558	308.15	.01169	.00012
.446	308.15	.00732	.00009
.352	308.15	.00403	.00005
.264	308.15	.002251	.000013
.189	308.15	.001441	.000012
.119	308.15	.000964	.000009
.057	308.15	.00075	.000007

System: dichloromethane + n-hexane + tetraphenyl piperazine-1,4-diylbis(phosphonate); phases: Liquid, Crystal
Fixed: Pressure, kPa = 101
Property: Mole fraction of tetraphenyl piperazine-1,4-diylbis(phosphonate) (Liquid); method: gravimetric method
Solvent: Mole fraction of dichloromethane	Temperature, K	Mole fraction of tetraphenyl piperazine-1,4-diylbis(phosphonate)	uncertainty
1	283.15	.00567	.00006
.901	283.15	.00285	.00005
.802	283.15	.00151	.00002
.703	283.15	.000772	.000006
.603	283.15	.000425	.000005
.503	283.15	.000252	.000004
.405	283.15	.000215	.000002
.303	283.15	.000172	.000002
.2	283.15	.000146	.000001
.1	283.15	.000127	.000003
1	288.15	.00642	.00004
.901	288.15	.00342	.00005
.802	288.15	.00185	.00004
.703	288.15	.000906	.000008
.603	288.15	.000464	.000006
.503	288.15	.000315	.000003
.405	288.15	.000259	.000004
.303	288.15	.000216	.000004
.2	288.15	.000191	.000003
.1	288.15	.000173	.000002
1	293.15	.00731	.00006
.901	293.15	.00419	.00007
.802	293.15	.00231	.00003
.703	293.15	.001234	.000009
.603	293.15	.000604	.000006
.503	293.15	.000418	.000005
.405	293.15	.000336	.000006
.303	293.15	.000279	.000006
.2	293.15	.000252	.000004
.1	293.15	.000237	.000005
1	298.15	.00843	.00007
.901	298.15	.00582	.00008
.802	298.15	.00337	.00005
.703	298.15	.001733	.000011
.603	298.15	.000797	.000008
.503	298.15	.000547	.000006
.405	298.15	.000436	.000005
.303	298.15	.00037	.000005
.2	298.15	.000311	.000003
.1	298.15	.000299	.000004
1	303.15	.01025	.00008
.901	303.15	.00838	.00007
.802	303.15	.00455	.00007
.703	303.15	.002526	.000016
.603	303.15	.001164	.000009
.503	303.15	.000631	.000009
.405	303.15	.000563	.000006
.303	303.15	.000492	.000006
.2	303.15	.000431	.000005
.1	303.15	.000409	.000006
1	308.15	.01334	.00009
.901	308.15	.01109	.0001
.802	308.15	.0055	.00006
.703	308.15	.003441	.000018
.603	308.15	.001466	.000012
.503	308.15	.000766	.000008
.405	308.15	.000693	.000005
.303	308.15	.000641	.000005
.2	308.15	.000582	.000006
.1	308.15	.000544	.000005

System: dichloromethane + tetraphenyl piperazine-1,4-diylbis(phosphonate); phases: Liquid, Crystal
Property: Mole fraction of tetraphenyl piperazine-1,4-diylbis(phosphonate) (Liquid); method: gravimetric method
Temperature, K	Pressure, kPa	Mole fraction of tetraphenyl piperazine-1,4-diylbis(phosphonate)	uncertainty
283.15	101	.00567	.00006
288.15	101	.00642	.00004
293.15	101	.00731	.00006
298.15	101	.00843	.00007
303.15	101	.01025	.00008
308.15	101	.01334	.00009
