Measured thermophysical data. Solubility and Diffusivity of CO2 in the Ionic Liquid 1-Butyl-3-methylimidazolium Tricyanomethanide within a Large Pressure Range (0.01 MPa to 10 MPa)
Source: J. Chem. Eng. Data, 2015, 10.1021/je500765m
Compound 1: 1-butyl-3-methylimidazolium tricyanomethane, C12H15N5, purity 98%
Compound 2: carbon dioxide, CO2, purity 99.995%
Compound 3: 1-hexyl-3-methylimidazolium bis(trifluoromethylsulfonyl)imide, C12H19F6N3O4S2
Compound 4: water, H2O

System: 1-butyl-3-methylimidazolium tricyanomethane; phases: Glass, Liquid, Air at 1 atmosphere
Property: Triple point temperature, K (Glass); method: DSC/DTA
Triple point temperature, K	uncertainty
185.8	

System: 1-butyl-3-methylimidazolium tricyanomethane; phases: Liquid
Fixed: Pressure, kPa = 101.325
Property: Electrical conductivity, S/m (Liquid); method: Jenway 4020 conductivity meter
Temperature, K	Electrical conductivity, S/m	uncertainty
293.25	1.027	.01027
300.35	1.303	.01303
309.75	1.63	.0163
316.25	1.84	.0184
325.55	2.2	.022
333.15	2.57	.0257
341.65	2.88	.0288
347.95	3.17	.0317
360.25	3.61	.0361
367.65	3.96	.0396
379.25	4.56	.0456

System: 1-butyl-3-methylimidazolium tricyanomethane; phases: Liquid
Property: Mass density, kg/m3 (Liquid); method: Vibrating tube method
Temperature, K	Pressure, kPa	Mass density, kg/m3	uncertainty
298.15	101	1046.2	.5
303.15	101	1042.9	.5
308.15	101	1039.5	.5
313.15	101	1036.1	.5
318.15	101	1032.8	.5
323.15	101	1029.5	.5
328.15	101	1026.3	.5
333.15	101	1023	.5
338.15	101	1019.8	.5
343.15	101	1016.5	.5
348.15	101	1013.3	.5
353.15	101	1010.2	.5
358.15	101	1007	.5
363.15	101	1003.9	.5

System: 1-butyl-3-methylimidazolium tricyanomethane; phases: Liquid
Fixed: Pressure, kPa = 101.325
Property: Viscosity, Pa*s (Liquid); method: Concentric cylinders viscometry
Temperature, K	Viscosity, Pa*s	uncertainty
298.15	.02784	.00009744
303.15	.022798	.000079793
308.15	.018972	.000066402
313.15	.016009	.0000560315
318.15	.013675	.0000478625
323.15	.01181	.000041335
328.15	.010297	.0000360395
333.15	.0090572	.0000317002
338.15	.0080292	.0000281022
343.15	.007168	.000025088
348.15	.0064431	.00002255085
353.15	.00583	.000020405
358.15	.0053047	.00001856645
363.15	.0048519	.00001698165

System: 1-butyl-3-methylimidazolium tricyanomethane; phases: Liquid, Air at 1 atmosphere
Property: Surface tension liquid-gas, N/m (Liquid); method: Ring tensiometer
Temperature, K	Surface tension liquid-gas, N/m	uncertainty
298.32	.04704	.00011
307.12	.04629	.00006
318.81	.04514	.0001
328.45	.0443	.00006
341.33	.0433	.00008

System: carbon dioxide + 1-hexyl-3-methylimidazolium bis(trifluoromethylsulfonyl)imide; phases: Liquid, Gas
Property: Mole fraction of carbon dioxide (Liquid); method: gravimetric
Temperature, K	Pressure, kPa	Mole fraction of carbon dioxide	uncertainty
293.15	93	.030182	.0002
293.15	193	.06545	.0002
293.15	493	.156955	.0002
293.15	593	.18315	.0002
293.15	993	.279176	.0002
293.15	1292	.339487	.0002
293.15	1393	.358219	.0002
293.15	1692	.40886	.0002
293.15	1893	.440231	.0002
293.15	1992	.454427	.0002
298.15	93	.030227	.0002
298.15	193	.05983	.0002
298.15	392	.115911	.0002
298.15	492	.142633	.0002
298.15	693	.192411	.0002
298.15	992	.257474	.0002
298.15	1192	.297164	.0002
298.15	1492	.350089	.0002
298.15	1992	.426479	.0002
313.15	97	.022683	.0002
313.15	196	.048041	.0002
313.15	294	.067686	.0002
313.15	493	.11113	.0002
313.15	593	.13654	.0002
313.15	663	.146595	.0002
313.15	1193	.241688	.0002
313.15	1493	.28729	.0002
313.15	1503	.288596	.0002
323.25	93	.018929	.0002
323.25	193	.038852	.0002
323.25	493	.096187	.0002
323.25	992	.179632	.0002
323.25	1093	.195194	.0002
323.25	1192	.209055	.0002
323.25	1292	.222925	.0002
323.25	1393	.237015	.0002
323.25	1493	.250692	.0002
323.25	1592	.263738	.0002
323.25	1693	.27649	.0002
323.25	1793	.28888	.0002
323.25	1892	.300681	.0002
323.25	1992	.312286	.0002
333.15	93	.01662	.0002
333.15	194	.034308	.0002
333.15	392	.067237	.0002
333.15	493	.083774	.0002
333.15	692	.115583	.0002
333.15	992	.158249	.0002
333.15	1193	.184289	.0002
333.15	1493	.223202	.0002
333.15	1993	.279924	.0002

System: carbon dioxide + 1-hexyl-3-methylimidazolium bis(trifluoromethylsulfonyl)imide; phases: Liquid, Gas
Property: Mole fraction of carbon dioxide (Liquid); method: gravimetric
Temperature, K	Pressure, kPa	Mole fraction of carbon dioxide	uncertainty
293.15	24.7	.01108	.00005
293.15	49.8	.01952	.00005
293.15	74.8	.028089	.00005
293.15	99.6	.036399	.00005
293.15	199.7	.068235	.00005
293.15	399.7	.128912	.00005
293.15	499.4	.156008	.00005
293.15	699.5	.207421	.00005
293.15	999.4	.274737	.00005
293.15	1199.4	.314663	.00005
293.15	1499.5	.368531	.00005
293.15	1749.3	.408003	.00005
293.15	1979.8	.440366	.00005
298.15	24.59	.008276	.00005
298.15	49.52	.015962	.00005
298.15	74.5	.023809	.00005
298.15	99.5	.031331	.00005
298.15	199.5	.060335	.00005
298.15	399.5	.114998	.00005
298.15	499.3	.141015	.00005
298.15	699.6	.189362	.00005
298.15	999.6	.253089	.00005
298.15	1199.5	.291517	.00005
298.15	1499.6	.342142	.00005
298.15	1749.4	.380454	.00005
298.15	1979.3	.412101	.00005
298.15	1979.3	.412101	.00005
323.15	24.9	.005129	.00005
323.15	49.7	.01017	.00005
323.15	74.7	.015206	.00005
323.15	99.6	.02021	.00005
323.15	199.8	.039935	.00005
323.15	399.7	.077611	.00005
323.15	499.5	.095643	.00005
323.15	699.5	.13025	.00005
323.15	999.8	.178855	.00005
323.15	1199.5	.209095	.00005
323.15	1499.5	.251724	.00005
323.15	1749.4	.284911	.00005
323.15	1979.6	.313745	.00005
323.15	1979.6	.313745	.00005

System: water + 1-butyl-3-methylimidazolium tricyanomethane; phases: Liquid
Fixed: Pressure, kPa = 101
Property: Mass density, kg/m3 (Liquid); method: Vibrating tube method
Mass fraction of water	Temperature, K	Mass density, kg/m3	uncertainty
.0011	293.15	1050.9	.5
.0011	298.15	1047.4	.5
.0011	303.15	1044.1	.5
.0011	308.15	1040.7	.5
.0011	313.15	1037.3	.5
.0011	318.15	1034	.5
.0011	323.15	1030.7	.5
.0011	328.15	1027.4	.5
.0011	333.15	1024.1	.5
.0011	338.15	1020.8	.5
.0011	343.15	1017.6	.5
.0011	348.15	1014.3	.5
.0011	353.15	1011.1	.5
.0011	358.15	1007.9	.5
.0011	363.15	1004.7	.5

System: water + 1-butyl-3-methylimidazolium tricyanomethane; phases: Liquid
Fixed: Pressure, kPa = 101
Property: Viscosity, Pa*s (Liquid); method: Concentric cylinders viscometry
Mass fraction of water	Temperature, K	Viscosity, Pa*s	uncertainty
.0011	293.15	.0327697	.00011469395
.0011	298.15	.0264693	.00009264255
.0011	303.15	.021698	.000075943
.0011	308.15	.0180807	.00006328245
.0011	313.15	.015299	.0000535465
.0011	318.15	.0130907	.00004581745
.0011	323.15	.011322	.000039627
.0011	328.15	.0098954	.0000346339
.0011	333.15	.0087198	.0000305193
.0011	338.15	.0077475	.00002711625
.0011	343.15	.0069326	.0000242641
.0011	348.15	.0062449	.00002185715
.0011	353.15	.0056584	.0000198044
.0011	358.15	.0051547	.00001804145
.0011	363.15	.0047183	.00001651405

System: carbon dioxide + 1-butyl-3-methylimidazolium tricyanomethane; phases: Liquid, Gas
Property: Vapor or sublimation pressure, kPa (Liquid); method: Closed cell (Static) method
Mole fraction of carbon dioxide	Temperature, K	Vapor or sublimation pressure, kPa	uncertainty
.1	298.1	526.7	3
.1	303.21	579.6	3
.1	308.12	634.7	3
.1	313.39	699.6	3
.1	318.25	759.7	3
.1	323.23	824.7	3
.1	328.23	889.8	3
.1	333.19	954.8	3
.1	338.19	1029.9	3
.1	343.15	1102.5	3
.1	348.24	1180.1	3
.1	353.19	1255.2	3
.1	358.22	1335.3	3
.1	363.15	1415.4	3
.2	283.14	835.9	3
.2	298.13	1163.9	3
.2	303.13	1278.9	3
.2	308.21	1413.9	3
.2	313.15	1544	3
.2	318.1	1679.5	3
.2	323.1	1834.7	3
.2	328.09	1984.9	3
.2	333.08	2140.1	3
.2	338.14	2305.2	3
.2	343.18	2475.3	3
.2	348.1	2645.4	3
.2	353.15	2824.9	3
.2	358.1	3010.1	3
.2	363.15	3200.3	3
.3	283.11	1363.3	3
.3	298.23	1938.6	3
.3	303.23	2113.8	3
.3	308.2	2324	3
.3	313.18	2557.1	3
.3	318.16	2794.8	3
.3	323.19	3045.2	3
.3	328.13	3310.4	3
.3	333.18	3585.6	3
.3	338.2	3873.3	3
.3	343.23	4171.1	3
.3	348.17	4471.2	3
.3	353.1	4815.8	3
.3	358.19	5141.1	3
.3	363.12	5471.4	3
.4	283.14	2308.7	3
.4	288.08	2578.9	3
.4	298.16	3205.1	3
.4	303.09	3550.3	3
.4	308.19	3930.6	3
.4	313.12	4320.5	3
.4	318.16	4745.6	3
.4	323.15	5190.9	3
.4	328.17	5656.2	3
.4	333.16	6146.4	3
.4	338.11	6649.8	3
.4	343.07	7182.6	3
.4	348.2	7750.6	3
.4	353.16	8333.5	3
.4	358.22	8913.9	3
.4	363.16	9484.3	3

System: carbon dioxide + 1-butyl-3-methylimidazolium tricyanomethane; phases: Liquid, Gas
Property: Mole fraction of carbon dioxide (Liquid); method: gravimetric
Temperature, K	Pressure, kPa	Mole fraction of carbon dioxide	uncertainty
288.15	95	.0224	.000224
288.15	193	.0469	.000469
288.15	293	.0702	.000702
288.15	393	.093	.00093
288.15	493	.1149	.001149
288.15	593	.1363	.001363
288.15	692	.1568	.001568
288.15	792	.1766	.001766
288.15	893	.1962	.001962
288.15	992	.2152	.002152
288.15	1092	.233	.00233
288.15	1192	.2508	.002508
288.15	1292	.2675	.002675
288.15	1392	.2837	.002837
288.15	1492	.3	.003
288.15	1592	.315	.00315
288.15	1692	.3305	.003305
288.15	1793	.3446	.003446
288.15	1892	.3586	.003586
288.15	1992	.3725	.003725
308.15	95	.0158	.000158
308.15	193	.0318	.000318
308.15	293	.0486	.000486
308.15	393	.0646	.000646
308.15	493	.0797	.000797
308.15	593	.0946	.000946
308.15	692	.1094	.001094
308.15	792	.1238	.001238
308.15	893	.1377	.001377
308.15	992	.1513	.001513
308.15	1093	.1645	.001645
308.15	1192	.1774	.001774
308.15	1293	.1905	.001905
308.15	1392	.2028	.002028
308.15	1492	.2151	.002151
308.15	1592	.2265	.002265
308.15	1692	.2382	.002382
308.15	1793	.2494	.002494
308.15	1893	.2607	.002607
308.15	1993	.2719	.002719
323.15	94	.0115	.000115
323.15	194	.0245	.000245
323.15	294	.0373	.000373
323.15	394	.05	.0005
323.15	493	.0624	.000624
323.15	594	.0743	.000743
323.15	693	.0859	.000859
323.15	792	.0973	.000973
323.15	893	.1086	.001086
323.15	993	.1196	.001196
323.15	1093	.1304	.001304
323.15	1192	.141	.00141
323.15	1293	.1516	.001516
323.15	1392	.1619	.001619
323.15	1493	.1722	.001722
323.15	1593	.1819	.001819
323.15	1693	.1913	.001913
323.15	1793	.2008	.002008
323.15	1893	.21	.0021
323.15	1993	.219	.00219
338.25	96	.0102	.000102
338.25	194	.0201	.000201
338.25	293	.0305	.000305
338.25	394	.0404	.000404
338.25	494	.0503	.000503
338.25	593	.0601	.000601
338.25	693	.0697	.000697
338.25	793	.0795	.000795
338.25	893	.0884	.000884
338.25	993	.0974	.000974
338.25	1093	.1067	.001067
338.25	1193	.1151	.001151
338.25	1293	.1241	.001241
338.25	1393	.1325	.001325
338.25	1493	.1406	.001406
338.25	1593	.1489	.001489
338.25	1693	.1573	.001573
338.25	1792	.165	.00165
338.25	1892	.173	.00173
338.25	1993	.1809	.001809
353.25	95	.0082	.000082
353.25	195	.017	.00017
353.25	294	.025	.00025
353.25	394	.0332	.000332
353.25	494	.0411	.000411
353.25	594	.0495	.000495
353.25	694	.0581	.000581
353.25	793	.0657	.000657
353.25	893	.0736	.000736
353.25	993	.081	.00081
353.25	1093	.0884	.000884
353.25	1193	.0958	.000958
353.25	1292	.1033	.001033
353.25	1392	.1111	.001111
353.25	1492	.1179	.001179
353.25	1593	.1245	.001245
353.25	1692	.1313	.001313
353.25	1793	.1383	.001383
353.25	1893	.1453	.001453
353.25	1993	.1521	.001521

System: carbon dioxide + 1-butyl-3-methylimidazolium tricyanomethane; phases: Liquid
Fixed: Mole fraction of carbon dioxide = 0
Property: Tracer diffusion coefficient, m2/s of carbon dioxide (Liquid); method: gravimetric
Temperature, K	Pressure, kPa	Tracer diffusion coefficient, m2/s of carbon dioxide	uncertainty
308.15	94	0.000000000303	.00000000004545
308.15	193	0.000000000322	.0000000000483
308.15	293	0.000000000276	.0000000000414
308.15	393	0.000000000296	.0000000000444
308.15	493	0.000000000307	.00000000004605
308.15	792	0.000000000334	.0000000000501
308.15	893	0.000000000363	.00000000005445
308.15	992	0.000000000367	.00000000005505
308.15	1293	0.00000000038	.000000000057
308.15	1392	0.000000000414	.0000000000621
308.15	1493	0.000000000434	.0000000000651
308.15	1793	0.000000000439	.00000000006585
308.15	1992	0.000000000378	.0000000000567
323.15	194	0.000000000461	.00000000006915
323.15	294	0.000000000398	.0000000000597
323.15	394	0.00000000038	.000000000057
323.15	493	0.000000000368	.0000000000552
323.15	792	0.000000000351	.00000000005265
323.15	893	0.000000000444	.0000000000666
323.15	993	0.000000000444	.0000000000666
323.15	1293	0.000000000402	.0000000000603
323.15	1392	0.000000000421	.00000000006315
323.15	1493	0.000000000466	.0000000000699
323.15	1793	0.000000000489	.00000000007335
323.15	1893	0.000000000477	.00000000007155
323.15	1993	0.000000000439	.00000000006585
338.25	96	0.000000000369	.00000000005535
338.25	194	0.000000000528	.0000000000792
338.25	494	0.000000000506	.0000000000759
338.25	793	0.000000000416	.0000000000624
338.25	893	0.000000000537	.00000000008055
338.25	1393	0.000000000527	.00000000007905
338.25	1493	0.000000000526	.0000000000789
338.25	1792	0.000000000511	.00000000007665
338.25	1892	0.000000000523	.00000000007845
338.25	1993	0.000000000573	.00000000008595
353.25	195	0.000000000635	.00000000009525
353.25	294	0.000000000568	.0000000000852
353.25	394	0.00000000052	.000000000078
353.25	494	0.000000000638	.0000000000957
353.25	793	0.000000000553	.00000000008295
353.25	893	0.00000000059	.0000000000885
353.25	993	0.000000000684	.0000000001026
353.25	1292	0.000000000649	.00000000009735
353.25	1392	0.000000000642	.0000000000963
353.25	1492	0.000000000532	.0000000000798
353.25	1893	0.000000000791	.00000000011865
353.25	1993	0.000000000639	.00000000009585
