Measured thermophysical data. Temperature Dependence of Physicochemical Properties of Imidazolium-, Pyroldinium-, and Phosphonium-Based Ionic Liquids
Source: J. Chem. Eng. Data, 2014, 10.1021/je500093z
Compound 1: 1-butyl-3-methylimidazolium hydrogen sulfate, C8H16N2O4S
Compound 2: triisobutylmethylphosphonium p-toluenesulfonate, C20H37O3PS
Compound 3: 1-ethyl-3-methylimidazolium methylsulfate, C7H14N2O4S
Compound 4: 1,3-dimethylimidazolium methyl sulfate, C6H12N2O4S
Compound 5: 1-butyl-4-methylpyridinium tetrafluoroborate, C10H16BF4N
Compound 6: 1-butyl-3-methylimidazolium hexafluorophosphate, C8H15F6N2P
Compound 7: 1-hexyl-3-methylimidazolium hexafluorophosphate, C10H19F6N2P
Compound 8: 1-methyl-3-octylimidazolium hexafluorophosphate, C12H23F6N2P
Compound 9: 1-methyl-3-octylimidazolium chloride, C12H23ClN2

System: 1-butyl-3-methylimidazolium hydrogen sulfate; phases: Liquid
Fixed: Pressure, kPa = 101.325
Property: Mass density, kg/m3 (Liquid); method: Vibrating tube method
Temperature, K	Mass density, kg/m3	uncertainty
298.15	1224	1
303.15	1220	1
308.15	1217	1
313.15	1214	1
318.15	1211	1
323.15	1208	1
328.15	1204	1
333.15	1201	1

System: 1-butyl-3-methylimidazolium hydrogen sulfate; phases: Liquid
Fixed: Pressure, kPa = 101.325
Property: Speed of sound, m/s (Liquid); method: Pulse-echo method
Temperature, K	Speed of sound, m/s	uncertainty
298.15	1689.8	.2
303.15	1676.7	.2
308.15	1664.3	.2
313.15	1652.1	.2
318.15	1640.2	.2
323.15	1628.5	.2
328.15	1615.5	.2
333.15	1601.5	.2

System: 1-butyl-3-methylimidazolium hydrogen sulfate; phases: Liquid
Fixed: Pressure, kPa = 101.325
Property: Viscosity, Pa*s (Liquid); method: Concentric cylinders viscometry
Temperature, K	Viscosity, Pa*s	uncertainty
298.15	.43936	.00001
303.15	.32195	.00001
308.15	.24081	.00001
313.15	.18354	.00001
318.15	.14255	.00001
323.15	.11237	.00001
328.15	.08995	.00001
333.15	.07288	.00001

System: 1-butyl-3-methylimidazolium hydrogen sulfate; phases: Liquid, Air at 1 atmosphere
Property: Surface tension liquid-gas, N/m (Liquid); method: Ring tensiometer
Temperature, K	Surface tension liquid-gas, N/m	uncertainty
298.15	.0436	.0001
303.15	.0432	.0001
308.15	.0428	.0001
313.15	.0424	.0001
318.15	.042	.0001
323.15	.0417	.0001
328.15	.0413	.0001
333.15	.0409	.0001

System: 1-butyl-3-methylimidazolium hydrogen sulfate; phases: Liquid
Fixed: Pressure, kPa = 101.325
Property: Refractive index (Na D-line) (Liquid); method: Standard Abbe refractometry
Temperature, K	Refractive index (Na D-line)	uncertainty
298.15	1.5043	.0004
303.15	1.5	.0004
308.15	1.4965	.0004
313.15	1.4914	.0004
318.15	1.4857	.0004
323.15	1.4813	.0004
328.15	1.4762	.0004
333.15	1.4721	.0004

System: triisobutylmethylphosphonium p-toluenesulfonate; phases: Liquid
Fixed: Pressure, kPa = 101.325
Property: Mass density, kg/m3 (Liquid); method: Vibrating tube method
Temperature, K	Mass density, kg/m3	uncertainty
298.15	1068	1
303.15	1065	1
308.15	1062	1
313.15	1059	1
318.15	1056	1
323.15	1053	1
328.15	1050	1
333.15	1047	1

System: triisobutylmethylphosphonium p-toluenesulfonate; phases: Liquid
Fixed: Pressure, kPa = 101.325
Property: Speed of sound, m/s (Liquid); method: Pulse-echo method
Temperature, K	Speed of sound, m/s	uncertainty
298.15	1628.8	.2
303.15	1610.6	.2
308.15	1585.6	.2
313.15	1567.6	.2
318.15	1551.1	.2
323.15	1535.7	.2
328.15	1521.5	.2
333.15	1508.3	.2

System: triisobutylmethylphosphonium p-toluenesulfonate; phases: Liquid
Fixed: Pressure, kPa = 101.325
Property: Viscosity, Pa*s (Liquid); method: Concentric cylinders viscometry
Temperature, K	Viscosity, Pa*s	uncertainty
298.15	2.1324	.00001
303.15	1.3632	.00001
308.15	.89608	.00001
313.15	.60671	.00001
318.15	.42249	.00001
323.15	.30217	.00001
328.15	.22127	.00001
333.15	.16553	.00001

System: triisobutylmethylphosphonium p-toluenesulfonate; phases: Liquid, Air at 1 atmosphere
Property: Surface tension liquid-gas, N/m (Liquid); method: Ring tensiometer
Temperature, K	Surface tension liquid-gas, N/m	uncertainty
298.15	.0339	.0001
303.15	.0338	.0001
308.15	.0336	.0001
313.15	.0334	.0001
318.15	.0332	.0001
323.15	.0329	.0001
328.15	.0328	.0001
333.15	.0326	.0001

System: triisobutylmethylphosphonium p-toluenesulfonate; phases: Liquid
Fixed: Pressure, kPa = 101.325
Property: Refractive index (Na D-line) (Liquid); method: Standard Abbe refractometry
Temperature, K	Refractive index (Na D-line)	uncertainty
298.15	1.5185	.0004
303.15	1.5181	.0004
308.15	1.5174	.0004
313.15	1.516	.0004
318.15	1.5151	.0004
323.15	1.5144	.0004
328.15	1.5123	.0004
333.15	1.5119	.0004

System: 1-ethyl-3-methylimidazolium methylsulfate; phases: Liquid
Fixed: Pressure, kPa = 101.325
Property: Mass density, kg/m3 (Liquid); method: Vibrating tube method
Temperature, K	Mass density, kg/m3	uncertainty
298.15	1292	1
303.15	1289	1
308.15	1285	1
313.15	1282	1
318.15	1279	1
323.15	1275	1
328.15	1272	1
333.15	1268	1

System: 1-ethyl-3-methylimidazolium methylsulfate; phases: Liquid
Fixed: Pressure, kPa = 101.325
Property: Speed of sound, m/s (Liquid); method: Pulse-echo method
Temperature, K	Speed of sound, m/s	uncertainty
298.15	1762.1	.2
303.15	1750.4	.2
308.15	1738.7	.2
313.15	1727	.2
318.15	1715.5	.2
323.15	1704	.2
328.15	1692.6	.2
333.15	1681.3	.2

System: 1-ethyl-3-methylimidazolium methylsulfate; phases: Liquid
Fixed: Pressure, kPa = 101.325
Property: Viscosity, Pa*s (Liquid); method: Concentric cylinders viscometry
Temperature, K	Viscosity, Pa*s	uncertainty
298.15	.09491	.00001
303.15	.0768	.00001
308.15	.06166	.00001
313.15	.05128	.00001
318.15	.04242	.00001
323.15	.03533	.00001
328.15	.03011	.00001
333.15	.02625	.00001

System: 1-ethyl-3-methylimidazolium methylsulfate; phases: Liquid, Air at 1 atmosphere
Property: Surface tension liquid-gas, N/m (Liquid); method: Ring tensiometer
Temperature, K	Surface tension liquid-gas, N/m	uncertainty
298.15	.0398	.0001
303.15	.0395	.0001
308.15	.0392	.0001
313.15	.0389	.0001
318.15	.0388	.0001
323.15	.0384	.0001
328.15	.0382	.0001
333.15	.038	.0001

System: 1-ethyl-3-methylimidazolium methylsulfate; phases: Liquid
Fixed: Pressure, kPa = 101.325
Property: Refractive index (Na D-line) (Liquid); method: Standard Abbe refractometry
Temperature, K	Refractive index (Na D-line)	uncertainty
298.15	1.4741	.0004
303.15	1.4739	.0004
308.15	1.4735	.0004
313.15	1.4721	.0004
318.15	1.4716	.0004
323.15	1.4706	.0004
328.15	1.4702	.0004
333.15	1.4698	.0004

System: 1,3-dimethylimidazolium methyl sulfate; phases: Liquid
Fixed: Pressure, kPa = 101.325
Property: Mass density, kg/m3 (Liquid); method: Vibrating tube method
Temperature, K	Mass density, kg/m3	uncertainty
298.15	1329	1
303.15	1323	1
308.15	1319	1
313.15	1316	1
318.15	1312	1
323.15	1308	1
328.15	1305	1
333.15	1302	1

System: 1,3-dimethylimidazolium methyl sulfate; phases: Liquid
Fixed: Pressure, kPa = 101.325
Property: Speed of sound, m/s (Liquid); method: Pulse-echo method
Temperature, K	Speed of sound, m/s	uncertainty
298.15	1811.5	.2
303.15	1799.4	.2
308.15	1787.3	.2
313.15	1775.4	.2
318.15	1763.6	.2
323.15	1751.9	.2
328.15	1740.3	.2
333.15	1728.8	.2

System: 1,3-dimethylimidazolium methyl sulfate; phases: Liquid
Fixed: Pressure, kPa = 101.325
Property: Viscosity, Pa*s (Liquid); method: Concentric cylinders viscometry
Temperature, K	Viscosity, Pa*s	uncertainty
298.15	.0717	.00001
303.15	.0576	.00001
308.15	.04693	.00001
313.15	.03881	.00001
318.15	.03252	.00001
323.15	.02759	.00001
328.15	.02367	.00001
333.15	.0205	.00001

System: 1,3-dimethylimidazolium methyl sulfate; phases: Liquid, Air at 1 atmosphere
Property: Surface tension liquid-gas, N/m (Liquid); method: Ring tensiometer
Temperature, K	Surface tension liquid-gas, N/m	uncertainty
298.15	.0576	.0001
303.15	.0573	.0001
308.15	.0568	.0001
313.15	.0564	.0001
318.15	.056	.0001
323.15	.0555	.0001
328.15	.0551	.0001
333.15	.0548	.0001

System: 1,3-dimethylimidazolium methyl sulfate; phases: Liquid
Fixed: Pressure, kPa = 101.325
Property: Refractive index (Na D-line) (Liquid); method: Standard Abbe refractometry
Temperature, K	Refractive index (Na D-line)	uncertainty
298.15	1.4817	.0004
303.15	1.4811	.0004
308.15	1.4804	.0004
313.15	1.4797	.0004
318.15	1.4792	.0004
323.15	1.4785	.0004
328.15	1.4779	.0004
333.15	1.4771	.0004

System: 1-butyl-4-methylpyridinium tetrafluoroborate; phases: Liquid
Fixed: Pressure, kPa = 101.325
Property: Mass density, kg/m3 (Liquid); method: Vibrating tube method
Temperature, K	Mass density, kg/m3	uncertainty
298.15	1190	1
303.15	1186	1
308.15	1183	1
313.15	1179	1
318.15	1176	1
323.15	1173	1
328.15	1169	1
333.15	1166	1

System: 1-butyl-4-methylpyridinium tetrafluoroborate; phases: Liquid
Fixed: Pressure, kPa = 101.325
Property: Speed of sound, m/s (Liquid); method: Pulse-echo method
Temperature, K	Speed of sound, m/s	uncertainty
298.15	1602.3	.2
303.15	1589.7	.2
308.15	1577.4	.2
313.15	1565.2	.2
318.15	1553.2	.2
323.15	1541.2	.2
328.15	1529.6	.2
333.15	1517.9	.2

System: 1-butyl-4-methylpyridinium tetrafluoroborate; phases: Liquid
Fixed: Pressure, kPa = 101.325
Property: Viscosity, Pa*s (Liquid); method: Concentric cylinders viscometry
Temperature, K	Viscosity, Pa*s	uncertainty
298.15	.20286	.00001
303.15	.14657	.00001
308.15	.1087	.00001
313.15	.08249	.00001
318.15	.06394	.00001
323.15	.05051	.00001
328.15	.0406	.00001
333.15	.03314	.00001

System: 1-butyl-4-methylpyridinium tetrafluoroborate; phases: Liquid, Air at 1 atmosphere
Property: Surface tension liquid-gas, N/m (Liquid); method: Ring tensiometer
Temperature, K	Surface tension liquid-gas, N/m	uncertainty
298.15	.0454	.0001
303.15	.0451	.0001
308.15	.0448	.0001
313.15	.0445	.0001
318.15	.0442	.0001
323.15	.0439	.0001
328.15	.0435	.0001
333.15	.0432	.0001

System: 1-butyl-4-methylpyridinium tetrafluoroborate; phases: Liquid
Fixed: Pressure, kPa = 101.325
Property: Refractive index (Na D-line) (Liquid); method: Standard Abbe refractometry
Temperature, K	Refractive index (Na D-line)	uncertainty
298.15	1.4507	.0004
303.15	1.4502	.0004
308.15	1.4495	.0004
313.15	1.4488	.0004
318.15	1.4482	.0004
323.15	1.4475	.0004
328.15	1.4469	.0004
333.15	1.4463	.0004

System: 1-butyl-3-methylimidazolium hexafluorophosphate; phases: Liquid
Fixed: Pressure, kPa = 101.325
Property: Mass density, kg/m3 (Liquid); method: Vibrating tube method
Temperature, K	Mass density, kg/m3	uncertainty
298.15	1367	1
303.15	1363	1
308.15	1359	1
313.15	1355	1
318.15	1351	1
323.15	1347	1
328.15	1343	1
333.15	1339	1

System: 1-butyl-3-methylimidazolium hexafluorophosphate; phases: Liquid
Fixed: Pressure, kPa = 101.325
Property: Speed of sound, m/s (Liquid); method: Pulse-echo method
Temperature, K	Speed of sound, m/s	uncertainty
298.15	1443.6	.2
303.15	1431.6	.2
308.15	1419.8	.2
313.15	1408.3	.2
318.15	1396.9	.2
323.15	1385.8	.2
328.15	1374.7	.2
333.15	1363.8	.2

System: 1-butyl-3-methylimidazolium hexafluorophosphate; phases: Liquid
Fixed: Pressure, kPa = 101.325
Property: Viscosity, Pa*s (Liquid); method: Concentric cylinders viscometry
Temperature, K	Viscosity, Pa*s	uncertainty
298.15	.27394	.00001
303.15	.2032	.00001
308.15	.15399	.00001
313.15	.11896	.00001
318.15	.09344	.00001
323.15	.0746	.00001
328.15	.06043	.00001
333.15	.04962	.00001

System: 1-butyl-3-methylimidazolium hexafluorophosphate; phases: Liquid, Air at 1 atmosphere
Property: Surface tension liquid-gas, N/m (Liquid); method: Ring tensiometer
Temperature, K	Surface tension liquid-gas, N/m	uncertainty
298.15	.043	.0001
303.15	.0426	.0001
308.15	.0422	.0001
313.15	.0419	.0001
318.15	.0417	.0001
323.15	.0412	.0001
328.15	.0408	.0001
333.15	.0405	.0001

System: 1-butyl-3-methylimidazolium hexafluorophosphate; phases: Liquid
Fixed: Pressure, kPa = 101.325
Property: Refractive index (Na D-line) (Liquid); method: Standard Abbe refractometry
Temperature, K	Refractive index (Na D-line)	uncertainty
298.15	1.4101	.0004
303.15	1.4085	.0004
308.15	1.4081	.0004
313.15	1.407	.0004
318.15	1.4068	.0004
323.15	1.4058	.0004
328.15	1.4053	.0004
333.15	1.4042	.0004

System: 1-hexyl-3-methylimidazolium hexafluorophosphate; phases: Liquid
Fixed: Pressure, kPa = 101.325
Property: Mass density, kg/m3 (Liquid); method: Vibrating tube method
Temperature, K	Mass density, kg/m3	uncertainty
298.15	1292	1
303.15	1288	1
308.15	1284	1
313.15	1280	1
318.15	1276	1
323.15	1272	1
328.15	1268	1
333.15	1264	1

System: 1-hexyl-3-methylimidazolium hexafluorophosphate; phases: Liquid
Fixed: Pressure, kPa = 101.325
Property: Speed of sound, m/s (Liquid); method: Pulse-echo method
Temperature, K	Speed of sound, m/s	uncertainty
298.15	1424.4	.2
303.15	1411.3	.2
308.15	1399.6	.2
313.15	1386.7	.2
318.15	1374.9	.2
323.15	1363.4	.2
328.15	1352.1	.2
333.15	1340.8	.2

System: 1-hexyl-3-methylimidazolium hexafluorophosphate; phases: Liquid
Fixed: Pressure, kPa = 101.325
Property: Viscosity, Pa*s (Liquid); method: Concentric cylinders viscometry
Temperature, K	Viscosity, Pa*s	uncertainty
298.15	.34917	.00001
303.15	.25396	.00001
308.15	.18877	.00001
313.15	.14299	.00001
318.15	.11024	.00001
323.15	.08642	.00001
328.15	.06887	.00001
333.15	.05562	.00001

System: 1-hexyl-3-methylimidazolium hexafluorophosphate; phases: Liquid, Air at 1 atmosphere
Property: Surface tension liquid-gas, N/m (Liquid); method: Ring tensiometer
Temperature, K	Surface tension liquid-gas, N/m	uncertainty
298.15	.0372	.0001
303.15	.0369	.0001
308.15	.0366	.0001
313.15	.0363	.0001
318.15	.036	.0001
323.15	.0357	.0001
328.15	.0354	.0001
333.15	.0351	.0001

System: 1-hexyl-3-methylimidazolium hexafluorophosphate; phases: Liquid
Fixed: Pressure, kPa = 101.325
Property: Refractive index (Na D-line) (Liquid); method: Standard Abbe refractometry
Temperature, K	Refractive index (Na D-line)	uncertainty
298.15	1.4179	.0004
303.15	1.4161	.0004
308.15	1.4148	.0004
313.15	1.4134	.0004
318.15	1.4115	.0004
323.15	1.4104	.0004
328.15	1.4088	.0004
333.15	1.4075	.0004

System: 1-methyl-3-octylimidazolium hexafluorophosphate; phases: Liquid
Fixed: Pressure, kPa = 101.325
Property: Mass density, kg/m3 (Liquid); method: Vibrating tube method
Temperature, K	Mass density, kg/m3	uncertainty
298.15	1234	1
303.15	1231	1
308.15	1226	1
313.15	1223	1
318.15	1219	1
323.15	1215	1
328.15	1211	1
333.15	1208	1

System: 1-methyl-3-octylimidazolium hexafluorophosphate; phases: Liquid
Fixed: Pressure, kPa = 101.325
Property: Speed of sound, m/s (Liquid); method: Pulse-echo method
Temperature, K	Speed of sound, m/s	uncertainty
298.15	1404.7	.2
303.15	1390.3	.2
308.15	1376.6	.2
313.15	1363.6	.2
318.15	1351	.2
323.15	1338.9	.2
328.15	1327	.2
333.15	1315.5	.2

System: 1-methyl-3-octylimidazolium hexafluorophosphate; phases: Liquid
Fixed: Pressure, kPa = 101.325
Property: Viscosity, Pa*s (Liquid); method: Concentric cylinders viscometry
Temperature, K	Viscosity, Pa*s	uncertainty
298.15	.60344	.00001
303.15	.43088	.00001
308.15	.31444	.00001
313.15	.23424	.00001
318.15	.17779	.00001
323.15	.13724	.00001
328.15	.10758	.00001
333.15	.08558	.00001

System: 1-methyl-3-octylimidazolium hexafluorophosphate; phases: Liquid, Air at 1 atmosphere
Property: Surface tension liquid-gas, N/m (Liquid); method: Ring tensiometer
Temperature, K	Surface tension liquid-gas, N/m	uncertainty
298.15	.0361	.0001
303.15	.0359	.0001
308.15	.0356	.0001
313.15	.0353	.0001
318.15	.0351	.0001
323.15	.0349	.0001
328.15	.0346	.0001
333.15	.0343	.0001

System: 1-methyl-3-octylimidazolium hexafluorophosphate; phases: Liquid
Fixed: Pressure, kPa = 101.325
Property: Refractive index (Na D-line) (Liquid); method: Standard Abbe refractometry
Temperature, K	Refractive index (Na D-line)	uncertainty
298.15	1.4217	.0004
303.15	1.4211	.0004
308.15	1.4206	.0004
313.15	1.4201	.0004
318.15	1.4195	.0004
323.15	1.4186	.0004
328.15	1.4177	.0004
333.15	1.4167	.0004

System: 1-methyl-3-octylimidazolium chloride; phases: Liquid
Fixed: Pressure, kPa = 101.325
Property: Mass density, kg/m3 (Liquid); method: Vibrating tube method
Temperature, K	Mass density, kg/m3	uncertainty
298.15	1010	1
303.15	1007	1
308.15	1004	1
313.15	1001	1
318.15	998	1
323.15	995	1
328.15	992	1
333.15	989	1

System: 1-methyl-3-octylimidazolium chloride; phases: Liquid
Fixed: Pressure, kPa = 101.325
Property: Speed of sound, m/s (Liquid); method: Pulse-echo method
Temperature, K	Speed of sound, m/s	uncertainty
298.15	1687.2	.2
303.15	1667.7	.2
308.15	1646.1	.2
313.15	1619.6	.2
318.15	1597.1	.2
323.15	1577.4	.2
328.15	1559.6	.2
333.15	1543	.2

System: 1-methyl-3-octylimidazolium chloride; phases: Liquid
Fixed: Pressure, kPa = 101.325
Property: Viscosity, Pa*s (Liquid); method: Concentric cylinders viscometry
Temperature, K	Viscosity, Pa*s	uncertainty
298.15	13.267	.00001
303.15	7.7704	.00001
308.15	4.7552	.00001
313.15	3.0067	.00001
318.15	1.9676	.00001
323.15	1.3234	.00001
328.15	.91413	.00001
333.15	.64696	.00001

System: 1-methyl-3-octylimidazolium chloride; phases: Liquid, Air at 1 atmosphere
Property: Surface tension liquid-gas, N/m (Liquid); method: Ring tensiometer
Temperature, K	Surface tension liquid-gas, N/m	uncertainty
298.15	.0325	.0001
303.15	.0322	.0001
308.15	.0319	.0001
313.15	.0316	.0001
318.15	.0313	.0001
323.15	.031	.0001
328.15	.0307	.0001
333.15	.0304	.0001

System: 1-methyl-3-octylimidazolium chloride; phases: Liquid
Fixed: Pressure, kPa = 101.325
Property: Refractive index (Na D-line) (Liquid); method: Standard Abbe refractometry
Temperature, K	Refractive index (Na D-line)	uncertainty
298.15	1.5088	.0004
303.15	1.5085	.0004
308.15	1.5061	.0004
313.15	1.5058	.0004
318.15	1.5054	.0004
323.15	1.5048	.0004
328.15	1.5037	.0004
333.15	1.5029	.0004
