Measured thermophysical data. Solubility and Solution Thermodynamics of Novel Bicyclic Derivatives of 1,3-Selenazine in Biological Relevant Solvents
Source: J. Chem. Eng. Data, 2014, 10.1021/je500363r
Compound 1: N-phenyl-1-selena-3-azaspiro[5.5]undec-2-en-2-amine hydrobromide, C15H21BrN2Se
Compound 2: N-(4-isopropylphenyl)-1-selena-3-azaspiro[5.5]undec-2-en-2-amine hydrobromide, C18H27BrN2Se
Compound 3: N-(4-fluorophenyl)-1-selena-3-azaspiro[5.5]undec-2-en-2-amine hydrobromide, C15H20BrFN2Se
Compound 4: octanol, C8H18O, purity 98%
Compound 5: hexane, C6H14, purity 99%

System: N-phenyl-1-selena-3-azaspiro[5.5]undec-2-en-2-amine hydrobromide; phases: Crystal, Liquid, Air at 1 atmosphere
Property: Normal melting temperature, K (Crystal); method: DSC/DTA
Normal melting temperature, K	uncertainty
417.9	.2

System: N-phenyl-1-selena-3-azaspiro[5.5]undec-2-en-2-amine hydrobromide; phases: Crystal, Liquid, Air at 1 atmosphere
Property: Molar enthalpy of transition or fusion, kJ/mol (Crystal); method: DSC/DTA
Molar enthalpy of transition or fusion, kJ/mol	uncertainty
18	.5

System: N-(4-isopropylphenyl)-1-selena-3-azaspiro[5.5]undec-2-en-2-amine hydrobromide; phases: Crystal, Liquid, Air at 1 atmosphere
Property: Normal melting temperature, K (Crystal); method: DSC/DTA
Normal melting temperature, K	uncertainty
421.5	.2

System: N-(4-isopropylphenyl)-1-selena-3-azaspiro[5.5]undec-2-en-2-amine hydrobromide; phases: Crystal, Liquid, Air at 1 atmosphere
Property: Molar enthalpy of transition or fusion, kJ/mol (Crystal); method: DSC/DTA
Molar enthalpy of transition or fusion, kJ/mol	uncertainty
12.9	.5

System: N-(4-fluorophenyl)-1-selena-3-azaspiro[5.5]undec-2-en-2-amine hydrobromide; phases: Crystal, Liquid, Air at 1 atmosphere
Property: Normal melting temperature, K (Crystal); method: DSC/DTA
Normal melting temperature, K	uncertainty
469.3	.2

System: N-(4-fluorophenyl)-1-selena-3-azaspiro[5.5]undec-2-en-2-amine hydrobromide; phases: Crystal, Liquid, Air at 1 atmosphere
Property: Molar enthalpy of transition or fusion, kJ/mol (Crystal); method: DSC/DTA
Molar enthalpy of transition or fusion, kJ/mol	uncertainty
25.1	.5

System: octanol + N-phenyl-1-selena-3-azaspiro[5.5]undec-2-en-2-amine hydrobromide; phases: Liquid, Crystal
Fixed: Pressure, kPa = 100
Property: Mole fraction of N-phenyl-1-selena-3-azaspiro[5.5]undec-2-en-2-amine hydrobromide (Liquid); method: Spectrophotometer UV spectral
Temperature, K	Mole fraction of N-phenyl-1-selena-3-azaspiro[5.5]undec-2-en-2-amine hydrobromide	uncertainty
293.15	.0186	.000372
298.15	.0229	.000458
303.15	.0278	.000556
308.15	.0329	.000658
313.15	.0385	.00077

System: hexane + N-phenyl-1-selena-3-azaspiro[5.5]undec-2-en-2-amine hydrobromide; phases: Liquid, Crystal
Fixed: Pressure, kPa = 100
Property: Mole fraction of N-phenyl-1-selena-3-azaspiro[5.5]undec-2-en-2-amine hydrobromide (Liquid); method: Spectrophotometer UV spectral
Temperature, K	Mole fraction of N-phenyl-1-selena-3-azaspiro[5.5]undec-2-en-2-amine hydrobromide	uncertainty
293.15	.00000494	.0000000988
298.15	.00000594	.0000001188
303.15	.0000071	.000000142
308.15	.00000846	.0000001692
313.15	.00000998	.0000001996

System: octanol + N-(4-isopropylphenyl)-1-selena-3-azaspiro[5.5]undec-2-en-2-amine hydrobromide; phases: Liquid, Crystal
Fixed: Pressure, kPa = 100
Property: Mole fraction of N-(4-isopropylphenyl)-1-selena-3-azaspiro[5.5]undec-2-en-2-amine hydrobromide (Liquid); method: Spectrophotometer UV spectral
Temperature, K	Mole fraction of N-(4-isopropylphenyl)-1-selena-3-azaspiro[5.5]undec-2-en-2-amine hydrobromide	uncertainty
293.15	.0484	.000968
298.15	.0551	.001102
303.15	.0647	.001294
308.15	.0728	.001456
313.15	.0831	.001662

System: hexane + N-(4-isopropylphenyl)-1-selena-3-azaspiro[5.5]undec-2-en-2-amine hydrobromide; phases: Liquid, Crystal
Fixed: Pressure, kPa = 100
Property: Mole fraction of N-(4-isopropylphenyl)-1-selena-3-azaspiro[5.5]undec-2-en-2-amine hydrobromide (Liquid); method: Spectrophotometer UV spectral
Temperature, K	Mole fraction of N-(4-isopropylphenyl)-1-selena-3-azaspiro[5.5]undec-2-en-2-amine hydrobromide	uncertainty
293.15	.00000469	.0000000938
298.15	.00000582	.0000001164
303.15	.00000739	.0000001478
308.15	.00000884	.0000001768
313.15	.00001111	.0000002222

System: octanol + N-(4-fluorophenyl)-1-selena-3-azaspiro[5.5]undec-2-en-2-amine hydrobromide; phases: Liquid, Crystal
Fixed: Pressure, kPa = 100
Property: Mole fraction of N-(4-fluorophenyl)-1-selena-3-azaspiro[5.5]undec-2-en-2-amine hydrobromide (Liquid); method: Spectrophotometer UV spectral
Temperature, K	Mole fraction of N-(4-fluorophenyl)-1-selena-3-azaspiro[5.5]undec-2-en-2-amine hydrobromide	uncertainty
293.15	.003	.00006
298.15	.0036	.000072
303.15	.0042	.000084
308.15	.0048	.000096
313.15	.0055	.00011

System: hexane + N-(4-fluorophenyl)-1-selena-3-azaspiro[5.5]undec-2-en-2-amine hydrobromide; phases: Liquid, Crystal
Fixed: Pressure, kPa = 100
Property: Mole fraction of N-(4-fluorophenyl)-1-selena-3-azaspiro[5.5]undec-2-en-2-amine hydrobromide (Liquid); method: Spectrophotometer UV spectral
Temperature, K	Mole fraction of N-(4-fluorophenyl)-1-selena-3-azaspiro[5.5]undec-2-en-2-amine hydrobromide	uncertainty
293.15	.00000127	.0000000254
298.15	.00000159	.0000000318
303.15	.0000019	.000000038
308.15	.00000235	.000000047
313.15	.00000289	.0000000578
