Measured thermophysical data. Liquid Liquid Equilibria for the Ternary Systems of FC3283 + HFE7300 + Hexane, FC3283 + HFE7500 + Octane, and FC72 + HFE7100 + (Acetonitrile or Ethyl Acetate) at 273.15 K, 298.15 K, and 313.15 K
Source: J. Chem. Eng. Data, 2014, 10.1021/je500107y
Compound 1: acetonitrile, C2H3N, purity 99%
Compound 2: perfluorohexane, C6F14, purity 98%
Compound 3: ethyl ethanoate, C4H8O2, purity 99%
Compound 4: hexane, C6H14, purity 99%
Compound 5: octane, C8H18, purity 99%
Compound 6: 1,1,2,2,3,3,3-heptafluoro-N,N-bis(heptafluoropropyl)-1-propanamine, C9F21N, purity 98%
Compound 7: 1,1,1,2,2,3,4,5,5,5-decafluoro-3-methosy-4-(trifluoromethyl)-pentane, C7H3F13O, purity 98%
Compound 8: 1-methoxy-nonafluorobutane, C5H3F9O, purity 98%

System: acetonitrile + perfluorohexane; phases: Liquid mixture 1, Liquid mixture 2
Fixed: Pressure, kPa = 100
Property: Mole fraction of perfluorohexane (Liquid mixture 1); method: Titration method
Temperature, K	Mole fraction of perfluorohexane	uncertainty
273.15	.9895	.0002
298.15	.9771	.0045

System: acetonitrile + perfluorohexane; phases: Liquid mixture 2, Liquid mixture 1
Fixed: Pressure, kPa = 100
Property: Mole fraction of perfluorohexane (Liquid mixture 2); method: Titration method
Temperature, K	Mole fraction of perfluorohexane	uncertainty
273.15	.0007	.0001
298.15	.0021	.0002

System: ethyl ethanoate + perfluorohexane; phases: Liquid mixture 1, Liquid mixture 2
Fixed: Pressure, kPa = 100
Property: Mole fraction of perfluorohexane (Liquid mixture 1); method: Titration method
Temperature, K	Mole fraction of perfluorohexane	uncertainty
273.15	.9159	.0006
298.15	.8496	.0005

System: ethyl ethanoate + perfluorohexane; phases: Liquid mixture 2, Liquid mixture 1
Fixed: Pressure, kPa = 100
Property: Mole fraction of perfluorohexane (Liquid mixture 2); method: Titration method
Temperature, K	Mole fraction of perfluorohexane	uncertainty
273.15	.0095	.0001
298.15	.0209	.0003

System: hexane + 1,1,2,2,3,3,3-heptafluoro-N,N-bis(heptafluoropropyl)-1-propanamine; phases: Liquid mixture 1, Liquid mixture 2
Fixed: Pressure, kPa = 100
Property: Mole fraction of 1,1,2,2,3,3,3-heptafluoro-N,N-bis(heptafluoropropyl)-1-propanamine (Liquid mixture 1); method: Titration method
Temperature, K	Mole fraction of 1,1,2,2,3,3,3-heptafluoro-N,N-bis(heptafluoropropyl)-1-propanamine	uncertainty
273.15	.8316	.0006
298.15	.7191	.0025

System: hexane + 1,1,2,2,3,3,3-heptafluoro-N,N-bis(heptafluoropropyl)-1-propanamine; phases: Liquid mixture 2, Liquid mixture 1
Fixed: Pressure, kPa = 100
Property: Mole fraction of 1,1,2,2,3,3,3-heptafluoro-N,N-bis(heptafluoropropyl)-1-propanamine (Liquid mixture 2); method: Titration method
Temperature, K	Mole fraction of 1,1,2,2,3,3,3-heptafluoro-N,N-bis(heptafluoropropyl)-1-propanamine	uncertainty
273.15	.02	.0002
298.15	.0524	.0001

System: octane + 1,1,2,2,3,3,3-heptafluoro-N,N-bis(heptafluoropropyl)-1-propanamine; phases: Liquid mixture 1, Liquid mixture 2
Fixed: Pressure, kPa = 100
Property: Mole fraction of 1,1,2,2,3,3,3-heptafluoro-N,N-bis(heptafluoropropyl)-1-propanamine (Liquid mixture 1); method: Titration method
Temperature, K	Mole fraction of 1,1,2,2,3,3,3-heptafluoro-N,N-bis(heptafluoropropyl)-1-propanamine	uncertainty
298.15	.9073	.0003
313.15	.8853	.0003

System: octane + 1,1,2,2,3,3,3-heptafluoro-N,N-bis(heptafluoropropyl)-1-propanamine; phases: Liquid mixture 2, Liquid mixture 1
Fixed: Pressure, kPa = 100
Property: Mole fraction of 1,1,2,2,3,3,3-heptafluoro-N,N-bis(heptafluoropropyl)-1-propanamine (Liquid mixture 2); method: Titration method
Temperature, K	Mole fraction of 1,1,2,2,3,3,3-heptafluoro-N,N-bis(heptafluoropropyl)-1-propanamine	uncertainty
298.15	.0188	.0001
313.15	.0269	.0002

System: hexane + 1,1,2,2,3,3,3-heptafluoro-N,N-bis(heptafluoropropyl)-1-propanamine + 1,1,1,2,2,3,4,5,5,5-decafluoro-3-methosy-4-(trifluoromethyl)-pentane; phases: Liquid mixture 2, Liquid mixture 1
Fixed: Pressure, kPa = 100
Property: Mole fraction of 1,1,1,2,2,3,4,5,5,5-decafluoro-3-methosy-4-(trifluoromethyl)-pentane (Liquid mixture 2); method: Chromatography
Property: Mole fraction of 1,1,2,2,3,3,3-heptafluoro-N,N-bis(heptafluoropropyl)-1-propanamine (Liquid mixture 1); method: Chromatography
Property: Mole fraction of 1,1,1,2,2,3,4,5,5,5-decafluoro-3-methosy-4-(trifluoromethyl)-pentane (Liquid mixture 1); method: Chromatography
Temperature, K	Mole fraction of 1,1,2,2,3,3,3-heptafluoro-N,N-bis(heptafluoropropyl)-1-propanamine	Mole fraction of 1,1,1,2,2,3,4,5,5,5-decafluoro-3-methosy-4-(trifluoromethyl)-pentane	uncertainty	Mole fraction of 1,1,2,2,3,3,3-heptafluoro-N,N-bis(heptafluoropropyl)-1-propanamine	uncertainty	Mole fraction of 1,1,1,2,2,3,4,5,5,5-decafluoro-3-methosy-4-(trifluoromethyl)-pentane	uncertainty
298.15	.6578	.0354	.0029	.0554	.0038	.0083	.0032
273.15	.2647	.3734	.0029	.0278	.0038	.0893	.0032
273.15	.2082	.3877	.0029	.0302	.0038	.1117	.0032
298.15	.6176	.0574	.0029	.0574	.0038	.0144	.0032
298.15	.5739	.0808	.0029	.0613	.0038	.0218	.0032
298.15	.5256	.1058	.0029	.065	.0038	.0308	.0032
298.15	.4902	.1218	.0029	.0684	.0038	.038	.0032
298.15	.4485	.1402	.0029	.0748	.0038	.0481	.0032
298.15	.4038	.1512	.0029	.0828	.0038	.0576	.0032
298.15	.362	.1582	.0029	.0916	.0038	.0687	.0032
298.15	.2991	.1565	.0029	.1154	.0038	.0884	.0032
273.15	.6675	.1284	.0029	.0207	.0038	.0173	.0032
273.15	.5657	.2022	.0029	.0222	.0038	.0299	.0032
273.15	.527	.2299	.0029	.0228	.0038	.0355	.0032
273.15	.4738	.2667	.0029	.0234	.0038	.0436	.0032
273.15	.4138	.3031	.0029	.0245	.0038	.0537	.0032
273.15	.3608	.3312	.0029	.0253	.0038	.0639	.0032
273.15	.3214	.3501	.0029	.0261	.0038	.0725	.0032

System: octane + 1,1,2,2,3,3,3-heptafluoro-N,N-bis(heptafluoropropyl)-1-propanamine + 1,1,1,2,2,3,4,5,5,5-decafluoro-3-methosy-4-(trifluoromethyl)-pentane; phases: Liquid mixture 2, Liquid mixture 1
Fixed: Pressure, kPa = 100
Property: Mole fraction of 1,1,2,2,3,3,3-heptafluoro-N,N-bis(heptafluoropropyl)-1-propanamine (Liquid mixture 2); method: Chromatography
Property: Mole fraction of 1,1,1,2,2,3,4,5,5,5-decafluoro-3-methosy-4-(trifluoromethyl)-pentane (Liquid mixture 1); method: Chromatography
Property: Mole fraction of 1,1,2,2,3,3,3-heptafluoro-N,N-bis(heptafluoropropyl)-1-propanamine (Liquid mixture 1); method: Chromatography
Temperature, K	Mole fraction of 1,1,1,2,2,3,4,5,5,5-decafluoro-3-methosy-4-(trifluoromethyl)-pentane	Mole fraction of 1,1,2,2,3,3,3-heptafluoro-N,N-bis(heptafluoropropyl)-1-propanamine	uncertainty	Mole fraction of 1,1,1,2,2,3,4,5,5,5-decafluoro-3-methosy-4-(trifluoromethyl)-pentane	uncertainty	Mole fraction of 1,1,2,2,3,3,3-heptafluoro-N,N-bis(heptafluoropropyl)-1-propanamine	uncertainty
298.15	.0305	.8694	.0037	.0037	.0005	.0197	.0005
298.15	.433	.2791	.0037	.1071	.0005	.0313	.0005
313.15	.0397	.834	.0037	.0062	.0005	.0323	.0005
313.15	.0922	.7647	.0037	.0151	.0005	.0318	.0005
313.15	.1387	.6977	.0037	.0248	.0005	.0361	.0005
313.15	.2	.6111	.0037	.0378	.0005	.0364	.0005
313.15	.2383	.5539	.0037	.0501	.0005	.0428	.0005
313.15	.2821	.4825	.0037	.0643	.0005	.0445	.0005
313.15	.3155	.4337	.0037	.0799	.0005	.0492	.0005
313.15	.3511	.3141	.0037	.1231	.0005	.0618	.0005
313.15	.1761	.6454	.0037	.0337	.0005	.0392	.0005
298.15	.1115	.7718	.0037	.0144	.0005	.0218	.0005
298.15	.1676	.6977	.0037	.0228	.0005	.0227	.0005
298.15	.217	.6342	.0037	.0313	.0005	.0237	.0005
298.15	.2814	.5445	.0037	.0435	.0005	.0244	.0005
298.15	.3311	.4756	.0037	.0552	.0005	.0253	.0005
298.15	.3777	.4004	.0037	.0708	.0005	.0271	.0005
298.15	.4049	.3431	.0037	.0857	.0005	.0291	.0005

System: acetonitrile + perfluorohexane + 1-methoxy-nonafluorobutane; phases: Liquid mixture 2, Liquid mixture 1
Fixed: Pressure, kPa = 101
Property: Mole fraction of 1-methoxy-nonafluorobutane (Liquid mixture 2); method: Chromatography
Property: Mole fraction of 1-methoxy-nonafluorobutane (Liquid mixture 1); method: Chromatography
Property: Mole fraction of perfluorohexane (Liquid mixture 1); method: Chromatography
Temperature, K	Mole fraction of perfluorohexane	Mole fraction of 1-methoxy-nonafluorobutane	uncertainty	Mole fraction of 1-methoxy-nonafluorobutane	uncertainty	Mole fraction of perfluorohexane	uncertainty
298.15	.8598	.1032	.0037	.0107	.0031	.0018	.0004
273.15	.7645	.1948	.0037	.0146	.0031	.001	.0004
273.15	.6603	.2811	.0037	.0224	.0031	.0017	.0004
273.15	.5882	.3351	.0037	.0279	.0031	.0019	.0004
273.15	.5072	.3917	.0037	.0345	.0031	.0023	.0004
273.15	.447	.431	.0037	.0396	.0031	.0023	.0004
273.15	.3838	.4631	.0037	.044	.0031	.0022	.0004
273.15	.3012	.5039	.0037	.0529	.0031	.0021	.0004
273.15	.227	.5267	.0037	.0648	.0031	.0023	.0004
273.15	.1625	.5308	.0037	.0773	.0031	.0025	.0004
298.15	.7296	.2073	.0037	.0234	.0031	.0025	.0004
298.15	.6681	.2522	.0037	.0302	.0031	.0029	.0004
298.15	.6105	.29	.0037	.0361	.0031	.0032	.0004
298.15	.5588	.3224	.0037	.0417	.0031	.0036	.0004
298.15	.5046	.3544	.0037	.0497	.0031	.0042	.0004
298.15	.4168	.3974	.0037	.0619	.0031	.0054	.0004
298.15	.3357	.4278	.0037	.0766	.0031	.0061	.0004
298.15	.2307	.4421	.0037	.107	.0031	.0084	.0004

System: ethyl ethanoate + perfluorohexane + 1-methoxy-nonafluorobutane; phases: Liquid mixture 2, Liquid mixture 1
Fixed: Pressure, kPa = 101
Property: Mole fraction of 1-methoxy-nonafluorobutane (Liquid mixture 2); method: Chromatography
Property: Mole fraction of perfluorohexane (Liquid mixture 1); method: Chromatography
Property: Mole fraction of 1-methoxy-nonafluorobutane (Liquid mixture 1); method: Chromatography
Temperature, K	Mole fraction of perfluorohexane	Mole fraction of 1-methoxy-nonafluorobutane	uncertainty	Mole fraction of perfluorohexane	uncertainty	Mole fraction of 1-methoxy-nonafluorobutane	uncertainty
298.15	.8052	.0206	.0025	.0249	.0018	.0083	.0008
273.15	.8249	.0549	.0025	.0161	.0018	.0241	.0008
273.15	.7701	.0865	.0025	.0223	.0018	.0411	.0008
273.15	.718	.1146	.0025	.028	.0018	.0585	.0008
273.15	.6619	.1407	.0025	.0355	.0018	.0774	.0008
273.15	.6138	.1621	.0025	.0433	.0018	.0945	.0008
273.15	.5457	.1842	.0025	.0582	.0018	.1179	.0008
273.15	.5017	.1968	.0025	.0707	.0018	.1338	.0008
273.15	.4502	.2084	.0025	.0938	.0018	.1535	.0008
273.15	.3887	.2113	.0025	.1182	.0018	.1705	.0008
298.15	.7569	.0461	.0025	.0332	.0018	.0224	.0008
298.15	.7271	.0597	.0025	.0378	.0018	.0306	.0008
298.15	.6818	.0792	.0025	.0449	.0018	.0427	.0008
298.15	.6428	.0954	.0025	.055	.0018	.0552	.0008
298.15	.5953	.112	.0025	.0672	.0018	.0704	.0008
298.15	.5217	.1332	.0025	.0917	.0018	.0933	.0008
298.15	.5659	.1219	.0025	.0736	.0018	.0789	.0008
298.15	.445	.15	.0025	.1378	.0018	.1196	.0008
