Measured thermophysical data. Influence of Urea on Shifting Hydrophilic to Hydrophobic Interactions of Pr(NO3)3, Sm(NO3)3, and Gd(NO3)3 with BSA in Aqueous Citric Acid: A Volumetric, Viscometric, and Surface Tension Study
Source: J. Chem. Eng. Data, 2014, 10.1021/je5005388
Compound 1: samarium(III) nitrate, N3O9Sm, purity 99.9%
Compound 2: praseodymium nitrate, N3O9Pr, purity 99.9%
Compound 3: gadolinium nitrate, GdN3O9, purity 99.9%
Compound 4: water, H2O, purity 99%
Compound 5: citric acid, C6H8O7, purity 99.5%

System: citric acid + water + praseodymium nitrate; phases: Liquid
Fixed: Temperature, K = 298.15
Fixed: Pressure, kPa = 100
Fixed: Solvent: Molality, mol/kg of citric acid = 1.1
Property: Mass density, kg/m3 (Liquid); method: Vibrating tube method
Molality, mol/kg of praseodymium nitrate	Mass density, kg/m3	uncertainty
0	1073.218	.016
.0231	1079.277	.016
.0469	1086.165	.016
.0707	1092.968	.016
.0946	1099.663	.016
.1187	1106.158	.016
.1431	1112.498	.016

System: citric acid + water + praseodymium nitrate; phases: Liquid
Fixed: Pressure, kPa = 100
Fixed: Temperature, K = 298.15
Fixed: Solvent: Molality, mol/kg of citric acid = 1.1
Property: Viscosity, Pa*s (Liquid); method: Capillary tube (Ostwald; Ubbelohde) method
Molality, mol/kg of praseodymium nitrate	Viscosity, Pa*s	uncertainty
0	.0014173	.0000026
.0231	.0014385	.0000026
.0469	.0014638	.0000026
.0707	.0014839	.0000026
.0946	.001504	.0000026
.1187	.0015323	.0000026
.1431	.0015518	.0000026

System: citric acid + water + praseodymium nitrate; phases: Liquid, Gas
Fixed: Solvent: Molality, mol/kg of citric acid = 1.1
Fixed: Temperature, K = 298.15
Property: Surface tension liquid-gas, N/m (Liquid); method: Pendant drop shape
Molality, mol/kg of praseodymium nitrate	Surface tension liquid-gas, N/m	uncertainty
0	.06722	.00038
.0231	.06694	.00038
.0469	.06704	.00038
.0707	.06714	.00038
.0946	.06723	.00038
.1187	.0673	.00038
.1431	.06737	.00038

System: citric acid + water + samarium(III) nitrate; phases: Liquid
Fixed: Temperature, K = 298.15
Fixed: Pressure, kPa = 100
Fixed: Solvent: Molality, mol/kg of citric acid = 1.1
Property: Mass density, kg/m3 (Liquid); method: Vibrating tube method
Molality, mol/kg of samarium(III) nitrate	Mass density, kg/m3	uncertainty
.0236	1079.336	.016
.0471	1086.23	.016
.071	1092.999	.016
.0947	1099.691	.016
.1189	1106.183	.016
.1433	1112.595	.016

System: citric acid + water + samarium(III) nitrate; phases: Liquid
Fixed: Pressure, kPa = 100
Fixed: Temperature, K = 298.15
Fixed: Solvent: Molality, mol/kg of citric acid = 1.1
Property: Viscosity, Pa*s (Liquid); method: Capillary tube (Ostwald; Ubbelohde) method
Molality, mol/kg of samarium(III) nitrate	Viscosity, Pa*s	uncertainty
.0236	.0014405	.0000026
.0471	.0014632	.0000026
.071	.0014862	.0000026
.0947	.0015091	.0000026
.1189	.0015321	.0000026
.1433	.0015554	.0000026

System: citric acid + water + samarium(III) nitrate; phases: Liquid, Gas
Fixed: Solvent: Molality, mol/kg of citric acid = 1.1
Fixed: Temperature, K = 298.15
Property: Surface tension liquid-gas, N/m (Liquid); method: Pendant drop shape
Molality, mol/kg of samarium(III) nitrate	Surface tension liquid-gas, N/m	uncertainty
.0236	.06695	.00038
.0471	.06705	.00038
.071	.06715	.00038
.0947	.06723	.00038
.1189	.06731	.00038
.1433	.06738	.00038

System: citric acid + water + gadolinium nitrate; phases: Liquid
Fixed: Temperature, K = 298.15
Fixed: Pressure, kPa = 100
Fixed: Solvent: Molality, mol/kg of citric acid = 1.1
Property: Mass density, kg/m3 (Liquid); method: Vibrating tube method
Molality, mol/kg of gadolinium nitrate	Mass density, kg/m3	uncertainty
.0237	1079.467	.016
.0472	1086.481	.016
.0707	1093.378	.016
.0945	1100.054	.016
.1185	1106.574	.016
.1434	1113.194	.016

System: citric acid + water + gadolinium nitrate; phases: Liquid
Fixed: Temperature, K = 298.15
Fixed: Pressure, kPa = 100
Fixed: Solvent: Molality, mol/kg of citric acid = 1.1
Property: Viscosity, Pa*s (Liquid); method: Capillary tube (Ostwald; Ubbelohde) method
Molality, mol/kg of gadolinium nitrate	Viscosity, Pa*s	uncertainty
.0237	.0014414	.0000026
.0472	.0014645	.0000026
.0707	.0014878	.0000026
.0945	.0015108	.0000026
.1185	.0015342	.0000026
.1434	.0015584	.0000026

System: citric acid + water + gadolinium nitrate; phases: Liquid, Gas
Fixed: Solvent: Molality, mol/kg of citric acid = 1.1
Fixed: Temperature, K = 298.15
Property: Surface tension liquid-gas, N/m (Liquid); method: Pendant drop shape
Molality, mol/kg of gadolinium nitrate	Surface tension liquid-gas, N/m	uncertainty
.0237	.06696	.00038
.0472	.06707	.00038
.0707	.06716	.00038
.0945	.06725	.00038
.1185	.06734	.00038
.1434	.06741	.00038
