Measured thermophysical data. Compressed Liquid Density Measurements for  1,1,1,2,3,3,3-Heptafluoropropane (R227ea)
Source: J. Chem. Eng. Data, 2007
Compound 1: 2H-perfluoropropane, C3HF7

System: 2H-perfluoropropane; phases: Liquid
Property: Mass density, kg/m3 (Liquid); method: Vibrating tube method
Temperature, K	Pressure, kPa	Mass density, kg/m3	uncertainty
283.15	34504	1578.9	.74
283.15	34506	1579	.74
283.15	34508	1579	.74
283.15	34509	1579	.74
283.15	34511	1579	.74
283.15	34513	1579.1	.74
283.15	34515	1579	.74
283.15	34516	1579.1	.74
283.15	34518	1579	.74
283.15	34519	1578.9	.74
283.15	34521	1579	.74
283.15	34523	1579.1	.74
283.15	34524	1579.1	.74
283.15	34526	1579.1	.74
283.15	34528	1579.1	.74
283.15	34529	1579	.74
283.15	34530	1579	.74
283.15	34532	1579.1	.74
283.15	34534	1579.1	.74
283.15	34536	1579	.74
283.15	34538	1579	.74
283.15	34540	1579.1	.74
283.15	34540	1579.1	.74
283.15	34541	1579.1	.74
283.15	34541	1579.1	.74
283.15	34540	1579.1	.74
283.15	34538	1579.1	.74
283.15	34536	1579	.74
283.15	34535	1579.2	.74
283.15	34533	1579	.74
283.15	34530	1579	.74
283.15	34529	1579	.74
283.15	34528	1579.1	.74
283.15	34527	1579	.74
283.15	34526	1579.1	.74
283.15	34525	1579	.74
283.15	34525	1578.9	.74
283.15	34524	1579	.74
283.15	34523	1579	.74
283.15	34521	1579	.74
283.15	34520	1578.9	.74
283.15	34519	1579	.74
283.15	34519	1579.1	.74
283.15	34519	1579	.74
283.15	34519	1578.9	.74
283.15	34519	1579	.74
283.15	34519	1579	.74
283.15	34520	1579.1	.74
283.15	34521	1579	.74
283.15	34521	1578.9	.74
283.15	34522	1579	.74
283.15	34523	1579.1	.74
283.15	34517	1579	.74
283.15	34511	1579	.74
283.15	34511	1579.2	.74
283.15	34512	1579	.74
283.15	34512	1579.1	.74
283.15	34512	1579	.74
283.15	34512	1579	.74
283.15	34513	1579.1	.74
283.15	34514	1579.2	.74
283.15	34515	1579	.74
283.15	34515	1578.9	.74
283.15	34511	1579	.74
283.15	34505	1578.9	.74
283.15	34498	1579	.74
283.15	34492	1579.1	.74
283.15	34486	1578.9	.74
283.15	34478	1578.9	.74
283.15	34470	1578.8	.74
283.15	34456	1578.8	.74
283.15	34442	1578.8	.74
283.15	34414	1578.7	.74
283.15	34387	1578.6	.74
283.15	34350	1578.6	.74
283.15	34310	1578.5	.74
283.15	34267	1578.2	.74
283.15	34224	1578.1	.74
283.15	34186	1578.2	.74
283.15	34148	1577.9	.74
283.15	34110	1577.9	.74
283.15	34068	1577.8	.74
283.15	34026	1577.7	.74
283.15	33984	1577.6	.74
283.15	33948	1577.5	.74
283.15	33910	1577.4	.74
283.15	33873	1577.3	.74
283.15	33830	1577.3	.74
283.15	33793	1577.1	.74
283.15	33762	1576.9	.74
283.15	33731	1576.9	.74
283.15	33688	1576.8	.74
283.15	33661	1576.7	.74
283.15	33609	1576.6	.74
283.15	33572	1576.5	.74
283.15	33535	1576.4	.74
283.15	33499	1576.3	.74
283.15	33457	1576.2	.74
283.15	33426	1576	.74
283.15	33384	1576	.74
283.15	33348	1575.9	.74
283.14	33312	1575.9	.74
283.15	33280	1575.7	.74
283.14	33237	1575.7	.74
283.14	33205	1575.6	.74
283.14	33158	1575.5	.74
283.14	33128	1575.4	.74
283.14	33098	1575.1	.74
283.14	33051	1575.2	.74
283.14	33019	1575.2	.74
283.14	32986	1574.9	.74
283.15	32959	1574.9	.74
283.15	32921	1574.8	.74
283.15	32884	1574.5	.74
283.14	32841	1574.7	.74
283.14	32793	1574.4	.74
283.14	32761	1574.4	.74
283.14	32724	1574.4	.74
283.14	32687	1574.2	.74
283.14	32651	1574	.74
283.14	32618	1574	.74
283.14	32585	1573.8	.74
283.14	32546	1573.8	.74
283.14	32513	1573.7	.74
283.14	32476	1573.6	.74
283.14	32439	1573.5	.74
283.15	32391	1573.4	.74
283.14	32360	1573.2	.74
283.14	32317	1573.1	.74
283.14	32276	1573	.74
283.14	32239	1573	.74
283.14	32196	1572.9	.74
283.15	32164	1572.9	.74
283.15	32132	1572.7	.74
283.15	32095	1572.5	.74
283.14	32053	1572.5	.74
283.15	32027	1572.4	.74
283.14	31990	1572.3	.74
283.14	31954	1572.2	.74
283.14	31923	1572.2	.74
283.15	31897	1572	.74
283.15	31855	1571.9	.74
283.15	31819	1571.7	.74
283.15	31782	1571.7	.74
283.15	31750	1571.7	.74
283.15	31697	1571.5	.74
283.15	31657	1571.3	.74
283.15	31620	1571.3	.74
283.15	31588	1571.2	.74
283.15	31547	1571.1	.74
283.15	31511	1570.9	.74
283.14	31470	1570.9	.74
283.15	31429	1570.7	.74
283.15	31392	1570.6	.74
283.15	31350	1570.6	.74
283.15	31308	1570.4	.74
283.15	31267	1570.2	.74
283.15	31230	1570.2	.74
283.15	31187	1570	.74
283.15	31140	1569.9	.74
283.15	31105	1569.9	.74
283.15	31065	1569.7	.74
283.15	31030	1569.6	.74
283.15	30999	1569.5	.74
283.15	30968	1569.5	.74
283.15	30937	1569.4	.74
283.15	30897	1569.2	.74
283.15	30861	1569.2	.74
283.15	30830	1569.1	.74
283.15	30783	1569	.74
283.15	30743	1568.9	.74
283.15	30696	1568.7	.74
283.15	30666	1568.6	.74
283.15	30635	1568.6	.74
283.15	30595	1568.5	.74
283.15	30560	1568.3	.74
283.15	30529	1568.3	.74
283.15	30499	1568.2	.74
283.15	30460	1567.9	.74
283.15	30425	1567.9	.74
283.15	30390	1567.7	.74
283.15	30361	1567.8	.74
283.15	30323	1567.7	.74
283.15	30288	1567.5	.74
283.15	30259	1567.4	.74
283.15	30219	1567.5	.74
283.15	30190	1567.4	.74
283.15	30151	1567.2	.74
283.14	30122	1567.2	.74
283.15	30079	1567	.74
283.15	30050	1567	.74
283.15	30021	1566.8	.74
283.15	29974	1566.7	.74
283.15	29944	1566.6	.74
283.15	29911	1566.5	.74
283.15	29877	1566.5	.74
283.15	29853	1566.4	.74
283.15	29814	1566.3	.74
283.15	29784	1566.2	.74
283.15	29745	1566.1	.74
283.15	29712	1565.9	.74
283.15	29684	1565.9	.74
283.15	29646	1565.8	.74
283.15	29617	1565.6	.74
283.15	29578	1565.7	.74
283.14	29534	1565.4	.74
283.14	29500	1565.3	.74
283.15	29452	1565.2	.74
283.15	29424	1565.2	.74
283.14	29391	1565	.74
283.15	29357	1565	.74
283.14	29319	1564.9	.74
283.14	29291	1564.7	.74
283.14	29257	1564.7	.74
283.14	29223	1564.5	.74
283.14	29185	1564.4	.74
283.14	29155	1564.3	.74
283.14	29121	1564.3	.74
283.15	29088	1564.2	.74
283.14	29044	1564.1	.74
283.14	29016	1564.1	.74
283.14	28978	1564	.74
283.14	28942	1563.9	.74
283.14	28909	1563.6	.74
283.15	28875	1563.5	.74
283.15	28837	1563.6	.74
283.15	28795	1563.4	.74
283.15	28761	1563.3	.74
283.15	28727	1563.2	.74
283.15	28690	1563.1	.74
283.15	28657	1562.9	.74
283.15	28620	1562.8	.74
283.15	28591	1562.8	.74
283.15	28558	1562.7	.74
283.15	28514	1562.7	.74
283.15	28466	1562.5	.74
283.14	28437	1562.3	.74
283.14	28399	1562.2	.74
283.14	28371	1562	.74
283.14	28335	1562.1	.74
283.14	28306	1562.1	.74
283.14	28264	1561.8	.74
283.14	28230	1561.8	.74
283.14	28197	1561.7	.74
283.15	28168	1561.6	.74
283.15	28124	1561.5	.74
283.15	28091	1561.4	.74
283.15	28058	1561.1	.74
283.15	28024	1561.2	.74
283.15	27979	1561	.74
283.15	27940	1560.9	.74
283.15	27914	1560.8	.74
283.15	27880	1560.8	.74
283.15	27850	1560.7	.74
283.15	27816	1560.5	.74
283.14	27777	1560.4	.74
283.15	27743	1560.2	.74
283.15	27710	1560.2	.74
283.15	27673	1560	.74
283.15	27629	1560	.74
283.15	27596	1559.8	.74
283.15	27563	1559.9	.74
283.15	27533	1559.8	.74
283.14	27495	1559.6	.74
283.14	27466	1559.4	.74
283.14	27418	1559.4	.74
283.14	27389	1559.3	.74
283.14	27346	1559.3	.74
283.14	27304	1559.1	.74
283.15	27271	1558.9	.74
283.15	27228	1558.8	.74
283.15	27199	1558.8	.74
283.15	27170	1558.7	.74
283.15	27131	1558.5	.74
283.15	27082	1558.3	.74
283.15	27058	1558.3	.74
283.15	27029	1558.2	.74
283.15	27001	1558.1	.74
283.15	26968	1558.1	.74
283.15	26921	1557.9	.74
283.15	26886	1557.8	.74
283.14	26847	1557.6	.74
283.15	26796	1557.5	.74
283.15	26757	1557.3	.74
283.15	26723	1557.3	.74
283.15	26683	1557.3	.74
283.15	26650	1557.1	.74
283.15	26599	1557	.74
283.15	26559	1556.8	.74
283.15	26519	1556.7	.74
283.15	26479	1556.8	.74
283.15	26446	1556.3	.74
283.15	26406	1556.2	.74
283.15	26367	1556.3	.74
283.15	26327	1556.3	.74
283.15	26283	1556	.74
283.15	26249	1555.9	.74
283.15	26191	1555.8	.74
283.15	26152	1555.7	.74
283.15	26113	1555.4	.74
283.15	26068	1555.4	.74
283.15	26030	1555.3	.74
283.15	25993	1555.1	.74
283.15	25945	1555.1	.74
283.14	25913	1554.9	.74
283.15	25865	1554.8	.74
283.14	25832	1554.7	.74
283.14	25800	1554.6	.74
283.14	25766	1554.5	.74
283.15	25722	1554.3	.74
283.14	25673	1554.3	.74
283.15	25630	1554.1	.74
283.15	25593	1553.9	.74
283.14	25550	1553.9	.74
283.15	25508	1553.7	.74
283.14	25476	1553.6	.74
283.14	25434	1553.5	.74
283.14	25402	1553.3	.74
283.14	25365	1553.4	.74
283.14	25327	1553.2	.74
283.14	25282	1552.9	.74
283.14	25250	1553	.74
283.14	25209	1552.7	.74
283.14	25173	1552.8	.74
283.14	25136	1552.5	.74
283.14	25104	1552.3	.74
283.15	25072	1552.4	.74
283.15	25031	1552.2	.74
283.15	24990	1552.1	.74
283.15	24950	1552	.74
283.15	24920	1551.9	.74
283.15	24869	1551.8	.74
283.15	24838	1551.8	.74
283.15	24807	1551.5	.74
283.15	24761	1551.4	.74
283.15	24731	1551.2	.74
283.15	24695	1551.2	.74
283.15	24649	1551	.74
283.15	24608	1550.8	.74
283.14	24572	1550.8	.74
283.14	24532	1550.8	.74
283.14	24490	1550.5	.74
283.14	24459	1550.4	.74
283.14	24422	1550.4	.74
283.14	24387	1550.2	.74
283.14	24350	1550.1	.74
283.15	24309	1550.1	.74
283.15	24269	1549.9	.74
283.15	24228	1549.8	.74
283.15	24192	1549.5	.74
283.15	24146	1549.5	.74
283.15	24099	1549.4	.74
283.15	24059	1549.2	.74
283.14	24017	1549.2	.74
283.14	23985	1548.9	.74
283.14	23944	1548.9	.74
283.14	23896	1548.7	.74
283.14	23869	1548.8	.74
283.14	23828	1548.6	.74
283.15	23792	1548.5	.74
283.15	23750	1548.3	.74
283.14	23709	1548.1	.74
283.15	23678	1548	.74
283.14	23638	1548	.74
283.14	23603	1547.8	.74
283.14	23562	1547.6	.74
283.14	23531	1547.5	.74
283.14	23496	1547.4	.74
283.14	23454	1547.3	.74
283.15	23418	1547.2	.74
283.15	23378	1547.1	.74
283.15	23342	1546.9	.74
283.15	23311	1546.9	.74
283.15	23275	1546.8	.74
283.15	23230	1546.7	.74
283.15	23178	1546.5	.74
283.15	23131	1546.2	.74
283.14	23096	1546.2	.74
283.15	23050	1545.9	.74
283.14	23014	1546	.74
283.15	22974	1545.8	.74
283.14	22939	1545.7	.74
283.14	22904	1545.6	.74
283.15	22864	1545.6	.74
283.15	22829	1545.3	.74
283.15	22782	1545.2	.74
283.15	22747	1545.1	.74
283.15	22710	1545.1	.74
283.14	22675	1545	.74
283.14	22639	1544.7	.74
283.14	22609	1544.6	.74
283.15	22579	1544.6	.74
283.15	22539	1544.5	.74
283.14	22509	1544.4	.74
283.15	22459	1544.1	.74
283.15	22424	1544	.74
283.15	22379	1543.9	.74
283.15	22349	1543.9	.74
283.15	22302	1543.7	.74
283.15	22261	1543.6	.74
283.15	22231	1543.5	.74
283.15	22190	1543.1	.74
283.15	22145	1543.2	.74
283.15	22115	1543.2	.74
283.15	22080	1543.1	.74
283.15	22041	1542.8	.74
283.15	22011	1542.7	.74
283.15	21972	1542.7	.74
283.15	21936	1542.5	.74
283.15	21901	1542.3	.74
283.15	21870	1542.3	.74
283.15	21834	1542.2	.74
283.15	21784	1542	.74
283.15	21753	1541.9	.74
283.15	21709	1541.6	.74
283.15	21684	1541.6	.74
283.15	21645	1541.5	.74
283.15	21610	1541.4	.74
283.15	21571	1541.3	.74
283.15	21541	1541.2	.74
283.15	21503	1541.2	.74
283.15	21453	1540.9	.74
283.15	21418	1540.9	.74
283.16	21379	1540.8	.74
283.15	21350	1540.7	.74
283.15	21310	1540.4	.74
283.15	21281	1540.4	.74
283.15	21242	1540.3	.74
283.15	21208	1540.1	.74
283.15	21172	1539.9	.74
283.15	21129	1539.8	.74
283.15	21099	1539.7	.74
283.15	21058	1539.4	.74
283.15	21029	1539.6	.74
283.15	20991	1539.4	.74
283.15	20961	1539.3	.74
283.15	20918	1539.3	.74
283.15	20879	1539.1	.74
283.15	20840	1538.9	.74
283.15	20810	1538.7	.74
283.15	20776	1538.6	.74
283.15	20746	1538.6	.74
283.15	20709	1538.4	.74
283.15	20671	1538.4	.74
283.15	20635	1538.2	.74
283.15	20605	1538.1	.74
283.15	20566	1538	.74
283.15	20536	1538	.74
283.15	20492	1537.8	.74
283.14	20453	1537.6	.74
283.14	20424	1537.4	.74
283.15	20396	1537.4	.74
283.14	20372	1537.3	.74
283.15	20333	1537.1	.74
283.15	20300	1537.1	.74
283.15	20257	1536.9	.74
283.15	20218	1536.8	.74
283.14	20175	1536.7	.74
283.14	20142	1536.6	.74
283.14	20104	1536.4	.74
283.14	20075	1536.4	.74
283.15	20033	1536.1	.74
283.15	20004	1536	.74
283.15	19977	1536.1	.74
283.15	19949	1535.8	.74
283.15	19911	1535.8	.74
283.15	19878	1535.6	.74
283.15	19854	1535.6	.74
283.15	19809	1535.4	.74
283.15	19785	1535.4	.74
283.15	19739	1535.3	.74
283.15	19706	1535.1	.74
283.15	19673	1535	.74
283.15	19640	1534.9	.74
283.15	19602	1534.7	.74
283.15	19574	1534.6	.74
283.15	19536	1534.5	.74
283.15	19508	1534.3	.74
283.15	19479	1534.3	.74
283.15	19435	1534.2	.74
283.14	19406	1534.1	.74
283.14	19373	1534	.74
283.14	19337	1533.9	.74
283.14	19309	1533.7	.74
283.14	19277	1533.6	.74
283.14	19240	1533.5	.74
283.14	19213	1533.4	.74
283.14	19177	1533.3	.74
283.14	19150	1533.1	.74
283.14	19118	1533.1	.74
283.14	19087	1533	.74
283.14	19042	1532.7	.74
283.14	19007	1532.6	.74
283.14	18973	1532.7	.74
283.14	18933	1532.4	.74
283.14	18911	1532.4	.74
283.14	18862	1532.3	.74
283.14	18821	1532	.74
283.14	18793	1531.9	.74
283.14	18754	1531.8	.74
283.14	18719	1531.7	.74
283.14	18675	1531.4	.74
283.14	18645	1531.6	.74
283.14	18616	1531.3	.74
283.15	18571	1531.1	.74
283.15	18526	1531.1	.74
283.15	18487	1530.8	.74
283.15	18457	1530.8	.74
283.15	18418	1530.6	.74
283.14	18389	1530.5	.74
283.15	18341	1530.5	.74
283.14	18312	1530.2	.74
283.14	18274	1530	.74
283.14	18233	1530	.74
283.14	18194	1529.9	.74
283.14	18164	1529.7	.74
283.14	18129	1529.6	.74
283.14	18090	1529.5	.74
283.14	18060	1529.4	.74
283.14	18006	1529.3	.74
283.14	17961	1529	.74
283.14	17922	1529	.74
283.14	17893	1528.8	.74
283.14	17850	1528.6	.74
283.14	17820	1528.6	.74
283.14	17786	1528.5	.74
283.14	17758	1528.4	.74
283.14	17729	1528.3	.74
283.14	17691	1528.1	.74
283.14	17656	1528.1	.74
283.14	17622	1527.9	.74
283.15	17593	1527.7	.74
283.15	17545	1527.7	.74
283.15	17515	1527.4	.74
283.15	17481	1527.3	.74
283.15	17447	1527.3	.74
283.14	17413	1527.2	.74
283.14	17370	1527	.74
283.14	17332	1526.8	.74
283.14	17304	1526.7	.74
283.14	17271	1526.5	.74
283.14	17248	1526.5	.74
283.14	17206	1526.4	.74
283.14	17173	1526.2	.74
283.14	17145	1526.1	.74
283.14	17116	1526	.74
283.14	17079	1525.9	.74
283.14	17055	1525.8	.74
283.14	17015	1525.7	.74
283.14	16967	1525.6	.74
283.14	16935	1525.3	.74
283.14	16892	1525.2	.74
283.14	16864	1525.1	.74
283.14	16836	1525	.74
283.14	16803	1525	.74
283.14	16776	1524.8	.74
283.14	16739	1524.6	.74
283.15	16711	1524.5	.74
283.15	16678	1524.6	.74
283.14	16649	1524.3	.74
283.15	16606	1524.3	.74
283.14	16574	1524.1	.74
283.14	16541	1523.9	.74
283.14	16499	1523.9	.74
283.14	16471	1523.7	.74
283.14	16433	1523.7	.74
283.14	16405	1523.5	.74
283.14	16372	1523.4	.74
283.14	16339	1523.3	.74
283.14	16306	1523.1	.74
283.14	16269	1522.9	.74
283.14	16235	1522.8	.74
283.14	16198	1522.7	.74
283.15	16175	1522.7	.74
283.15	16151	1522.5	.74
283.15	16114	1522.4	.74
283.15	16087	1522.4	.74
283.14	16054	1522.2	.74
283.14	16031	1522	.74
283.14	15994	1521.8	.74
283.14	15966	1521.9	.74
283.14	15929	1521.8	.74
283.14	15896	1521.5	.74
283.14	15867	1521.5	.74
283.14	15838	1521.3	.74
283.14	15811	1521.3	.74
283.14	15778	1521.3	.74
283.14	15750	1521.1	.74
283.15	15714	1521	.74
283.15	15673	1520.8	.74
283.15	15643	1520.7	.74
283.15	15607	1520.5	.74
283.15	15572	1520.5	.74
283.15	15536	1520.4	.74
283.15	15505	1520	.74
283.15	15474	1520	.74
283.15	15442	1519.9	.74
283.15	15400	1519.8	.74
283.15	15365	1519.5	.74
283.15	15328	1519.4	.74
283.15	15287	1519.4	.74
283.15	15256	1519.2	.74
283.15	15215	1519.2	.74
283.15	15184	1518.9	.74
283.15	15153	1518.8	.74
283.15	15117	1518.8	.74
283.15	15086	1518.5	.74
283.15	15045	1518.4	.74
283.15	14998	1518.3	.74
283.15	14957	1518.1	.74
283.15	14927	1517.9	.74
283.15	14886	1517.8	.74
283.15	14834	1517.7	.74
283.15	14799	1517.6	.74
283.15	14769	1517.4	.74
283.15	14739	1517.4	.74
283.15	14713	1517.2	.74
283.15	14673	1516.9	.74
283.15	14643	1516.8	.74
283.15	14612	1516.6	.74
283.14	14580	1516.6	.74
283.14	14534	1516.3	.74
283.14	14504	1516.4	.74
283.14	14464	1516.2	.74
283.14	14435	1516.1	.74
283.14	14406	1516.1	.74
283.14	14377	1515.8	.74
283.14	14343	1515.8	.74
283.14	14304	1515.6	.74
283.14	14261	1515.5	.74
283.14	14217	1515.2	.74
283.14	14187	1515.1	.74
283.14	14157	1515.1	.74
283.14	14121	1514.9	.74
283.14	14086	1514.9	.74
283.14	14057	1514.7	.74
283.14	14013	1514.5	.74
283.14	13983	1514.3	.74
283.14	13943	1514.1	.74
283.14	13913	1514.1	.74
283.14	13878	1513.9	.74
283.14	13848	1513.7	.74
283.14	13814	1513.7	.74
283.14	13783	1513.6	.74
283.14	13754	1513.5	.74
283.14	13707	1513.2	.74
283.14	13672	1513.2	.74
283.14	13629	1513	.74
283.14	13594	1512.8	.74
283.14	13550	1512.5	.74
283.14	13521	1512.6	.74
283.14	13483	1512.4	.74
283.14	13454	1512.2	.74
283.14	13417	1512.2	.74
283.14	13385	1512	.74
283.15	13353	1512	.74
283.14	13323	1511.8	.74
283.14	13290	1511.7	.74
283.15	13258	1511.5	.74
283.14	13235	1511.5	.74
283.14	13197	1511.2	.74
283.14	13165	1511.2	.74
283.14	13123	1511	.74
283.14	13090	1510.9	.74
283.14	13054	1510.9	.74
283.14	13027	1510.6	.74
283.14	12996	1510.6	.74
283.14	12955	1510.4	.74
283.14	12918	1510.3	.74
283.14	12892	1510.2	.74
283.14	12856	1510.1	.74
283.14	12816	1509.7	.74
283.15	12780	1509.7	.74
283.15	12748	1509.5	.74
283.15	12709	1509.4	.74
283.15	12677	1509.2	.74
283.15	12641	1509.1	.74
283.15	12608	1509	.74
283.15	12576	1508.7	.74
283.15	12544	1508.6	.74
283.15	12508	1508.5	.74
283.15	12476	1508.3	.74
283.15	12437	1508.3	.74
283.15	12405	1508.2	.74
283.15	12373	1508	.74
283.15	12342	1507.9	.74
283.15	12311	1507.7	.74
283.15	12281	1507.6	.74
283.15	12245	1507.6	.74
283.15	12214	1507.4	.74
283.15	12177	1507.2	.74
283.15	12149	1507.1	.74
283.15	12114	1507	.74
283.14	12082	1506.9	.74
283.14	12055	1506.7	.74
283.14	12020	1506.5	.74
283.14	11993	1506.4	.74
283.14	11958	1506.3	.74
283.14	11923	1506.3	.74
283.14	11901	1506.1	.74
283.14	11874	1506	.74
283.14	11844	1505.9	.74
283.14	11822	1505.7	.74
283.14	11791	1505.6	.74
283.14	11760	1505.6	.74
283.14	11725	1505.4	.74
283.14	11698	1505.4	.74
283.14	11663	1505	.74
283.14	11631	1505	.74
283.14	11601	1504.8	.74
283.14	11565	1504.7	.74
283.14	11538	1504.5	.74
283.14	11508	1504.4	.74
283.14	11478	1504.3	.74
283.14	11455	1504.2	.74
283.14	11414	1504.1	.74
283.14	11384	1503.9	.74
283.14	11358	1503.9	.74
283.14	11324	1503.9	.74
283.14	11289	1503.6	.74
283.14	11263	1503.4	.74
283.14	11232	1503.2	.74
283.14	11211	1503.2	.74
283.14	11176	1503.1	.74
283.14	11146	1503	.74
283.14	11124	1502.9	.74
283.14	11092	1502.7	.74
283.15	11055	1502.6	.74
283.15	11024	1502.5	.74
283.15	10981	1502.4	.74
283.15	10959	1502.2	.74
283.15	10925	1502.1	.74
283.15	10899	1502	.74
283.15	10868	1501.8	.74
283.15	10838	1501.7	.74
283.15	10816	1501.5	.74
283.15	10774	1501.4	.74
283.14	10744	1501.3	.74
283.14	10708	1501.2	.74
283.14	10678	1500.9	.74
283.14	10644	1500.8	.74
283.14	10618	1500.7	.74
283.15	10588	1500.6	.74
283.15	10559	1500.4	.74
283.15	10528	1500.3	.74
283.15	10488	1500.2	.74
283.15	10458	1500.1	.74
283.15	10424	1500.1	.74
283.15	10399	1499.7	.74
283.15	10370	1499.7	.74
283.15	10348	1499.7	.74
283.15	10314	1499.5	.74
283.15	10289	1499.3	.74
283.15	10254	1499.2	.74
283.15	10233	1499.2	.74
283.15	10198	1499	.74
283.15	10164	1498.8	.74
283.15	10139	1498.7	.74
283.15	10109	1498.5	.74
283.15	10080	1498.4	.74
283.15	10055	1498.3	.74
283.15	10009	1498.1	.74
283.15	9979	1498	.74
283.15	9941	1497.8	.74
283.15	9912	1497.8	.74
283.15	9875	1497.5	.74
283.15	9842	1497.5	.74
283.15	9809	1497.3	.74
283.15	9777	1497.2	.74
283.15	9754	1497	.74
283.15	9707	1496.9	.74
283.15	9679	1496.6	.74
283.15	9641	1496.6	.74
283.16	9612	1496.4	.74
283.16	9579	1496.3	.74
283.16	9552	1496.3	.74
283.16	9519	1496	.74
283.15	9483	1495.8	.74
283.15	9441	1495.7	.74
283.15	9403	1495.5	.74
283.15	9361	1495.3	.74
283.15	9330	1495.1	.74
283.15	9294	1495.1	.74
283.15	9266	1495	.74
283.15	9230	1494.7	.74
283.15	9194	1494.6	.74
283.15	9167	1494.5	.74
283.15	9140	1494.3	.74
283.15	9104	1494.2	.74
283.15	9068	1494	.74
283.15	9041	1493.9	.74
283.15	9000	1493.8	.74
283.15	8973	1493.5	.74
283.15	8936	1493.4	.74
283.15	8904	1493.4	.74
283.15	8868	1493.1	.74
283.15	8841	1492.9	.74
283.15	8808	1492.9	.74
283.15	8782	1492.8	.74
283.15	8755	1492.6	.74
283.15	8724	1492.5	.74
283.15	8702	1492.4	.74
283.15	8667	1492.3	.74
283.15	8641	1492.2	.74
283.15	8606	1492	.74
283.15	8576	1491.9	.74
283.15	8545	1491.6	.74
283.15	8520	1491.6	.74
283.15	8481	1491.5	.74
283.15	8453	1491.2	.74
283.15	8413	1491.1	.74
283.15	8383	1491.1	.74
283.15	8348	1490.8	.74
283.14	8322	1490.7	.74
283.14	8291	1490.6	.74
283.14	8257	1490.4	.74
283.14	8223	1490.2	.74
283.14	8197	1490	.74
283.14	8164	1490.1	.74
283.14	8138	1489.9	.74
283.14	8109	1489.6	.74
283.14	8079	1489.7	.74
283.14	8050	1489.5	.74
283.14	8025	1489.4	.74
283.14	7991	1489.2	.74
283.14	7965	1489	.74
283.14	7932	1488.9	.74
283.14	7906	1488.9	.74
283.14	7877	1488.7	.74
283.14	7851	1488.5	.74
283.14	7826	1488.4	.74
283.14	7796	1488.3	.74
283.14	7762	1488.1	.74
283.14	7731	1488	.74
283.14	7705	1487.9	.74
283.14	7680	1487.8	.74
283.14	7646	1487.8	.74
283.14	7625	1487.3	.74
283.14	7596	1487.1	.74
283.14	7568	1487.2	.74
283.14	7539	1487.1	.74
283.14	7512	1487.1	.74
283.14	7472	1486.7	.74
283.15	7443	1486.7	.74
283.15	7415	1486.5	.74
283.15	7385	1486.3	.74
283.15	7349	1486.2	.74
283.15	7325	1486.1	.74
283.15	7293	1485.9	.74
283.15	7266	1485.9	.74
283.15	7237	1485.7	.74
283.15	7209	1485.6	.74
283.15	7185	1485.5	.74
283.15	7154	1485.2	.74
283.15	7134	1485.2	.74
283.15	7107	1485	.74
283.15	7079	1485	.74
283.15	7050	1484.8	.74
283.15	7022	1484.7	.74
283.15	6998	1484.5	.74
283.14	6973	1484.5	.74
283.15	6937	1484.3	.74
283.15	6913	1484.2	.74
283.15	6877	1484	.74
283.15	6853	1483.9	.74
283.15	6822	1483.7	.74
283.15	6790	1483.5	.74
283.15	6762	1483.3	.74
283.15	6738	1483.2	.74
283.15	6713	1483.1	.74
283.15	6686	1483.1	.74
283.15	6659	1483.1	.74
283.15	6635	1482.9	.74
283.15	6611	1482.7	.74
283.15	6577	1482.5	.74
283.15	6547	1482.4	.74
283.15	6517	1482.3	.74
283.15	6486	1482.3	.74
283.15	6461	1481.9	.74
283.15	6431	1481.9	.74
283.15	6406	1481.7	.74
283.15	6375	1481.6	.74
283.15	6344	1481.4	.74
283.15	6322	1481.4	.74
283.15	6297	1481.2	.74
283.15	6271	1480.9	.74
283.14	6229	1480.8	.74
283.15	6204	1480.7	.74
283.14	6165	1480.5	.74
283.14	6135	1480.5	.74
283.14	6101	1480.2	.74
283.14	6058	1480	.74
283.14	6027	1480	.74
283.14	6005	1479.8	.74
283.14	5968	1479.6	.74
283.14	5934	1479.4	.74
283.14	5908	1479.3	.74
283.14	5879	1479.1	.74
283.14	5855	1479	.74
283.14	5822	1478.8	.74
283.14	5782	1478.8	.74
283.14	5757	1478.6	.74
283.14	5724	1478.4	.74
283.14	5691	1478.2	.74
283.15	5666	1478.1	.74
283.15	5634	1478	.74
283.15	5594	1477.8	.74
283.15	5563	1477.6	.74
283.15	5522	1477.4	.74
283.14	5490	1477.3	.74
283.14	5454	1477.2	.74
283.15	5425	1477	.74
283.15	5402	1476.8	.74
283.15	5373	1476.8	.74
283.15	5350	1476.5	.74
283.15	5323	1476.4	.74
283.15	5284	1476.2	.74
283.15	5260	1476.1	.74
283.15	5232	1476	.74
283.15	5204	1475.8	.74
283.15	5176	1475.7	.74
283.15	5147	1475.5	.74
283.15	5115	1475.2	.74
283.15	5088	1475.3	.74
283.15	5060	1475.1	.74
283.15	5032	1474.9	.74
283.15	5000	1474.7	.74
283.14	4976	1474.5	.74
283.15	4945	1474.4	.74
283.15	4922	1474.4	.74
283.15	4895	1474.2	.74
283.14	4872	1474.1	.74
283.14	4833	1473.9	.74
283.15	4806	1473.8	.74
283.14	4770	1473.6	.74
283.14	4746	1473.5	.74
283.14	4714	1473.3	.74
283.14	4691	1473.2	.74
283.14	4662	1473.1	.74
283.14	4642	1472.9	.74
283.14	4611	1472.8	.74
283.14	4587	1472.7	.74
283.14	4552	1472.4	.74
283.14	4521	1472.3	.74
283.14	4485	1472.1	.74
283.14	4454	1472	.74
283.14	4431	1471.8	.74
283.14	4397	1471.6	.74
283.14	4370	1471.5	.74
283.14	4326	1471.4	.74
283.14	4295	1471.2	.74
283.14	4268	1471.1	.74
283.14	4246	1470.9	.74
283.14	4220	1470.8	.74
283.14	4194	1470.6	.74
283.14	4161	1470.5	.74
283.14	4138	1470.4	.74
283.14	4112	1470.1	.74
283.14	4089	1470.1	.74
283.14	4059	1469.8	.74
283.14	4037	1469.8	.74
283.14	3997	1469.6	.74
283.15	3961	1469.4	.74
283.15	3935	1469.3	.74
283.15	3906	1469.1	.74
283.15	3880	1469	.74
283.15	3851	1468.8	.74
283.15	3818	1468.6	.74
283.15	3789	1468.4	.74
283.15	3764	1468.5	.74
283.15	3737	1468.2	.74
283.15	3713	1468.1	.74
283.15	3681	1467.9	.74
283.15	3653	1467.8	.74
283.14	3630	1467.6	.74
283.14	3606	1467.5	.74
283.14	3582	1467.3	.74
283.14	3555	1467.3	.74
283.14	3528	1467	.74
283.14	3502	1467	.74
283.14	3467	1466.9	.74
283.14	3440	1466.6	.74
283.14	3404	1466.4	.74
283.14	3370	1466.4	.74
283.14	3349	1466.2	.74
283.14	3316	1465.9	.74
283.14	3292	1465.8	.74
283.14	3261	1465.6	.74
283.14	3236	1465.6	.74
283.14	3208	1465.5	.74
283.14	3179	1465.2	.74
283.14	3150	1465	.74
283.15	3117	1464.9	.74
283.15	3097	1464.7	.74
283.15	3065	1464.6	.74
283.15	3043	1464.5	.74
283.15	3012	1464.3	.74
283.15	2982	1464.2	.74
283.15	2943	1464	.74
283.15	2910	1463.7	.74
283.15	2855	1463.4	.74
283.15	2817	1463.3	.74
283.15	2772	1462.9	.74
283.15	2733	1462.7	.74
283.15	2695	1462.6	.74
283.15	2647	1462.4	.74
283.14	2615	1462.1	.74
283.14	2578	1461.9	.74
283.14	2536	1461.6	.74
283.14	2499	1461.5	.74
283.14	2457	1461.1	.74
283.14	2431	1461.1	.74
283.14	2385	1460.9	.74
283.14	2349	1460.8	.74
283.14	2317	1460.6	.74
283.14	2282	1460.4	.74
283.14	2245	1460.1	.74
283.14	2214	1460	.74
283.14	2167	1459.6	.74
283.14	2137	1459.6	.74
283.14	2097	1459.2	.74
283.14	2062	1459.1	.74
283.14	2027	1458.8	.74
283.14	1978	1458.6	.74
283.14	1939	1458.4	.74
283.14	1899	1458.1	.74
283.14	1869	1457.9	.74
283.14	1829	1457.7	.74
283.14	1800	1457.5	.74
283.14	1760	1457.3	.74
283.14	1725	1457.1	.74
283.14	1696	1456.8	.74
283.14	1656	1456.8	.74
283.14	1621	1456.5	.74
283.14	1576	1456.3	.74
283.14	1543	1456	.74
283.14	1508	1455.9	.74
283.14	1476	1455.6	.74
283.14	1438	1455.5	.74
283.14	1400	1455.2	.74
283.14	1362	1454.9	.74
283.14	1331	1454.9	.74
283.14	1297	1454.5	.74
283.14	1264	1454.5	.74
283.14	1227	1454.2	.74
283.14	1193	1454	.74
283.14	1160	1453.8	.74
283.14	1127	1453.7	.74
283.14	1091	1453.4	.74
283.14	1062	1453.3	.74
283.14	1029	1453	.74
283.14	988	1452.7	.74
283.14	962	1452.6	.74
283.14	933	1452.5	.74
283.15	902	1452.3	.74
283.15	870	1452	.74
283.15	825	1451.8	.74
283.15	785	1451.6	.74
283.15	745	1451.3	.74
283.15	723	1451.2	.74
283.15	696	1451.1	.74
283.15	666	1450.9	.74
283.15	635	1450.8	.74
283.15	601	1450.5	.74
283.15	571	1450.2	.74
283.15	538	1450.1	.74
283.15	513	1449.9	.74
283.15	485	1449.7	.74
283.15	465	1449.6	.74
283.15	463	1449.6	.74
283.15	462	1449.7	.74
283.15	462	1449.6	.74
283.15	462	1449.6	.74
283.15	462	1449.6	.74
283.15	462	1449.5	.74
283.15	462	1449.6	.74
283.15	461	1449.6	.74
283.15	461	1449.6	.74
283.15	462	1449.5	.74
283.15	461	1449.7	.74
283.15	461	1449.5	.74
283.15	461	1449.5	.74
283.15	461	1449.6	.74
283.15	461	1449.5	.74
283.15	461	1449.6	.74
283.15	461	1449.6	.74
283.15	462	1449.6	.74
293.15	34546	1554.6	.74
293.15	34537	1554.6	.74
293.15	34523	1554.6	.74
293.15	34511	1554.7	.74
293.15	34489	1554.4	.74
293.15	34464	1554.4	.74
293.15	34442	1554.3	.74
293.15	34415	1554.3	.74
293.15	34374	1554.1	.74
293.15	34336	1554	.74
293.15	34293	1553.8	.74
293.15	34257	1553.9	.74
293.15	34220	1553.9	.74
293.15	34173	1553.5	.74
293.15	34131	1553.5	.74
293.15	34100	1553.3	.74
293.15	34053	1553.2	.74
293.15	34008	1553	.74
293.15	33976	1553.1	.74
293.15	33925	1552.9	.74
293.15	33879	1552.6	.74
293.15	33844	1552.5	.74
293.15	33809	1552.5	.74
293.15	33769	1552.5	.74
293.15	33734	1552.3	.74
293.15	33704	1552.3	.74
293.15	33659	1552.1	.74
293.15	33629	1552.1	.74
293.14	33589	1552	.74
293.14	33554	1551.8	.74
293.14	33518	1551.7	.74
293.14	33474	1551.5	.74
293.14	33440	1551.5	.74
293.14	33406	1551.4	.74
293.14	33367	1551.3	.74
293.14	33323	1551.1	.74
293.14	33293	1551.1	.74
293.14	33255	1550.8	.74
293.14	33215	1550.9	.74
293.14	33182	1550.8	.74
293.14	33143	1550.6	.74
293.14	33109	1550.6	.74
293.14	33075	1550.3	.74
293.14	33036	1550.4	.74
293.14	32998	1550.3	.74
293.14	32970	1550.2	.74
293.14	32926	1550.1	.74
293.14	32884	1549.9	.74
293.14	32855	1549.9	.74
293.14	32817	1549.7	.74
293.14	32783	1549.7	.74
293.14	32750	1549.5	.74
293.15	32711	1549.4	.74
293.15	32668	1549.3	.74
293.15	32635	1549.1	.74
293.15	32598	1549	.74
293.15	32565	1548.9	.74
293.15	32531	1548.9	.74
293.15	32494	1548.7	.74
293.15	32447	1548.7	.74
293.15	32418	1548.5	.74
293.15	32381	1548.3	.74
293.15	32338	1548.3	.74
293.15	32309	1548.2	.74
293.15	32272	1548.1	.74
293.15	32245	1548.1	.74
293.15	32205	1548	.74
293.15	32163	1547.7	.74
293.15	32136	1547.8	.74
293.15	32096	1547.7	.74
293.15	32055	1547.6	.74
293.15	32022	1547.3	.74
293.15	31986	1547.3	.74
293.15	31954	1547.1	.74
293.15	31919	1547.1	.74
293.15	31882	1547	.74
293.15	31854	1546.8	.74
293.15	31815	1546.8	.74
293.15	31786	1546.7	.74
293.15	31742	1546.6	.74
293.15	31698	1546.4	.74
293.15	31669	1546.4	.74
293.15	31636	1546.3	.74
293.15	31593	1546.1	.74
293.15	31563	1546.1	.74
293.15	31537	1546	.74
293.15	31506	1545.8	.74
293.15	31468	1545.7	.74
293.15	31438	1545.7	.74
293.15	31400	1545.5	.74
293.15	31356	1545.3	.74
293.15	31327	1545.4	.74
293.15	31299	1545.2	.74
293.15	31270	1545.2	.74
293.15	31232	1545.1	.74
293.15	31189	1544.9	.74
293.15	31164	1544.7	.74
293.15	31136	1544.7	.74
293.15	31092	1544.7	.74
293.15	31063	1544.6	.74
293.15	31020	1544.4	.74
293.15	30982	1544.4	.74
293.15	30958	1544.3	.74
293.15	30920	1544.1	.74
293.15	30887	1543.9	.74
293.15	30853	1543.9	.74
293.15	30815	1543.8	.74
293.15	30776	1543.6	.74
293.15	30742	1543.5	.74
293.15	30713	1543.5	.74
293.15	30669	1543.4	.74
293.15	30626	1543.2	.74
293.15	30598	1543.1	.74
293.15	30560	1543.2	.74
293.15	30522	1542.9	.74
293.15	30493	1542.8	.74
293.15	30456	1542.8	.74
293.15	30423	1542.7	.74
293.15	30389	1542.5	.74
293.15	30350	1542.5	.74
293.15	30316	1542.4	.74
293.15	30287	1542.3	.74
293.15	30248	1542.1	.74
293.15	30215	1542	.74
293.15	30181	1541.9	.74
293.15	30153	1541.8	.74
293.15	30120	1541.8	.74
293.15	30083	1541.6	.74
293.15	30054	1541.5	.74
293.15	30026	1541.4	.74
293.15	29997	1541.2	.74
293.15	29969	1541.3	.74
293.15	29936	1541.1	.74
293.15	29903	1541.1	.74
293.15	29870	1540.9	.74
293.15	29843	1540.9	.74
293.15	29810	1540.8	.74
293.15	29782	1540.6	.74
293.15	29751	1540.4	.74
293.15	29718	1540.6	.74
293.15	29675	1540.4	.74
293.15	29637	1540.3	.74
293.15	29603	1540.2	.74
293.15	29566	1540	.74
293.15	29528	1540	.74
293.15	29497	1539.7	.74
293.15	29460	1539.7	.74
293.15	29417	1539.6	.74
293.15	29385	1539.4	.74
293.15	29337	1539.3	.74
293.15	29289	1539.1	.74
293.15	29256	1539.1	.74
293.15	29229	1539.1	.74
293.15	29179	1538.8	.74
293.15	29147	1538.8	.74
293.15	29104	1538.5	.74
293.15	29072	1538.5	.74
293.15	29030	1538.3	.74
293.15	28983	1538.2	.74
293.15	28956	1538.2	.74
293.15	28908	1538.1	.74
293.15	28855	1537.9	.74
293.15	28823	1537.8	.74
293.15	28783	1537.7	.74
293.15	28735	1537.5	.74
293.15	28709	1537.3	.74
293.15	28667	1537.3	.74
293.15	28619	1537.1	.74
293.15	28588	1537.1	.74
293.15	28556	1536.8	.74
293.15	28520	1536.8	.74
293.15	28484	1536.7	.74
293.15	28442	1536.7	.74
293.15	28411	1536.5	.74
293.15	28369	1536.4	.74
293.15	28327	1536.1	.74
293.15	28300	1536	.74
293.15	28258	1536	.74
293.15	28216	1535.9	.74
293.15	28185	1535.7	.74
293.15	28144	1535.6	.74
293.15	28097	1535.4	.74
293.15	28067	1535.5	.74
293.15	28026	1535.1	.74
293.15	27984	1535.1	.74
293.15	27953	1534.9	.74
293.15	27912	1534.9	.74
293.15	27871	1534.8	.74
293.15	27841	1534.6	.74
293.15	27800	1534.5	.74
293.15	27759	1534.5	.74
293.15	27728	1534.3	.74
293.15	27692	1534.2	.74
293.15	27655	1534	.74
293.15	27619	1533.9	.74
293.15	27589	1533.9	.74
293.15	27553	1533.7	.74
293.15	27522	1533.7	.74
293.15	27481	1533.5	.74
293.15	27435	1533.3	.74
293.15	27410	1533.2	.74
293.15	27374	1533.1	.74
293.15	27338	1533.2	.74
293.15	27302	1533.1	.74
293.15	27265	1532.9	.74
293.15	27224	1532.8	.74
293.15	27188	1532.6	.74
293.15	27151	1532.6	.74
293.15	27115	1532.4	.74
293.15	27080	1532.3	.74
293.15	27045	1532.2	.74
293.15	27009	1532.1	.74
293.15	26979	1532	.74
293.15	26939	1531.8	.74
293.15	26899	1531.6	.74
293.15	26864	1531.6	.74
293.15	26824	1531.4	.74
293.15	26784	1531.3	.74
293.15	26753	1531.3	.74
293.15	26717	1531.1	.74
293.15	26682	1530.9	.74
293.15	26646	1530.8	.74
293.15	26610	1530.7	.74
293.15	26570	1530.6	.74
293.15	26534	1530.6	.74
293.15	26504	1530.5	.74
293.15	26455	1530.3	.74
293.15	26430	1530.1	.74
293.15	26391	1530.1	.74
293.15	26349	1529.9	.74
293.15	26319	1529.8	.74
293.15	26284	1529.7	.74
293.15	26250	1529.5	.74
293.15	26220	1529.5	.74
293.15	26181	1529.4	.74
293.15	26141	1529.3	.74
293.15	26112	1529.1	.74
293.15	26068	1529	.74
293.15	26024	1528.9	.74
293.15	25994	1528.8	.74
293.15	25958	1528.6	.74
293.15	25923	1528.5	.74
293.15	25889	1528.4	.74
293.15	25845	1528.1	.74
293.15	25816	1528.2	.74
293.15	25791	1528.1	.74
293.15	25747	1527.9	.74
293.15	25708	1527.9	.74
293.15	25678	1527.7	.74
293.15	25639	1527.4	.74
293.15	25594	1527.4	.74
293.15	25569	1527.4	.74
293.15	25530	1527.2	.74
293.15	25496	1527.2	.74
293.15	25466	1527	.74
293.15	25438	1526.9	.74
293.15	25393	1526.6	.74
293.15	25360	1526.8	.74
293.15	25326	1526.6	.74
293.15	25297	1526.4	.74
293.15	25268	1526.4	.74
293.15	25229	1526.1	.74
293.15	25199	1526.1	.74
293.15	25165	1526.1	.74
293.15	25136	1525.9	.74
293.15	25097	1525.8	.74
293.15	25059	1525.6	.74
293.15	25030	1525.6	.74
293.15	24991	1525.5	.74
293.15	24949	1525.2	.74
293.15	24920	1525.2	.74
293.15	24886	1525	.74
293.15	24851	1524.9	.74
293.15	24816	1524.7	.74
293.15	24786	1524.7	.74
293.15	24757	1524.6	.74
293.15	24728	1524.6	.74
293.15	24698	1524.5	.74
293.15	24659	1524.3	.74
293.15	24630	1524.2	.74
293.15	24587	1524.1	.74
293.15	24553	1523.9	.74
293.15	24524	1523.8	.74
293.15	24485	1523.6	.74
293.15	24451	1523.5	.74
293.15	24422	1523.3	.74
293.15	24393	1523.3	.74
293.15	24354	1523.2	.74
293.15	24326	1523.2	.74
293.15	24297	1523	.74
293.15	24263	1523	.74
293.15	24229	1522.8	.74
293.15	24187	1522.7	.74
293.15	24149	1522.6	.74
293.15	24120	1522.5	.74
293.15	24087	1522.4	.74
293.15	24048	1522.3	.74
293.15	24019	1522.1	.74
293.15	23986	1522.1	.74
293.15	23962	1521.9	.74
293.15	23925	1521.8	.74
293.15	23883	1521.6	.74
293.15	23852	1521.6	.74
293.15	23815	1521.5	.74
293.14	23767	1521.3	.74
293.15	23735	1521.1	.74
293.15	23692	1521	.74
293.15	23648	1520.9	.74
293.15	23615	1520.7	.74
293.15	23577	1520.5	.74
293.15	23540	1520.6	.74
293.15	23513	1520.5	.74
293.15	23466	1520.2	.74
293.15	23424	1520.1	.74
293.15	23392	1520	.74
293.15	23350	1519.8	.74
293.15	23308	1519.7	.74
293.15	23271	1519.7	.74
293.15	23228	1519.5	.74
293.15	23191	1519.3	.74
293.15	23154	1519.1	.74
293.15	23118	1519	.74
293.15	23072	1518.8	.74
293.15	23042	1518.8	.74
293.15	23001	1518.7	.74
293.15	22959	1518.6	.74
293.15	22923	1518.4	.74
293.15	22886	1518.3	.74
293.15	22849	1518.2	.74
293.15	22813	1518	.74
293.15	22781	1517.9	.74
293.15	22744	1517.7	.74
293.15	22702	1517.6	.74
293.15	22661	1517.5	.74
293.15	22625	1517.4	.74
293.15	22584	1517.1	.74
293.15	22548	1517.1	.74
293.15	22522	1516.9	.74
293.15	22476	1516.8	.74
293.15	22440	1516.7	.74
293.15	22404	1516.5	.74
293.15	22358	1516.3	.74
293.15	22322	1516.3	.74
293.15	22291	1516.2	.74
293.15	22261	1516.2	.74
293.15	22230	1515.9	.74
293.15	22194	1515.8	.74
293.15	22152	1515.7	.74
293.15	22122	1515.5	.74
293.15	22076	1515.4	.74
293.15	22034	1515.3	.74
293.15	22009	1515.2	.74
293.15	21967	1515	.74
293.15	21927	1514.8	.74
293.14	21896	1514.8	.74
293.14	21855	1514.7	.74
293.14	21810	1514.5	.74
293.14	21779	1514.5	.74
293.15	21739	1514.2	.74
293.15	21699	1513.9	.74
293.15	21669	1513.9	.74
293.14	21629	1513.8	.74
293.14	21593	1513.7	.74
293.14	21563	1513.5	.74
293.14	21528	1513.4	.74
293.15	21488	1513.2	.74
293.15	21458	1513.1	.74
293.14	21424	1513.1	.74
293.15	21389	1513	.74
293.15	21359	1512.8	.74
293.15	21314	1512.7	.74
293.15	21279	1512.5	.74
293.15	21245	1512.4	.74
293.15	21209	1512.3	.74
293.15	21164	1512.1	.74
293.15	21134	1512	.74
293.15	21094	1511.9	.74
293.15	21048	1511.8	.74
293.15	21017	1511.6	.74
293.15	20982	1511.5	.74
293.14	20937	1511.3	.74
293.15	20907	1511.2	.74
293.15	20873	1511	.74
293.15	20843	1511	.74
293.15	20802	1510.8	.74
293.15	20761	1510.6	.74
293.15	20732	1510.6	.74
293.15	20702	1510.5	.74
293.15	20659	1510.3	.74
293.15	20630	1510.1	.74
293.15	20591	1510.1	.74
293.15	20546	1510	.74
293.15	20517	1509.9	.74
293.15	20478	1509.6	.74
293.15	20434	1509.5	.74
293.15	20404	1509.3	.74
293.15	20375	1509.2	.74
293.15	20335	1509.2	.74
293.15	20302	1508.9	.74
293.15	20258	1508.8	.74
293.15	20215	1508.7	.74
293.15	20190	1508.6	.74
293.15	20152	1508.4	.74
293.15	20109	1508.3	.74
293.15	20080	1508.1	.74
293.15	20047	1508	.74
293.15	20007	1507.9	.74
293.15	19974	1507.8	.74
293.15	19940	1507.7	.74
293.15	19906	1507.5	.74
293.15	19868	1507.3	.74
293.15	19844	1507.3	.74
293.15	19806	1507.1	.74
293.15	19762	1506.9	.74
293.15	19732	1506.9	.74
293.15	19699	1506.6	.74
293.15	19665	1506.5	.74
293.15	19631	1506.6	.74
293.14	19593	1506.2	.74
293.14	19555	1506.3	.74
293.14	19526	1506.1	.74
293.15	19492	1505.8	.74
293.15	19460	1505.8	.74
293.15	19430	1505.9	.74
293.15	19392	1505.6	.74
293.15	19349	1505.5	.74
293.15	19320	1505.4	.74
293.15	19282	1505.2	.74
293.15	19243	1505	.74
293.15	19210	1505	.74
293.15	19183	1504.8	.74
293.15	19145	1504.6	.74
293.15	19116	1504.5	.74
293.15	19084	1504.5	.74
293.15	19055	1504.4	.74
293.15	19018	1504.2	.74
293.15	18981	1504.1	.74
293.15	18953	1503.9	.74
293.15	18925	1503.8	.74
293.15	18888	1503.6	.74
293.15	18859	1503.7	.74
293.15	18822	1503.5	.74
293.15	18785	1503.3	.74
293.15	18753	1503.1	.74
293.15	18720	1503.1	.74
293.15	18678	1502.9	.74
293.15	18650	1502.7	.74
293.15	18611	1502.7	.74
293.15	18574	1502.5	.74
293.15	18544	1502.5	.74
293.15	18502	1502.3	.74
293.15	18459	1502	.74
293.15	18428	1502	.74
293.15	18391	1501.8	.74
293.15	18349	1501.6	.74
293.15	18313	1501.5	.74
293.15	18276	1501.4	.74
293.15	18235	1501.3	.74
293.15	18194	1501.1	.74
293.15	18164	1500.9	.74
293.15	18124	1500.8	.74
293.15	18075	1500.4	.74
293.15	18044	1500.5	.74
293.15	18004	1500.4	.74
293.15	17969	1500.2	.74
293.15	17933	1499.9	.74
293.15	17902	1499.9	.74
293.15	17856	1499.6	.74
293.15	17831	1499.5	.74
293.15	17801	1499.4	.74
293.15	17756	1499.4	.74
293.15	17726	1499.2	.74
293.15	17694	1499.1	.74
293.15	17654	1498.9	.74
293.14	17619	1498.8	.74
293.14	17585	1498.6	.74
293.15	17555	1498.5	.74
293.15	17520	1498.5	.74
293.15	17485	1498.2	.74
293.15	17450	1498.2	.74
293.15	17405	1498	.74
293.15	17375	1497.8	.74
293.15	17334	1497.7	.74
293.15	17293	1497.5	.74
293.15	17263	1497.4	.74
293.15	17228	1497.2	.74
293.15	17183	1497.1	.74
293.15	17158	1497	.74
293.15	17113	1496.7	.74
293.15	17068	1496.6	.74
293.15	17038	1496.5	.74
293.15	16998	1496.3	.74
293.15	16964	1496.2	.74
293.15	16934	1496.2	.74
293.15	16904	1496	.74
293.15	16865	1495.9	.74
293.15	16831	1495.6	.74
293.14	16801	1495.6	.74
293.15	16772	1495.4	.74
293.15	16734	1495.3	.74
293.14	16710	1495.1	.74
293.14	16676	1495.1	.74
293.14	16642	1494.8	.74
293.14	16613	1494.8	.74
293.14	16570	1494.7	.74
293.15	16532	1494.4	.74
293.15	16503	1494.3	.74
293.15	16474	1494.1	.74
293.15	16446	1494.1	.74
293.15	16411	1493.9	.74
293.15	16377	1493.9	.74
293.15	16344	1493.7	.74
293.15	16315	1493.7	.74
293.15	16277	1493.6	.74
293.15	16244	1493.2	.74
293.15	16215	1493.2	.74
293.15	16181	1493.1	.74
293.15	16153	1493	.74
293.15	16118	1492.8	.74
293.15	16079	1492.7	.74
293.15	16046	1492.3	.74
293.15	16018	1492.4	.74
293.15	15975	1492.2	.74
293.15	15942	1492.2	.74
293.15	15913	1492	.74
293.15	15880	1491.9	.74
293.15	15837	1491.6	.74
293.15	15814	1491.4	.74
293.15	15777	1491.4	.74
293.15	15747	1491.3	.74
293.15	15719	1491.1	.74
293.15	15672	1490.8	.74
293.15	15639	1490.9	.74
293.15	15611	1490.8	.74
293.15	15569	1490.6	.74
293.15	15527	1490.4	.74
293.15	15504	1490.2	.74
293.15	15467	1490.1	.74
293.15	15425	1489.9	.74
293.15	15398	1489.7	.74
293.15	15363	1489.7	.74
293.15	15335	1489.4	.74
293.15	15298	1489.5	.74
293.15	15270	1489.2	.74
293.15	15237	1489.1	.74
293.15	15209	1488.8	.74
293.15	15181	1488.9	.74
293.15	15144	1488.7	.74
293.15	15103	1488.6	.74
293.15	15080	1488.6	.74
293.15	15038	1488.2	.74
293.15	15005	1488.2	.74
293.15	14973	1488	.74
293.15	14940	1487.9	.74
293.15	14913	1487.8	.74
293.15	14872	1487.5	.74
293.15	14831	1487.5	.74
293.15	14795	1487.3	.74
293.15	14759	1487.1	.74
293.15	14732	1486.9	.74
293.15	14705	1487	.74
293.15	14673	1486.7	.74
293.15	14635	1486.6	.74
293.15	14598	1486.4	.74
293.15	14557	1486.3	.74
293.15	14520	1486.2	.74
293.15	14489	1486	.74
293.15	14462	1485.9	.74
293.15	14431	1485.7	.74
293.15	14403	1485.6	.74
293.15	14370	1485.5	.74
293.15	14339	1485.3	.74
293.15	14316	1485.3	.74
293.15	14285	1485	.74
293.15	14249	1484.9	.74
293.15	14223	1484.9	.74
293.15	14192	1484.8	.74
293.15	14165	1484.6	.74
293.15	14128	1484.5	.74
293.15	14101	1484.3	.74
293.15	14065	1484.2	.74
293.14	14034	1484.1	.74
293.14	13996	1483.9	.74
293.15	13963	1483.7	.74
293.15	13930	1483.6	.74
293.15	13891	1483.4	.74
293.15	13857	1483.3	.74
293.15	13824	1483.2	.74
293.15	13797	1482.9	.74
293.15	13758	1482.8	.74
293.15	13719	1482.6	.74
293.15	13687	1482.5	.74
293.15	13649	1482.4	.74
293.15	13606	1482.2	.74
293.15	13564	1482	.74
293.15	13521	1481.8	.74
293.15	13489	1481.8	.74
293.15	13440	1481.4	.74
293.15	13408	1481.4	.74
293.15	13371	1481.1	.74
293.15	13344	1481.1	.74
293.15	13307	1480.8	.74
293.15	13264	1480.7	.74
293.15	13233	1480.6	.74
293.15	13195	1480.5	.74
293.15	13163	1480.3	.74
293.15	13131	1480.1	.74
293.15	13099	1480	.74
293.15	13072	1479.9	.74
293.15	13020	1479.6	.74
293.15	12980	1479.5	.74
293.14	12939	1479.2	.74
293.15	12888	1479	.74
293.14	12854	1478.9	.74
293.14	12814	1478.8	.74
293.14	12780	1478.5	.74
293.15	12745	1478.3	.74
293.15	12710	1478.2	.74
293.15	12670	1478	.74
293.15	12626	1477.9	.74
293.15	12591	1477.7	.74
293.15	12549	1477.5	.74
293.15	12502	1477.4	.74
293.15	12468	1477.1	.74
293.15	12422	1476.9	.74
293.15	12388	1476.9	.74
293.15	12354	1476.7	.74
293.15	12314	1476.4	.74
293.15	12280	1476.3	.74
293.15	12235	1476.1	.74
293.15	12195	1475.9	.74
293.15	12156	1475.8	.74
293.15	12119	1475.5	.74
293.15	12079	1475.4	.74
293.15	12045	1475.2	.74
293.15	12017	1475.1	.74
293.15	11967	1474.9	.74
293.15	11934	1474.7	.74
293.15	11894	1474.6	.74
293.15	11860	1474.3	.74
293.15	11826	1474.2	.74
293.15	11786	1474.1	.74
293.15	11752	1473.8	.74
293.15	11713	1473.7	.74
293.15	11668	1473.4	.74
293.15	11629	1473.3	.74
293.15	11601	1473.2	.74
293.15	11556	1472.9	.74
293.15	11518	1472.8	.74
293.15	11473	1472.6	.74
293.15	11439	1472.4	.74
293.15	11401	1472.3	.74
293.15	11368	1472.1	.74
293.15	11324	1471.9	.74
293.15	11292	1471.8	.74
293.15	11254	1471.6	.74
293.15	11209	1471.3	.74
293.15	11159	1471.4	.74
293.15	11132	1470.9	.74
293.15	11082	1470.6	.74
293.15	11044	1470.6	.74
293.14	11001	1470.5	.74
293.15	10958	1470.2	.74
293.15	10920	1470	.74
293.15	10882	1469.7	.74
293.15	10851	1469.6	.74
293.15	10808	1469.4	.74
293.15	10775	1469.4	.74
293.15	10738	1469.2	.74
293.15	10706	1469	.74
293.15	10669	1468.7	.74
293.15	10638	1468.7	.74
293.15	10597	1468.5	.74
293.15	10555	1468.1	.74
293.14	10520	1468.1	.74
293.14	10474	1467.9	.74
293.14	10428	1467.8	.74
293.14	10403	1467.6	.74
293.14	10356	1467.4	.74
293.15	10316	1467.1	.74
293.15	10275	1466.7	.74
293.15	10240	1466.8	.74
293.15	10195	1466.7	.74
293.15	10154	1466.4	.74
293.15	10128	1466.3	.74
293.15	10087	1465.9	.74
293.15	10056	1465.8	.74
293.15	10025	1465.7	.74
293.15	9989	1465.5	.74
293.14	9946	1465.3	.74
293.14	9915	1465.1	.74
293.14	9879	1464.9	.74
293.14	9843	1464.8	.74
293.14	9807	1464.6	.74
293.14	9771	1464.6	.74
293.14	9731	1464.2	.74
293.14	9695	1464.1	.74
293.14	9655	1464	.74
293.14	9615	1463.7	.74
293.14	9584	1463.5	.74
293.14	9547	1463.4	.74
293.14	9511	1463.2	.74
293.14	9481	1463	.74
293.14	9437	1462.7	.74
293.14	9402	1462.7	.74
293.14	9357	1462.4	.74
293.14	9327	1462.4	.74
293.14	9292	1462.1	.74
293.15	9258	1461.9	.74
293.14	9213	1461.8	.74
293.15	9182	1461.5	.74
293.15	9156	1461.3	.74
293.15	9121	1461.1	.74
293.15	9081	1461.1	.74
293.15	9057	1461	.74
293.15	9023	1460.7	.74
293.15	8988	1460.5	.74
293.15	8958	1460.4	.74
293.15	8923	1460.2	.74
293.15	8888	1460	.74
293.15	8862	1459.9	.74
293.15	8814	1459.7	.74
293.15	8774	1459.5	.74
293.15	8745	1459.3	.74
293.15	8716	1459.1	.74
293.15	8669	1458.9	.74
293.15	8640	1458.7	.74
293.15	8615	1458.6	.74
293.15	8576	1458.4	.74
293.14	8542	1458.3	.74
293.14	8509	1458.1	.74
293.14	8480	1457.9	.74
293.14	8447	1457.8	.74
293.14	8410	1457.7	.74
293.14	8380	1457.4	.74
293.14	8350	1457.4	.74
293.14	8312	1457.1	.74
293.14	8283	1456.9	.74
293.14	8240	1456.7	.74
293.14	8211	1456.6	.74
293.14	8183	1456.4	.74
293.14	8140	1456.2	.74
293.14	8111	1456.1	.74
293.14	8087	1455.9	.74
293.14	8053	1455.7	.74
293.14	8024	1455.6	.74
293.14	7995	1455.4	.74
293.14	7952	1455.3	.74
293.14	7919	1455.1	.74
293.14	7886	1454.8	.74
293.14	7862	1454.8	.74
293.15	7829	1454.6	.74
293.14	7801	1454.4	.74
293.14	7758	1454.2	.74
293.14	7725	1454	.74
293.14	7697	1454	.74
293.14	7664	1453.8	.74
293.14	7636	1453.6	.74
293.14	7613	1453.4	.74
293.15	7575	1453.2	.74
293.15	7543	1453.2	.74
293.15	7506	1452.9	.74
293.15	7478	1452.7	.74
293.15	7445	1452.6	.74
293.15	7413	1452.4	.74
293.15	7380	1452.1	.74
293.15	7352	1452	.74
293.15	7319	1451.9	.74
293.15	7292	1451.6	.74
293.15	7255	1451.5	.74
293.15	7223	1451.4	.74
293.15	7196	1451.2	.74
293.15	7160	1450.9	.74
293.15	7134	1450.8	.74
293.15	7106	1450.7	.74
293.15	7074	1450.7	.74
293.15	7034	1450.4	.74
293.15	7002	1450.1	.74
293.15	6979	1450	.74
293.15	6944	1449.9	.74
293.15	6918	1449.8	.74
293.15	6885	1449.5	.74
293.15	6862	1449.5	.74
293.15	6823	1449.3	.74
293.15	6792	1449	.74
293.15	6752	1448.8	.74
293.15	6721	1448.5	.74
293.15	6682	1448.4	.74
293.15	6655	1448.4	.74
293.15	6624	1448.1	.74
293.15	6593	1447.9	.74
293.15	6566	1447.6	.74
293.15	6534	1447.6	.74
293.15	6508	1447.5	.74
293.15	6477	1447.3	.74
293.15	6437	1447	.74
293.15	6408	1446.9	.74
293.15	6375	1446.8	.74
293.15	6351	1446.6	.74
293.15	6323	1446.4	.74
293.15	6295	1446.2	.74
293.15	6260	1446.1	.74
293.15	6235	1445.9	.74
293.15	6205	1445.7	.74
293.15	6174	1445.6	.74
293.15	6138	1445.5	.74
293.15	6113	1445.2	.74
293.15	6073	1445	.74
293.15	6043	1444.8	.74
293.15	6018	1444.7	.74
293.15	5984	1444.6	.74
293.15	5955	1444.4	.74
293.15	5921	1444.1	.74
293.15	5896	1444	.74
293.15	5848	1443.8	.74
293.15	5818	1443.6	.74
293.15	5784	1443.4	.74
293.15	5755	1443.2	.74
293.15	5720	1443	.74
293.15	5678	1442.8	.74
293.15	5639	1442.6	.74
293.15	5610	1442.3	.74
293.15	5566	1442.2	.74
293.15	5537	1442.1	.74
293.15	5500	1441.9	.74
293.15	5472	1441.7	.74
293.15	5435	1441.5	.74
293.15	5392	1441.2	.74
293.15	5364	1440.9	.74
293.15	5321	1440.8	.74
293.15	5292	1440.6	.74
293.15	5259	1440.4	.74
293.15	5231	1440.3	.74
293.15	5198	1440	.74
293.15	5170	1440	.74
293.15	5137	1439.6	.74
293.15	5095	1439.5	.74
293.15	5062	1439.2	.74
293.14	5029	1439.2	.74
293.14	4997	1438.9	.74
293.14	4965	1438.7	.74
293.14	4933	1438.5	.74
293.14	4910	1438.4	.74
293.14	4878	1438.3	.74
293.15	4846	1438.1	.74
293.15	4815	1437.8	.74
293.15	4791	1437.7	.74
293.15	4754	1437.4	.74
293.15	4727	1437.2	.74
293.15	4687	1437	.74
293.15	4655	1436.8	.74
293.15	4614	1436.6	.74
293.15	4587	1436.4	.74
293.15	4556	1436.2	.74
293.15	4515	1435.9	.74
293.15	4488	1435.9	.74
293.15	4452	1435.7	.74
293.15	4425	1435.6	.74
293.15	4394	1435.3	.74
293.15	4367	1435	.74
293.15	4322	1434.7	.74
293.15	4286	1434.6	.74
293.15	4259	1434.4	.74
293.15	4219	1434.2	.74
293.15	4195	1434	.74
293.15	4157	1434	.74
293.15	4124	1433.7	.74
293.15	4077	1433.4	.74
293.15	4053	1433.1	.74
293.15	4019	1432.9	.74
293.15	3976	1432.7	.74
293.15	3939	1432.5	.74
293.15	3906	1432.2	.74
293.14	3876	1432.1	.74
293.15	3853	1432	.74
293.14	3815	1431.8	.74
293.15	3787	1431.6	.74
293.14	3750	1431.3	.74
293.14	3722	1431	.74
293.14	3690	1431.1	.74
293.14	3668	1430.7	.74
293.14	3631	1430.7	.74
293.14	3604	1430.4	.74
293.14	3573	1430.1	.74
293.14	3537	1430	.74
293.14	3502	1429.8	.74
293.14	3461	1429.4	.74
293.14	3426	1429.3	.74
293.14	3395	1429.1	.74
293.14	3360	1428.9	.74
293.14	3321	1428.7	.74
293.14	3290	1428.4	.74
293.14	3246	1428.2	.74
293.14	3211	1427.9	.74
293.14	3177	1427.8	.74
293.14	3147	1427.5	.74
293.14	3112	1427.3	.74
293.14	3082	1427.2	.74
293.14	3056	1426.9	.74
293.14	3018	1426.7	.74
293.14	2988	1426.7	.74
293.14	2959	1426.4	.74
293.14	2921	1426.1	.74
293.14	2883	1425.8	.74
293.14	2858	1425.8	.74
293.14	2829	1425.5	.74
293.14	2804	1425.4	.74
293.14	2766	1425.1	.74
293.14	2740	1424.9	.74
293.14	2707	1424.7	.74
293.14	2682	1424.5	.74
293.15	2653	1424.3	.74
293.15	2619	1424.2	.74
293.15	2590	1424	.74
293.15	2566	1423.7	.74
293.15	2536	1423.7	.74
293.15	2506	1423.3	.74
293.15	2481	1423.1	.74
293.15	2456	1423.1	.74
293.15	2431	1422.8	.74
293.14	2402	1422.6	.74
293.14	2377	1422.7	.74
293.14	2349	1422.4	.74
293.14	2324	1422.2	.74
293.14	2291	1421.9	.74
293.14	2258	1421.7	.74
293.14	2221	1421.4	.74
293.14	2197	1421.3	.74
293.14	2164	1421	.74
293.14	2140	1421	.74
293.14	2104	1420.7	.74
293.14	2084	1420.5	.74
293.14	2059	1420.5	.74
293.14	2030	1420.1	.74
293.14	2001	1420.1	.74
293.14	1972	1419.8	.74
293.14	1941	1419.6	.74
293.14	1901	1419.3	.74
293.15	1855	1419.1	.74
293.14	1824	1418.8	.74
293.14	1789	1418.7	.74
293.14	1754	1418.3	.74
293.15	1714	1418.1	.74
293.15	1682	1417.8	.74
293.15	1646	1417.7	.74
293.14	1612	1417.3	.74
293.14	1583	1417.1	.74
293.14	1543	1417	.74
293.14	1514	1416.7	.74
293.14	1484	1416.4	.74
293.14	1446	1416.2	.74
293.14	1417	1415.9	.74
293.14	1380	1415.7	.74
293.14	1347	1415.6	.74
293.14	1319	1415.2	.74
293.14	1285	1415	.74
293.14	1252	1414.9	.74
293.14	1219	1414.6	.74
293.14	1191	1414.5	.74
293.14	1145	1414.1	.74
293.14	1113	1414	.74
293.14	1080	1413.6	.74
293.14	1048	1413.5	.74
293.14	1007	1413.2	.74
293.14	980	1412.9	.74
293.14	943	1412.7	.74
293.14	911	1412.4	.74
293.14	869	1412.2	.74
293.14	832	1411.9	.74
293.14	783	1411.5	.74
293.15	757	1411.3	.74
293.15	712	1411	.74
293.15	682	1410.9	.74
293.15	647	1410.5	.74
293.15	616	1410.3	.74
293.15	591	1410.2	.74
293.15	569	1409.9	.74
293.15	545	1409.8	.74
293.15	525	1409.6	.74
293.15	498	1409.3	.74
293.15	478	1409.2	.74
293.15	466	1409.3	.74
293.15	461	1409.2	.74
293.15	459	1409.3	.74
293.15	458	1409.2	.74
303.14	34526	1530.1	.74
303.14	34522	1530.1	.74
303.14	34513	1530	.74
303.14	34501	1530.1	.74
303.14	34476	1529.9	.74
303.14	34442	1529.9	.74
303.14	34400	1529.8	.74
303.14	34356	1529.6	.74
303.14	34300	1529.4	.74
303.14	34250	1529.3	.74
303.14	34201	1529.1	.74
303.14	34158	1529	.74
303.14	34122	1529	.74
303.15	34091	1528.8	.74
303.15	34044	1528.6	.74
303.15	34013	1528.4	.74
303.15	33968	1528.3	.74
303.15	33938	1528.3	.74
303.14	33912	1528.4	.74
303.14	33877	1528.2	.74
303.14	33838	1528	.74
303.14	33793	1527.9	.74
303.14	33758	1527.8	.74
303.14	33717	1527.8	.74
303.14	33683	1527.6	.74
303.14	33644	1527.5	.74
303.14	33615	1527.5	.74
303.14	33567	1527.3	.74
303.14	33537	1527.1	.74
303.14	33496	1527.1	.74
303.14	33457	1526.9	.74
303.14	33413	1526.7	.74
303.14	33378	1526.7	.74
303.14	33345	1526.6	.74
303.14	33306	1526.5	.74
303.14	33268	1526.3	.74
303.14	33239	1526.2	.74
303.14	33200	1526.1	.74
303.14	33172	1526	.74
303.14	33133	1525.9	.74
303.14	33098	1525.7	.74
303.14	33054	1525.6	.74
303.14	33020	1525.5	.74
303.14	32977	1525.5	.74
303.14	32949	1525.4	.74
303.14	32920	1525.2	.74
303.14	32887	1525.2	.74
303.14	32858	1525.1	.74
303.14	32830	1524.9	.74
303.14	32792	1524.9	.74
303.14	32764	1524.8	.74
303.14	32736	1524.6	.74
303.14	32713	1524.6	.74
303.14	32674	1524.4	.74
303.14	32646	1524.3	.74
303.14	32603	1524.3	.74
303.14	32574	1524.1	.74
303.14	32542	1524.1	.74
303.14	32513	1524	.74
303.14	32481	1523.9	.74
303.14	32449	1523.8	.74
303.14	32418	1523.7	.74
303.14	32382	1523.4	.74
303.14	32345	1523.3	.74
303.14	32322	1523.4	.74
303.14	32280	1523.2	.74
303.14	32251	1523.2	.74
303.14	32215	1523	.74
303.14	32187	1522.9	.74
303.14	32155	1522.9	.74
303.14	32123	1522.8	.74
303.14	32086	1522.6	.74
303.14	32053	1522.5	.74
303.14	32012	1522.5	.74
303.14	31984	1522.4	.74
303.14	31947	1522.2	.74
303.15	31914	1522	.74
303.15	31871	1521.8	.74
303.15	31839	1521.9	.74
303.15	31806	1521.7	.74
303.15	31773	1521.7	.74
303.15	31745	1521.4	.74
303.15	31699	1521.4	.74
303.15	31671	1521.3	.74
303.15	31634	1521.1	.74
303.15	31607	1521.1	.74
303.15	31570	1521.1	.74
303.15	31538	1520.8	.74
303.15	31506	1520.8	.74
303.15	31478	1520.6	.74
303.15	31442	1520.5	.74
303.15	31415	1520.5	.74
303.15	31383	1520.3	.74
303.15	31351	1520.3	.74
303.15	31319	1520.1	.74
303.15	31292	1519.9	.74
303.15	31256	1519.8	.74
303.15	31223	1519.8	.74
303.15	31186	1519.7	.74
303.15	31149	1519.7	.74
303.15	31117	1519.6	.74
303.15	31076	1519.4	.74
303.15	31044	1519.2	.74
303.15	31009	1519	.74
303.15	30977	1519.1	.74
303.15	30945	1518.9	.74
303.15	30910	1518.8	.74
303.15	30873	1518.8	.74
303.15	30842	1518.6	.74
303.15	30805	1518.6	.74
303.15	30769	1518.4	.74
303.15	30735	1518.4	.74
303.15	30713	1518.1	.74
303.15	30678	1518.1	.74
303.15	30655	1518.1	.74
303.15	30619	1518	.74
303.15	30597	1517.8	.74
303.15	30561	1517.7	.74
303.15	30529	1517.6	.74
303.15	30502	1517.5	.74
303.15	30464	1517.4	.74
303.15	30437	1517.3	.74
303.15	30406	1517.2	.74
303.15	30376	1517.1	.74
303.15	30341	1516.9	.74
303.15	30316	1516.9	.74
303.15	30277	1516.8	.74
303.15	30247	1516.7	.74
303.15	30211	1516.5	.74
303.15	30176	1516.5	.74
303.15	30145	1516.4	.74
303.15	30110	1516.3	.74
303.15	30079	1516.2	.74
303.15	30043	1516.2	.74
303.15	30015	1516	.74
303.15	29984	1515.8	.74
303.15	29953	1515.7	.74
303.15	29927	1515.6	.74
303.15	29892	1515.6	.74
303.15	29866	1515.5	.74
303.15	29831	1515.3	.74
303.15	29800	1515.3	.74
303.15	29773	1515.3	.74
303.15	29746	1515	.74
303.15	29706	1515	.74
303.15	29676	1514.8	.74
303.15	29645	1514.6	.74
303.15	29614	1514.7	.74
303.15	29584	1514.6	.74
303.15	29554	1514.5	.74
303.15	29527	1514.4	.74
303.15	29492	1514.2	.74
303.15	29461	1514.1	.74
303.15	29429	1514.1	.74
303.15	29389	1513.9	.74
303.15	29349	1513.7	.74
303.15	29323	1513.6	.74
303.15	29298	1513.6	.74
303.15	29267	1513.4	.74
303.15	29235	1513.4	.74
303.15	29196	1513.3	.74
303.15	29169	1513	.74
303.15	29139	1513	.74
303.15	29113	1513	.74
303.15	29074	1512.8	.74
303.15	29047	1512.7	.74
303.15	29020	1512.7	.74
303.15	28997	1512.6	.74
303.15	28967	1512.6	.74
303.15	28924	1512.3	.74
303.15	28893	1512.3	.74
303.15	28858	1512.2	.74
303.15	28832	1512	.74
303.15	28793	1511.8	.74
303.15	28768	1511.7	.74
303.15	28729	1511.7	.74
303.15	28700	1511.5	.74
303.15	28661	1511.3	.74
303.15	28636	1511.4	.74
303.15	28601	1511.3	.74
303.15	28576	1511.2	.74
303.15	28541	1511.1	.74
303.15	28516	1510.9	.74
303.15	28486	1510.9	.74
303.15	28456	1510.8	.74
303.15	28427	1510.7	.74
303.14	28394	1510.6	.74
303.14	28355	1510.5	.74
303.14	28330	1510.4	.74
303.14	28300	1510.2	.74
303.14	28271	1510.1	.74
303.14	28241	1510	.74
303.14	28206	1510	.74
303.14	28184	1509.9	.74
303.14	28158	1509.6	.74
303.14	28120	1509.6	.74
303.14	28095	1509.5	.74
303.14	28065	1509.5	.74
303.14	28040	1509.3	.74
303.14	28006	1509.2	.74
303.14	27976	1509.1	.74
303.14	27946	1509	.74
303.14	27917	1508.9	.74
303.14	27887	1508.9	.74
303.14	27861	1508.6	.74
303.14	27840	1508.4	.74
303.14	27803	1508.5	.74
303.14	27769	1508.4	.74
303.14	27735	1508.3	.74
303.14	27705	1508.1	.74
303.14	27671	1508	.74
303.14	27634	1507.9	.74
303.14	27605	1507.8	.74
303.14	27562	1507.7	.74
303.14	27528	1507.5	.74
303.14	27494	1507.5	.74
303.15	27464	1507.4	.74
303.14	27427	1507.2	.74
303.14	27398	1507.2	.74
303.15	27368	1507.1	.74
303.15	27334	1506.8	.74
303.15	27304	1506.8	.74
303.15	27275	1506.7	.74
303.15	27246	1506.5	.74
303.14	27217	1506.5	.74
303.14	27188	1506.5	.74
303.14	27159	1506.3	.74
303.14	27130	1506.1	.74
303.14	27097	1506	.74
303.15	27060	1506	.74
303.15	27035	1505.9	.74
303.15	27006	1505.7	.74
303.15	26981	1505.7	.74
303.15	26948	1505.5	.74
303.15	26924	1505.5	.74
303.15	26891	1505.3	.74
303.15	26858	1505.2	.74
303.15	26834	1505.2	.74
303.15	26801	1505.1	.74
303.15	26776	1504.9	.74
303.15	26743	1504.8	.74
303.15	26714	1504.6	.74
303.14	26685	1504.6	.74
303.14	26661	1504.7	.74
303.14	26627	1504.5	.74
303.14	26602	1504.5	.74
303.14	26573	1504.3	.74
303.15	26545	1504.1	.74
303.15	26512	1503.9	.74
303.14	26487	1503.9	.74
303.14	26459	1504	.74
303.15	26418	1503.8	.74
303.15	26394	1503.6	.74
303.15	26361	1503.5	.74
303.15	26336	1503.4	.74
303.15	26307	1503.3	.74
303.15	26284	1503.3	.74
303.15	26252	1503	.74
303.15	26216	1502.9	.74
303.15	26191	1502.9	.74
303.15	26158	1502.9	.74
303.15	26134	1502.8	.74
303.15	26109	1502.6	.74
303.15	26076	1502.6	.74
303.15	26056	1502.4	.74
303.15	26025	1502.4	.74
303.15	26000	1502.2	.74
303.15	25972	1502.1	.74
303.15	25944	1502	.74
303.15	25911	1501.9	.74
303.15	25891	1501.9	.74
303.15	25858	1501.5	.74
303.15	25837	1501.5	.74
303.15	25801	1501.6	.74
303.15	25774	1501.4	.74
303.15	25740	1501.3	.74
303.15	25715	1501.2	.74
303.15	25686	1501	.74
303.15	25658	1501.1	.74
303.15	25630	1501	.74
303.15	25602	1500.8	.74
303.15	25561	1500.7	.74
303.15	25528	1500.5	.74
303.15	25503	1500.4	.74
303.15	25467	1500.4	.74
303.15	25443	1500.1	.74
303.15	25411	1500.1	.74
303.15	25370	1499.9	.74
303.15	25346	1499.9	.74
303.15	25310	1499.8	.74
303.15	25287	1499.7	.74
303.15	25247	1499.5	.74
303.15	25223	1499.5	.74
303.15	25195	1499.1	.74
303.15	25167	1499.3	.74
303.15	25135	1499.1	.74
303.15	25110	1499.1	.74
303.15	25077	1498.9	.74
303.15	25049	1498.9	.74
303.15	25022	1498.7	.74
303.15	24987	1498.7	.74
303.15	24952	1498.5	.74
303.15	24928	1498.3	.74
303.15	24901	1498.4	.74
303.15	24868	1498.2	.74
303.15	24844	1498.2	.74
303.15	24809	1497.9	.74
303.15	24778	1497.8	.74
303.15	24750	1497.8	.74
303.15	24714	1497.6	.74
303.15	24682	1497.4	.74
303.15	24654	1497.4	.74
303.15	24626	1497.4	.74
303.15	24590	1497.1	.74
303.15	24559	1497.1	.74
303.15	24528	1497	.74
303.15	24496	1496.7	.74
303.15	24461	1496.8	.74
303.15	24429	1496.6	.74
303.15	24397	1496.4	.74
303.15	24370	1496.4	.74
303.15	24338	1496.2	.74
303.15	24303	1496.1	.74
303.15	24271	1496.1	.74
303.15	24240	1495.8	.74
303.15	24209	1495.8	.74
303.15	24178	1495.8	.74
303.15	24143	1495.5	.74
303.15	24107	1495.5	.74
303.15	24063	1495.2	.74
303.15	24032	1495.2	.74
303.15	24001	1494.9	.74
303.15	23969	1494.8	.74
303.15	23938	1494.6	.74
303.15	23911	1494.7	.74
303.15	23884	1494.5	.74
303.15	23848	1494.4	.74
303.15	23812	1494.2	.74
303.15	23780	1494.1	.74
303.15	23749	1494.1	.74
303.15	23717	1493.9	.74
303.14	23681	1493.8	.74
303.14	23651	1493.8	.74
303.14	23621	1493.5	.74
303.14	23594	1493.4	.74
303.14	23559	1493.4	.74
303.15	23528	1493.1	.74
303.15	23497	1493	.74
303.15	23462	1492.9	.74
303.15	23431	1492.8	.74
303.15	23395	1492.8	.74
303.15	23364	1492.6	.74
303.15	23342	1492.6	.74
303.15	23307	1492.3	.74
303.15	23281	1492.3	.74
303.15	23249	1492.1	.74
303.15	23217	1492	.74
303.15	23186	1491.9	.74
303.15	23159	1491.7	.74
303.15	23128	1491.8	.74
303.15	23102	1491.5	.74
303.15	23062	1491.6	.74
303.15	23032	1491.4	.74
303.15	22997	1491.3	.74
303.15	22959	1491.1	.74
303.15	22934	1490.9	.74
303.15	22899	1490.8	.74
303.15	22863	1490.7	.74
303.15	22828	1490.5	.74
303.15	22801	1490.4	.74
303.15	22771	1490.3	.74
303.15	22733	1490.2	.74
303.15	22707	1490.1	.74
303.15	22673	1490	.74
303.15	22643	1489.7	.74
303.15	22613	1489.9	.74
303.15	22580	1489.5	.74
303.15	22548	1489.4	.74
303.15	22514	1489.4	.74
303.15	22485	1489.3	.74
303.15	22447	1489.1	.74
303.14	22404	1488.9	.74
303.14	22361	1488.8	.74
303.15	22323	1488.6	.74
303.14	22280	1488.4	.74
303.14	22251	1488.4	.74
303.14	22208	1488.1	.74
303.14	22178	1488.1	.74
303.14	22140	1487.9	.74
303.14	22096	1487.7	.74
303.14	22067	1487.7	.74
303.14	22039	1487.5	.74
303.14	22005	1487.5	.74
303.14	21972	1487.3	.74
303.14	21939	1487.2	.74
303.14	21906	1486.9	.74
303.14	21869	1486.9	.74
303.14	21835	1486.9	.74
303.14	21797	1486.6	.74
303.14	21764	1486.4	.74
303.14	21731	1486.4	.74
303.14	21693	1486.3	.74
303.14	21659	1486	.74
303.15	21626	1486	.74
303.15	21593	1485.8	.74
303.15	21556	1485.5	.74
303.15	21523	1485.5	.74
303.15	21490	1485.4	.74
303.15	21458	1485.3	.74
303.15	21421	1485.1	.74
303.15	21388	1485	.74
303.15	21360	1484.9	.74
303.15	21322	1484.7	.74
303.15	21278	1484.6	.74
303.15	21250	1484.5	.74
303.15	21217	1484.4	.74
303.15	21193	1484.2	.74
303.15	21152	1484.1	.74
303.15	21120	1483.8	.74
303.15	21082	1483.8	.74
303.15	21049	1483.6	.74
303.16	21003	1483.6	.74
303.16	20974	1483.4	.74
303.16	20941	1483.3	.74
303.16	20912	1483.1	.74
303.15	20880	1482.9	.74
303.16	20848	1482.9	.74
303.15	20802	1482.7	.74
303.15	20769	1482.6	.74
303.15	20728	1482.4	.74
303.15	20701	1482.2	.74
303.15	20668	1482	.74
303.15	20637	1481.9	.74
303.15	20597	1481.8	.74
303.15	20570	1481.7	.74
303.15	20539	1481.6	.74
303.15	20491	1481.3	.74
303.15	20463	1481.3	.74
303.15	20436	1481.2	.74
303.15	20394	1481	.74
303.15	20357	1480.8	.74
303.15	20325	1480.6	.74
303.15	20285	1480.6	.74
303.15	20244	1480.4	.74
303.15	20216	1480.2	.74
303.15	20179	1480.1	.74
303.15	20152	1480	.74
303.15	20107	1479.9	.74
303.15	20076	1479.9	.74
303.15	20044	1479.6	.74
303.15	20016	1479.4	.74
303.15	19981	1479.4	.74
303.15	19949	1479.2	.74
303.15	19918	1479	.74
303.15	19891	1478.9	.74
303.15	19860	1478.8	.74
303.15	19828	1478.6	.74
303.15	19785	1478.6	.74
303.15	19758	1478.3	.74
303.15	19717	1478.1	.74
303.15	19691	1478.1	.74
303.15	19655	1478.1	.74
303.15	19624	1477.9	.74
303.15	19592	1477.7	.74
303.15	19553	1477.5	.74
303.15	19517	1477.4	.74
303.15	19490	1477.3	.74
303.15	19455	1477.2	.74
303.15	19420	1477	.74
303.15	19385	1476.8	.74
303.15	19353	1476.7	.74
303.15	19327	1476.6	.74
303.15	19296	1476.6	.74
303.15	19270	1476.4	.74
303.15	19235	1476.3	.74
303.15	19200	1476.1	.74
303.15	19166	1476	.74
303.15	19144	1475.8	.74
303.15	19101	1475.6	.74
303.15	19075	1475.6	.74
303.15	19044	1475.5	.74
303.15	19017	1475.4	.74
303.15	18980	1475.2	.74
303.15	18954	1475.1	.74
303.15	18913	1475	.74
303.15	18888	1474.9	.74
303.15	18861	1474.7	.74
303.15	18835	1474.5	.74
303.15	18803	1474.4	.74
303.15	18777	1474.3	.74
303.15	18737	1474.2	.74
303.15	18707	1474.1	.74
303.15	18677	1473.8	.74
303.15	18646	1473.8	.74
303.15	18615	1473.7	.74
303.15	18580	1473.5	.74
303.15	18545	1473.3	.74
303.15	18511	1473.3	.74
303.15	18480	1472.9	.74
303.15	18449	1473	.74
303.15	18419	1472.9	.74
303.15	18389	1472.6	.74
303.15	18359	1472.6	.74
303.15	18333	1472.5	.74
303.15	18303	1472.4	.74
303.15	18277	1472.1	.74
303.15	18238	1472.2	.74
303.15	18211	1471.9	.74
303.15	18185	1471.7	.74
303.15	18151	1471.7	.74
303.15	18125	1471.6	.74
303.15	18091	1471.3	.74
303.15	18056	1471.2	.74
303.15	18026	1471.1	.74
303.15	17996	1471	.74
303.15	17958	1471	.74
303.15	17928	1470.7	.74
303.15	17892	1470.5	.74
303.15	17867	1470.6	.74
303.15	17837	1470.3	.74
303.15	17808	1470.1	.74
303.15	17778	1470	.74
303.15	17752	1470	.74
303.15	17718	1469.9	.74
303.14	17693	1469.8	.74
303.15	17662	1469.6	.74
303.15	17633	1469.4	.74
303.15	17603	1469.3	.74
303.15	17577	1469.3	.74
303.15	17544	1469.1	.74
303.15	17509	1468.9	.74
303.15	17484	1468.8	.74
303.15	17451	1468.7	.74
303.15	17423	1468.6	.74
303.15	17393	1468.3	.74
303.15	17360	1468.3	.74
303.15	17322	1468.1	.74
303.15	17289	1468	.74
303.15	17260	1467.9	.74
303.15	17235	1467.8	.74
303.15	17196	1467.5	.74
303.15	17167	1467.5	.74
303.15	17142	1467.4	.74
303.15	17113	1467.2	.74
303.15	17084	1467	.74
303.15	17046	1466.9	.74
303.15	17021	1466.7	.74
303.15	16978	1466.6	.74
303.15	16953	1466.4	.74
303.15	16920	1466.4	.74
303.15	16887	1466.2	.74
303.15	16862	1466	.74
303.15	16832	1466	.74
303.15	16802	1465.8	.74
303.15	16775	1465.7	.74
303.15	16742	1465.5	.74
303.15	16706	1465.4	.74
303.15	16678	1465.2	.74
303.15	16650	1465.1	.74
303.15	16623	1465.1	.74
303.15	16577	1464.8	.74
303.15	16550	1464.7	.74
303.15	16513	1464.6	.74
303.15	16485	1464.4	.74
303.15	16443	1464.3	.74
303.15	16414	1464.1	.74
303.15	16386	1464	.74
303.15	16349	1463.9	.74
303.15	16325	1463.8	.74
303.15	16288	1463.6	.74
303.15	16252	1463.4	.74
303.15	16220	1463.2	.74
303.15	16184	1463	.74
303.15	16152	1462.9	.74
303.15	16111	1462.8	.74
303.15	16079	1462.6	.74
303.15	16038	1462.4	.74
303.15	16006	1462.4	.74
303.15	15975	1462	.74
303.15	15948	1462	.74
303.15	15914	1461.8	.74
303.15	15879	1461.7	.74
303.15	15840	1461.4	.74
303.15	15805	1461.3	.74
303.15	15780	1461.1	.74
303.15	15751	1461.1	.74
303.15	15721	1461.1	.74
303.15	15692	1460.8	.74
303.15	15662	1460.6	.74
303.15	15623	1460.4	.74
303.15	15578	1460.3	.74
303.15	15540	1460.2	.74
303.15	15500	1459.9	.74
303.15	15461	1459.8	.74
303.15	15422	1459.6	.74
303.15	15389	1459.5	.74
303.15	15351	1459.2	.74
303.15	15317	1459.2	.74
303.15	15283	1459	.74
303.15	15252	1458.8	.74
303.15	15222	1458.7	.74
303.15	15193	1458.5	.74
303.15	15159	1458.3	.74
303.15	15121	1458.3	.74
303.15	15091	1458	.74
303.15	15062	1457.8	.74
303.15	15024	1457.9	.74
303.15	14981	1457.7	.74
303.15	14938	1457.4	.74
303.15	14909	1457.2	.74
303.15	14875	1457.1	.74
303.14	14835	1456.8	.74
303.14	14797	1456.7	.74
303.14	14755	1456.5	.74
303.14	14726	1456.4	.74
303.14	14687	1456	.74
303.14	14653	1455.9	.74
303.14	14620	1455.8	.74
303.14	14583	1455.6	.74
303.15	14555	1455.5	.74
303.15	14521	1455.4	.74
303.15	14493	1455	.74
303.15	14450	1455	.74
303.15	14416	1455	.74
303.15	14388	1454.9	.74
303.15	14355	1454.7	.74
303.15	14322	1454.4	.74
303.15	14289	1454.2	.74
303.15	14261	1454.1	.74
303.15	14223	1454.1	.74
303.15	14189	1453.8	.74
303.15	14146	1453.5	.74
303.15	14113	1453.4	.74
303.15	14069	1453.3	.74
303.15	14032	1453.1	.74
303.15	14003	1452.9	.74
303.15	13966	1452.7	.74
303.15	13937	1452.6	.74
303.15	13900	1452.4	.74
303.15	13867	1452.1	.74
303.15	13826	1452	.74
303.15	13794	1451.9	.74
303.15	13762	1451.7	.74
303.15	13730	1451.6	.74
303.15	13689	1451.3	.74
303.15	13652	1451.1	.74
303.15	13620	1451.1	.74
303.15	13593	1450.8	.74
303.15	13547	1450.6	.74
303.15	13516	1450.6	.74
303.15	13468	1450.3	.74
303.15	13432	1450.1	.74
303.15	13400	1449.9	.74
303.15	13364	1449.7	.74
303.15	13317	1449.6	.74
303.15	13275	1449.4	.74
303.15	13229	1449.2	.74
303.15	13186	1448.9	.74
303.15	13150	1448.8	.74
303.15	13108	1448.5	.74
303.15	13077	1448.3	.74
303.15	13030	1448.2	.74
303.15	12995	1447.8	.74
303.15	12965	1447.8	.74
303.15	12924	1447.5	.74
303.15	12877	1447.5	.74
303.15	12830	1447.2	.74
303.15	12793	1447	.74
303.15	12752	1446.7	.74
303.15	12722	1446.5	.74
303.15	12681	1446.4	.74
303.15	12631	1446.1	.74
303.15	12595	1446	.74
303.15	12558	1445.7	.74
303.15	12527	1445.6	.74
303.15	12481	1445.4	.74
303.15	12445	1445.1	.74
303.15	12404	1444.9	.74
303.14	12373	1444.7	.74
303.14	12330	1444.6	.74
303.14	12284	1444.2	.74
303.14	12242	1444.1	.74
303.14	12207	1443.9	.74
303.14	12163	1443.8	.74
303.14	12132	1443.6	.74
303.14	12092	1443.4	.74
303.15	12052	1443.3	.74
303.15	12022	1443	.74
303.15	11987	1442.8	.74
303.15	11952	1442.7	.74
303.15	11915	1442.5	.74
303.15	11875	1442.2	.74
303.15	11840	1442.2	.74
303.15	11800	1442	.74
303.15	11770	1441.7	.74
303.15	11734	1441.6	.74
303.15	11703	1441.2	.74
303.15	11668	1441.2	.74
303.15	11633	1441	.74
303.15	11599	1440.8	.74
303.15	11555	1440.6	.74
303.15	11525	1440.4	.74
303.15	11473	1440.1	.74
303.15	11442	1439.8	.74
303.15	11402	1439.8	.74
303.15	11372	1439.7	.74
303.15	11332	1439.3	.74
303.15	11297	1439.2	.74
303.15	11258	1439.1	.74
303.15	11218	1438.8	.74
303.15	11183	1438.6	.74
303.15	11143	1438.4	.74
303.15	11105	1438.2	.74
303.15	11066	1438	.74
303.15	11032	1437.7	.74
303.14	10989	1437.6	.74
303.15	10960	1437.4	.74
303.14	10918	1437.3	.74
303.14	10890	1437.1	.74
303.14	10852	1437.1	.74
303.15	10824	1436.9	.74
303.15	10791	1436.6	.74
303.15	10753	1436.4	.74
303.15	10725	1436.2	.74
303.15	10695	1436	.74
303.15	10662	1436	.74
303.15	10629	1435.8	.74
303.15	10596	1435.4	.74
303.15	10559	1435.3	.74
303.15	10531	1435.1	.74
303.15	10494	1434.9	.74
303.15	10466	1434.8	.74
303.15	10434	1434.6	.74
303.15	10406	1434.4	.74
303.15	10379	1434.3	.74
303.15	10343	1434	.74
303.15	10311	1434	.74
303.15	10278	1433.7	.74
303.15	10255	1433.7	.74
303.15	10228	1433.5	.74
303.15	10201	1433.4	.74
303.15	10174	1433.2	.74
303.15	10137	1433	.74
303.15	10110	1432.8	.74
303.15	10069	1432.6	.74
303.15	10037	1432.6	.74
303.15	9996	1432.3	.74
303.15	9969	1432.1	.74
303.15	9938	1431.8	.74
303.15	9906	1431.7	.74
303.15	9878	1431.5	.74
303.15	9833	1431.3	.74
303.15	9806	1431.2	.74
303.15	9779	1431.1	.74
303.15	9747	1430.8	.74
303.15	9720	1430.6	.74
303.15	9693	1430.5	.74
303.15	9661	1430.3	.74
303.15	9634	1430.2	.74
303.15	9598	1429.9	.74
303.15	9567	1429.9	.74
303.15	9533	1429.7	.74
303.15	9502	1429.4	.74
303.15	9480	1429.3	.74
303.15	9445	1429.1	.74
303.15	9401	1428.9	.74
303.15	9370	1428.6	.74
303.15	9334	1428.5	.74
303.15	9299	1428.3	.74
303.15	9263	1428.1	.74
303.16	9223	1427.9	.74
303.16	9192	1427.6	.74
303.16	9158	1427.5	.74
303.16	9131	1427.4	.74
303.16	9092	1427.1	.74
303.15	9066	1426.9	.74
303.15	9031	1426.8	.74
303.15	9004	1426.6	.74
303.15	8978	1426.5	.74
303.15	8947	1426.2	.74
303.15	8908	1426.2	.74
303.15	8873	1425.9	.74
303.15	8847	1425.8	.74
303.15	8808	1425.5	.74
303.15	8778	1425.4	.74
303.15	8752	1425.2	.74
303.15	8726	1425	.74
303.15	8697	1424.8	.74
303.15	8671	1424.6	.74
303.15	8640	1424.4	.74
303.15	8610	1424.4	.74
303.15	8581	1424.3	.74
303.15	8556	1423.9	.74
303.15	8526	1423.9	.74
303.15	8496	1423.6	.74
303.15	8471	1423.6	.74
303.15	8436	1423.4	.74
303.15	8411	1423.1	.74
303.15	8378	1423	.74
303.15	8340	1422.8	.74
303.15	8306	1422.5	.74
303.15	8280	1422.3	.74
303.15	8250	1422.2	.74
303.15	8211	1422	.74
303.15	8181	1421.9	.74
303.15	8152	1421.5	.74
303.15	8123	1421.4	.74
303.15	8093	1421.3	.74
303.15	8067	1421.1	.74
303.15	8033	1421	.74
303.15	8008	1420.7	.74
303.15	7970	1420.6	.74
303.15	7941	1420.4	.74
303.15	7912	1420.3	.74
303.15	7879	1420	.74
303.15	7850	1419.8	.74
303.15	7821	1419.5	.74
303.15	7795	1419.4	.74
303.15	7762	1419.2	.74
303.15	7727	1419	.74
303.15	7702	1418.8	.74
303.15	7669	1418.7	.74
303.15	7628	1418.5	.74
303.15	7599	1418.3	.74
303.15	7570	1418.2	.74
303.15	7536	1417.9	.74
303.15	7507	1417.7	.74
303.15	7474	1417.5	.74
303.15	7441	1417.3	.74
303.14	7413	1417.1	.74
303.14	7384	1417.1	.74
303.14	7356	1416.8	.74
303.14	7327	1416.7	.74
303.14	7298	1416.5	.74
303.14	7273	1416.3	.74
303.14	7245	1416.2	.74
303.15	7216	1416	.74
303.15	7192	1415.8	.74
303.15	7171	1415.7	.74
303.15	7138	1415.5	.74
303.15	7110	1415.2	.74
303.15	7077	1415.1	.74
303.15	7056	1415	.74
303.15	7030	1414.8	.74
303.15	7006	1414.7	.74
303.15	6974	1414.4	.74
303.15	6937	1414.3	.74
303.15	6909	1414.1	.74
303.15	6881	1414	.74
303.15	6845	1413.6	.74
303.15	6820	1413.5	.74
303.15	6796	1413.4	.74
303.15	6772	1413.3	.74
303.15	6744	1413.1	.74
303.15	6720	1412.9	.74
303.15	6699	1412.7	.74
303.15	6675	1412.6	.74
303.15	6647	1412.4	.74
303.15	6617	1412.2	.74
303.15	6581	1411.9	.74
303.15	6556	1411.7	.74
303.15	6529	1411.6	.74
303.15	6493	1411.3	.74
303.15	6469	1411.1	.74
303.15	6441	1411.1	.74
303.15	6413	1410.8	.74
303.15	6382	1410.7	.74
303.15	6356	1410.5	.74
303.15	6332	1410.3	.74
303.15	6300	1410.1	.74
303.15	6272	1409.9	.74
303.15	6240	1409.7	.74
303.15	6217	1409.6	.74
303.15	6186	1409.4	.74
303.15	6167	1409.2	.74
303.15	6135	1409	.74
303.15	6108	1408.9	.74
303.15	6080	1408.8	.74
303.15	6056	1408.6	.74
303.15	6033	1408.4	.74
303.15	6003	1408.2	.74
303.15	5980	1408.2	.74
303.15	5957	1408	.74
303.15	5934	1407.9	.74
303.15	5906	1407.7	.74
303.15	5879	1407.3	.74
303.15	5856	1407.3	.74
303.15	5829	1407.1	.74
303.15	5795	1406.8	.74
303.15	5768	1406.6	.74
303.15	5738	1406.4	.74
303.15	5715	1406.3	.74
303.15	5688	1406.2	.74
303.15	5654	1405.9	.74
303.15	5635	1405.8	.74
303.15	5609	1405.6	.74
303.15	5568	1405.3	.74
303.15	5546	1405.2	.74
303.15	5509	1405	.74
303.15	5479	1404.8	.74
303.15	5457	1404.7	.74
303.15	5427	1404.4	.74
303.15	5405	1404.1	.74
303.15	5379	1404	.74
303.15	5356	1403.9	.74
303.15	5335	1403.7	.74
303.15	5308	1403.6	.74
303.15	5286	1403.5	.74
303.15	5261	1403.2	.74
303.15	5239	1403	.74
303.15	5221	1403	.74
303.15	5194	1402.8	.74
303.15	5172	1402.6	.74
303.15	5146	1402.4	.74
303.15	5116	1402.4	.74
303.15	5082	1402.2	.74
303.15	5060	1401.7	.74
303.15	5035	1401.8	.74
303.15	5013	1401.5	.74
303.15	4984	1401.4	.74
303.15	4958	1401.2	.74
303.15	4933	1401.1	.74
303.15	4904	1400.9	.74
303.15	4875	1400.6	.74
303.16	4845	1400.4	.74
303.15	4811	1400.2	.74
303.15	4788	1400	.74
303.15	4765	1399.9	.74
303.15	4735	1399.6	.74
303.15	4710	1399.5	.74
303.15	4684	1399.2	.74
303.15	4659	1399.4	.74
303.15	4633	1399.1	.74
303.15	4611	1398.9	.74
303.15	4582	1398.6	.74
303.15	4552	1398.4	.74
303.15	4524	1398	.74
303.15	4497	1397.9	.74
303.15	4466	1397.8	.74
303.15	4444	1397.6	.74
303.15	4416	1397.5	.74
303.16	4395	1397.2	.74
303.16	4366	1397.2	.74
303.16	4345	1396.9	.74
303.16	4314	1396.7	.74
303.15	4290	1396.4	.74
303.15	4273	1396.5	.74
303.15	4249	1396.3	.74
303.15	4217	1396	.74
303.15	4189	1395.8	.74
303.15	4168	1395.6	.74
303.15	4147	1395.5	.74
303.15	4123	1395.3	.74
303.15	4099	1395.1	.74
303.15	4072	1395	.74
303.15	4050	1394.7	.74
303.15	4022	1394.6	.74
303.15	3991	1394.5	.74
303.15	3964	1394.2	.74
303.15	3940	1394	.74
303.15	3919	1393.8	.74
303.15	3902	1393.7	.74
303.15	3875	1393.5	.74
303.15	3844	1393.3	.74
303.15	3820	1393	.74
303.15	3789	1393	.74
303.15	3765	1392.7	.74
303.15	3735	1392.5	.74
303.15	3714	1392.2	.74
303.15	3690	1392.1	.74
303.15	3667	1391.9	.74
303.15	3637	1391.7	.74
303.15	3614	1391.6	.74
303.15	3587	1391.3	.74
303.15	3568	1391.4	.74
303.15	3541	1391.2	.74
303.15	3521	1390.8	.74
303.15	3498	1390.7	.74
303.15	3471	1390.4	.74
303.15	3448	1390.3	.74
303.15	3428	1390.3	.74
303.15	3402	1390.2	.74
303.15	3383	1389.8	.74
303.15	3357	1389.6	.74
303.16	3334	1389.4	.74
303.15	3319	1389.4	.74
303.15	3293	1389.2	.74
303.15	3271	1389	.74
303.16	3245	1388.9	.74
303.15	3222	1388.8	.74
303.15	3203	1388.6	.74
303.16	3180	1388.4	.74
303.16	3161	1388.3	.74
303.15	3136	1387.9	.74
303.15	3114	1387.8	.74
303.15	3088	1387.7	.74
303.15	3068	1387.5	.74
303.16	3045	1387.3	.74
303.15	3022	1387.1	.74
303.15	3000	1387	.74
303.16	2970	1386.7	.74
303.16	2945	1386.6	.74
303.16	2923	1386.5	.74
303.16	2903	1386.2	.74
303.16	2874	1386.1	.74
303.16	2855	1385.8	.74
303.16	2833	1385.7	.74
303.16	2809	1385.5	.74
303.16	2781	1385.3	.74
303.15	2762	1385	.74
303.15	2737	1384.9	.74
303.15	2718	1384.7	.74
303.15	2695	1384.5	.74
303.15	2673	1384.4	.74
303.15	2651	1384.2	.74
303.15	2632	1384.1	.74
303.15	2607	1384	.74
303.15	2591	1383.8	.74
303.15	2569	1383.6	.74
303.15	2552	1383.4	.74
303.15	2528	1383.3	.74
303.15	2510	1383.4	.74
303.15	2482	1383	.74
303.15	2461	1382.7	.74
303.15	2439	1382.6	.74
303.15	2418	1382.4	.74
303.15	2402	1382.4	.74
303.15	2378	1382.2	.74
303.15	2353	1381.9	.74
303.15	2332	1381.8	.74
303.15	2308	1381.6	.74
303.15	2283	1381.5	.74
303.16	2262	1381.2	.74
303.16	2238	1381	.74
303.16	2220	1380.9	.74
303.16	2196	1380.8	.74
303.16	2175	1380.5	.74
303.16	2155	1380.4	.74
303.15	2131	1380.1	.74
303.15	2105	1379.8	.74
303.15	2084	1379.7	.74
303.15	2063	1379.7	.74
303.15	2041	1379.4	.74
303.15	2014	1379.2	.74
303.15	1989	1379	.74
303.15	1968	1378.8	.74
303.15	1945	1378.6	.74
303.15	1924	1378.4	.74
303.15	1903	1378.3	.74
303.15	1883	1377.9	.74
303.15	1859	1377.8	.74
303.16	1841	1377.8	.74
303.15	1812	1377.6	.74
303.15	1794	1377.4	.74
303.16	1773	1377.2	.74
303.16	1756	1377.1	.74
303.15	1732	1376.9	.74
303.15	1706	1376.6	.74
303.15	1689	1376.4	.74
303.15	1666	1376.5	.74
303.15	1645	1376.1	.74
303.15	1631	1375.9	.74
303.15	1608	1375.8	.74
303.15	1590	1375.6	.74
303.15	1568	1375.5	.74
303.15	1548	1375.3	.74
303.15	1522	1375	.74
303.15	1505	1375	.74
303.15	1481	1374.7	.74
303.15	1464	1374.6	.74
303.15	1440	1374.4	.74
303.15	1417	1374.2	.74
303.15	1395	1374.1	.74
303.15	1374	1373.9	.74
303.15	1354	1373.7	.74
303.15	1339	1373.5	.74
303.15	1317	1373.4	.74
303.15	1299	1373.1	.74
303.15	1284	1373.1	.74
303.15	1267	1372.9	.74
303.15	1250	1372.8	.74
303.14	1230	1372.6	.74
303.15	1213	1372.5	.74
303.15	1199	1372.3	.74
303.15	1177	1372.1	.74
303.15	1161	1372	.74
303.15	1139	1371.8	.74
303.15	1110	1371.6	.74
303.15	1090	1371.4	.74
303.15	1060	1371.1	.74
303.15	1030	1370.9	.74
303.15	1000	1370.7	.74
303.15	980	1370.4	.74
303.15	950	1370.1	.74
303.15	920	1369.9	.74
303.15	900	1369.8	.74
303.15	870	1369.5	.74
303.15	850	1369.3	.74
303.15	830	1369.2	.74
303.15	800	1368.9	.74
303.15	780	1368.7	.74
303.15	750	1368.5	.74
303.15	740	1368.3	.74
303.15	720	1368.1	.74
303.15	700	1368	.74
303.15	680	1367.6	.74
303.15	650	1367.5	.74
303.15	630	1367.3	.74
303.15	600	1367.1	.74
303.15	580	1367	.74
303.15	560	1366.8	.74
303.15	540	1366.5	.74
313.15	34489	1505.4	.74
313.15	34482	1505.4	.74
313.15	34473	1505.2	.74
313.15	34461	1505.2	.74
313.15	34451	1505.2	.74
313.15	34430	1505.2	.74
313.15	34408	1505.1	.74
313.15	34374	1505	.74
313.15	34336	1504.7	.74
313.15	34305	1504.8	.74
313.15	34269	1504.6	.74
313.15	34232	1504.6	.74
313.15	34201	1504.5	.74
313.15	34171	1504.4	.74
313.15	34136	1504.1	.74
313.15	34100	1504	.74
313.15	34060	1503.9	.74
313.15	34027	1503.8	.74
313.15	33981	1503.8	.74
313.15	33928	1503.5	.74
313.15	33888	1503.3	.74
313.15	33848	1503.2	.74
313.15	33807	1503.2	.74
313.15	33763	1503	.74
313.15	33729	1502.8	.74
313.15	33684	1502.6	.74
313.15	33640	1502.6	.74
313.15	33585	1502.3	.74
313.15	33551	1502.5	.74
313.15	33502	1502.1	.74
313.15	33462	1501.9	.74
313.15	33408	1501.8	.74
313.15	33375	1501.7	.74
313.15	33332	1501.7	.74
313.15	33290	1501.5	.74
313.15	33258	1501.4	.74
313.15	33220	1501.2	.74
313.15	33176	1501.1	.74
313.15	33127	1500.8	.74
313.14	33094	1500.7	.74
313.15	33062	1500.7	.74
313.14	33013	1500.5	.74
313.14	32975	1500.4	.74
313.14	32937	1500.2	.74
313.14	32900	1500.1	.74
313.14	32853	1500	.74
313.14	32821	1500	.74
313.14	32789	1499.7	.74
313.14	32736	1499.5	.74
313.15	32700	1499.5	.74
313.14	32652	1499.4	.74
313.14	32604	1499	.74
313.14	32566	1499	.74
313.14	32523	1498.9	.74
313.14	32485	1498.7	.74
313.14	32447	1498.5	.74
313.14	32414	1498.5	.74
313.14	32369	1498.3	.74
313.15	32326	1498.2	.74
313.15	32288	1498.1	.74
313.15	32235	1497.9	.74
313.14	32203	1497.7	.74
313.15	32170	1497.7	.74
313.14	32132	1497.6	.74
313.15	32094	1497.4	.74
313.15	32040	1497.3	.74
313.15	32008	1497.3	.74
313.15	31964	1497	.74
313.15	31931	1496.9	.74
313.15	31894	1496.7	.74
313.15	31856	1496.6	.74
313.15	31819	1496.4	.74
313.15	31782	1496.5	.74
313.14	31739	1496.2	.74
313.14	31696	1495.9	.74
313.14	31653	1495.9	.74
313.14	31617	1495.8	.74
313.14	31585	1495.6	.74
313.15	31554	1495.6	.74
313.15	31513	1495.4	.74
313.15	31477	1495.4	.74
313.15	31429	1495.1	.74
313.14	31397	1495.1	.74
313.14	31355	1494.8	.74
313.14	31324	1494.9	.74
313.14	31284	1494.6	.74
313.14	31252	1494.5	.74
313.14	31225	1494.5	.74
313.14	31193	1494.3	.74
313.14	31162	1494.3	.74
313.14	31110	1494.1	.74
313.14	31073	1494	.74
313.14	31036	1493.7	.74
313.14	30999	1493.6	.74
313.14	30962	1493.5	.74
313.14	30921	1493.5	.74
313.14	30889	1493.2	.74
313.14	30847	1493.3	.74
313.14	30815	1493	.74
313.14	30775	1492.8	.74
313.14	30727	1492.7	.74
313.14	30690	1492.5	.74
313.14	30664	1492.6	.74
313.14	30624	1492.2	.74
313.14	30593	1492.2	.74
313.14	30547	1492	.74
313.14	30511	1492	.74
313.14	30466	1491.8	.74
313.14	30424	1491.8	.74
313.14	30376	1491.5	.74
313.14	30342	1491.3	.74
313.14	30299	1491.3	.74
313.14	30259	1491.1	.74
313.14	30217	1491	.74
313.14	30185	1490.7	.74
313.14	30159	1490.6	.74
313.14	30117	1490.6	.74
313.14	30081	1490.3	.74
313.14	30045	1490.2	.74
313.14	30015	1490.2	.74
313.14	29980	1490.2	.74
313.14	29950	1489.9	.74
313.14	29915	1489.9	.74
313.14	29883	1489.8	.74
313.14	29841	1489.5	.74
313.14	29798	1489.5	.74
313.14	29757	1489.4	.74
313.14	29711	1489.2	.74
313.14	29682	1489.1	.74
313.14	29641	1489	.74
313.15	29610	1488.7	.74
313.15	29570	1488.6	.74
313.15	29525	1488.6	.74
313.15	29496	1488.3	.74
313.15	29450	1488.1	.74
313.15	29416	1488	.74
313.15	29381	1487.9	.74
313.15	29341	1487.9	.74
313.15	29305	1487.6	.74
313.15	29269	1487.5	.74
313.15	29239	1487.5	.74
313.15	29208	1487.3	.74
313.15	29166	1487.2	.74
313.15	29135	1487	.74
313.15	29100	1487	.74
313.14	29059	1486.6	.74
313.14	29033	1486.8	.74
313.14	28993	1486.5	.74
313.14	28953	1486.3	.74
313.14	28918	1486.2	.74
313.14	28889	1486.1	.74
313.14	28855	1486.1	.74
313.14	28820	1485.9	.74
313.14	28790	1485.8	.74
313.15	28761	1485.7	.74
313.15	28717	1485.6	.74
313.15	28674	1485.3	.74
313.15	28643	1485.2	.74
313.15	28613	1485.2	.74
313.15	28567	1485	.74
313.15	28538	1484.9	.74
313.15	28499	1484.8	.74
313.15	28465	1484.6	.74
313.15	28424	1484.5	.74
313.15	28389	1484.3	.74
313.15	28349	1484.3	.74
313.15	28311	1484	.74
313.15	28282	1484	.74
313.15	28253	1483.8	.74
313.15	28213	1483.6	.74
313.15	28166	1483.6	.74
313.15	28137	1483.5	.74
313.15	28094	1483.2	.74
313.15	28065	1483.1	.74
313.15	28031	1483	.74
313.15	27997	1482.8	.74
313.15	27959	1482.7	.74
313.15	27923	1482.7	.74
313.15	27894	1482.6	.74
313.14	27864	1482.4	.74
313.14	27835	1482.4	.74
313.15	27789	1482.1	.74
313.14	27749	1482	.74
313.14	27719	1481.9	.74
313.14	27676	1481.7	.74
313.14	27651	1481.6	.74
313.15	27616	1481.6	.74
313.15	27562	1481.4	.74
313.15	27512	1481.1	.74
313.15	27452	1480.9	.74
313.15	27415	1480.8	.74
313.15	27378	1480.4	.74
313.15	27333	1480.4	.74
313.14	27297	1480.2	.74
313.15	27250	1480.2	.74
313.15	27215	1479.9	.74
313.15	27168	1479.8	.74
313.15	27113	1479.5	.74
313.15	27078	1479.5	.74
313.15	27024	1479.1	.74
313.14	26976	1479	.74
313.14	26928	1478.9	.74
313.14	26891	1478.6	.74
313.14	26855	1478.6	.74
313.14	26806	1478.3	.74
313.14	26759	1478.2	.74
313.14	26712	1478	.74
313.14	26676	1477.9	.74
313.14	26634	1477.8	.74
313.14	26598	1477.7	.74
313.14	26563	1477.5	.74
313.14	26516	1477.3	.74
313.14	26467	1477.1	.74
313.14	26431	1477	.74
313.14	26384	1476.9	.74
313.14	26355	1476.6	.74
313.14	26307	1476.7	.74
313.14	26265	1476.5	.74
313.14	26230	1476.2	.74
313.14	26171	1475.9	.74
313.14	26129	1475.7	.74
313.14	26070	1475.7	.74
313.14	26035	1475.5	.74
313.14	25993	1475.3	.74
313.14	25953	1475.3	.74
313.14	25905	1475	.74
313.14	25862	1474.7	.74
313.14	25819	1474.7	.74
313.14	25776	1474.5	.74
313.14	25734	1474.4	.74
313.14	25698	1474.2	.74
313.14	25663	1474	.74
313.14	25615	1473.9	.74
313.14	25569	1473.8	.74
313.14	25516	1473.5	.74
313.15	25464	1473.3	.74
313.15	25428	1473.2	.74
313.15	25382	1473	.74
313.15	25346	1472.9	.74
313.15	25303	1472.6	.74
313.15	25266	1472.5	.74
313.15	25225	1472.4	.74
313.16	25173	1472.1	.74
313.16	25125	1471.9	.74
313.16	25084	1471.9	.74
313.15	25031	1471.7	.74
313.15	24991	1471.5	.74
313.15	24951	1471.3	.74
313.15	24899	1471.1	.74
313.15	24848	1470.8	.74
313.15	24813	1470.8	.74
313.15	24772	1470.6	.74
313.15	24731	1470.4	.74
313.15	24690	1470.3	.74
313.15	24643	1470	.74
313.15	24586	1469.7	.74
313.15	24552	1469.6	.74
313.15	24517	1469.5	.74
313.15	24471	1469.4	.74
313.15	24441	1469.3	.74
313.15	24400	1469.2	.74
313.15	24341	1468.9	.74
313.15	24299	1468.7	.74
313.15	24258	1468.6	.74
313.15	24204	1468.4	.74
313.15	24163	1468.1	.74
313.15	24121	1467.8	.74
313.15	24073	1467.7	.74
313.15	24015	1467.5	.74
313.15	23980	1467.2	.74
313.15	23939	1467.2	.74
313.15	23893	1467	.74
313.15	23840	1466.9	.74
313.15	23805	1466.6	.74
313.15	23760	1466.5	.74
313.15	23710	1466.2	.74
313.15	23672	1466.2	.74
313.15	23623	1466	.74
313.15	23585	1465.8	.74
313.15	23548	1465.7	.74
313.15	23511	1465.4	.74
313.15	23463	1465.3	.74
313.15	23422	1465.2	.74
313.15	23384	1465	.74
313.16	23346	1464.7	.74
313.16	23309	1464.6	.74
313.16	23260	1464.4	.74
313.15	23217	1464.3	.74
313.15	23180	1464.2	.74
313.15	23132	1464	.74
313.15	23096	1463.7	.74
313.15	23054	1463.7	.74
313.15	23028	1463.7	.74
313.15	22986	1463.2	.74
313.15	22954	1463.3	.74
313.15	22922	1463.1	.74
313.15	22876	1462.9	.74
313.15	22828	1462.7	.74
313.15	22796	1462.5	.74
313.15	22758	1462.5	.74
313.15	22722	1462.2	.74
313.15	22684	1462.2	.74
313.15	22653	1461.9	.74
313.15	22611	1461.7	.74
313.15	22579	1461.6	.74
313.15	22532	1461.4	.74
313.15	22489	1461.3	.74
313.15	22447	1461	.74
313.15	22411	1460.8	.74
313.15	22385	1460.8	.74
313.15	22349	1460.5	.74
313.15	22312	1460.6	.74
313.15	22276	1460.2	.74
313.15	22245	1460.1	.74
313.15	22203	1460.1	.74
313.15	22172	1459.9	.74
313.15	22131	1459.8	.74
313.15	22100	1459.6	.74
313.15	22064	1459.5	.74
313.15	22027	1459.2	.74
313.15	21990	1459.2	.74
313.15	21953	1459	.74
313.15	21927	1458.9	.74
313.15	21885	1458.7	.74
313.15	21844	1458.5	.74
313.15	21813	1458.3	.74
313.15	21776	1458.2	.74
313.15	21742	1458	.74
313.15	21700	1457.8	.74
313.15	21665	1457.8	.74
313.15	21628	1457.6	.74
313.15	21593	1457.5	.74
313.15	21547	1457.2	.74
313.15	21512	1457.1	.74
313.15	21466	1456.9	.74
313.15	21435	1456.8	.74
313.15	21405	1456.7	.74
313.15	21355	1456.5	.74
313.15	21319	1456.3	.74
313.15	21275	1456	.74
313.15	21240	1455.9	.74
313.15	21213	1455.8	.74
313.16	21173	1455.5	.74
313.16	21124	1455.4	.74
313.15	21080	1455.2	.74
313.15	21049	1455	.74
313.15	21003	1454.9	.74
313.15	20969	1454.7	.74
313.15	20933	1454.7	.74
313.15	20902	1454.4	.74
313.15	20865	1454.4	.74
313.15	20826	1454.2	.74
313.15	20799	1454.1	.74
313.15	20757	1453.8	.74
313.15	20721	1453.6	.74
313.15	20675	1453.5	.74
313.15	20639	1453.2	.74
313.15	20603	1453	.74
313.15	20571	1453	.74
313.15	20530	1452.8	.74
313.15	20500	1452.8	.74
313.15	20464	1452.6	.74
313.15	20433	1452.4	.74
313.15	20397	1452.3	.74
313.15	20366	1452	.74
313.15	20324	1451.8	.74
313.15	20293	1451.8	.74
313.15	20257	1451.5	.74
313.15	20221	1451.4	.74
313.15	20180	1451.2	.74
313.15	20144	1451.1	.74
313.15	20108	1450.8	.74
313.15	20072	1450.8	.74
313.15	20037	1450.7	.74
313.15	19996	1450.4	.74
313.15	19961	1450.3	.74
313.15	19930	1450.1	.74
313.15	19893	1450	.74
313.15	19858	1449.8	.74
313.15	19822	1449.6	.74
313.15	19781	1449.5	.74
313.15	19750	1449.4	.74
313.15	19710	1449.1	.74
313.15	19669	1448.9	.74
313.15	19625	1448.9	.74
313.15	19589	1448.7	.74
313.15	19553	1448.5	.74
313.15	19522	1448.4	.74
313.15	19476	1448.1	.74
313.15	19441	1448	.74
313.15	19412	1447.8	.74
313.15	19378	1447.6	.74
313.15	19333	1447.5	.74
313.15	19293	1447.3	.74
313.15	19263	1447.2	.74
313.15	19218	1446.9	.74
313.15	19178	1446.8	.74
313.15	19137	1446.6	.74
313.15	19107	1446.4	.74
313.15	19066	1446.1	.74
313.15	19031	1445.9	.74
313.15	18985	1445.8	.74
313.15	18955	1445.7	.74
313.15	18905	1445.6	.74
313.15	18875	1445.3	.74
313.15	18830	1445	.74
313.15	18796	1444.9	.74
313.15	18755	1444.7	.74
313.15	18725	1444.7	.74
313.15	18691	1444.6	.74
313.14	18662	1444.3	.74
313.14	18633	1444.1	.74
313.14	18598	1444.1	.74
313.14	18569	1443.9	.74
313.14	18535	1443.8	.74
313.15	18507	1443.6	.74
313.15	18469	1443.5	.74
313.15	18441	1443.2	.74
313.15	18403	1443.1	.74
313.15	18375	1443	.74
313.15	18337	1442.8	.74
313.15	18309	1442.7	.74
313.15	18277	1442.6	.74
313.15	18242	1442.3	.74
313.15	18204	1442.2	.74
313.15	18176	1442.1	.74
313.15	18143	1442	.74
313.15	18110	1441.7	.74
313.15	18077	1441.6	.74
313.15	18041	1441.4	.74
313.15	18008	1441.2	.74
313.15	17971	1441.1	.74
313.15	17943	1440.9	.74
313.15	17906	1440.8	.74
313.15	17877	1440.6	.74
313.15	17839	1440.4	.74
313.15	17811	1440.3	.74
313.15	17775	1440.1	.74
313.15	17743	1440	.74
313.15	17711	1440	.74
313.15	17684	1439.7	.74
313.15	17652	1439.6	.74
313.15	17616	1439.4	.74
313.15	17575	1439.3	.74
313.15	17551	1439.2	.74
313.15	17519	1439	.74
313.15	17496	1438.9	.74
313.15	17459	1438.7	.74
313.15	17427	1438.5	.74
313.15	17392	1438.3	.74
313.15	17360	1438.1	.74
313.15	17334	1438	.74
313.15	17294	1437.8	.74
313.15	17267	1437.6	.74
313.15	17235	1437.5	.74
313.15	17197	1437.3	.74
313.15	17165	1437.3	.74
313.15	17132	1437.2	.74
313.15	17104	1436.8	.74
313.15	17075	1436.8	.74
313.15	17039	1436.6	.74
313.15	17006	1436.5	.74
313.15	16974	1436.3	.74
313.15	16942	1436.1	.74
313.15	16905	1436.1	.74
313.15	16867	1435.7	.74
313.15	16839	1435.5	.74
313.15	16807	1435.4	.74
313.16	16775	1435.3	.74
313.15	16737	1434.9	.74
313.15	16709	1435	.74
313.16	16676	1434.8	.74
313.15	16652	1434.6	.74
313.15	16615	1434.6	.74
313.15	16582	1434.4	.74
313.16	16535	1434.1	.74
313.15	16504	1434	.74
313.15	16468	1433.7	.74
313.15	16436	1433.6	.74
313.15	16395	1433.5	.74
313.15	16358	1433.3	.74
313.15	16326	1433	.74
313.15	16290	1432.9	.74
313.16	16267	1432.9	.74
313.15	16230	1432.6	.74
313.16	16202	1432.4	.74
313.15	16169	1432.2	.74
313.15	16136	1432.1	.74
313.15	16091	1431.9	.74
313.15	16051	1431.6	.74
313.15	16024	1431.6	.74
313.15	15988	1431.4	.74
313.15	15947	1431.2	.74
313.15	15924	1431.2	.74
313.15	15887	1430.9	.74
313.15	15845	1430.6	.74
313.15	15813	1430.6	.74
313.15	15771	1430.2	.74
313.15	15744	1430	.74
313.15	15703	1429.9	.74
313.15	15661	1429.7	.74
313.15	15629	1429.6	.74
313.15	15597	1429.5	.74
313.15	15570	1429.3	.74
313.15	15540	1429	.74
313.15	15512	1429	.74
313.15	15484	1428.7	.74
313.15	15443	1428.6	.74
313.15	15412	1428.5	.74
313.15	15372	1428.3	.74
313.15	15346	1427.9	.74
313.15	15313	1428.1	.74
313.15	15282	1427.7	.74
313.15	15246	1427.5	.74
313.15	15210	1427.4	.74
313.15	15184	1427.2	.74
313.15	15155	1427	.74
313.15	15124	1426.9	.74
313.15	15093	1426.7	.74
313.15	15063	1426.5	.74
313.15	15036	1426.5	.74
313.15	14996	1426.1	.74
313.15	14966	1426.1	.74
313.15	14933	1425.9	.74
313.15	14904	1425.8	.74
313.15	14865	1425.6	.74
313.15	14836	1425.4	.74
313.15	14796	1425.3	.74
313.15	14767	1425	.74
313.15	14737	1424.9	.74
313.15	14708	1424.9	.74
313.15	14673	1424.6	.74
313.15	14628	1424.3	.74
313.15	14599	1424.1	.74
313.15	14559	1423.9	.74
313.15	14534	1423.8	.74
313.15	14490	1423.7	.74
313.15	14459	1423.5	.74
313.15	14416	1423.1	.74
313.15	14386	1422.9	.74
313.14	14342	1422.9	.74
313.14	14312	1422.7	.74
313.14	14273	1422.5	.74
313.15	14230	1422.4	.74
313.15	14190	1422	.74
313.15	14152	1421.9	.74
313.15	14109	1421.6	.74
313.15	14071	1421.4	.74
313.15	14038	1421.2	.74
313.15	13998	1420.9	.74
313.15	13959	1420.6	.74
313.15	13925	1420.6	.74
313.15	13891	1420.4	.74
313.15	13862	1420.3	.74
313.15	13833	1420.1	.74
313.15	13800	1419.9	.74
313.15	13757	1419.6	.74
313.15	13729	1419.6	.74
313.15	13686	1419.4	.74
313.15	13653	1419.1	.74
313.15	13615	1418.9	.74
313.15	13572	1418.6	.74
313.15	13538	1418.3	.74
313.15	13514	1418.3	.74
313.15	13476	1418.1	.74
313.15	13443	1418	.74
313.15	13406	1417.6	.74
313.15	13374	1417.6	.74
313.15	13338	1417.4	.74
313.15	13311	1417.3	.74
313.15	13275	1417.1	.74
313.15	13252	1417	.74
313.15	13220	1416.6	.74
313.15	13192	1416.5	.74
313.15	13155	1416.3	.74
313.15	13123	1416.2	.74
313.14	13083	1416	.74
313.14	13048	1415.8	.74
313.15	13017	1415.6	.74
313.15	12986	1415.4	.74
313.15	12959	1415.3	.74
313.15	12924	1415.1	.74
313.15	12888	1414.9	.74
313.15	12852	1414.7	.74
313.15	12813	1414.5	.74
313.15	12786	1414.2	.74
313.15	12749	1414.1	.74
313.15	12723	1413.9	.74
313.15	12689	1413.8	.74
313.15	12650	1413.4	.74
313.15	12616	1413.4	.74
313.14	12590	1413.1	.74
313.15	12565	1413.1	.74
313.15	12532	1412.9	.74
313.15	12510	1412.8	.74
313.15	12477	1412.4	.74
313.15	12448	1412.4	.74
313.15	12407	1412.1	.74
313.15	12373	1411.9	.74
313.15	12344	1411.8	.74
313.15	12323	1411.6	.74
313.15	12294	1411.4	.74
313.15	12265	1411.4	.74
313.15	12231	1411.1	.74
313.15	12206	1410.9	.74
313.15	12165	1410.9	.74
313.15	12128	1410.6	.74
313.15	12099	1410.3	.74
313.15	12069	1410.1	.74
313.15	12048	1410.1	.74
313.15	12023	1409.9	.74
313.15	11998	1409.7	.74
313.15	11969	1409.5	.74
313.15	11927	1409.3	.74
313.15	11889	1409.2	.74
313.15	11860	1408.9	.74
313.15	11818	1408.8	.74
313.15	11788	1408.5	.74
313.15	11751	1408.3	.74
313.15	11726	1408.2	.74
313.15	11692	1408	.74
313.16	11650	1407.8	.74
313.15	11628	1407.6	.74
313.16	11599	1407.5	.74
313.15	11578	1407.4	.74
313.15	11544	1407.2	.74
313.15	11518	1406.9	.74
313.15	11486	1406.8	.74
313.15	11461	1406.5	.74
313.15	11424	1406.4	.74
313.15	11399	1406.3	.74
313.15	11360	1405.9	.74
313.15	11317	1405.7	.74
313.15	11278	1405.5	.74
313.15	11252	1405.4	.74
313.15	11222	1405.3	.74
313.15	11193	1405	.74
313.15	11164	1404.9	.74
313.15	11127	1404.6	.74
313.15	11102	1404.4	.74
313.15	11069	1404.4	.74
313.15	11048	1404.2	.74
313.15	11015	1404.1	.74
313.15	10981	1403.7	.74
313.15	10956	1403.5	.74
313.15	10928	1403.5	.74
313.15	10899	1403.2	.74
313.15	10871	1403.1	.74
313.15	10838	1402.9	.74
313.15	10813	1402.7	.74
313.15	10780	1402.5	.74
313.15	10743	1402.3	.74
313.15	10709	1402.1	.74
313.15	10680	1401.9	.74
313.15	10646	1401.7	.74
313.15	10609	1401.5	.74
313.15	10580	1401.3	.74
313.15	10547	1401.1	.74
313.15	10519	1401	.74
313.15	10482	1400.8	.74
313.15	10450	1400.4	.74
313.15	10421	1400.3	.74
313.15	10389	1400	.74
313.15	10361	1400	.74
313.15	10332	1399.8	.74
313.15	10301	1399.5	.74
313.15	10272	1399.3	.74
313.15	10247	1399.1	.74
313.15	10211	1399.1	.74
313.15	10183	1398.9	.74
313.15	10151	1398.5	.74
313.15	10123	1398.4	.74
313.15	10094	1398.2	.74
313.15	10062	1398.1	.74
313.16	10034	1397.9	.74
313.15	10010	1397.7	.74
313.15	9987	1397.4	.74
313.15	9953	1397.4	.74
313.15	9921	1397.3	.74
313.15	9892	1397	.74
313.15	9856	1396.8	.74
313.15	9823	1396.6	.74
313.16	9796	1396.4	.74
313.16	9768	1396.1	.74
313.16	9733	1395.9	.74
313.16	9701	1395.7	.74
313.16	9676	1395.6	.74
313.16	9648	1395.4	.74
313.15	9619	1395.3	.74
313.15	9591	1395	.74
313.15	9564	1394.9	.74
313.15	9544	1394.8	.74
313.15	9518	1394.6	.74
313.15	9495	1394.3	.74
313.15	9465	1394.3	.74
313.15	9443	1394	.74
313.15	9419	1394	.74
313.15	9393	1393.8	.74
313.15	9367	1393.6	.74
313.15	9340	1393.4	.74
313.15	9320	1393.4	.74
313.15	9286	1393.1	.74
313.15	9263	1393	.74
313.15	9236	1392.7	.74
313.15	9214	1392.6	.74
313.15	9179	1392.3	.74
313.15	9160	1392.2	.74
313.15	9130	1392.1	.74
313.15	9097	1391.9	.74
313.15	9072	1391.7	.74
313.15	9044	1391.5	.74
313.15	9019	1391.5	.74
313.15	8979	1391.1	.74
313.15	8943	1390.9	.74
313.15	8915	1390.6	.74
313.15	8887	1390.6	.74
313.15	8861	1390.3	.74
313.15	8834	1390.1	.74
313.15	8798	1390	.74
313.15	8766	1389.7	.74
313.15	8720	1389.4	.74
313.15	8689	1389.1	.74
313.15	8654	1388.8	.74
313.15	8622	1388.8	.74
313.14	8595	1388.5	.74
313.15	8564	1388.3	.74
313.15	8523	1388.2	.74
313.15	8497	1387.9	.74
313.15	8461	1387.6	.74
313.15	8430	1387.3	.74
313.15	8399	1387.1	.74
313.15	8367	1387	.74
313.15	8331	1386.7	.74
313.15	8295	1386.4	.74
313.15	8263	1386.4	.74
313.15	8223	1386	.74
313.15	8196	1385.9	.74
313.15	8156	1385.5	.74
313.15	8129	1385.4	.74
313.15	8094	1385	.74
313.15	8059	1384.9	.74
313.15	8020	1384.6	.74
313.15	7993	1384.3	.74
313.15	7958	1384.2	.74
313.15	7931	1383.9	.74
313.15	7910	1383.8	.74
313.15	7874	1383.6	.74
313.15	7851	1383.5	.74
313.15	7824	1383.2	.74
313.15	7798	1383	.74
313.15	7768	1382.8	.74
313.15	7742	1382.8	.74
313.15	7703	1382.3	.74
313.15	7677	1382.3	.74
313.15	7638	1382.1	.74
313.15	7612	1381.8	.74
313.15	7582	1381.6	.74
313.15	7556	1381.4	.74
313.15	7527	1381.2	.74
313.15	7501	1380.9	.74
313.15	7465	1380.7	.74
313.15	7438	1380.5	.74
313.15	7408	1380.3	.74
313.15	7382	1380.1	.74
313.15	7348	1379.9	.74
313.15	7326	1379.7	.74
313.15	7292	1379.5	.74
313.15	7266	1379.4	.74
313.15	7228	1379	.74
313.15	7198	1378.8	.74
313.15	7169	1378.7	.74
313.15	7139	1378.3	.74
313.15	7109	1378.2	.74
313.15	7079	1377.9	.74
313.15	7045	1377.7	.74
313.15	7006	1377.4	.74
313.15	6976	1377.1	.74
313.15	6938	1376.9	.74
313.15	6908	1376.8	.74
313.15	6883	1376.7	.74
313.15	6863	1376.4	.74
313.15	6835	1376	.74
313.15	6806	1376	.74
313.15	6776	1375.7	.74
313.15	6751	1375.5	.74
313.15	6718	1375.4	.74
313.15	6694	1375.2	.74
313.15	6666	1374.8	.74
313.15	6638	1374.7	.74
313.15	6602	1374.5	.74
313.15	6574	1374.3	.74
313.15	6545	1374	.74
313.15	6518	1373.8	.74
313.15	6490	1373.6	.74
313.15	6459	1373.4	.74
313.15	6434	1373	.74
313.15	6406	1372.9	.74
313.14	6379	1372.7	.74
313.14	6347	1372.4	.74
313.14	6319	1372.4	.74
313.14	6295	1372.2	.74
313.14	6264	1371.8	.74
313.14	6240	1371.6	.74
313.14	6210	1371.5	.74
313.14	6187	1371.4	.74
313.15	6163	1371.1	.74
313.15	6128	1370.8	.74
313.15	6096	1370.6	.74
313.15	6073	1370.5	.74
313.15	6049	1370.4	.74
313.15	6022	1370	.74
313.15	5987	1369.8	.74
313.15	5959	1369.7	.74
313.15	5932	1369.4	.74
313.15	5901	1369.2	.74
313.15	5870	1368.9	.74
313.15	5847	1368.7	.74
313.15	5828	1368.5	.74
313.15	5801	1368.3	.74
313.15	5766	1368	.74
313.15	5739	1367.9	.74
313.15	5717	1367.8	.74
313.15	5694	1367.6	.74
313.15	5672	1367.3	.74
313.15	5646	1367.1	.74
313.15	5616	1366.9	.74
313.15	5593	1366.7	.74
313.15	5560	1366.5	.74
313.15	5534	1366.3	.74
313.15	5508	1366.1	.74
313.15	5485	1365.9	.74
313.15	5457	1365.7	.74
313.15	5434	1365.4	.74
313.15	5409	1365.3	.74
313.15	5383	1365.1	.74
313.15	5357	1364.8	.74
313.15	5330	1364.6	.74
313.15	5308	1364.4	.74
313.15	5281	1364.2	.74
313.15	5259	1364	.74
313.15	5222	1363.9	.74
313.15	5200	1363.6	.74
313.15	5167	1363.4	.74
313.15	5148	1363.1	.74
313.15	5125	1363.1	.74
313.15	5096	1362.7	.74
313.15	5074	1362.5	.74
313.15	5048	1362.3	.74
313.15	5023	1362.3	.74
313.14	5002	1362.2	.74
313.15	4976	1361.7	.74
313.15	4958	1361.6	.74
313.15	4929	1361.5	.74
313.15	4904	1361.1	.74
313.15	4872	1360.9	.74
313.15	4847	1360.6	.74
313.15	4811	1360.4	.74
313.15	4793	1360.1	.74
313.15	4757	1360	.74
313.15	4732	1359.7	.74
313.14	4710	1359.5	.74
313.14	4688	1359.4	.74
313.14	4660	1359.2	.74
313.14	4639	1359	.74
313.14	4614	1358.7	.74
313.14	4590	1358.4	.74
313.14	4561	1358.3	.74
313.14	4539	1358.2	.74
313.14	4509	1358	.74
313.14	4487	1357.8	.74
313.15	4463	1357.5	.74
313.15	4435	1357.3	.74
313.15	4410	1357	.74
313.15	4382	1356.8	.74
313.15	4360	1356.6	.74
313.14	4328	1356.3	.74
313.14	4299	1356.1	.74
313.14	4266	1355.8	.74
313.14	4237	1355.5	.74
313.15	4208	1355.4	.74
313.15	4167	1355	.74
313.15	4134	1354.8	.74
313.15	4110	1354.6	.74
313.15	4079	1354.3	.74
313.15	4043	1353.9	.74
313.15	4018	1353.5	.74
313.15	3982	1353.4	.74
313.15	3954	1353.2	.74
313.15	3926	1352.9	.74
313.15	3898	1352.7	.74
313.15	3858	1352.3	.74
313.15	3822	1352	.74
313.15	3794	1351.7	.74
313.15	3761	1351.4	.74
313.15	3737	1351.2	.74
313.15	3702	1350.9	.74
313.15	3679	1350.7	.74
313.15	3656	1350.5	.74
313.15	3625	1350.2	.74
313.15	3603	1350.1	.74
313.15	3572	1349.7	.74
313.15	3548	1349.5	.74
313.15	3518	1349.3	.74
313.15	3491	1349.1	.74
313.15	3464	1348.7	.74
313.15	3437	1348.6	.74
313.15	3402	1348.2	.74
313.15	3379	1348	.74
313.15	3356	1347.8	.74
313.15	3325	1347.5	.74
313.15	3298	1347.3	.74
313.14	3275	1347	.74
313.14	3247	1346.8	.74
313.14	3223	1346.7	.74
313.14	3193	1346.3	.74
313.14	3170	1346	.74
313.14	3144	1345.9	.74
313.14	3117	1345.6	.74
313.15	3095	1345.4	.74
313.15	3072	1345.3	.74
313.15	3042	1345	.74
313.15	3012	1344.6	.74
313.15	2986	1344.4	.74
313.15	2959	1344.2	.74
313.15	2928	1343.9	.74
313.15	2905	1343.7	.74
313.15	2872	1343.4	.74
313.15	2851	1343.2	.74
313.15	2825	1342.9	.74
313.15	2803	1342.8	.74
313.15	2775	1342.4	.74
313.15	2751	1342.2	.74
313.15	2720	1342	.74
313.15	2692	1341.6	.74
313.14	2671	1341.5	.74
313.14	2650	1341.2	.74
313.14	2621	1340.9	.74
313.14	2596	1340.7	.74
313.14	2571	1340.5	.74
313.14	2546	1340.2	.74
313.14	2518	1339.8	.74
313.14	2485	1339.7	.74
313.14	2463	1339.5	.74
313.14	2431	1339.2	.74
313.14	2406	1338.8	.74
313.14	2381	1338.6	.74
313.14	2362	1338.4	.74
313.14	2329	1337.9	.74
313.14	2307	1337.9	.74
313.14	2281	1337.6	.74
313.14	2256	1337.4	.74
313.15	2230	1337.2	.74
313.15	2208	1337	.74
313.15	2183	1336.7	.74
313.15	2153	1336.4	.74
313.15	2131	1336.1	.74
313.15	2102	1335.9	.74
313.15	2077	1335.6	.74
313.15	2049	1335.2	.74
313.15	2028	1335.1	.74
313.15	1998	1334.8	.74
313.15	1972	1334.7	.74
313.15	1946	1334.4	.74
313.15	1921	1334.1	.74
313.15	1893	1333.9	.74
313.15	1864	1333.4	.74
313.15	1836	1333.3	.74
313.15	1811	1333	.74
313.15	1793	1332.8	.74
313.15	1772	1332.6	.74
313.15	1744	1332.4	.74
313.15	1726	1332.2	.74
313.15	1698	1331.7	.74
313.15	1677	1331.6	.74
313.15	1653	1331.4	.74
313.15	1618	1331	.74
313.15	1597	1330.7	.74
313.15	1575	1330.4	.74
313.15	1550	1330.3	.74
313.15	1525	1330	.74
313.15	1496	1329.6	.74
313.15	1472	1329.4	.74
313.16	1448	1329.3	.74
313.16	1420	1328.8	.74
313.15	1396	1328.6	.74
313.15	1369	1328.3	.74
313.15	1338	1328	.74
313.15	1317	1327.7	.74
313.15	1296	1327.6	.74
313.15	1273	1327.4	.74
313.15	1249	1327	.74
313.15	1222	1326.6	.74
313.15	1191	1326.5	.74
313.15	1167	1326.1	.74
313.15	1146	1325.9	.74
313.15	1117	1325.7	.74
313.15	1087	1325.1	.74
313.15	1063	1325	.74
313.15	1036	1324.7	.74
313.15	1014	1324.4	.74
313.15	985	1324	.74
313.15	963	1323.9	.74
313.15	934	1323.7	.74
313.15	917	1323.3	.74
313.15	891	1323.2	.74
313.15	871	1322.8	.74
313.15	838	1322.5	.74
313.15	819	1322.3	.74
313.15	797	1322.1	.74
313.15	777	1321.7	.74
313.15	755	1321.6	.74
313.15	733	1321.4	.74
313.15	714	1321.1	.74
323.15	34387	1480.4	.74
323.15	34387	1480.6	.74
323.15	34384	1480.6	.74
323.14	34382	1480.5	.74
323.14	34376	1480.5	.74
323.14	34365	1480.4	.74
323.14	34355	1480.4	.74
323.14	34347	1480.4	.74
323.14	34333	1480.4	.74
323.14	34318	1480.4	.74
323.14	34287	1480.1	.74
323.14	34254	1480	.74
323.14	34203	1479.9	.74
323.14	34164	1479.7	.74
323.14	34126	1479.7	.74
323.14	34088	1479.4	.74
323.14	34056	1479.3	.74
323.14	34019	1479.2	.74
323.14	33988	1479.1	.74
323.14	33947	1479	.74
323.14	33912	1478.8	.74
323.14	33873	1478.6	.74
323.14	33844	1478.5	.74
323.14	33801	1478.4	.74
323.14	33772	1478.3	.74
323.14	33733	1478.3	.74
323.14	33689	1477.9	.74
323.14	33659	1477.9	.74
323.14	33624	1477.9	.74
323.14	33594	1477.8	.74
323.14	33556	1477.6	.74
323.14	33527	1477.5	.74
323.14	33480	1477.5	.74
323.14	33451	1477.2	.74
323.14	33409	1477.2	.74
323.14	33380	1477	.74
323.14	33348	1476.8	.74
323.14	33320	1476.7	.74
323.14	33283	1476.6	.74
323.14	33237	1476.4	.74
323.14	33204	1476.4	.74
323.14	33174	1476.3	.74
323.14	33140	1476.1	.74
323.14	33112	1476.1	.74
323.14	33084	1475.8	.74
323.14	33051	1475.7	.74
323.14	33019	1475.7	.74
323.14	32985	1475.4	.74
323.14	32953	1475.5	.74
323.14	32921	1475.3	.74
323.14	32888	1475.2	.74
323.14	32856	1475.1	.74
323.14	32825	1475.1	.74
323.14	32788	1474.8	.74
323.14	32751	1474.7	.74
323.14	32718	1474.5	.74
323.15	32686	1474.5	.74
323.15	32658	1474.5	.74
323.14	32625	1474.2	.74
323.14	32595	1474.2	.74
323.14	32562	1474.1	.74
323.14	32530	1473.9	.74
323.14	32494	1473.7	.74
323.14	32453	1473.6	.74
323.14	32426	1473.5	.74
323.14	32392	1473.5	.74
323.14	32359	1473.2	.74
323.14	32334	1473.2	.74
323.14	32290	1473	.74
323.14	32256	1472.9	.74
323.14	32213	1472.9	.74
323.14	32183	1472.7	.74
323.14	32145	1472.5	.74
323.14	32106	1472.4	.74
323.14	32074	1472.2	.74
323.14	32035	1472.1	.74
323.14	32005	1472.1	.74
323.14	31970	1471.9	.74
323.14	31935	1471.8	.74
323.14	31900	1471.6	.74
323.14	31867	1471.5	.74
323.14	31833	1471.3	.74
323.14	31798	1471.2	.74
323.14	31759	1471.1	.74
323.14	31727	1470.8	.74
323.14	31692	1470.8	.74
323.14	31664	1470.7	.74
323.14	31631	1470.6	.74
323.14	31593	1470.5	.74
323.14	31560	1470.3	.74
323.14	31525	1470.2	.74
323.14	31496	1470.1	.74
323.14	31456	1469.9	.74
323.14	31427	1469.8	.74
323.14	31393	1469.8	.74
323.14	31350	1469.7	.74
323.14	31322	1469.5	.74
323.14	31289	1469.4	.74
323.14	31260	1469.2	.74
323.14	31227	1469.2	.74
323.14	31190	1468.9	.74
323.14	31158	1468.9	.74
323.14	31126	1468.7	.74
323.14	31085	1468.6	.74
323.14	31057	1468.4	.74
323.14	31016	1468.3	.74
323.14	30970	1468.1	.74
323.14	30939	1468.2	.74
323.14	30912	1468	.74
323.15	30885	1467.8	.74
323.15	30843	1467.7	.74
323.15	30805	1467.5	.74
323.15	30764	1467.3	.74
323.15	30736	1467.2	.74
323.15	30689	1467.1	.74
323.15	30653	1467	.74
323.15	30616	1466.8	.74
323.16	30581	1466.8	.74
323.16	30554	1466.6	.74
323.16	30532	1466.6	.74
323.16	30505	1466.5	.74
323.16	30470	1466.4	.74
323.16	30444	1466.3	.74
323.16	30414	1466.1	.74
323.16	30380	1466	.74
323.16	30340	1465.8	.74
323.16	30311	1465.6	.74
323.16	30280	1465.6	.74
323.16	30252	1465.5	.74
323.16	30221	1465.4	.74
323.16	30194	1465.2	.74
323.16	30163	1465.1	.74
323.16	30132	1465	.74
323.16	30102	1464.9	.74
323.16	30071	1464.8	.74
323.16	30040	1464.7	.74
323.16	30010	1464.6	.74
323.16	29984	1464.4	.74
323.15	29949	1464.3	.74
323.15	29919	1464.2	.74
323.15	29886	1464	.74
323.15	29860	1464	.74
323.15	29822	1463.8	.74
323.15	29784	1463.7	.74
323.15	29756	1463.5	.74
323.14	29712	1463.4	.74
323.14	29673	1463.3	.74
323.14	29647	1463.3	.74
323.14	29617	1463.1	.74
323.14	29581	1462.9	.74
323.14	29551	1462.8	.74
323.14	29512	1462.7	.74
323.14	29481	1462.5	.74
323.14	29450	1462.4	.74
323.14	29420	1462.2	.74
323.14	29386	1462.2	.74
323.14	29357	1462	.74
323.14	29320	1461.9	.74
323.14	29283	1461.7	.74
323.14	29254	1461.6	.74
323.14	29221	1461.5	.74
323.15	29188	1461.4	.74
323.15	29162	1461.2	.74
323.15	29121	1461.1	.74
323.15	29088	1460.9	.74
323.15	29063	1460.9	.74
323.15	29033	1460.8	.74
323.15	28997	1460.6	.74
323.15	28970	1460.5	.74
323.15	28935	1460.4	.74
323.15	28904	1460.2	.74
323.15	28870	1460.1	.74
323.15	28837	1459.9	.74
323.15	28799	1459.9	.74
323.15	28763	1459.8	.74
323.15	28718	1459.6	.74
323.15	28691	1459.5	.74
323.15	28660	1459.4	.74
323.15	28633	1459.2	.74
323.15	28603	1459.1	.74
323.15	28571	1459	.74
323.15	28534	1458.7	.74
323.15	28506	1458.7	.74
323.15	28474	1458.6	.74
323.15	28445	1458.5	.74
323.15	28403	1458.3	.74
323.15	28375	1458.1	.74
323.15	28337	1458	.74
323.15	28309	1457.9	.74
323.15	28276	1457.9	.74
323.15	28245	1457.7	.74
323.15	28217	1457.6	.74
323.15	28180	1457.4	.74
323.15	28148	1457.2	.74
323.15	28115	1457.1	.74
323.15	28080	1457	.74
323.15	28049	1456.7	.74
323.15	28017	1456.8	.74
323.15	27982	1456.6	.74
323.15	27943	1456.5	.74
323.15	27918	1456.3	.74
323.15	27887	1456.3	.74
323.15	27852	1456	.74
323.15	27821	1456	.74
323.15	27786	1455.9	.74
323.15	27748	1455.7	.74
323.15	27721	1455.7	.74
323.15	27685	1455.4	.74
323.15	27658	1455.4	.74
323.15	27618	1455.2	.74
323.15	27579	1455	.74
323.15	27549	1454.9	.74
323.15	27515	1454.7	.74
323.15	27476	1454.6	.74
323.14	27446	1454.5	.74
323.14	27407	1454.4	.74
323.14	27364	1454.2	.74
323.14	27337	1453.9	.74
323.14	27301	1453.9	.74
323.14	27261	1453.7	.74
323.14	27239	1453.6	.74
323.14	27208	1453.4	.74
323.14	27170	1453.4	.74
323.14	27141	1453.2	.74
323.14	27111	1453.1	.74
323.14	27086	1452.9	.74
323.14	27049	1452.9	.74
323.14	27019	1452.7	.74
323.14	26991	1452.7	.74
323.14	26964	1452.5	.74
323.14	26931	1452.3	.74
323.14	26907	1452.2	.74
323.14	26866	1452.2	.74
323.14	26834	1451.9	.74
323.14	26810	1451.9	.74
323.14	26779	1451.8	.74
323.14	26749	1451.6	.74
323.14	26725	1451.6	.74
323.14	26689	1451.4	.74
323.14	26654	1451.3	.74
323.14	26630	1451.2	.74
323.14	26605	1451	.74
323.14	26575	1450.8	.74
323.14	26548	1450.8	.74
323.14	26513	1450.7	.74
323.14	26475	1450.5	.74
323.14	26451	1450.5	.74
323.14	26427	1450.3	.74
323.14	26395	1450.2	.74
323.14	26367	1450.1	.74
323.14	26341	1449.9	.74
323.14	26309	1449.7	.74
323.15	26288	1449.7	.74
323.15	26255	1449.6	.74
323.14	26227	1449.5	.74
323.15	26196	1449.4	.74
323.15	26161	1449.1	.74
323.15	26134	1449.1	.74
323.15	26099	1449	.74
323.14	26063	1448.8	.74
323.15	26035	1448.7	.74
323.15	26006	1448.7	.74
323.14	25974	1448.4	.74
323.14	25947	1448.3	.74
323.15	25923	1448.1	.74
323.15	25896	1448	.74
323.15	25868	1447.9	.74
323.15	25835	1447.8	.74
323.15	25810	1447.7	.74
323.15	25772	1447.5	.74
323.15	25743	1447.4	.74
323.15	25713	1447.3	.74
323.15	25678	1447.1	.74
323.15	25648	1447.1	.74
323.15	25619	1447	.74
323.15	25582	1446.8	.74
323.15	25548	1446.5	.74
323.15	25518	1446.5	.74
323.15	25479	1446.3	.74
323.14	25440	1446.3	.74
323.14	25410	1446.1	.74
323.15	25380	1445.9	.74
323.15	25347	1445.8	.74
323.15	25317	1445.6	.74
323.15	25279	1445.5	.74
323.15	25254	1445.3	.74
323.15	25221	1445.2	.74
323.15	25178	1445.1	.74
323.14	25141	1445	.74
323.14	25116	1444.8	.74
323.14	25081	1444.7	.74
323.14	25047	1444.4	.74
323.14	25017	1444.3	.74
323.14	24984	1444.1	.74
323.14	24955	1444.1	.74
323.14	24914	1444	.74
323.14	24889	1443.8	.74
323.14	24859	1443.8	.74
323.14	24828	1443.6	.74
323.14	24794	1443.4	.74
323.14	24768	1443.2	.74
323.14	24727	1443.1	.74
323.14	24699	1443	.74
323.14	24658	1442.8	.74
323.15	24630	1442.7	.74
323.14	24596	1442.6	.74
323.14	24564	1442.3	.74
323.15	24535	1442.3	.74
323.15	24507	1442.1	.74
323.15	24476	1442	.74
323.15	24448	1441.9	.74
323.14	24420	1441.7	.74
323.14	24400	1441.5	.74
323.15	24369	1441.6	.74
323.14	24342	1441.4	.74
323.14	24304	1441.1	.74
323.14	24277	1441.2	.74
323.14	24254	1441.1	.74
323.14	24223	1440.9	.74
323.14	24187	1440.7	.74
323.14	24156	1440.7	.74
323.14	24134	1440.5	.74
323.14	24109	1440.4	.74
323.14	24079	1440.3	.74
323.14	24056	1440	.74
323.14	24025	1440	.74
323.14	23998	1439.9	.74
323.14	23975	1439.9	.74
323.14	23949	1439.6	.74
323.14	23918	1439.6	.74
323.14	23891	1439.5	.74
323.14	23865	1439.2	.74
323.14	23832	1439.2	.74
323.14	23810	1439	.74
323.14	23776	1439	.74
323.15	23750	1438.7	.74
323.15	23714	1438.6	.74
323.15	23690	1438.6	.74
323.15	23664	1438.4	.74
323.15	23635	1438.4	.74
323.14	23609	1438.2	.74
323.14	23587	1438.1	.74
323.14	23560	1438	.74
323.14	23538	1437.9	.74
323.14	23510	1437.7	.74
323.14	23484	1437.7	.74
323.14	23454	1437.5	.74
323.14	23428	1437.5	.74
323.14	23402	1437.2	.74
323.14	23380	1437.2	.74
323.14	23354	1437.1	.74
323.14	23328	1437	.74
323.14	23305	1436.8	.74
323.14	23276	1436.7	.74
323.14	23254	1436.5	.74
323.14	23221	1436.4	.74
323.14	23185	1436.3	.74
323.14	23163	1436.3	.74
323.14	23130	1436.1	.74
323.14	23101	1436	.74
323.14	23075	1435.7	.74
323.14	23049	1435.7	.74
323.14	23026	1435.6	.74
323.15	22991	1435.4	.74
323.14	22962	1435.2	.74
323.14	22927	1435.2	.74
323.14	22889	1435	.74
323.14	22862	1434.8	.74
323.14	22825	1434.6	.74
323.14	22801	1434.6	.74
323.14	22777	1434.5	.74
323.14	22744	1434.3	.74
323.14	22721	1434.2	.74
323.14	22685	1434.1	.74
323.14	22657	1434	.74
323.14	22627	1433.8	.74
323.14	22602	1433.6	.74
323.14	22571	1433.6	.74
323.14	22533	1433.3	.74
323.14	22513	1433.3	.74
323.14	22489	1433.2	.74
323.14	22462	1433.1	.74
323.14	22439	1432.9	.74
323.14	22418	1432.7	.74
323.14	22390	1432.7	.74
323.14	22366	1432.6	.74
323.14	22334	1432.5	.74
323.14	22308	1432.2	.74
323.14	22272	1432.1	.74
323.14	22233	1432	.74
323.14	22209	1431.8	.74
323.14	22174	1431.7	.74
323.14	22137	1431.4	.74
323.14	22114	1431.5	.74
323.14	22088	1431.3	.74
323.14	22058	1431.1	.74
323.14	22031	1431	.74
323.14	22001	1430.9	.74
323.15	21971	1430.7	.74
323.15	21936	1430.6	.74
323.15	21913	1430.5	.74
323.15	21886	1430.3	.74
323.15	21855	1430	.74
323.15	21829	1430.1	.74
323.15	21806	1430	.74
323.15	21768	1429.8	.74
323.14	21734	1429.6	.74
323.14	21712	1429.4	.74
323.14	21684	1429.4	.74
323.14	21660	1429.3	.74
323.14	21630	1429.1	.74
323.14	21597	1429	.74
323.14	21572	1428.9	.74
323.14	21546	1428.8	.74
323.14	21511	1428.6	.74
323.14	21478	1428.4	.74
323.14	21456	1428.3	.74
323.14	21424	1428.1	.74
323.14	21404	1428.1	.74
323.14	21376	1428.1	.74
323.14	21353	1427.8	.74
323.14	21318	1427.7	.74
323.14	21296	1427.5	.74
323.14	21271	1427.4	.74
323.14	21243	1427.2	.74
323.14	21219	1427.1	.74
323.14	21195	1427.2	.74
323.14	21174	1427	.74
323.14	21151	1426.8	.74
323.14	21124	1426.7	.74
323.14	21100	1426.5	.74
323.14	21069	1426.5	.74
323.14	21041	1426.4	.74
323.14	21021	1426.3	.74
323.14	20994	1426.2	.74
323.14	20963	1426	.74
323.14	20943	1425.8	.74
323.14	20919	1425.8	.74
323.14	20891	1425.6	.74
323.14	20864	1425.5	.74
323.14	20837	1425.4	.74
323.14	20814	1425.2	.74
323.14	20780	1425.1	.74
323.14	20759	1425	.74
323.14	20735	1424.9	.74
323.14	20715	1424.8	.74
323.14	20681	1424.6	.74
323.14	20657	1424.6	.74
323.14	20632	1424.4	.74
323.14	20600	1424.3	.74
323.14	20571	1424.1	.74
323.14	20538	1423.8	.74
323.14	20511	1423.8	.74
323.15	20481	1423.6	.74
323.14	20452	1423.5	.74
323.15	20429	1423.4	.74
323.15	20404	1423.3	.74
323.15	20370	1423.2	.74
323.15	20340	1422.8	.74
323.15	20313	1422.8	.74
323.15	20283	1422.7	.74
323.15	20251	1422.6	.74
323.15	20225	1422.4	.74
323.15	20203	1422.2	.74
323.15	20175	1422.2	.74
323.15	20153	1422	.74
323.14	20124	1421.9	.74
323.14	20101	1421.8	.74
323.14	20075	1421.5	.74
323.14	20047	1421.4	.74
323.14	20014	1421.4	.74
323.14	19996	1421.3	.74
323.14	19968	1421.2	.74
323.14	19942	1421.1	.74
323.14	19917	1420.9	.74
323.14	19893	1420.7	.74
323.14	19857	1420.6	.74
323.14	19830	1420.4	.74
323.14	19795	1420.5	.74
323.14	19771	1420	.74
323.14	19746	1419.9	.74
323.14	19721	1419.9	.74
323.14	19693	1419.8	.74
323.14	19667	1419.6	.74
323.14	19637	1419.5	.74
323.14	19608	1419.2	.74
323.14	19591	1419.1	.74
323.14	19563	1419.2	.74
323.14	19534	1419.1	.74
323.14	19509	1418.8	.74
323.14	19473	1418.7	.74
323.14	19452	1418.4	.74
323.14	19431	1418.5	.74
323.14	19410	1418.4	.74
323.14	19382	1418.2	.74
323.14	19359	1418.1	.74
323.14	19335	1418	.74
323.14	19303	1417.9	.74
323.14	19276	1417.6	.74
323.14	19244	1417.5	.74
323.14	19224	1417.4	.74
323.15	19197	1417.4	.74
323.15	19162	1417	.74
323.14	19136	1416.9	.74
323.14	19111	1416.8	.74
323.14	19091	1416.8	.74
323.14	19073	1416.7	.74
323.14	19049	1416.5	.74
323.14	19030	1416.6	.74
323.15	19007	1416.4	.74
323.15	18981	1416.2	.74
323.15	18952	1416.1	.74
323.15	18929	1416	.74
323.15	18905	1415.8	.74
323.15	18885	1415.8	.74
323.15	18862	1415.5	.74
323.14	18836	1415.4	.74
323.14	18806	1415.3	.74
323.14	18787	1415.1	.74
323.14	18764	1415.1	.74
323.14	18738	1414.8	.74
323.14	18713	1414.8	.74
323.14	18688	1414.7	.74
323.14	18664	1414.6	.74
323.14	18639	1414.5	.74
323.15	18614	1414.3	.74
323.15	18596	1414.3	.74
323.15	18567	1414.1	.74
323.15	18547	1414	.74
323.14	18518	1413.8	.74
323.14	18489	1413.6	.74
323.14	18469	1413.4	.74
323.14	18445	1413.4	.74
323.14	18414	1413.2	.74
323.14	18390	1413.2	.74
323.14	18360	1412.9	.74
323.14	18339	1412.9	.74
323.15	18317	1412.9	.74
323.14	18289	1412.6	.74
323.14	18259	1412.5	.74
323.15	18240	1412.4	.74
323.14	18206	1412.2	.74
323.15	18184	1412.1	.74
323.15	18160	1412	.74
323.15	18129	1411.7	.74
323.15	18105	1411.8	.74
323.15	18081	1411.6	.74
323.15	18049	1411.4	.74
323.15	18024	1411.4	.74
323.15	17998	1411.2	.74
323.15	17976	1411.1	.74
323.15	17952	1410.9	.74
323.14	17920	1410.7	.74
323.15	17898	1410.5	.74
323.14	17864	1410.4	.74
323.14	17843	1410.3	.74
323.14	17819	1410.1	.74
323.14	17791	1410	.74
323.14	17761	1409.8	.74
323.14	17741	1409.7	.74
323.14	17717	1409.6	.74
323.14	17693	1409.4	.74
323.14	17666	1409.3	.74
323.14	17646	1409.2	.74
323.14	17623	1409	.74
323.14	17597	1408.9	.74
323.14	17574	1408.8	.74
323.14	17539	1408.5	.74
323.14	17519	1408.6	.74
323.14	17493	1408.4	.74
323.14	17472	1408.3	.74
323.14	17446	1408.2	.74
323.14	17424	1408	.74
323.14	17403	1407.9	.74
323.15	17378	1407.6	.74
323.14	17357	1407.6	.74
323.15	17330	1407.5	.74
323.14	17301	1407.6	.74
323.14	17274	1407.3	.74
323.14	17246	1407	.74
323.15	17220	1406.9	.74
323.15	17197	1406.8	.74
323.15	17170	1406.7	.74
323.15	17141	1406.4	.74
323.15	17120	1406.4	.74
323.15	17097	1406.2	.74
323.15	17073	1406.2	.74
323.15	17050	1406	.74
323.15	17027	1406	.74
323.15	16998	1405.8	.74
323.15	16978	1405.6	.74
323.15	16947	1405.5	.74
323.15	16920	1405.3	.74
323.15	16898	1405.2	.74
323.15	16872	1405	.74
323.15	16854	1405.1	.74
323.15	16827	1404.9	.74
323.15	16808	1404.8	.74
323.16	16783	1404.5	.74
323.15	16763	1404.5	.74
323.16	16735	1404.5	.74
323.16	16719	1404.2	.74
323.16	16696	1404.2	.74
323.15	16677	1404.1	.74
323.15	16649	1403.9	.74
323.15	16629	1403.6	.74
323.15	16603	1403.7	.74
323.15	16584	1403.6	.74
323.15	16566	1403.2	.74
323.15	16544	1403.3	.74
323.15	16520	1403.2	.74
323.15	16502	1403	.74
323.15	16474	1402.8	.74
323.15	16451	1402.8	.74
323.15	16429	1402.6	.74
323.15	16407	1402.6	.74
323.15	16385	1402.4	.74
323.15	16364	1402.3	.74
323.15	16339	1402.1	.74
323.15	16318	1402	.74
323.15	16300	1401.9	.74
323.15	16276	1401.7	.74
323.15	16257	1401.7	.74
323.15	16238	1401.5	.74
323.15	16209	1401.3	.74
323.14	16188	1401.4	.74
323.14	16161	1401.1	.74
323.14	16141	1401	.74
323.14	16115	1400.9	.74
323.14	16094	1400.8	.74
323.15	16072	1400.6	.74
323.15	16047	1400.5	.74
323.15	16018	1400.3	.74
323.15	15995	1400.2	.74
323.15	15979	1400.1	.74
323.15	15952	1399.9	.74
323.15	15931	1400	.74
323.15	15907	1399.8	.74
323.15	15884	1399.6	.74
323.15	15857	1399.5	.74
323.15	15834	1399.3	.74
323.15	15811	1399.3	.74
323.15	15783	1399.1	.74
323.15	15763	1398.9	.74
323.15	15733	1398.8	.74
323.15	15711	1398.5	.74
323.14	15678	1398.5	.74
323.14	15655	1398.2	.74
323.14	15630	1398.1	.74
323.14	15602	1398	.74
323.14	15575	1397.8	.74
323.14	15550	1397.7	.74
323.14	15524	1397.5	.74
323.14	15504	1397.5	.74
323.14	15488	1397.3	.74
323.14	15456	1397.1	.74
323.14	15436	1397	.74
323.14	15413	1396.8	.74
323.14	15389	1396.7	.74
323.14	15368	1396.6	.74
323.14	15346	1396.5	.74
323.14	15326	1396.4	.74
323.14	15307	1396.3	.74
323.14	15284	1396.2	.74
323.14	15265	1396.1	.74
323.15	15240	1396	.74
323.14	15219	1395.7	.74
323.14	15198	1395.7	.74
323.14	15173	1395.6	.74
323.14	15150	1395.5	.74
323.14	15122	1395.1	.74
323.14	15098	1395	.74
323.14	15077	1395	.74
323.14	15049	1394.9	.74
323.14	15028	1394.7	.74
323.14	15001	1394.4	.74
323.14	14983	1394.4	.74
323.14	14959	1394.3	.74
323.14	14940	1394.1	.74
323.14	14919	1394.1	.74
323.14	14902	1394	.74
323.14	14883	1393.8	.74
323.14	14866	1393.6	.74
323.14	14842	1393.7	.74
323.14	14818	1393.6	.74
323.14	14798	1393.4	.74
323.14	14781	1393.3	.74
323.14	14760	1393	.74
323.14	14734	1393	.74
323.15	14710	1392.9	.74
323.15	14689	1392.6	.74
323.15	14665	1392.5	.74
323.15	14649	1392.4	.74
323.15	14624	1392.3	.74
323.15	14606	1392.1	.74
323.15	14584	1392	.74
323.15	14564	1392	.74
323.15	14547	1392	.74
323.15	14525	1391.7	.74
323.16	14509	1391.5	.74
323.16	14492	1391.6	.74
323.16	14470	1391.5	.74
323.16	14450	1391.3	.74
323.16	14427	1391.1	.74
323.16	14409	1390.9	.74
323.16	14386	1390.8	.74
323.16	14366	1390.8	.74
323.15	14346	1390.7	.74
323.15	14331	1390.5	.74
323.15	14307	1390.4	.74
323.15	14290	1390.1	.74
323.15	14268	1390.2	.74
323.15	14245	1390	.74
323.15	14223	1390	.74
323.16	14200	1389.8	.74
323.16	14186	1389.6	.74
323.16	14163	1389.5	.74
323.16	14143	1389.6	.74
323.15	14126	1389.3	.74
323.15	14106	1389.2	.74
323.15	14089	1389.2	.74
323.15	14066	1388.9	.74
323.15	14045	1388.8	.74
323.15	14024	1388.6	.74
323.15	14001	1388.5	.74
323.15	13981	1388.6	.74
323.15	13964	1388.4	.74
323.15	13940	1388.1	.74
323.15	13911	1387.9	.74
323.15	13891	1387.8	.74
323.14	13870	1387.7	.74
323.15	13851	1387.5	.74
323.15	13826	1387.4	.74
323.15	13803	1387.2	.74
323.15	13777	1387.2	.74
323.15	13757	1387.1	.74
323.15	13732	1386.8	.74
323.14	13710	1386.8	.74
323.14	13682	1386.6	.74
323.14	13663	1386.4	.74
323.14	13637	1386.4	.74
323.14	13614	1386.2	.74
323.14	13595	1386	.74
323.14	13570	1385.9	.74
323.14	13541	1385.7	.74
323.14	13522	1385.7	.74
323.14	13497	1385.5	.74
323.14	13476	1385.4	.74
323.14	13456	1385.2	.74
323.14	13433	1385	.74
323.14	13415	1385	.74
323.14	13389	1384.9	.74
323.14	13370	1384.7	.74
323.14	13348	1384.5	.74
323.14	13334	1384.5	.74
323.14	13310	1384.3	.74
323.14	13295	1384.2	.74
323.14	13263	1384.2	.74
323.15	13245	1383.9	.74
323.15	13222	1383.8	.74
323.15	13201	1383.6	.74
323.15	13183	1383.5	.74
323.14	13161	1383.4	.74
323.14	13141	1383.4	.74
323.14	13117	1382.9	.74
323.14	13095	1383	.74
323.14	13077	1382.9	.74
323.14	13052	1382.8	.74
323.14	13031	1382.6	.74
323.15	13009	1382.4	.74
323.15	12984	1382.4	.74
323.15	12971	1382.2	.74
323.15	12950	1382.2	.74
323.15	12933	1382	.74
323.15	12913	1381.8	.74
323.15	12893	1381.6	.74
323.15	12876	1381.6	.74
323.15	12849	1381.5	.74
323.15	12835	1381.4	.74
323.15	12809	1381.2	.74
323.15	12791	1381	.74
323.15	12774	1380.8	.74
323.14	12755	1380.8	.74
323.14	12736	1380.7	.74
323.15	12717	1380.6	.74
323.15	12697	1380.5	.74
323.14	12677	1380.3	.74
323.14	12652	1380.2	.74
323.14	12627	1380	.74
323.14	12612	1379.9	.74
323.14	12589	1379.7	.74
323.14	12573	1379.6	.74
323.14	12551	1379.4	.74
323.14	12536	1379.3	.74
323.14	12514	1379.4	.74
323.14	12497	1379.2	.74
323.14	12483	1379.1	.74
323.14	12464	1378.9	.74
323.14	12447	1378.8	.74
323.14	12427	1378.8	.74
323.14	12410	1378.6	.74
323.14	12391	1378.5	.74
323.14	12373	1378.3	.74
323.14	12350	1378.1	.74
323.14	12329	1378.1	.74
323.14	12313	1377.9	.74
323.14	12293	1377.8	.74
323.14	12274	1377.8	.74
323.14	12262	1377.6	.74
323.14	12238	1377.4	.74
323.14	12222	1377.4	.74
323.14	12200	1377.2	.74
323.14	12176	1376.9	.74
323.14	12160	1377	.74
323.14	12139	1376.8	.74
323.14	12118	1376.8	.74
323.14	12099	1376.6	.74
323.14	12076	1376.4	.74
323.14	12054	1376.2	.74
323.14	12029	1376.1	.74
323.14	12013	1376	.74
323.14	11993	1375.7	.74
323.14	11965	1375.6	.74
323.14	11947	1375.6	.74
323.14	11927	1375.4	.74
323.14	11908	1375.3	.74
323.14	11893	1375.2	.74
323.14	11870	1375	.74
323.14	11848	1374.9	.74
323.14	11827	1374.8	.74
323.14	11810	1374.6	.74
323.14	11792	1374.5	.74
323.14	11777	1374.4	.74
323.14	11754	1374.2	.74
323.14	11729	1374.2	.74
323.14	11707	1374	.74
323.14	11689	1373.9	.74
323.14	11666	1373.6	.74
323.14	11649	1373.5	.74
323.14	11632	1373.4	.74
323.14	11609	1373.4	.74
323.14	11585	1373.1	.74
323.14	11565	1373.2	.74
323.15	11540	1372.9	.74
323.15	11519	1372.7	.74
323.15	11501	1372.7	.74
323.15	11483	1372.5	.74
323.15	11463	1372.3	.74
323.15	11446	1372.2	.74
323.15	11425	1372	.74
323.15	11407	1371.9	.74
323.15	11387	1371.8	.74
323.14	11363	1371.8	.74
323.14	11336	1371.4	.74
323.14	11315	1371.3	.74
323.14	11292	1371.1	.74
323.14	11267	1370.9	.74
323.14	11253	1370.9	.74
323.14	11232	1370.9	.74
323.14	11213	1370.6	.74
323.14	11197	1370.5	.74
323.14	11177	1370.4	.74
323.14	11157	1370.3	.74
323.14	11135	1370.2	.74
323.14	11117	1370	.74
323.14	11096	1369.7	.74
323.14	11076	1369.7	.74
323.14	11057	1369.5	.74
323.14	11042	1369.4	.74
323.14	11021	1369.4	.74
323.14	10998	1369.1	.74
323.14	10980	1369	.74
323.14	10959	1368.8	.74
323.14	10935	1368.7	.74
323.14	10915	1368.6	.74
323.15	10894	1368.4	.74
323.15	10864	1368.3	.74
323.15	10845	1368.1	.74
323.15	10828	1367.9	.74
323.15	10804	1367.8	.74
323.15	10786	1367.7	.74
323.15	10766	1367.5	.74
323.15	10749	1367.4	.74
323.14	10722	1367.2	.74
323.14	10704	1367.2	.74
323.14	10682	1367	.74
323.14	10664	1366.8	.74
323.14	10640	1366.6	.74
323.14	10619	1366.6	.74
323.15	10595	1366.3	.74
323.15	10577	1366.2	.74
323.15	10553	1366	.74
323.15	10532	1365.9	.74
323.15	10512	1365.7	.74
323.15	10492	1365.7	.74
323.15	10468	1365.4	.74
323.15	10451	1365.3	.74
323.15	10433	1365.2	.74
323.15	10416	1365.1	.74
323.15	10394	1364.9	.74
323.15	10377	1364.9	.74
323.15	10348	1364.7	.74
323.14	10331	1364.4	.74
323.14	10306	1364.3	.74
323.14	10288	1364	.74
323.14	10273	1364	.74
323.14	10249	1363.9	.74
323.14	10232	1363.8	.74
323.14	10206	1363.7	.74
323.14	10190	1363.3	.74
323.14	10170	1363.3	.74
323.14	10153	1363.3	.74
323.14	10130	1363	.74
323.14	10105	1362.8	.74
323.14	10083	1362.6	.74
323.14	10066	1362.5	.74
323.14	10043	1362.2	.74
323.14	10019	1362.3	.74
323.14	9997	1362.1	.74
323.14	9976	1361.9	.74
323.14	9948	1361.8	.74
323.14	9929	1361.6	.74
323.14	9913	1361.5	.74
323.15	9894	1361.4	.74
323.15	9876	1361.3	.74
323.15	9857	1361.2	.74
323.15	9836	1360.8	.74
323.15	9817	1360.8	.74
323.15	9800	1360.6	.74
323.15	9782	1360.5	.74
323.15	9763	1360.3	.74
323.15	9744	1360.2	.74
323.15	9724	1360	.74
323.14	9700	1359.9	.74
323.14	9681	1359.8	.74
323.14	9657	1359.5	.74
323.14	9639	1359.5	.74
323.14	9618	1359.2	.74
323.14	9596	1359	.74
323.14	9574	1358.9	.74
323.14	9559	1358.9	.74
323.14	9543	1358.6	.74
323.14	9521	1358.4	.74
323.14	9503	1358.4	.74
323.14	9483	1358.2	.74
323.14	9459	1358.1	.74
323.14	9432	1357.9	.74
323.14	9411	1357.8	.74
323.14	9389	1357.5	.74
323.14	9371	1357.4	.74
323.14	9347	1357.2	.74
323.14	9326	1357.1	.74
323.14	9305	1357	.74
323.14	9290	1356.9	.74
323.14	9264	1356.7	.74
323.14	9238	1356.3	.74
323.14	9214	1356.3	.74
323.14	9191	1356.1	.74
323.14	9171	1355.9	.74
323.14	9154	1355.8	.74
323.14	9133	1355.7	.74
323.14	9115	1355.4	.74
323.14	9092	1355.3	.74
323.14	9072	1355.2	.74
323.14	9051	1354.9	.74
323.14	9030	1354.9	.74
323.14	9010	1354.7	.74
323.14	8991	1354.6	.74
323.14	8977	1354.5	.74
323.14	8952	1354.1	.74
323.14	8936	1354.2	.74
323.14	8914	1353.9	.74
323.15	8898	1353.8	.74
323.15	8877	1353.6	.74
323.15	8858	1353.5	.74
323.15	8836	1353.4	.74
323.15	8817	1353.1	.74
323.15	8792	1353.1	.74
323.15	8776	1352.9	.74
323.15	8753	1352.6	.74
323.15	8731	1352.6	.74
323.15	8713	1352.5	.74
323.15	8690	1352.3	.74
323.15	8674	1352.2	.74
323.15	8653	1351.9	.74
323.15	8637	1351.8	.74
323.15	8616	1351.8	.74
323.15	8597	1351.5	.74
323.15	8569	1351.3	.74
323.15	8553	1351.1	.74
323.15	8532	1351	.74
323.15	8516	1350.8	.74
323.15	8495	1350.7	.74
323.15	8474	1350.5	.74
323.14	8450	1350.4	.74
323.14	8432	1350.1	.74
323.14	8410	1350.2	.74
323.14	8385	1349.8	.74
323.15	8369	1349.8	.74
323.15	8351	1349.6	.74
323.15	8337	1349.4	.74
323.14	8316	1349.2	.74
323.14	8300	1349.3	.74
323.14	8284	1349	.74
323.14	8266	1348.7	.74
323.14	8250	1348.9	.74
323.14	8234	1348.6	.74
323.14	8219	1348.6	.74
323.14	8197	1348.3	.74
323.14	8181	1348.2	.74
323.14	8162	1348.1	.74
323.14	8142	1347.8	.74
323.14	8118	1347.7	.74
323.14	8101	1347.6	.74
323.14	8087	1347.4	.74
323.14	8068	1347.2	.74
323.14	8049	1347.2	.74
323.14	8025	1347	.74
323.15	8005	1346.8	.74
323.15	7982	1346.7	.74
323.14	7964	1346.4	.74
323.15	7941	1346.2	.74
323.14	7924	1346	.74
323.14	7903	1346	.74
323.14	7878	1345.9	.74
323.14	7859	1345.7	.74
323.14	7837	1345.4	.74
323.14	7818	1345.3	.74
323.14	7801	1345.1	.74
323.14	7781	1345	.74
323.14	7761	1344.8	.74
323.14	7741	1344.7	.74
323.14	7719	1344.5	.74
323.14	7702	1344.3	.74
323.14	7683	1344.2	.74
323.14	7661	1344.2	.74
323.14	7640	1344	.74
323.14	7619	1343.7	.74
323.14	7592	1343.5	.74
323.14	7566	1343.2	.74
323.14	7540	1343.1	.74
323.14	7516	1342.8	.74
323.14	7492	1342.6	.74
323.14	7468	1342.4	.74
323.14	7444	1342.2	.74
323.14	7423	1342.1	.74
323.14	7395	1341.7	.74
323.14	7375	1341.7	.74
323.14	7350	1341.5	.74
323.14	7328	1341.3	.74
323.14	7292	1341	.74
323.14	7268	1340.7	.74
323.14	7245	1340.6	.74
323.14	7215	1340.4	.74
323.14	7194	1340.2	.74
323.14	7168	1339.9	.74
323.14	7147	1339.7	.74
323.14	7124	1339.5	.74
323.14	7103	1339.4	.74
323.14	7083	1339.2	.74
323.14	7056	1338.9	.74
323.13	7026	1338.8	.74
323.14	7006	1338.7	.74
323.14	6974	1338.2	.74
323.14	6947	1338.1	.74
323.14	6923	1337.8	.74
323.14	6903	1337.7	.74
323.14	6881	1337.4	.74
323.14	6865	1337.3	.74
323.14	6840	1337.1	.74
323.14	6825	1337	.74
323.14	6803	1336.7	.74
323.14	6778	1336.5	.74
323.13	6759	1336.4	.74
323.13	6734	1336.3	.74
323.13	6716	1336	.74
323.13	6696	1335.8	.74
323.13	6668	1335.7	.74
323.13	6650	1335.4	.74
323.13	6623	1335.3	.74
323.13	6605	1335.1	.74
323.14	6581	1334.8	.74
323.14	6556	1334.6	.74
323.13	6533	1334.5	.74
323.13	6508	1334	.74
323.13	6489	1334.1	.74
323.14	6463	1333.8	.74
323.13	6440	1333.7	.74
323.14	6410	1333.5	.74
323.14	6390	1333.3	.74
323.14	6380	1333.1	.74
323.14	6350	1333	.74
323.14	6330	1332.6	.74
323.14	6310	1332.4	.74
323.14	6290	1332.4	.74
323.14	6270	1332	.74
323.14	6240	1331.8	.74
323.14	6230	1331.8	.74
323.14	6200	1331.4	.74
323.14	6180	1331.2	.74
323.14	6160	1331.1	.74
323.14	6140	1330.8	.74
323.14	6120	1330.7	.74
323.14	6100	1330.6	.74
323.14	6080	1330.3	.74
323.14	6050	1330	.74
323.14	6030	1330	.74
323.14	6010	1329.7	.74
323.14	5990	1329.5	.74
323.14	5960	1329.4	.74
323.15	5940	1329	.74
323.15	5920	1329.1	.74
323.15	5890	1328.7	.74
323.15	5860	1328.3	.74
323.15	5830	1328.1	.74
323.15	5810	1327.8	.74
323.15	5780	1327.6	.74
323.15	5750	1327.2	.74
323.15	5730	1327.1	.74
323.15	5700	1326.8	.74
323.14	5670	1326.6	.74
323.14	5650	1326.4	.74
323.14	5630	1326.2	.74
323.14	5600	1325.9	.74
323.14	5570	1325.7	.74
323.14	5540	1325.4	.74
323.14	5520	1325.2	.74
323.14	5490	1324.9	.74
323.14	5470	1324.7	.74
323.14	5440	1324.3	.74
323.14	5420	1324.1	.74
323.14	5390	1323.9	.74
323.14	5360	1323.7	.74
323.14	5330	1323.3	.74
323.14	5310	1323.2	.74
323.14	5280	1322.9	.74
323.14	5250	1322.6	.74
323.14	5220	1322.3	.74
323.14	5200	1322	.74
323.14	5180	1321.7	.74
323.14	5150	1321.7	.74
323.14	5130	1321.4	.74
323.14	5100	1321.1	.74
323.14	5070	1320.9	.74
323.14	5040	1320.6	.74
323.14	5020	1320.3	.74
323.14	4980	1320.1	.74
323.14	4960	1319.7	.74
323.13	4920	1319.4	.74
323.13	4900	1319.2	.74
323.13	4880	1318.9	.74
323.13	4850	1318.7	.74
323.13	4820	1318.3	.74
323.13	4790	1318.1	.74
323.13	4770	1317.9	.74
323.14	4740	1317.6	.74
323.14	4710	1317.3	.74
323.14	4690	1317.1	.74
323.14	4660	1316.8	.74
323.14	4640	1316.6	.74
323.14	4610	1316.2	.74
323.14	4590	1316	.74
323.14	4560	1315.8	.74
323.14	4540	1315.5	.74
323.14	4510	1315.3	.74
323.14	4500	1315.2	.74
323.14	4470	1314.9	.74
323.14	4440	1314.6	.74
323.14	4420	1314.6	.74
323.14	4400	1314.2	.74
323.14	4380	1313.9	.74
323.14	4360	1313.8	.74
323.14	4330	1313.5	.74
323.14	4310	1313.2	.74
323.14	4290	1313.1	.74
323.14	4270	1312.8	.74
323.14	4240	1312.4	.74
323.14	4220	1312.3	.74
323.14	4190	1312	.74
323.14	4170	1311.8	.74
323.14	4140	1311.5	.74
323.14	4120	1311.1	.74
323.14	4100	1311	.74
323.14	4070	1310.7	.74
323.14	4040	1310.3	.74
323.14	4020	1310.2	.74
323.14	4000	1309.9	.74
323.14	3970	1309.8	.74
323.14	3950	1309.4	.74
323.14	3920	1309.1	.74
323.14	3900	1309	.74
323.14	3880	1308.7	.74
323.14	3860	1308.5	.74
323.14	3840	1308.2	.74
323.14	3810	1308	.74
323.14	3790	1307.7	.74
323.14	3770	1307.5	.74
323.14	3750	1307.2	.74
323.14	3720	1307	.74
323.14	3700	1306.7	.74
323.14	3680	1306.5	.74
323.14	3660	1306.3	.74
323.14	3640	1306.1	.74
323.15	3610	1305.8	.74
323.14	3600	1305.5	.74
323.14	3570	1305.4	.74
323.14	3550	1305	.74
323.14	3530	1304.8	.74
323.14	3510	1304.5	.74
323.14	3480	1304.3	.74
323.14	3470	1304.1	.74
323.14	3440	1303.9	.74
323.14	3410	1303.5	.74
323.14	3380	1303.3	.74
323.14	3360	1303	.74
323.14	3340	1302.7	.74
323.14	3310	1302.4	.74
323.13	3290	1302.2	.74
323.13	3270	1301.9	.74
323.13	3250	1301.7	.74
323.13	3230	1301.4	.74
323.13	3200	1301.3	.74
323.13	3180	1300.8	.74
323.13	3150	1300.6	.74
323.13	3130	1300.3	.74
323.13	3110	1300.2	.74
323.13	3090	1299.8	.74
323.14	3060	1299.4	.74
323.13	3030	1299.3	.74
323.13	3000	1298.9	.74
323.14	2980	1298.6	.74
323.14	2960	1298.4	.74
323.14	2940	1298.3	.74
323.14	2920	1297.7	.74
323.14	2890	1297.6	.74
323.15	2860	1297.2	.74
323.14	2830	1296.9	.74
323.15	2810	1296.6	.74
323.15	2790	1296.3	.74
323.15	2770	1296.1	.74
323.15	2750	1295.9	.74
323.15	2730	1295.6	.74
323.15	2710	1295.4	.74
323.15	2690	1295.1	.74
323.14	2670	1295	.74
323.14	2650	1294.8	.74
323.14	2630	1294.4	.74
323.14	2610	1294.3	.74
323.14	2600	1294	.74
323.14	2570	1293.8	.74
323.14	2560	1293.6	.74
323.14	2530	1293.2	.74
323.14	2500	1292.9	.74
323.14	2480	1292.4	.74
323.14	2450	1292.3	.74
323.14	2430	1291.9	.74
323.14	2410	1291.7	.74
323.14	2390	1291.5	.74
323.14	2380	1291.3	.74
323.14	2350	1291	.74
323.14	2330	1290.7	.74
323.14	2310	1290.6	.74
323.14	2290	1290.2	.74
323.13	2270	1290	.74
323.13	2250	1289.8	.74
323.13	2230	1289.4	.74
323.13	2220	1289.2	.74
323.13	2190	1289.2	.74
323.13	2180	1288.9	.74
323.13	2160	1288.7	.74
323.13	2140	1288.3	.74
323.13	2120	1288.2	.74
323.13	2100	1287.9	.74
323.13	2080	1287.6	.74
323.13	2060	1287.3	.74
323.13	2040	1287.1	.74
323.14	2020	1286.8	.74
323.14	2000	1286.6	.74
323.14	1980	1286.3	.74
323.14	1960	1285.9	.74
323.14	1940	1285.8	.74
323.14	1920	1285.4	.74
323.14	1900	1285.3	.74
323.14	1880	1285	.74
323.14	1860	1284.7	.74
323.13	1840	1284.5	.74
323.13	1820	1284.2	.74
323.13	1800	1283.9	.74
323.14	1780	1283.7	.74
323.14	1750	1283.3	.74
323.14	1730	1283.1	.74
323.14	1710	1282.7	.74
323.14	1690	1282.5	.74
323.14	1670	1282.1	.74
323.14	1640	1282	.74
323.14	1630	1281.6	.74
323.14	1610	1281.4	.74
323.13	1600	1281.2	.74
323.14	1580	1281.1	.74
323.14	1550	1280.6	.74
323.13	1540	1280.5	.74
323.14	1520	1280.1	.74
323.14	1500	1279.9	.74
323.14	1470	1279.6	.74
323.14	1450	1279.2	.74
323.14	1420	1278.8	.74
323.14	1410	1278.7	.74
323.14	1390	1278.3	.74
323.14	1370	1278.2	.74
323.14	1350	1277.8	.74
323.14	1330	1277.6	.74
323.13	1310	1277.3	.74
323.14	1290	1276.9	.74
323.14	1260	1276.7	.74
323.14	1240	1276.4	.74
323.14	1220	1276	.74
323.14	1200	1275.9	.74
323.14	1180	1275.5	.74
323.14	1170	1275.4	.74
323.14	1140	1275.1	.74
323.14	1130	1274.7	.74
323.14	1110	1274.5	.74
323.14	1090	1274.2	.74
323.14	1070	1274.1	.74
323.14	1060	1273.7	.74
323.14	1040	1273.4	.74
323.14	1020	1273.1	.74
323.13	990	1272.7	.74
323.13	960	1272.4	.74
323.14	940	1272.1	.74
323.14	920	1271.8	.74
333.15	34570	1456.7	.74
333.15	34564	1456.6	.74
333.15	34553	1456.4	.74
333.15	34541	1456.4	.74
333.15	34519	1456.4	.74
333.15	34493	1456.2	.74
333.15	34447	1456.1	.74
333.14	34409	1456	.74
333.14	34376	1455.8	.74
333.14	34336	1455.9	.74
333.14	34294	1455.5	.74
333.14	34250	1455.4	.74
333.14	34220	1455.1	.74
333.14	34179	1455.3	.74
333.13	34136	1455	.74
333.13	34100	1454.9	.74
333.13	34054	1454.8	.74
333.13	34019	1454.5	.74
333.13	33977	1454.4	.74
333.13	33941	1454.3	.74
333.14	33907	1454.1	.74
333.14	33872	1453.9	.74
333.14	33829	1453.8	.74
333.14	33794	1453.9	.74
333.15	33753	1453.7	.74
333.15	33713	1453.3	.74
333.15	33683	1453.3	.74
333.15	33639	1453.3	.74
333.15	33615	1453	.74
333.15	33566	1452.8	.74
333.15	33532	1452.7	.74
333.15	33498	1452.4	.74
333.15	33465	1452.5	.74
333.15	33421	1452.4	.74
333.15	33391	1452.2	.74
333.15	33346	1452	.74
333.15	33317	1451.9	.74
333.15	33268	1451.7	.74
333.15	33224	1451.7	.74
333.15	33196	1451.6	.74
333.15	33156	1451.3	.74
333.15	33132	1451.1	.74
333.15	33093	1451.1	.74
333.15	33066	1451	.74
333.15	33028	1450.9	.74
333.15	32981	1450.6	.74
333.15	32943	1450.4	.74
333.15	32911	1450.4	.74
333.14	32883	1450.3	.74
333.14	32840	1450.1	.74
333.14	32811	1449.9	.74
333.14	32768	1449.9	.74
333.14	32736	1449.7	.74
333.14	32707	1449.5	.74
333.14	32678	1449.5	.74
333.14	32648	1449.3	.74
333.14	32614	1449.2	.74
333.14	32585	1449.1	.74
333.14	32553	1448.9	.74
333.14	32524	1448.8	.74
333.14	32486	1448.7	.74
333.14	32458	1448.6	.74
333.14	32422	1448.5	.74
333.14	32394	1448.3	.74
333.14	32349	1448.2	.74
333.14	32318	1448	.74
333.14	32275	1447.7	.74
333.14	32240	1447.7	.74
333.14	32197	1447.6	.74
333.14	32168	1447.4	.74
333.14	32135	1447.4	.74
333.14	32103	1447.2	.74
333.14	32069	1447	.74
333.14	32036	1446.9	.74
333.14	32003	1446.7	.74
333.14	31957	1446.6	.74
333.14	31930	1446.5	.74
333.14	31894	1446.5	.74
333.14	31857	1446.3	.74
333.14	31827	1446.1	.74
333.14	31790	1446	.74
333.14	31758	1445.8	.74
333.14	31730	1445.8	.74
333.14	31694	1445.6	.74
333.14	31662	1445.5	.74
333.14	31630	1445.3	.74
333.14	31598	1445.3	.74
333.14	31566	1445.1	.74
333.14	31523	1445	.74
333.14	31490	1444.8	.74
333.14	31458	1444.7	.74
333.14	31423	1444.5	.74
333.14	31380	1444.4	.74
333.14	31349	1444.1	.74
333.14	31317	1444	.74
333.14	31285	1444	.74
333.14	31247	1443.9	.74
333.14	31220	1443.6	.74
333.14	31190	1443.7	.74
333.14	31155	1443.4	.74
333.14	31125	1443.4	.74
333.14	31094	1443.2	.74
333.14	31064	1443.2	.74
333.14	31030	1443	.74
333.14	31004	1442.8	.74
333.14	30958	1442.6	.74
333.15	30925	1442.4	.74
333.15	30884	1442.3	.74
333.15	30843	1442	.74
333.15	30816	1442.1	.74
333.15	30780	1441.9	.74
333.15	30753	1441.8	.74
333.15	30717	1441.7	.74
333.15	30690	1441.5	.74
333.15	30650	1441.3	.74
333.15	30623	1441.3	.74
333.15	30586	1441.1	.74
333.15	30557	1441.1	.74
333.15	30521	1440.9	.74
333.15	30493	1440.8	.74
333.15	30461	1440.7	.74
333.15	30439	1440.7	.74
333.15	30402	1440.3	.74
333.15	30372	1440.3	.74
333.15	30336	1440.1	.74
333.15	30299	1440	.74
333.14	30272	1440	.74
333.14	30241	1439.8	.74
333.14	30215	1439.6	.74
333.15	30189	1439.6	.74
333.15	30149	1439.4	.74
333.14	30122	1439.3	.74
333.15	30086	1439	.74
333.14	30054	1439.1	.74
333.14	30013	1438.8	.74
333.14	29982	1438.6	.74
333.14	29946	1438.5	.74
333.14	29910	1438.4	.74
333.14	29883	1438.3	.74
333.14	29848	1438.1	.74
333.14	29825	1437.9	.74
333.14	29789	1437.8	.74
333.15	29758	1437.7	.74
333.14	29724	1437.5	.74
333.15	29694	1437.4	.74
333.14	29660	1437.3	.74
333.14	29621	1437.1	.74
333.14	29596	1437.2	.74
333.14	29570	1437.1	.74
333.14	29539	1436.8	.74
333.14	29504	1436.7	.74
333.14	29468	1436.5	.74
333.15	29434	1436.4	.74
333.15	29400	1436.2	.74
333.15	29364	1436.1	.74
333.15	29326	1435.9	.74
333.15	29293	1435.7	.74
333.15	29267	1435.7	.74
333.15	29233	1435.5	.74
333.15	29206	1435.5	.74
333.15	29171	1435.3	.74
333.15	29132	1435.2	.74
333.15	29104	1434.9	.74
333.15	29069	1434.8	.74
333.15	29042	1434.7	.74
333.15	29008	1434.6	.74
333.15	28982	1434.4	.74
333.15	28956	1434.4	.74
333.15	28917	1434.2	.74
333.15	28892	1434.1	.74
333.15	28866	1434	.74
333.15	28833	1433.9	.74
333.15	28792	1433.6	.74
333.15	28761	1433.5	.74
333.15	28730	1433.3	.74
333.15	28698	1433.3	.74
333.15	28668	1433.1	.74
333.15	28633	1433	.74
333.15	28602	1432.9	.74
333.15	28577	1432.8	.74
333.15	28543	1432.6	.74
333.15	28514	1432.5	.74
333.15	28484	1432.4	.74
333.14	28453	1432.3	.74
333.14	28426	1432.1	.74
333.14	28383	1431.9	.74
333.14	28346	1431.8	.74
333.14	28321	1431.5	.74
333.14	28291	1431.5	.74
333.14	28261	1431.4	.74
333.14	28231	1431.3	.74
333.14	28201	1431.2	.74
333.14	28167	1431	.74
333.14	28138	1430.9	.74
333.14	28109	1430.9	.74
333.14	28080	1430.6	.74
333.14	28047	1430.5	.74
333.14	28013	1430.3	.74
333.15	27975	1430.2	.74
333.15	27950	1430.1	.74
333.15	27916	1430	.74
333.15	27890	1429.9	.74
333.15	27852	1429.7	.74
333.15	27818	1429.5	.74
333.15	27783	1429.3	.74
333.15	27750	1429.2	.74
333.15	27707	1428.9	.74
333.15	27681	1428.9	.74
333.15	27651	1428.9	.74
333.15	27621	1428.6	.74
333.14	27595	1428.4	.74
333.14	27561	1428.5	.74
333.14	27531	1428.3	.74
333.14	27494	1428	.74
333.14	27465	1428	.74
333.13	27436	1427.8	.74
333.13	27408	1427.7	.74
333.13	27375	1427.5	.74
333.14	27346	1427.5	.74
333.14	27317	1427.3	.74
333.14	27284	1427.1	.74
333.14	27239	1427	.74
333.14	27209	1426.8	.74
333.15	27180	1426.6	.74
333.15	27151	1426.6	.74
333.15	27119	1426.4	.74
333.15	27081	1426.2	.74
333.15	27056	1426.1	.74
333.15	27023	1426	.74
333.15	26999	1425.9	.74
333.15	26972	1425.8	.74
333.15	26943	1425.8	.74
333.15	26914	1425.6	.74
333.15	26889	1425.4	.74
333.15	26860	1425.4	.74
333.15	26831	1425.1	.74
333.15	26801	1425	.74
333.15	26760	1424.8	.74
333.15	26726	1424.8	.74
333.15	26692	1424.5	.74
333.15	26654	1424.4	.74
333.15	26625	1424.4	.74
333.15	26596	1424.2	.74
333.15	26563	1423.8	.74
333.15	26527	1423.9	.74
333.14	26504	1423.7	.74
333.14	26469	1423.6	.74
333.14	26444	1423.3	.74
333.14	26411	1423.3	.74
333.14	26386	1423.1	.74
333.14	26353	1423.1	.74
333.14	26327	1422.9	.74
333.14	26295	1422.8	.74
333.15	26257	1422.6	.74
333.15	26234	1422.6	.74
333.15	26201	1422.2	.74
333.15	26167	1422.2	.74
333.15	26128	1422	.74
333.15	26099	1421.9	.74
333.14	26069	1421.8	.74
333.14	26036	1421.6	.74
333.14	26005	1421.5	.74
333.14	25976	1421.4	.74
333.14	25950	1421.3	.74
333.14	25917	1421.1	.74
333.14	25874	1420.9	.74
333.14	25854	1420.9	.74
333.14	25814	1420.7	.74
333.13	25788	1420.5	.74
333.14	25762	1420.4	.74
333.14	25735	1420.1	.74
333.14	25704	1419.9	.74
333.13	25679	1419.9	.74
333.13	25651	1419.9	.74
333.14	25615	1419.7	.74
333.14	25586	1419.6	.74
333.14	25553	1419.5	.74
333.14	25524	1419.3	.74
333.14	25486	1419	.74
333.14	25452	1419	.74
333.15	25415	1418.7	.74
333.15	25387	1418.6	.74
333.15	25354	1418.4	.74
333.15	25312	1418.3	.74
333.15	25279	1418.1	.74
333.15	25251	1417.9	.74
333.15	25224	1417.9	.74
333.15	25181	1417.7	.74
333.15	25147	1417.6	.74
333.16	25111	1417.2	.74
333.16	25088	1417.1	.74
333.16	25039	1417.1	.74
333.16	25007	1416.8	.74
333.16	24980	1416.7	.74
333.16	24944	1416.5	.74
333.16	24910	1416.4	.74
333.16	24869	1416	.74
333.16	24838	1416	.74
333.16	24810	1415.9	.74
333.16	24782	1415.8	.74
333.16	24751	1415.7	.74
333.16	24720	1415.5	.74
333.16	24688	1415.3	.74
333.16	24657	1415.2	.74
333.16	24621	1415.1	.74
333.16	24594	1414.9	.74
333.16	24558	1414.7	.74
333.16	24531	1414.6	.74
333.16	24500	1414.4	.74
333.16	24468	1414.3	.74
333.16	24436	1414.2	.74
333.16	24396	1414	.74
333.16	24369	1413.7	.74
333.16	24333	1413.8	.74
333.16	24304	1413.6	.74
333.16	24269	1413.3	.74
333.16	24242	1413.2	.74
333.16	24206	1413.1	.74
333.16	24184	1413	.74
333.16	24140	1412.7	.74
333.16	24110	1412.7	.74
333.16	24089	1412.4	.74
333.16	24055	1412.4	.74
333.16	24020	1412.2	.74
333.16	23993	1412	.74
333.16	23957	1411.9	.74
333.16	23921	1411.7	.74
333.16	23890	1411.6	.74
333.15	23854	1411.4	.74
333.16	23823	1411.3	.74
333.16	23795	1411	.74
333.16	23763	1411	.74
333.16	23728	1410.8	.74
333.16	23693	1410.4	.74
333.16	23662	1410.4	.74
333.16	23633	1410.3	.74
333.16	23594	1410.2	.74
333.16	23559	1410	.74
333.16	23515	1409.6	.74
333.16	23480	1409.5	.74
333.16	23453	1409.5	.74
333.16	23425	1409.3	.74
333.17	23382	1409	.74
333.16	23358	1409	.74
333.16	23324	1408.8	.74
333.16	23297	1408.8	.74
333.16	23254	1408.5	.74
333.16	23228	1408.3	.74
333.16	23193	1408.1	.74
333.16	23162	1408	.74
333.16	23133	1407.8	.74
333.16	23104	1407.9	.74
333.16	23068	1407.5	.74
333.16	23037	1407.4	.74
333.16	23011	1407.2	.74
333.16	22980	1407.1	.74
333.15	22954	1407	.74
333.15	22918	1406.7	.74
333.15	22880	1406.7	.74
333.15	22856	1406.5	.74
333.15	22829	1406.3	.74
333.15	22798	1406.2	.74
333.16	22762	1406.1	.74
333.16	22736	1405.9	.74
333.16	22698	1405.8	.74
333.16	22672	1405.6	.74
333.16	22642	1405.4	.74
333.16	22605	1405.3	.74
333.16	22575	1405.2	.74
333.16	22537	1404.9	.74
333.16	22511	1404.8	.74
333.16	22473	1404.6	.74
333.16	22435	1404.3	.74
333.16	22404	1404.2	.74
333.16	22370	1404.1	.74
333.16	22335	1403.8	.74
333.16	22309	1403.8	.74
333.16	22279	1403.5	.74
333.16	22249	1403.6	.74
333.16	22220	1403.2	.74
333.16	22183	1403.1	.74
333.16	22154	1402.9	.74
333.16	22116	1402.8	.74
333.16	22082	1402.5	.74
333.16	22042	1402.3	.74
333.16	22016	1402.3	.74
333.16	21990	1402	.74
333.16	21957	1401.9	.74
333.15	21932	1401.8	.74
333.15	21897	1401.7	.74
333.16	21860	1401.5	.74
333.15	21831	1401.4	.74
333.16	21797	1401.1	.74
333.15	21764	1401	.74
333.15	21740	1400.8	.74
333.15	21704	1400.7	.74
333.15	21675	1400.5	.74
333.15	21645	1400.3	.74
333.16	21615	1400.2	.74
333.16	21595	1400.1	.74
333.16	21562	1399.9	.74
333.16	21537	1399.9	.74
333.16	21507	1399.6	.74
333.16	21479	1399.5	.74
333.16	21458	1399.4	.74
333.16	21425	1399.3	.74
333.15	21397	1399.2	.74
333.15	21360	1398.9	.74
333.15	21327	1398.7	.74
333.15	21296	1398.6	.74
333.15	21270	1398.3	.74
333.15	21229	1398.2	.74
333.15	21205	1398	.74
333.15	21172	1397.9	.74
333.15	21148	1397.8	.74
333.15	21120	1397.5	.74
333.15	21088	1397.5	.74
333.15	21063	1397.3	.74
333.15	21033	1397.1	.74
333.15	21008	1397	.74
333.15	20979	1396.9	.74
333.15	20957	1396.9	.74
333.15	20931	1396.6	.74
333.15	20901	1396.5	.74
333.15	20873	1396.4	.74
333.15	20842	1396.2	.74
333.15	20814	1396	.74
333.15	20777	1395.9	.74
333.15	20749	1395.7	.74
333.16	20713	1395.4	.74
333.16	20682	1395.2	.74
333.16	20661	1395.4	.74
333.16	20640	1395.1	.74
333.16	20612	1395	.74
333.16	20579	1394.8	.74
333.16	20545	1394.6	.74
333.16	20512	1394.4	.74
333.16	20487	1394.3	.74
333.16	20453	1394.1	.74
333.16	20421	1393.8	.74
333.16	20393	1393.9	.74
333.16	20352	1393.5	.74
333.16	20328	1393.5	.74
333.16	20294	1393.3	.74
333.16	20266	1393.1	.74
333.16	20238	1392.9	.74
333.16	20207	1392.8	.74
333.16	20174	1392.5	.74
333.16	20146	1392.4	.74
333.16	20115	1392.3	.74
333.16	20077	1392	.74
333.16	20050	1391.9	.74
333.16	20022	1391.8	.74
333.16	19987	1391.6	.74
333.16	19959	1391.4	.74
333.16	19927	1391.2	.74
333.16	19894	1391	.74
333.16	19870	1391	.74
333.16	19831	1390.7	.74
333.16	19803	1390.5	.74
333.16	19776	1390.5	.74
333.16	19745	1390.3	.74
333.16	19716	1390.1	.74
333.15	19677	1389.8	.74
333.15	19650	1389.8	.74
333.15	19624	1389.6	.74
333.15	19597	1389.4	.74
333.15	19563	1389.2	.74
333.15	19537	1389	.74
333.15	19508	1388.9	.74
333.16	19468	1388.8	.74
333.16	19445	1388.6	.74
333.16	19409	1388.4	.74
333.16	19381	1388.3	.74
333.16	19346	1388	.74
333.16	19310	1387.8	.74
333.16	19286	1387.9	.74
333.16	19248	1387.5	.74
333.16	19220	1387.4	.74
333.16	19192	1387.1	.74
333.16	19166	1387	.74
333.16	19128	1386.7	.74
333.16	19105	1386.7	.74
333.16	19071	1386.6	.74
333.16	19047	1386.4	.74
333.16	19009	1386.3	.74
333.16	18974	1385.9	.74
333.16	18951	1385.8	.74
333.16	18924	1385.8	.74
333.16	18889	1385.6	.74
333.16	18859	1385.4	.74
333.16	18836	1385.3	.74
333.16	18809	1385.1	.74
333.16	18777	1384.9	.74
333.16	18741	1384.6	.74
333.16	18715	1384.6	.74
333.16	18684	1384.3	.74
333.16	18653	1384.2	.74
333.16	18633	1384.2	.74
333.16	18605	1383.8	.74
333.16	18582	1383.6	.74
333.17	18552	1383.6	.74
333.17	18517	1383.4	.74
333.17	18490	1383	.74
333.17	18467	1383.1	.74
333.16	18440	1382.9	.74
333.16	18409	1382.9	.74
333.16	18378	1382.7	.74
333.16	18352	1382.4	.74
333.16	18321	1382.2	.74
333.16	18289	1382	.74
333.16	18263	1382	.74
333.16	18229	1381.8	.74
333.16	18199	1381.6	.74
333.16	18172	1381.4	.74
333.16	18144	1381.2	.74
333.15	18108	1381	.74
333.15	18080	1380.9	.74
333.15	18050	1380.7	.74
333.15	18015	1380.5	.74
333.15	17993	1380.3	.74
333.15	17962	1380.3	.74
333.15	17932	1379.9	.74
333.15	17906	1379.9	.74
333.16	17875	1379.6	.74
333.16	17848	1379.5	.74
333.16	17814	1379.3	.74
333.16	17788	1379.2	.74
333.16	17766	1379.1	.74
333.16	17741	1378.9	.74
333.16	17707	1378.7	.74
333.16	17680	1378.6	.74
333.16	17654	1378.4	.74
333.16	17619	1378.1	.74
333.16	17589	1378	.74
333.16	17563	1377.9	.74
333.16	17532	1377.7	.74
333.16	17509	1377.4	.74
333.16	17482	1377.4	.74
333.17	17457	1377.4	.74
333.17	17429	1376.9	.74
333.17	17403	1376.8	.74
333.16	17370	1376.8	.74
333.16	17351	1376.5	.74
333.16	17322	1376.4	.74
333.16	17300	1376.3	.74
333.16	17263	1376.1	.74
333.16	17241	1375.9	.74
333.16	17215	1375.7	.74
333.16	17189	1375.7	.74
333.16	17162	1375.4	.74
333.16	17137	1375.3	.74
333.16	17109	1375.2	.74
333.16	17088	1374.9	.74
333.16	17063	1374.9	.74
333.16	17038	1374.7	.74
333.16	17013	1374.5	.74
333.16	16992	1374.4	.74
333.16	16964	1374.2	.74
333.16	16937	1374.2	.74
333.16	16909	1373.8	.74
333.16	16876	1373.7	.74
333.16	16850	1373.5	.74
333.16	16821	1373.3	.74
333.16	16788	1373.2	.74
333.15	16761	1373	.74
333.15	16730	1372.7	.74
333.15	16707	1372.8	.74
333.15	16683	1372.5	.74
333.16	16655	1372.4	.74
333.15	16626	1372.2	.74
333.16	16600	1372	.74
333.16	16572	1371.9	.74
333.16	16540	1371.7	.74
333.15	16519	1371.5	.74
333.15	16489	1371.4	.74
333.15	16464	1371.3	.74
333.15	16438	1370.9	.74
333.16	16416	1370.9	.74
333.16	16388	1370.7	.74
333.16	16363	1370.5	.74
333.16	16339	1370.4	.74
333.16	16314	1370.3	.74
333.16	16281	1370.1	.74
333.16	16248	1370	.74
333.16	16223	1369.6	.74
333.16	16193	1369.6	.74
333.16	16169	1369.4	.74
333.16	16141	1369.2	.74
333.16	16105	1369.1	.74
333.16	16085	1368.9	.74
333.16	16049	1368.5	.74
333.16	16013	1368.3	.74
333.16	15985	1368.1	.74
333.16	15953	1368	.74
333.15	15926	1367.8	.74
333.15	15899	1367.6	.74
333.15	15868	1367.4	.74
333.15	15836	1367.2	.74
333.15	15812	1367.1	.74
333.15	15780	1366.8	.74
333.15	15745	1366.7	.74
333.15	15717	1366.6	.74
333.16	15689	1366.4	.74
333.16	15658	1366.2	.74
333.16	15630	1366	.74
333.16	15593	1365.8	.74
333.16	15561	1365.5	.74
333.16	15533	1365.2	.74
333.16	15500	1365.2	.74
333.16	15464	1364.9	.74
333.16	15436	1364.7	.74
333.16	15404	1364.4	.74
333.16	15370	1364.4	.74
333.16	15346	1364.2	.74
333.16	15320	1364	.74
333.15	15290	1363.8	.74
333.16	15260	1363.6	.74
333.15	15236	1363.4	.74
333.15	15205	1363.1	.74
333.16	15179	1363	.74
333.16	15153	1362.8	.74
333.16	15117	1362.6	.74
333.16	15081	1362.5	.74
333.16	15054	1362.3	.74
333.16	15034	1362.1	.74
333.16	15001	1361.9	.74
333.16	14979	1361.7	.74
333.16	14953	1361.5	.74
333.16	14922	1361.4	.74
333.16	14892	1361.2	.74
333.16	14853	1360.9	.74
333.16	14828	1360.7	.74
333.15	14798	1360.5	.74
333.15	14768	1360.3	.74
333.15	14746	1360.2	.74
333.15	14717	1360	.74
333.15	14691	1359.8	.74
333.15	14665	1359.7	.74
333.15	14631	1359.4	.74
333.15	14609	1359.3	.74
333.15	14575	1359.1	.74
333.15	14545	1358.8	.74
333.15	14514	1358.6	.74
333.15	14483	1358.5	.74
333.15	14458	1358.3	.74
333.15	14435	1358.2	.74
333.15	14400	1357.8	.74
333.15	14371	1357.7	.74
333.15	14328	1357.4	.74
333.15	14291	1357.2	.74
333.15	14266	1357	.74
333.15	14224	1356.7	.74
333.15	14195	1356.8	.74
333.15	14170	1356.5	.74
333.16	14140	1356.2	.74
333.16	14106	1355.9	.74
333.16	14075	1355.8	.74
333.16	14050	1355.5	.74
333.16	14017	1355.3	.74
333.16	13991	1355.1	.74
333.16	13954	1354.9	.74
333.16	13921	1354.7	.74
333.15	13893	1354.5	.74
333.15	13863	1354.3	.74
333.15	13830	1354.1	.74
333.15	13801	1353.7	.74
333.15	13772	1353.6	.74
333.15	13746	1353.4	.74
333.16	13724	1353.1	.74
333.16	13690	1353	.74
333.16	13666	1352.9	.74
333.16	13633	1352.7	.74
333.15	13601	1352.5	.74
333.15	13574	1352.3	.74
333.15	13551	1352.2	.74
333.16	13518	1351.9	.74
333.16	13494	1351.7	.74
333.16	13461	1351.4	.74
333.16	13432	1351.2	.74
333.16	13394	1351.1	.74
333.16	13368	1350.9	.74
333.16	13344	1350.6	.74
333.16	13324	1350.5	.74
333.16	13304	1350.5	.74
333.16	13272	1350.2	.74
333.16	13244	1349.9	.74
333.16	13220	1349.7	.74
333.16	13196	1349.7	.74
333.16	13164	1349.4	.74
333.16	13140	1349.1	.74
333.16	13115	1349.1	.74
333.16	13082	1348.9	.74
333.16	13053	1348.6	.74
333.16	13023	1348.2	.74
333.16	12994	1348.2	.74
333.16	12966	1347.9	.74
333.16	12942	1347.8	.74
333.16	12914	1347.5	.74
333.16	12886	1347.5	.74
333.15	12846	1347.1	.74
333.15	12823	1347	.74
333.15	12789	1346.6	.74
333.15	12754	1346.4	.74
333.15	12730	1346.2	.74
333.15	12698	1346.1	.74
333.15	12675	1345.9	.74
333.15	12648	1345.7	.74
333.15	12616	1345.4	.74
333.15	12589	1345.2	.74
333.15	12561	1345	.74
333.15	12533	1344.8	.74
333.15	12501	1344.5	.74
333.16	12466	1344.3	.74
333.16	12443	1344.2	.74
333.16	12416	1344	.74
333.16	12385	1343.8	.74
333.16	12345	1343.5	.74
333.16	12321	1343.4	.74
333.16	12289	1343	.74
333.16	12261	1342.8	.74
333.16	12226	1342.6	.74
333.16	12202	1342.3	.74
333.16	12167	1342.2	.74
333.16	12147	1342	.74
333.16	12120	1341.8	.74
333.16	12090	1341.4	.74
333.16	12062	1341.3	.74
333.16	12024	1341.1	.74
333.16	11989	1340.8	.74
333.16	11965	1340.6	.74
333.16	11937	1340.4	.74
333.16	11897	1340.1	.74
333.16	11870	1339.9	.74
333.16	11847	1339.8	.74
333.16	11824	1339.6	.74
333.16	11792	1339.3	.74
333.15	11757	1339	.74
333.15	11734	1338.8	.74
333.15	11705	1338.6	.74
333.15	11678	1338.4	.74
333.15	11651	1338.3	.74
333.15	11620	1338	.74
333.15	11594	1337.8	.74
333.15	11567	1337.7	.74
333.16	11534	1337.4	.74
333.15	11507	1337.2	.74
333.16	11481	1337	.74
333.16	11450	1336.7	.74
333.16	11415	1336.6	.74
333.16	11388	1336.3	.74
333.16	11353	1336	.74
333.16	11320	1335.7	.74
333.16	11298	1335.5	.74
333.16	11275	1335.4	.74
333.16	11245	1335.1	.74
333.16	11212	1334.9	.74
333.16	11186	1334.6	.74
333.16	11160	1334.5	.74
333.16	11141	1334.3	.74
333.16	11112	1334	.74
333.15	11083	1333.8	.74
333.15	11055	1333.5	.74
333.15	11030	1333.5	.74
333.15	11004	1333.2	.74
333.16	10979	1332.9	.74
333.16	10947	1332.7	.74
333.16	10918	1332.5	.74
333.16	10896	1332.3	.74
333.16	10866	1332.1	.74
333.16	10839	1331.8	.74
333.15	10813	1331.6	.74
333.15	10786	1331.6	.74
333.15	10763	1331.3	.74
333.15	10737	1331	.74
333.15	10703	1330.9	.74
333.15	10680	1330.6	.74
333.16	10654	1330.5	.74
333.16	10624	1330.1	.74
333.16	10596	1329.9	.74
333.16	10570	1329.8	.74
333.16	10537	1329.3	.74
333.16	10515	1329.4	.74
333.16	10483	1329	.74
333.16	10457	1328.7	.74
333.16	10430	1328.5	.74
333.16	10397	1328.3	.74
333.16	10367	1328.1	.74
333.16	10338	1327.9	.74
333.16	10312	1327.6	.74
333.16	10287	1327.4	.74
333.16	10265	1327.2	.74
333.16	10236	1326.9	.74
333.16	10203	1326.6	.74
333.16	10178	1326.6	.74
333.16	10148	1326.3	.74
333.16	10119	1326.1	.74
333.16	10094	1325.8	.74
333.16	10070	1325.4	.74
333.16	10042	1325.3	.74
333.16	10016	1325.2	.74
333.16	9986	1324.9	.74
333.16	9961	1324.7	.74
333.16	9936	1324.5	.74
333.16	9911	1324.3	.74
333.16	9885	1324	.74
333.16	9857	1323.7	.74
333.16	9821	1323.4	.74
333.16	9793	1323.2	.74
333.16	9767	1323.1	.74
333.15	9737	1322.8	.74
333.15	9713	1322.7	.74
333.15	9684	1322.3	.74
333.15	9652	1322.1	.74
333.15	9631	1321.9	.74
333.15	9599	1321.5	.74
333.15	9578	1321.4	.74
333.15	9552	1321.1	.74
333.15	9533	1321.1	.74
333.15	9512	1320.9	.74
333.15	9483	1320.7	.74
333.15	9455	1320.4	.74
333.15	9422	1320.1	.74
333.15	9402	1319.9	.74
333.15	9370	1319.7	.74
333.15	9349	1319.5	.74
333.15	9321	1319.3	.74
333.15	9294	1319	.74
333.15	9270	1318.8	.74
333.15	9251	1318.6	.74
333.15	9219	1318.3	.74
333.15	9196	1318	.74
333.15	9164	1317.9	.74
333.15	9121	1317.5	.74
333.15	9087	1317.2	.74
333.15	9044	1316.8	.74
333.16	9012	1316.5	.74
333.16	8979	1316.3	.74
333.15	8940	1316	.74
333.15	8912	1315.8	.74
333.15	8884	1315.2	.74
333.15	8846	1314.9	.74
333.15	8804	1314.6	.74
333.15	8768	1314.3	.74
333.15	8732	1313.9	.74
333.15	8701	1313.7	.74
333.15	8665	1313.3	.74
333.15	8622	1313	.74
333.15	8592	1312.8	.74
333.15	8560	1312.4	.74
333.15	8538	1312.3	.74
333.15	8497	1311.8	.74
333.15	8467	1311.5	.74
333.15	8425	1311.2	.74
333.15	8395	1311	.74
333.15	8357	1310.6	.74
333.15	8328	1310.3	.74
333.15	8298	1310.1	.74
333.15	8273	1309.8	.74
333.15	8236	1309.5	.74
333.15	8204	1309.2	.74
333.15	8176	1308.8	.74
333.15	8143	1308.5	.74
333.15	8110	1308.2	.74
333.14	8080	1307.9	.74
333.14	8057	1307.7	.74
333.14	8029	1307.4	.74
333.14	7996	1307.2	.74
333.14	7957	1306.8	.74
333.14	7930	1306.5	.74
333.14	7893	1306.1	.74
333.14	7864	1305.9	.74
333.14	7826	1305.5	.74
333.14	7795	1305.2	.74
333.14	7767	1305.1	.74
333.14	7735	1304.7	.74
333.14	7702	1304.3	.74
333.14	7670	1304.1	.74
333.14	7632	1303.7	.74
333.14	7590	1303.3	.74
333.14	7559	1303	.74
333.14	7527	1302.6	.74
333.14	7496	1302.4	.74
333.14	7460	1302.1	.74
333.14	7424	1301.7	.74
333.14	7402	1301.4	.74
333.14	7368	1301.1	.74
333.14	7341	1300.7	.74
333.14	7311	1300.4	.74
333.14	7278	1300.2	.74
333.14	7243	1299.9	.74
333.14	7209	1299.5	.74
333.14	7182	1299.2	.74
333.14	7151	1299	.74
333.14	7125	1298.6	.74
333.14	7081	1298.2	.74
333.14	7050	1297.8	.74
333.15	7009	1297.4	.74
333.15	6965	1297	.74
333.14	6922	1296.7	.74
333.15	6887	1296.2	.74
333.15	6856	1296	.74
333.15	6821	1295.6	.74
333.15	6789	1295.3	.74
333.14	6758	1295	.74
333.14	6728	1294.7	.74
333.14	6702	1294.2	.74
333.14	6668	1293.9	.74
333.14	6633	1293.6	.74
333.14	6594	1293.3	.74
333.14	6555	1292.7	.74
333.14	6533	1292.6	.74
333.14	6498	1292.3	.74
333.14	6472	1291.9	.74
333.15	6442	1291.6	.74
333.15	6413	1291.3	.74
333.15	6386	1291	.74
333.15	6346	1290.5	.74
333.15	6309	1290.2	.74
333.15	6283	1289.9	.74
333.14	6250	1289.5	.74
333.14	6216	1289.2	.74
333.14	6191	1289	.74
333.14	6158	1288.5	.74
333.14	6133	1288.1	.74
333.14	6090	1287.8	.74
333.14	6052	1287.3	.74
333.14	6009	1287	.74
333.14	5970	1286.4	.74
333.14	5941	1286.1	.74
333.14	5908	1285.8	.74
333.14	5879	1285.5	.74
333.14	5845	1285.1	.74
333.14	5815	1284.8	.74
333.14	5782	1284.4	.74
333.14	5750	1283.9	.74
333.14	5709	1283.6	.74
333.13	5673	1283.2	.74
333.13	5635	1282.8	.74
333.13	5612	1282.4	.74
333.14	5584	1282.2	.74
333.13	5541	1281.7	.74
333.14	5503	1281.2	.74
333.14	5469	1280.8	.74
333.13	5432	1280.3	.74
333.14	5403	1280.1	.74
333.13	5365	1279.6	.74
333.13	5325	1279.1	.74
333.13	5294	1278.8	.74
333.13	5261	1278.4	.74
333.13	5224	1277.9	.74
333.13	5191	1277.7	.74
333.13	5155	1277.2	.74
333.13	5123	1276.9	.74
333.13	5086	1276.3	.74
333.13	5055	1275.9	.74
333.13	5015	1275.4	.74
333.13	4988	1275.2	.74
333.13	4947	1274.6	.74
333.13	4916	1274.2	.74
333.13	4893	1274.1	.74
333.13	4861	1273.7	.74
333.13	4834	1273.3	.74
333.13	4802	1272.8	.74
333.13	4762	1272.2	.74
333.14	4727	1272	.74
333.14	4697	1271.7	.74
333.14	4661	1271	.74
333.14	4623	1270.6	.74
333.14	4601	1270.4	.74
333.14	4566	1269.9	.74
333.14	4531	1269.4	.74
333.14	4501	1269.1	.74
333.13	4463	1268.6	.74
333.13	4432	1268.2	.74
333.13	4398	1267.7	.74
333.13	4364	1267.4	.74
333.13	4338	1266.8	.74
333.13	4309	1266.6	.74
333.13	4278	1266.2	.74
333.13	4241	1265.8	.74
333.13	4207	1265.2	.74
333.13	4181	1264.9	.74
333.13	4143	1264.4	.74
333.13	4105	1264	.74
333.13	4072	1263.5	.74
333.13	4041	1263.1	.74
333.13	4010	1262.9	.74
333.13	3984	1262.2	.74
333.13	3950	1261.9	.74
333.13	3924	1261.5	.74
333.13	3894	1261.2	.74
333.13	3860	1260.8	.74
333.13	3826	1260.3	.74
333.13	3793	1259.7	.74
333.13	3767	1259.4	.74
333.13	3726	1258.9	.74
333.13	3699	1258.5	.74
333.13	3670	1258.2	.74
333.13	3641	1257.6	.74
333.13	3608	1257.2	.74
333.13	3575	1256.7	.74
333.13	3542	1256.2	.74
333.13	3517	1256	.74
333.13	3488	1255.4	.74
333.13	3448	1255	.74
333.13	3420	1254.6	.74
333.13	3391	1254.2	.74
333.13	3358	1253.7	.74
333.13	3326	1253.1	.74
333.13	3298	1252.9	.74
333.13	3261	1252.3	.74
333.13	3233	1251.7	.74
333.14	3205	1251.4	.74
333.14	3169	1251	.74
333.14	3140	1250.4	.74
333.14	3107	1249.9	.74
333.14	3071	1249.5	.74
333.14	3038	1249	.74
333.14	3011	1248.6	.74
333.14	2981	1248.1	.74
333.13	2950	1247.6	.74
333.13	2915	1247.1	.74
333.13	2890	1246.6	.74
333.13	2863	1246.2	.74
333.13	2828	1245.9	.74
333.13	2793	1245.1	.74
333.13	2770	1244.9	.74
333.13	2744	1244.5	.74
333.14	2716	1244.1	.74
333.14	2684	1243.6	.74
333.14	2657	1243.2	.74
333.14	2634	1242.8	.74
333.13	2604	1242.4	.74
333.14	2576	1241.8	.74
333.14	2546	1241.2	.74
333.14	2516	1240.8	.74
333.14	2489	1240.4	.74
333.14	2460	1240	.74
333.14	2434	1239.4	.74
333.14	2413	1239.2	.74
333.14	2385	1238.7	.74
333.13	2357	1238.4	.74
333.14	2330	1237.9	.74
333.14	2308	1237.5	.74
333.14	2277	1237	.74
333.14	2254	1236.5	.74
333.14	2224	1236.1	.74
333.14	2189	1235.5	.74
333.14	2164	1235.1	.74
333.13	2138	1234.6	.74
333.13	2113	1234.2	.74
333.13	2088	1233.7	.74
333.13	2056	1233.2	.74
333.13	2034	1232.9	.74
333.13	2004	1232.3	.74
333.13	1976	1231.8	.74
333.13	1944	1231.2	.74
333.13	1924	1231	.74
333.13	1898	1230.4	.74
333.13	1866	1229.9	.74
333.13	1839	1229.7	.74
333.13	1815	1229	.74
333.13	1789	1228.4	.74
333.13	1764	1228	.74
333.13	1736	1227.6	.74
333.13	1709	1227.1	.74
333.13	1691	1226.6	.74
333.13	1661	1226.3	.74
333.13	1640	1225.8	.74
333.14	1614	1225.4	.74
333.14	1593	1224.9	.74
333.14	1568	1224.4	.74
333.14	1540	1223.9	.74
333.14	1520	1223.5	.74
333.14	1496	1223.2	.74
333.14	1472	1222.6	.74
333.14	1448	1222.1	.74
333.14	1427	1221.8	.74
333.14	1403	1221.3	.74
333.14	1386	1221.1	.74
333.14	1355	1220.5	.74
333.14	1332	1220.1	.74
333.14	1309	1219.4	.74
333.14	1281	1218.9	.74
333.14	1254	1218.5	.74
333.14	1234	1218	.74
