Measured thermophysical data. Vapor Pressure of Organophosphorus Nerve Agent Simulant Compounds
Source: J. Chem. Eng. Data, 2009, 10.1021/je8010024
Compound 1: dimethyl phosphite, C2H7O3P
Compound 2: phosphonic acid, methyl-, dimethyl ester, C3H9O3P
Compound 3: phosphonic acid, methyl-, diethyl ester, C5H13O3P
Compound 4: phosphonic acid, methyl-, bis(1-methylethyl) ester, C7H17O3P

System: dimethyl phosphite; phases: Liquid, Gas
Property: Vapor or sublimation pressure, kPa (Liquid); method: Rate of evaporation
Temperature, K	Vapor or sublimation pressure, kPa	uncertainty
243.2	.00318	
253.2	.00791	
263.2	.0199	
273.2	.0472	
283.2	.1006	
303.3	.2266	
309.3	.3466	
316.4	.5333	
320.1	.7066	
321.8	.8399	
324.7	1.027	
328.4	1.293	
337.2	2.04	
341.8	2.626	
350.8	3.96	
361.4	6.399	
379.7	13.32	
412.4	39.96	
443.2	99.93	

System: phosphonic acid, methyl-, dimethyl ester; phases: Liquid, Gas
Property: Vapor or sublimation pressure, kPa (Liquid); method: Rate of evaporation
Temperature, K	Vapor or sublimation pressure, kPa	uncertainty
258.2	.00373	
263.4	.00567	
273.2	.0152	
278.2	.0245	
283.2	.035	
285	.0417	
288.2	.0528	
293.2	.0785	
326.4	.6533	
330.2	.7999	
332.4	.9333	
335.2	1.067	
337.6	1.2	
339.2	1.387	
345.8	1.973	
356.8	3.346	
376.8	7.999	
389.8	13.35	
402	21.28	
421.8	39.93	
454.4	102.2	

System: phosphonic acid, methyl-, diethyl ester; phases: Liquid, Gas
Property: Vapor or sublimation pressure, kPa (Liquid); method: Rate of evaporation
Temperature, K	Vapor or sublimation pressure, kPa	uncertainty
253.2	.000862	
263.2	.00256	
273.2	.00688	
283.2	.0165	
293.2	.0374	
316.8	.1467	
318.9	.1867	
321.1	.2266	
322.2	.2466	
324.7	.28	
327.3	.36	
331.1	.4666	
335.2	.6399	
339.8	.7999	
343.3	.9599	
346.4	1.173	
353.3	1.66	
359.4	2.36	
370.3	4	
382.6	6.639	
397.3	12.012	
411	20.03	
433.3	40.05	
465.9	101.4	

System: phosphonic acid, methyl-, bis(1-methylethyl) ester; phases: Liquid, Gas
Property: Vapor or sublimation pressure, kPa (Liquid); method: Rate of evaporation
Temperature, K	Vapor or sublimation pressure, kPa	uncertainty
253.2	.000619	
263.2	.00188	
273.2	.00502	
283.2	.0126	
293.2	.028	
338.9	.6533	
339.8	.6666	
341.6	.8133	
342.1	.8133	
346.2	1.04	
347	1.08	
350.9	1.347	
358	2.013	
367.4	3.2	
376	4.68	
388.6	7.986	
396.1	10.65	
412.1	19.87	
434.4	39.96	
468	100.3	
