Measured thermophysical data. Thermodynamic Study of Phenyl Salicylate Solutions in Aprotic Solvents at  Different Temperatures
Source: J. Chem. Eng. Data, 2009, 10.1021/je8003595
Compound 1: phenyl salycilate, C13H10O3
Compound 2: acetonitrile, C2H3N

System: acetonitrile + phenyl salycilate; phases: Liquid
Fixed: Pressure, kPa = 101
Property: Mass density, kg/m3 (Liquid); method: Vibrating tube method
Temperature, K	Molality, mol/kg of phenyl salycilate	Mass density, kg/m3	uncertainty
313.15	0	760.702	.01
313.15	.0099	761.351	.01
313.15	.0132	761.545	.01
313.15	.0165	761.711	.01
313.15	.0198	761.849	.01
313.15	.0231	762.019	.01
313.15	.0264	762.135	.01
313.15	.033	762.341	.01
308.15	0	766.217	.01
308.15	.0098	766.875	.01
308.15	.0131	767.071	.01
308.15	.0164	767.241	.01
308.15	.0197	767.385	.01
308.15	.023	767.558	.01
308.15	.0263	767.695	.01
308.15	.0329	767.859	.01
298.15	0	777.099	.01
298.15	.0097	777.771	.01
298.15	.0129	777.981	.01
298.15	.0161	778.151	.01
298.15	.0194	778.309	.01
298.15	.0226	778.451	.01
298.15	.0258	778.609	.01
298.15	.0323	778.835	.01
310.15	0	763.991	.01
310.15	.0098	764.642	.01
310.15	.0131	764.835	.01
310.15	.0164	765.015	.01
310.15	.0197	765.153	.01
310.15	.023	765.331	.01
310.15	.0263	765.465	.01
310.15	.0329	765.629	.01
303.15	0	771.674	.01
303.15	.0097	772.334	.01
303.15	.013	772.545	.01
303.15	.0162	772.724	.01
303.15	.0195	772.856	.01
303.15	.0227	773.025	.01
303.15	.026	773.165	.01
303.15	.0326	773.351	.01
293.15	0	782.499	.01
293.15	.0096	783.179	.01
293.15	.0128	783.379	.01
293.15	.016	783.559	.01
293.15	.0192	783.709	.01
293.15	.0224	783.871	.01
293.15	.0257	784.031	.01
293.15	.0321	784.222	.01

System: acetonitrile + phenyl salycilate; phases: Liquid
Fixed: Pressure, kPa = 101
Property: Viscosity, Pa*s (Liquid); method: Capillary tube (Ostwald; Ubbelohde) method
Temperature, K	Molality, mol/kg of phenyl salycilate	Viscosity, Pa*s	uncertainty
313.15	.0099	.0002272	.000003
313.15	.0132	.0002274	.000003
313.15	.0165	.0002276	.000003
313.15	.0198	.0002278	.000003
313.15	.0231	.0002279	.000003
313.15	.0264	.000228	.000003
313.15	.033	.0002282	.000003
308.15	.0098	.0002453	.000003
308.15	.0131	.0002455	.000003
308.15	.0164	.0002457	.000003
308.15	.0197	.0002459	.000003
308.15	.023	.0002461	.000003
308.15	.0263	.0002463	.000003
308.15	.0329	.0002466	.000003
298.15	.0097	.0002867	.000003
298.15	.0129	.0002869	.000003
298.15	.0161	.0002871	.000003
298.15	.0194	.0002873	.000003
298.15	.0226	.0002875	.000003
298.15	.0258	.0002876	.000003
298.15	.0323	.000288	.000003
310.15	.0098	.000238	.000003
310.15	.0131	.0002381	.000003
310.15	.0164	.0002382	.000003
310.15	.0197	.0002384	.000003
310.15	.023	.0002385	.000003
310.15	.0263	.0002386	.000003
310.15	.0329	.0002388	.000003
303.15	.0097	.0002649	.000003
303.15	.013	.000265	.000003
303.15	.0162	.0002652	.000003
303.15	.0195	.0002653	.000003
303.15	.0227	.0002655	.000003
303.15	.026	.0002656	.000003
303.15	.0326	.0002659	.000003
293.15	.0096	.0003086	.000003
293.15	.0128	.0003087	.000003
293.15	.016	.0003088	.000003
293.15	.0192	.0003091	.000003
293.15	.0224	.0003092	.000003
293.15	.0257	.0003094	.000003
293.15	.0321	.0003097	.000003
