Measured thermophysical data. Adiabatic Compressibilities of Divalent Transition-Metal Perchlorates and Chlorides in N,N-Dimethylacetamide and Dimethylsulfoxide
Source: J. Chem. Eng. Data, 2009, 10.1021/je8004134
Compound 1: manganese perchlorate, Cl2MnO8
Compound 2: cobalt perchlorate, Cl2CoO8
Compound 3: nickel perchlorate, Cl2NiO8
Compound 4: copper perchlorate, Cl2CuO8
Compound 5: zinc perchlorate, Cl2O8Zn
Compound 6: manganese chloride (MnCl2), Cl2Mn
Compound 7: cobalt chloride (CoCl2), Cl2Co
Compound 8: nickel chloride, Cl2Ni
Compound 9: copper chloride, Cl2Cu
Compound 10: zinc chloride, Cl2Zn
Compound 11: N,N-dimethylacetamide, C4H9NO
Compound 12: methyl sulfoxide, C2H6OS

System: N,N-dimethylacetamide; phases: Liquid
Property: Speed of sound, m/s (Liquid); method: Sing-around technique in a fixed-path interferometer
Pressure, kPa	Temperature, K	Speed of sound, m/s	uncertainty
101	298.15	1455.37	.1

System: N,N-dimethylacetamide; phases: Liquid
Property: Mass density, kg/m3 (Liquid); method: Vibrating tube method
Pressure, kPa	Temperature, K	Mass density, kg/m3	uncertainty
101	298.15	936.213	.005
101	298.15	936.233	.005
101	298.15	936.168	.005
101	298.15	936.11	.005
101	298.15	936.15	.005
101	298.15	936.417	.005
101	298.15	936.23	.005
101	298.15	936.304	.005
101	298.15	936.22	.005

System: methyl sulfoxide; phases: Liquid
Property: Speed of sound, m/s (Liquid); method: Sing-around technique in a fixed-path interferometer
Pressure, kPa	Temperature, K	Speed of sound, m/s	uncertainty
101	298.15	1484.12	.1

System: methyl sulfoxide; phases: Liquid
Property: Mass density, kg/m3 (Liquid); method: Vibrating tube method
Pressure, kPa	Temperature, K	Mass density, kg/m3	uncertainty
101	298.15	1095.193	.005
101	298.15	1095.194	.005
101	298.15	1095.2	.005
101	298.15	1095.198	.005
101	298.15	1095.195	.005

System: N,N-dimethylacetamide + manganese perchlorate; phases: Liquid
Fixed: Pressure, kPa = 101
Fixed: Temperature, K = 298.15
Property: Speed of sound, m/s (Liquid); method: Sing-around technique in a fixed-path interferometer
Molality, mol/kg of manganese perchlorate	Speed of sound, m/s	uncertainty
0	1455.37	.1
.03006	1459.48	.1
.05909	1463.09	.1
.08863	1466.76	.1
.1177	1470.43	.1
.14656	1474.12	.1
.17475	1477.62	.1
.20176	1481.24	.1
.22874	1485.03	.1

System: N,N-dimethylacetamide + manganese perchlorate; phases: Liquid
Fixed: Pressure, kPa = 101
Fixed: Temperature, K = 298.15
Property: Mass density, kg/m3 (Liquid); method: Vibrating tube method
Molality, mol/kg of manganese perchlorate	Mass density, kg/m3	uncertainty
0	936.213	.005
.03006	942.406	.005
.05909	948.611	.005
.08863	954.924	.005
.1177	961.136	.005
.14656	967.302	.005
.17475	973.327	.005
.20176	979.1	.005
.22874	984.866	.005

System: N,N-dimethylacetamide + cobalt perchlorate; phases: Liquid
Fixed: Pressure, kPa = 101
Fixed: Temperature, K = 298.15
Property: Speed of sound, m/s (Liquid); method: Sing-around technique in a fixed-path interferometer
Molality, mol/kg of cobalt perchlorate	Speed of sound, m/s	uncertainty
0	1455.37	.1
.029	1459.32	.1
.04235	1461.04	.1
.05501	1462.69	.1
.08591	1466.71	.1
.11439	1470.38	.1
.1415	1474.02	.1
.16923	1477.81	.1
.19726	1481.56	.1
.22142	1484.94	.1

System: N,N-dimethylacetamide + cobalt perchlorate; phases: Liquid
Fixed: Pressure, kPa = 101
Fixed: Temperature, K = 298.15
Property: Mass density, kg/m3 (Liquid); method: Vibrating tube method
Molality, mol/kg of cobalt perchlorate	Mass density, kg/m3	uncertainty
0	936.233	.005
.029	942.693	.005
.04235	945.675	.005
.05501	948.505	.005
.08591	955.413	.005
.11439	961.778	.005
.1415	967.838	.005
.16923	974.036	.005
.19726	980.3	.005
.22142	985.701	.005

System: N,N-dimethylacetamide + nickel perchlorate; phases: Liquid
Fixed: Pressure, kPa = 101
Fixed: Temperature, K = 298.15
Property: Speed of sound, m/s (Liquid); method: Sing-around technique in a fixed-path interferometer
Molality, mol/kg of nickel perchlorate	Speed of sound, m/s	uncertainty
0	1455.37	.1
.03452	1460.49	.1
.06515	1464.29	.1
.096	1468.23	.1
.1279	1472.35	.1
.16042	1476.53	.1
.18978	1480.43	.1
.21979	1484.59	.1
.25038	1488.99	.1

System: N,N-dimethylacetamide + nickel perchlorate; phases: Liquid
Fixed: Pressure, kPa = 101
Fixed: Temperature, K = 298.15
Property: Mass density, kg/m3 (Liquid); method: Vibrating tube method
Molality, mol/kg of nickel perchlorate	Mass density, kg/m3	uncertainty
0	936.168	.005
.03452	943.693	.005
.06515	950.677	.005
.096	957.709	.005
.1279	964.983	.005
.16042	972.395	.005
.18978	979.089	.005
.21979	985.93	.005
.25038	992.904	.005

System: N,N-dimethylacetamide + copper perchlorate; phases: Liquid
Fixed: Pressure, kPa = 101
Fixed: Temperature, K = 298.15
Property: Speed of sound, m/s (Liquid); method: Sing-around technique in a fixed-path interferometer
Molality, mol/kg of copper perchlorate	Speed of sound, m/s	uncertainty
0	1455.37	.1
.06523	1463.13	.1
.09641	1466.36	.1
.14337	1471.32	.1
.1894	1476.46	.1
.2336	1481.48	.1
.27736	1486.86	.1
.32044	1492.25	.1
.36403	1498.06	.1

System: N,N-dimethylacetamide + copper perchlorate; phases: Liquid
Fixed: Pressure, kPa = 101
Fixed: Temperature, K = 298.15
Property: Mass density, kg/m3 (Liquid); method: Vibrating tube method
Molality, mol/kg of copper perchlorate	Mass density, kg/m3	uncertainty
0	936.11	.005
.06523	950.245	.005
.09641	957.338	.005
.14337	968.019	.005
.1894	978.49	.005
.2336	988.543	.005
.27736	998.499	.005
.32044	1008.297	.005
.36403	1018.213	.005

System: N,N-dimethylacetamide + zinc perchlorate; phases: Liquid
Fixed: Pressure, kPa = 101
Fixed: Temperature, K = 298.15
Property: Speed of sound, m/s (Liquid); method: Sing-around technique in a fixed-path interferometer
Molality, mol/kg of zinc perchlorate	Speed of sound, m/s	uncertainty
0	1455.37	.1
.04286	1460.78	.1
.08313	1464.87	.1
.12315	1469.05	.1
.16253	1473.18	.1
.2013	1477.55	.1
.2396	1481.93	.1
.27714	1486.32	.1
.3148	1490.75	.1

System: N,N-dimethylacetamide + zinc perchlorate; phases: Liquid
Fixed: Pressure, kPa = 101
Fixed: Temperature, K = 298.15
Property: Mass density, kg/m3 (Liquid); method: Vibrating tube method
Molality, mol/kg of zinc perchlorate	Mass density, kg/m3	uncertainty
0	936.15	.005
.04286	945.119	.005
.08313	954.115	.005
.12315	963.055	.005
.16253	971.852	.005
.2013	980.513	.005
.2396	989.07	.005
.27714	997.457	.005
.3148	1005.869	.005

System: N,N-dimethylacetamide + manganese chloride (MnCl2); phases: Liquid
Fixed: Pressure, kPa = 101
Fixed: Temperature, K = 298.15
Property: Speed of sound, m/s (Liquid); method: Sing-around technique in a fixed-path interferometer
Molality, mol/kg of manganese chloride (MnCl2)	Speed of sound, m/s	uncertainty
0	1455.37	.1
.05753	1458.54	.1
.11464	1461.18	.1
.16907	1463.82	.1
.22202	1466.51	.1
.27558	1469.39	.1
.32661	1472.24	.1
.38126	1475.47	.1
.43295	1478.64	.1

System: N,N-dimethylacetamide + manganese chloride (MnCl2); phases: Liquid
Fixed: Pressure, kPa = 101
Fixed: Temperature, K = 298.15
Property: Mass density, kg/m3 (Liquid); method: Vibrating tube method
Molality, mol/kg of manganese chloride (MnCl2)	Mass density, kg/m3	uncertainty
0	936.233	.005
.05753	942.406	.005
.11464	948.611	.005
.16907	954.924	.005
.22202	961.136	.005
.27558	967.302	.005
.32661	973.327	.005
.38126	979.1	.005
.43295	984.866	.005

System: N,N-dimethylacetamide + cobalt chloride (CoCl2); phases: Liquid
Fixed: Pressure, kPa = 101
Fixed: Temperature, K = 298.15
Property: Speed of sound, m/s (Liquid); method: Sing-around technique in a fixed-path interferometer
Molality, mol/kg of cobalt chloride (CoCl2)	Speed of sound, m/s	uncertainty
0	1455.37	.1
.02558	1456.48	.1
.05173	1457.27	.1
.07676	1458.05	.1
.1024	1458.88	.1
.12889	1459.8	.1
.15386	1460.67	.1
.18103	1461.64	.1
.20561	1462.57	.1

System: N,N-dimethylacetamide + cobalt chloride (CoCl2); phases: Liquid
Fixed: Pressure, kPa = 101
Fixed: Temperature, K = 298.15
Property: Mass density, kg/m3 (Liquid); method: Vibrating tube method
Molality, mol/kg of cobalt chloride (CoCl2)	Mass density, kg/m3	uncertainty
0	936.417	.005
.02558	938.7	.005
.05173	941.28	.005
.07676	943.75	.005
.1024	946.279	.005
.12889	948.892	.005
.15386	951.355	.005
.18103	954.035	.005
.20561	956.46	.005

System: N,N-dimethylacetamide + nickel chloride; phases: Liquid
Fixed: Pressure, kPa = 101
Fixed: Temperature, K = 298.15
Property: Speed of sound, m/s (Liquid); method: Sing-around technique in a fixed-path interferometer
Molality, mol/kg of nickel chloride	Speed of sound, m/s	uncertainty
0	1455.37	.1
.019	1456.96	.1
.03382	1457.95	.1
.05743	1459.51	.1
.07634	1460.77	.1
.09563	1462.05	.1
.11402	1463.26	.1
.13266	1464.51	.1
.15126	1465.76	.1

System: N,N-dimethylacetamide + nickel chloride; phases: Liquid
Fixed: Pressure, kPa = 101
Fixed: Temperature, K = 298.15
Property: Mass density, kg/m3 (Liquid); method: Vibrating tube method
Molality, mol/kg of nickel chloride	Mass density, kg/m3	uncertainty
0	936.23	.005
.019	938.196	.005
.03382	939.871	.005
.05743	942.54	.005
.07634	944.678	.005
.09563	946.859	.005
.11402	948.937	.005
.13266	951.046	.005
.15126	953.148	.005

System: N,N-dimethylacetamide + copper chloride; phases: Liquid
Fixed: Pressure, kPa = 101
Fixed: Temperature, K = 298.15
Property: Speed of sound, m/s (Liquid); method: Sing-around technique in a fixed-path interferometer
Molality, mol/kg of copper chloride	Speed of sound, m/s	uncertainty
0	1455.37	.1
.04793	1456.23	.1
.09502	1457.12	.1
.13902	1457.99	.1
.18516	1458.89	.1
.23064	1459.86	.1
.2755	1460.88	.1
.31937	1461.89	.1
.36403	1462.93	.1

System: N,N-dimethylacetamide + copper chloride; phases: Liquid
Fixed: Pressure, kPa = 101
Fixed: Temperature, K = 298.15
Property: Mass density, kg/m3 (Liquid); method: Vibrating tube method
Molality, mol/kg of copper chloride	Mass density, kg/m3	uncertainty
0	936.304	.005
.04793	941.347	.005
.09502	946.26	.005
.13902	950.849	.005
.18516	955.662	.005
.23064	960.406	.005
.2755	965.086	.005
.31937	969.661	.005
.36403	974.319	.005

System: N,N-dimethylacetamide + zinc chloride; phases: Liquid
Fixed: Pressure, kPa = 101
Fixed: Temperature, K = 298.15
Property: Speed of sound, m/s (Liquid); method: Sing-around technique in a fixed-path interferometer
Molality, mol/kg of zinc chloride	Speed of sound, m/s	uncertainty
0	1455.37	.1
.05996	1456.87	.1
.11173	1457.9	.1
.14875	1458.67	.1
.18749	1459.52	.1
.22296	1460.32	.1
.25951	1461.18	.1
.29554	1462.06	.1
.3148	1462.52	.1

System: N,N-dimethylacetamide + zinc chloride; phases: Liquid
Fixed: Pressure, kPa = 101
Fixed: Temperature, K = 298.15
Property: Mass density, kg/m3 (Liquid); method: Vibrating tube method
Molality, mol/kg of zinc chloride	Mass density, kg/m3	uncertainty
0	936.22	.005
.05996	942.244	.005
.11173	947.615	.005
.14875	951.455	.005
.18749	955.473	.005
.22296	959.152	.005
.25951	962.944	.005
.29554	966.681	.005
.3148	968.679	.005

System: methyl sulfoxide + manganese perchlorate; phases: Liquid
Fixed: Pressure, kPa = 101
Fixed: Temperature, K = 298.15
Property: Speed of sound, m/s (Liquid); method: Sing-around technique in a fixed-path interferometer
Molality, mol/kg of manganese perchlorate	Speed of sound, m/s	uncertainty
0	1484.12	.1
.0211	1485.33	.1
.02843	1485.76	.1
.037	1486.24	.1
.04758	1486.85	.1
.05763	1487.48	.1
.07358	1488.35	.1
.09456	1489.65	.1
.1139	1490.8	.1
.1337	1492	.1
.1566	1493.4	.1
.1754	1494.6	.1

System: methyl sulfoxide + manganese perchlorate; phases: Liquid
Fixed: Pressure, kPa = 101
Fixed: Temperature, K = 298.15
Property: Mass density, kg/m3 (Liquid); method: Vibrating tube method
Molality, mol/kg of manganese perchlorate	Mass density, kg/m3	uncertainty
0	1095.193	.005
.0211	1099.482	.005
.02843	1100.977	.005
.037	1102.731	.005
.04758	1104.898	.005
.05763	1106.966	.005
.07358	1110.261	.005
.09456	1114.615	.005
.1139	1118.653	.005
.1337	1122.816	.005
.1566	1127.655	.005
.1754	1131.673	.005

System: methyl sulfoxide + cobalt perchlorate; phases: Liquid
Fixed: Pressure, kPa = 101
Fixed: Temperature, K = 298.15
Property: Speed of sound, m/s (Liquid); method: Sing-around technique in a fixed-path interferometer
Molality, mol/kg of cobalt perchlorate	Speed of sound, m/s	uncertainty
0	1484.12	.1
.0215	1485.5	.1
.03236	1486.2	.1
.04309	1486.9	.1
.05528	1487.72	.1
.06505	1488.35	.1
.08726	1489.8	.1
.1069	1491.04	.1
.1285	1492.45	.1
.148	1493.65	.1
.1695	1495.15	.1
.1911	1496.61	.1

System: methyl sulfoxide + cobalt perchlorate; phases: Liquid
Fixed: Pressure, kPa = 101
Fixed: Temperature, K = 298.15
Property: Mass density, kg/m3 (Liquid); method: Vibrating tube method
Molality, mol/kg of cobalt perchlorate	Mass density, kg/m3	uncertainty
0	1095.193	.005
.0215	1099.775	.005
.03236	1102.1	.005
.04309	1104.405	.005
.05528	1107.026	.005
.06505	1109.136	.005
.08726	1113.971	.005
.1069	1118.267	.005
.1285	1123.025	.005
.148	1127.381	.005
.1695	1132.18	.005
.1911	1137.05	.005

System: methyl sulfoxide + nickel perchlorate; phases: Liquid
Fixed: Pressure, kPa = 101
Fixed: Temperature, K = 298.15
Property: Speed of sound, m/s (Liquid); method: Sing-around technique in a fixed-path interferometer
Molality, mol/kg of nickel perchlorate	Speed of sound, m/s	uncertainty
0	1484.12	.1
.01259	1484.98	.1
.02515	1485.83	.1
.03816	1486.66	.1
.051	1487.55	.1
.06341	1488.36	.1
.07675	1489.25	.1
.08797	1490.03	.1
.1004	1490.95	.1
.1125	1491.7	.1
.1251	1492.6	.1

System: methyl sulfoxide + nickel perchlorate; phases: Liquid
Fixed: Pressure, kPa = 101
Fixed: Temperature, K = 298.15
Property: Mass density, kg/m3 (Liquid); method: Vibrating tube method
Molality, mol/kg of nickel perchlorate	Mass density, kg/m3	uncertainty
0	1095.194	.005
.01259	1097.895	.005
.02515	1100.595	.005
.03816	1103.403	.005
.051	1106.185	.005
.06341	1108.878	.005
.07675	1111.785	.005
.08797	1114.242	.005
.1004	1116.985	.005
.1125	1119.667	.005
.1251	1122.433	.005

System: methyl sulfoxide + copper perchlorate; phases: Liquid
Fixed: Pressure, kPa = 101
Fixed: Temperature, K = 298.15
Property: Speed of sound, m/s (Liquid); method: Sing-around technique in a fixed-path interferometer
Molality, mol/kg of copper perchlorate	Speed of sound, m/s	uncertainty
0	1484.12	.1
.01425	1485.02	.1
.02779	1485.89	.1
.0419	1486.83	.1
.05636	1487.74	.1
.07067	1488.67	.1
.08366	1489.5	.1
.09783	1490.43	.1
.1114	1491.43	.1
.1251	1492.23	.1
.1384	1493.28	.1

System: methyl sulfoxide + copper perchlorate; phases: Liquid
Fixed: Pressure, kPa = 101
Fixed: Temperature, K = 298.15
Property: Mass density, kg/m3 (Liquid); method: Vibrating tube method
Molality, mol/kg of copper perchlorate	Mass density, kg/m3	uncertainty
0	1095.2	.005
.01425	1098.306	.005
.02779	1101.264	.005
.0419	1104.347	.005
.05636	1107.535	.005
.07067	1110.703	.005
.08366	1113.582	.005
.09783	1116.735	.005
.1114	1119.784	.005
.1251	1122.854	.005
.1384	1125.854	.005

System: methyl sulfoxide + zinc perchlorate; phases: Liquid
Fixed: Pressure, kPa = 101
Fixed: Temperature, K = 298.15
Property: Speed of sound, m/s (Liquid); method: Sing-around technique in a fixed-path interferometer
Molality, mol/kg of zinc perchlorate	Speed of sound, m/s	uncertainty
0	1484.12	.1
.02918	1485.73	.1
.03465	1486.03	.1
.05104	1486.91	.1
.06794	1487.83	.1
.08574	1488.85	.1
.1022	1489.68	.1
.119	1490.69	.1
.1435	1492.18	.1
.1685	1493.65	.1

System: methyl sulfoxide + zinc perchlorate; phases: Liquid
Fixed: Pressure, kPa = 101
Fixed: Temperature, K = 298.15
Property: Mass density, kg/m3 (Liquid); method: Vibrating tube method
Molality, mol/kg of zinc perchlorate	Mass density, kg/m3	uncertainty
0	1095.198	.005
.02918	1101.58	.005
.03465	1102.776	.005
.05104	1106.39	.005
.06794	1110.133	.005
.08574	1114.099	.005
.1022	1117.798	.005
.119	1121.58	.005
.1435	1127.136	.005
.1685	1132.85	.005

System: methyl sulfoxide + manganese chloride (MnCl2); phases: Liquid
Fixed: Pressure, kPa = 101
Fixed: Temperature, K = 298.15
Property: Speed of sound, m/s (Liquid); method: Sing-around technique in a fixed-path interferometer
Molality, mol/kg of manganese chloride (MnCl2)	Speed of sound, m/s	uncertainty
0	1484.12	.1
.04414	1486.73	.1
.0572	1487.45	.1
.06981	1488.16	.1
.08942	1489.17	.1
.1135	1490.28	.1
.1386	1491.39	.1
.1616	1492.14	.1
.19	1493.24	.1
.213	1494.11	.1

System: methyl sulfoxide + manganese chloride (MnCl2); phases: Liquid
Fixed: Pressure, kPa = 101
Fixed: Temperature, K = 298.15
Property: Mass density, kg/m3 (Liquid); method: Vibrating tube method
Molality, mol/kg of manganese chloride (MnCl2)	Mass density, kg/m3	uncertainty
0	1095.195	.005
.04414	1100.109	.005
.0572	1101.478	.005
.06981	1102.792	.005
.08942	1104.863	.005
.1135	1107.392	.005
.1386	1110.033	.005
.1616	1112.454	.005
.19	1115.492	.005
.213	1117.932	.005

System: methyl sulfoxide + cobalt chloride (CoCl2); phases: Liquid
Fixed: Pressure, kPa = 101
Fixed: Temperature, K = 298.15
Property: Speed of sound, m/s (Liquid); method: Sing-around technique in a fixed-path interferometer
Molality, mol/kg of cobalt chloride (CoCl2)	Speed of sound, m/s	uncertainty
0	1484.12	.1
.04252	1485.09	.1
.06132	1485.59	.1
.08074	1486.15	.1
.1018	1486.68	.1
.122	1487.43	.1
.1423	1488.16	.1
.1621	1488.84	.1
.1818	1489.47	.1
.202	1490.01	.1

System: methyl sulfoxide + cobalt chloride (CoCl2); phases: Liquid
Fixed: Pressure, kPa = 101
Fixed: Temperature, K = 298.15
Property: Mass density, kg/m3 (Liquid); method: Vibrating tube method
Molality, mol/kg of cobalt chloride (CoCl2)	Mass density, kg/m3	uncertainty
0	1095.195	.005
.04252	1099.762	.005
.06132	1101.773	.005
.08074	1103.853	.005
.1018	1106.1	.005
.122	1108.29	.005
.1423	1110.486	.005
.1621	1112.633	.005
.1818	1114.767	.005
.202	1116.975	.005

System: methyl sulfoxide + nickel chloride; phases: Liquid
Fixed: Pressure, kPa = 101
Fixed: Temperature, K = 298.15
Property: Speed of sound, m/s (Liquid); method: Sing-around technique in a fixed-path interferometer
Molality, mol/kg of nickel chloride	Speed of sound, m/s	uncertainty
0	1484.12	.1
.01103	1485.1	.1
.01653	1485.54	.1
.02222	1485.96	.1
.02764	1486.35	.1
.03328	1486.73	.1
.03812	1487.06	.1
.04374	1487.43	.1
.04953	1487.79	.1
.05501	1488.16	.1

System: methyl sulfoxide + nickel chloride; phases: Liquid
Fixed: Pressure, kPa = 101
Fixed: Temperature, K = 298.15
Property: Mass density, kg/m3 (Liquid); method: Vibrating tube method
Molality, mol/kg of nickel chloride	Mass density, kg/m3	uncertainty
0	1095.195	.005
.01103	1096.811	.005
.01653	1097.61	.005
.02222	1098.433	.005
.02764	1099.214	.005
.03328	1100.026	.005
.03812	1100.72	.005
.04374	1101.526	.005
.04953	1102.355	.005
.05501	1103.132	.005

System: methyl sulfoxide + copper chloride; phases: Liquid
Fixed: Pressure, kPa = 101
Fixed: Temperature, K = 298.15
Property: Speed of sound, m/s (Liquid); method: Sing-around technique in a fixed-path interferometer
Molality, mol/kg of copper chloride	Speed of sound, m/s	uncertainty
0	1484.12	.1
.04097	1485.31	.1
.05136	1485.53	.1
.0616	1485.8	.1
.07134	1485.96	.1
.08195	1486.2	.1
.09202	1486.4	.1
.1022	1486.63	.1

System: methyl sulfoxide + copper chloride; phases: Liquid
Fixed: Pressure, kPa = 101
Fixed: Temperature, K = 298.15
Property: Mass density, kg/m3 (Liquid); method: Vibrating tube method
Molality, mol/kg of copper chloride	Mass density, kg/m3	uncertainty
0	1095.198	.005
.04097	1100.005	.005
.05136	1101.208	.005
.0616	1102.392	.005
.07134	1103.528	.005
.08195	1104.769	.005
.09202	1105.944	.005
.1022	1107.132	.005

System: methyl sulfoxide + zinc chloride; phases: Liquid
Fixed: Pressure, kPa = 101
Fixed: Temperature, K = 298.15
Property: Speed of sound, m/s (Liquid); method: Sing-around technique in a fixed-path interferometer
Molality, mol/kg of zinc chloride	Speed of sound, m/s	uncertainty
0	1484.12	.1
.05319	1484.06	.1
.0712	1484.25	.1
.0892	1484.49	.1
.107	1484.79	.1
.1251	1485.16	.1
.1517	1485.9	.1
.1776	1486.56	.1

System: methyl sulfoxide + zinc chloride; phases: Liquid
Fixed: Pressure, kPa = 101
Fixed: Temperature, K = 298.15
Property: Mass density, kg/m3 (Liquid); method: Vibrating tube method
Molality, mol/kg of zinc chloride	Mass density, kg/m3	uncertainty
0	1095.198	.005
.05319	1100.613	.005
.0712	1102.488	.005
.0892	1104.34	.005
.107	1106.216	.005
.1251	1108.115	.005
.1517	1110.903	.005
.1776	1113.65	.005
