Measured thermophysical data. Physical Properties of Binary and Ternary Mixtures of Ethyl Acetate, Ethanol,  and 1-Octyl-3-methyl-imidazolium Bis(trifluoromethylsulfonyl)imide at 298.15 K
Source: J. Chem. Eng. Data, 2009, 10.1021/je800899w
Compound 1: ethyl ethanoate, C4H8O2, purity 99.8%
Compound 2: ethanol, C2H6O, purity 99.9%
Compound 3: 1-octyl-3-methylimidazolium bis[(trifluoromethyl)sulfonyl]imide, C14H23F6N3O4S2

System: ethyl ethanoate; phases: Liquid
Fixed: Pressure, kPa = 101.325
Property: Mass density, kg/m3 (Liquid); method: Vibrating tube method
Temperature, K	Mass density, kg/m3	uncertainty
298.15	894.4	.03

System: ethyl ethanoate; phases: Liquid
Fixed: Pressure, kPa = 101.325
Property: Refractive index (Na D-line) (Liquid); method: Standard Abbe refractometry
Temperature, K	Refractive index (Na D-line)	uncertainty
298.15	1.36983	.00004

System: ethyl ethanoate; phases: Liquid
Fixed: Pressure, kPa = 101.325
Property: Viscosity, Pa*s (Liquid); method: Capillary tube (Ostwald; Ubbelohde) method
Temperature, K	Viscosity, Pa*s	uncertainty
298.15	.0004256	.000002128

System: ethanol; phases: Liquid
Fixed: Pressure, kPa = 101.325
Property: Mass density, kg/m3 (Liquid); method: Vibrating tube method
Temperature, K	Mass density, kg/m3	uncertainty
298.15	785.14	.03

System: ethanol; phases: Liquid
Fixed: Pressure, kPa = 101.325
Property: Refractive index (Na D-line) (Liquid); method: Standard Abbe refractometry
Temperature, K	Refractive index (Na D-line)	uncertainty
298.15	1.35928	.00004

System: ethanol; phases: Liquid
Fixed: Pressure, kPa = 101.325
Property: Viscosity, Pa*s (Liquid); method: Capillary tube (Ostwald; Ubbelohde) method
Temperature, K	Viscosity, Pa*s	uncertainty
298.15	.001054	.00000527

System: 1-octyl-3-methylimidazolium bis[(trifluoromethyl)sulfonyl]imide; phases: Liquid
Fixed: Pressure, kPa = 101.325
Property: Mass density, kg/m3 (Liquid); method: Vibrating tube method
Temperature, K	Mass density, kg/m3	uncertainty
298.15	1320.59	.03

System: 1-octyl-3-methylimidazolium bis[(trifluoromethyl)sulfonyl]imide; phases: Liquid
Fixed: Pressure, kPa = 101.325
Property: Refractive index (Na D-line) (Liquid); method: Standard Abbe refractometry
Temperature, K	Refractive index (Na D-line)	uncertainty
298.15	1.43298	.00004

System: 1-octyl-3-methylimidazolium bis[(trifluoromethyl)sulfonyl]imide; phases: Liquid
Fixed: Pressure, kPa = 101.325
Property: Viscosity, Pa*s (Liquid); method: Capillary tube (Ostwald; Ubbelohde) method
Temperature, K	Viscosity, Pa*s	uncertainty
298.15	.09251	.00046255

System: ethanol + ethyl ethanoate; phases: Liquid
Fixed: Pressure, kPa = 101.3
Fixed: Temperature, K = 298.15
Property: Mass density, kg/m3 (Liquid); method: Vibrating tube method
Mole fraction of ethyl ethanoate	Mass density, kg/m3	uncertainty
.0941	800.65	.03
.1919	815.09	.03
.2836	827.27	.03
.4044	841.69	.03
.5014	852.05	.03
.6085	862.53	.03
.6949	870.3	.03
.7929	878.51	.03
.8957	886.6	.03

System: ethanol + ethyl ethanoate; phases: Liquid
Fixed: Pressure, kPa = 101.3
Fixed: Temperature, K = 298.15
Property: Refractive index (Na D-line) (Liquid); method: Standard Abbe refractometry
Mole fraction of ethyl ethanoate	Refractive index (Na D-line)	uncertainty
.0941	1.36064	.00004
.1919	1.36193	.00004
.2836	1.36309	.00004
.4044	1.36447	.00004
.5014	1.36548	.00004
.6085	1.36649	.00004
.6949	1.36724	.00004
.7929	1.36811	.00004
.8957	1.36895	.00004

System: ethanol + ethyl ethanoate; phases: Liquid
Fixed: Pressure, kPa = 101.3
Fixed: Temperature, K = 298.15
Property: Viscosity, Pa*s (Liquid); method: Capillary tube (Ostwald; Ubbelohde) method
Mole fraction of ethyl ethanoate	Viscosity, Pa*s	uncertainty
.0941	.000855	.000004275
.1919	.000692	.00000346
.2836	.000619	.000003095
.4044	.000541	.000002705
.5014	.000505	.000002525
.6085	.000467	.000002335
.6949	.000444	.00000222
.7929	.000436	.00000218
.8957	.000424	.00000212

System: ethyl ethanoate + 1-octyl-3-methylimidazolium bis[(trifluoromethyl)sulfonyl]imide; phases: Liquid
Fixed: Pressure, kPa = 101.3
Fixed: Temperature, K = 298.15
Property: Mass density, kg/m3 (Liquid); method: Vibrating tube method
Mole fraction of ethyl ethanoate	Mass density, kg/m3	uncertainty
.0493	1314.93	.03
.1112	1307.34	.03
.1546	1301.55	.03
.2125	1293.1	.03
.3102	1276.6	.03
.404	1257.53	.03
.4779	1239.88	.03
.5967	1203.86	.03
.7035	1160.22	.03
.8233	1089.62	.03
.9016	1022.64	.03

System: ethyl ethanoate + 1-octyl-3-methylimidazolium bis[(trifluoromethyl)sulfonyl]imide; phases: Liquid
Fixed: Pressure, kPa = 101.3
Fixed: Temperature, K = 298.15
Property: Refractive index (Na D-line) (Liquid); method: Standard Abbe refractometry
Mole fraction of ethyl ethanoate	Refractive index (Na D-line)	uncertainty
.0493	1.43216	.00004
.1112	1.43115	.00004
.1546	1.43042	.00004
.2125	1.4293	.00004
.3102	1.42726	.00004
.404	1.42453	.00004
.4779	1.42219	.00004
.5967	1.41721	.00004
.7035	1.41123	.00004
.8233	1.40097	.00004
.9016	1.391	.00004

System: ethyl ethanoate + 1-octyl-3-methylimidazolium bis[(trifluoromethyl)sulfonyl]imide; phases: Liquid
Fixed: Pressure, kPa = 101.3
Fixed: Temperature, K = 298.15
Property: Viscosity, Pa*s (Liquid); method: Capillary tube (Ostwald; Ubbelohde) method
Mole fraction of ethyl ethanoate	Viscosity, Pa*s	uncertainty
.0493	.07889	.00039445
.1112	.06593	.00032965
.1546	.05825	.00029125
.2125	.04882	.0002441
.3102	.03478	.0001739
.404	.02415	.00012075
.4779	.01754	.0000877
.5967	.009795	.000048975
.7035	.005384	.00002692
.8233	.002284	.00001142
.9016	.001233	.000006165

System: ethanol + 1-octyl-3-methylimidazolium bis[(trifluoromethyl)sulfonyl]imide; phases: Liquid
Fixed: Pressure, kPa = 101.3
Fixed: Temperature, K = 298.15
Property: Mass density, kg/m3 (Liquid); method: Vibrating tube method
Mole fraction of ethanol	Mass density, kg/m3	uncertainty
.0959	1311.29	.03
.1162	1309.17	.03
.1935	1300.29	.03
.2269	1296.02	.03
.3304	1280.78	.03
.4164	1265.19	.03
.5412	1235.17	.03
.6012	1216.21	.03
.7033	1173.46	.03
.8067	1106.85	.03
.8967	1010.5	.03

System: ethanol + 1-octyl-3-methylimidazolium bis[(trifluoromethyl)sulfonyl]imide; phases: Liquid
Fixed: Pressure, kPa = 101.3
Fixed: Temperature, K = 298.15
Property: Refractive index (Na D-line) (Liquid); method: Standard Abbe refractometry
Mole fraction of ethanol	Refractive index (Na D-line)	uncertainty
.0959	1.43164	.00004
.1162	1.43133	.00004
.1935	1.43016	.00004
.2269	1.42965	.00004
.3304	1.42766	.00004
.4164	1.42549	.00004
.5412	1.42143	.00004
.6012	1.41886	.00004
.7033	1.41319	.00004
.8067	1.40447	.00004
.8967	1.39142	.00004

System: ethanol + 1-octyl-3-methylimidazolium bis[(trifluoromethyl)sulfonyl]imide; phases: Liquid
Fixed: Pressure, kPa = 101.3
Fixed: Temperature, K = 298.15
Property: Viscosity, Pa*s (Liquid); method: Capillary tube (Ostwald; Ubbelohde) method
Mole fraction of ethanol	Viscosity, Pa*s	uncertainty
.0959	.07128	.0003564
.1162	.06763	.00033815
.1935	.05553	.00027765
.2269	.05154	.0002577
.3304	.03923	.00019615
.4164	.02989	.00014945
.5412	.01992	.0000996
.6012	.01586	.0000793
.7033	.01025	.00005125
.8067	.00583	.00002915
.8967	.003079	.000015395

System: ethanol + ethyl ethanoate + 1-octyl-3-methylimidazolium bis[(trifluoromethyl)sulfonyl]imide; phases: Liquid
Fixed: Pressure, kPa = 101.3
Fixed: Temperature, K = 298.15
Property: Mass density, kg/m3 (Liquid); method: Vibrating tube method
Mole fraction of ethyl ethanoate	Mole fraction of ethanol	Mass density, kg/m3	uncertainty
.8849	.1035	906.63	.03
.8735	.1138	907.87	.03
.7954	.184	916.47	.03
.6802	.2876	929.11	.03
.594	.365	938.65	.03
.5043	.4457	948.76	.03
.4189	.5225	958.46	.03
.3104	.62	970.93	.03
.2274	.6947	980.48	.03
.1905	.7278	984.68	.03
.1248	.7869	992.41	.03
.08	.8272	997.76	.03
.8748	.0997	929.11	.03
.7846	.1715	952.43	.03
.6915	.2456	975.43	.03
.591	.3256	998.95	.03
.4913	.405	1020.98	.03
.3835	.4908	1043.63	.03
.2797	.5734	1064.26	.03
.1952	.6406	1080.46	.03
.1462	.6797	1089.56	.03
.1078	.7103	1096.63	.03
.0502	.7561	1106.82	.03
.8768	.0857	947.28	.03
.7742	.157	985.77	.03
.6981	.2099	1011.59	.03
.5954	.2813	1043.36	.03
.4921	.3531	1071.92	.03
.3889	.4249	1097.93	.03
.2817	.4994	1122.62	.03
.1993	.5567	1140.02	.03
.1489	.5917	1150.03	.03
.0995	.6261	1159.56	.03
.0424	.6658	1170.2	.03
.8932	.0638	955.85	.03
.7892	.1261	1005.41	.03
.6998	.1795	1041.98	.03
.6078	.2345	1074.66	.03
.5162	.2893	1103.46	.03
.4132	.3509	1131.82	.03
.3042	.416	1158.33	.03
.2069	.4742	1179.36	.03
.1578	.5036	1189.33	.03
.0987	.5389	1200.38	.03
.0576	.5635	1207.75	.03
.8999	.0505	965.21	.03
.8028	.0995	1020.01	.03
.7065	.148	1064.52	.03
.5911	.2063	1108.45	.03
.499	.2528	1137.9	.03
.3979	.3037	1165.75	.03
.3119	.3471	1186.42	.03
.2071	.4	1208.88	.03
.1685	.4195	1216.41	.03
.1118	.4481	1226.76	.03
.0645	.4719	1235.02	.03
.8901	.0443	985.47	.03
.79	.0846	1047.3	.03
.7002	.1208	1091.39	.03
.5947	.1634	1133.22	.03
.4877	.2065	1167.73	.03
.3874	.2469	1194.76	.03
.2689	.2947	1221.72	.03
.1848	.3286	1238.08	.03
.1753	.3324	1239.85	.03
.1317	.3499	1247.64	.03
.037	.3881	1262.57	.03
.8981	.0294	994.07	.03
.8137	.0536	1054.07	.03
.7173	.0814	1106.78	.03
.5899	.1181	1159.5	.03
.4936	.1458	1190.54	.03
.388	.1762	1218.45	.03
.2964	.2026	1238.84	.03
.2087	.2279	1255.5	.03
.1575	.2426	1264.41	.03
.1042	.258	1272.92	.03
.0538	.2725	1280.42	.03
.8952	.0203	1007.54	.03
.7968	.0394	1079.8	.03
.6913	.0598	1136.1	.03
.597	.0781	1174.23	.03
.4956	.0978	1206.82	.03
.4014	.116	1231.48	.03
.3052	.1347	1252.39	.03
.2045	.1542	1270.74	.03
.16	.1628	1278.08	.03
.0967	.1751	1287.49	.03
.0507	.184	1293.87	.03
.9031	.0093	1011.13	.03
.7979	.0194	1093.7	.03
.7077	.0281	1143.88	.03
.5961	.0388	1190.09	.03
.5102	.0471	1217.65	.03
.4059	.0571	1244.63	.03
.2967	.0676	1267.33	.03
.2012	.0768	1283.74	.03
.1527	.0815	1291.1	.03
.0984	.0867	1298.72	.03
.0545	.0909	1304.43	.03

System: ethanol + ethyl ethanoate + 1-octyl-3-methylimidazolium bis[(trifluoromethyl)sulfonyl]imide; phases: Liquid
Fixed: Pressure, kPa = 101.3
Fixed: Temperature, K = 298.15
Property: Refractive index (Na D-line) (Liquid); method: Standard Abbe refractometry
Mole fraction of ethyl ethanoate	Mole fraction of ethanol	Refractive index (Na D-line)	uncertainty
.8849	.1035	1.37241	.00004
.8735	.1138	1.37266	.00004
.7954	.184	1.37435	.00004
.6802	.2876	1.37686	.00004
.594	.365	1.37889	.00004
.5043	.4457	1.38068	.00004
.4189	.5225	1.38257	.00004
.3104	.62	1.38481	.00004
.2274	.6947	1.38642	.00004
.1905	.7278	1.38705	.00004
.1248	.7869	1.38831	.00004
.08	.8272	1.38928	.00004
.8748	.0997	1.37615	.00004
.7846	.1715	1.38022	.00004
.6915	.2456	1.38412	.00004
.591	.3256	1.388	.00004
.4913	.405	1.39149	.00004
.3835	.4908	1.39496	.00004
.2797	.5734	1.39804	.00004
.1952	.6406	1.40051	.00004
.1462	.6797	1.40165	.00004
.1078	.7103	1.40272	.00004
.0502	.7561	1.40418	.00004
.8768	.0857	1.37908	.00004
.7742	.157	1.38552	.00004
.6981	.2099	1.3896	.00004
.5954	.2813	1.39451	.00004
.4921	.3531	1.39884	.00004
.3889	.4249	1.40273	.00004
.2817	.4994	1.4064	.00004
.1993	.5567	1.40852	.00004
.1489	.5917	1.40998	.00004
.0995	.6261	1.41124	.00004
.0424	.6658	1.41273	.00004
.8932	.0638	1.38071	.00004
.7892	.1261	1.38845	.00004
.6998	.1795	1.3943	.00004
.6078	.2345	1.39903	.00004
.5162	.2893	1.40329	.00004
.4132	.3509	1.40722	.00004
.3042	.416	1.4111	.00004
.2069	.4742	1.41388	.00004
.1578	.5036	1.41526	.00004
.0987	.5389	1.41676	.00004
.0576	.5635	1.4177	.00004
.8999	.0505	1.38193	.00004
.8028	.0995	1.39061	.00004
.7065	.148	1.39739	.00004
.5911	.2063	1.40394	.00004
.499	.2528	1.40803	.00004
.3979	.3037	1.41194	.00004
.3119	.3471	1.41486	.00004
.2071	.4	1.41787	.00004
.1685	.4195	1.41886	.00004
.1118	.4481	1.42028	.00004
.0645	.4719	1.42156	.00004
.8901	.0443	1.38518	.00004
.79	.0846	1.39468	.00004
.7002	.1208	1.4013	.00004
.5947	.1634	1.40733	.00004
.4877	.2065	1.41238	.00004
.3874	.2469	1.41595	.00004
.2689	.2947	1.41984	.00004
.1848	.3286	1.42183	.00004
.1753	.3324	1.42207	.00004
.1317	.3499	1.42315	.00004
.037	.3881	1.42512	.00004
.8981	.0294	1.38673	.00004
.8137	.0536	1.39582	.00004
.7173	.0814	1.40358	.00004
.5899	.1181	1.41099	.00004
.4936	.1458	1.4153	.00004
.388	.1762	1.41909	.00004
.2964	.2026	1.42194	.00004
.2087	.2279	1.42415	.00004
.1575	.2426	1.42541	.00004
.1042	.258	1.42652	.00004
.0538	.2725	1.42758	.00004
.8952	.0203	1.38867	.00004
.7968	.0394	1.39946	.00004
.6913	.0598	1.40764	.00004
.597	.0781	1.4131	.00004
.4956	.0978	1.4176	.00004
.4014	.116	1.42096	.00004
.3052	.1347	1.42365	.00004
.2045	.1542	1.42629	.00004
.16	.1628	1.42715	.00004
.0967	.1751	1.4285	.00004
.0507	.184	1.4293	.00004
.9031	.0093	1.38906	.00004
.7979	.0194	1.40184	.00004
.7077	.0281	1.40879	.00004
.5961	.0388	1.41523	.00004
.5102	.0471	1.41901	.00004
.4059	.0571	1.42271	.00004
.2967	.0676	1.42574	.00004
.2012	.0768	1.42795	.00004
.1527	.0815	1.42893	.00004
.0984	.0867	1.43013	.00004
.0545	.0909	1.43071	.00004

System: ethanol + ethyl ethanoate + 1-octyl-3-methylimidazolium bis[(trifluoromethyl)sulfonyl]imide; phases: Liquid
Fixed: Pressure, kPa = 101.3
Fixed: Temperature, K = 298.15
Property: Viscosity, Pa*s (Liquid); method: Capillary tube (Ostwald; Ubbelohde) method
Mole fraction of ethyl ethanoate	Mole fraction of ethanol	Viscosity, Pa*s	uncertainty
.8849	.1035	.000498	.00000249
.8735	.1138	.000503	.000002515
.7954	.184	.000555	.000002775
.6802	.2876	.000679	.000003395
.594	.365	.000773	.000003865
.5043	.4457	.000928	.00000464
.4189	.5225	.001076	.00000538
.3104	.62	.001371	.000006855
.2274	.6947	.00161	.00000805
.1905	.7278	.001824	.00000912
.1248	.7869	.002113	.000010565
.08	.8272	.002461	.000012305
.8748	.0997	.000588	.00000294
.7846	.1715	.000733	.000003665
.6915	.2456	.000936	.00000468
.591	.3256	.001199	.000005995
.4913	.405	.00157	.00000785
.3835	.4908	.002037	.000010185
.2797	.5734	.002726	.00001363
.1952	.6406	.003493	.000017465
.1462	.6797	.00402	.0000201
.1078	.7103	.00454	.0000227
.0502	.7561	.005392	.00002696
.8768	.0857	.000685	.000003425
.7742	.157	.00093	.00000465
.6981	.2099	.001261	.000006305
.5954	.2813	.001663	.000008315
.4921	.3531	.002392	.00001196
.3889	.4249	.003145	.000015725
.2817	.4994	.004576	.00002288
.1993	.5567	.005829	.000029145
.1489	.5917	.006763	.000033815
.0995	.6261	.007881	.000039405
.0424	.6658	.009352	.00004676
.8932	.0638	.000743	.000003715
.7892	.1261	.001085	.000005425
.6998	.1795	.00161	.00000805
.6078	.2345	.002286	.00001143
.5162	.2893	.003107	.000015535
.4132	.3509	.004382	.00002191
.3042	.416	.006305	.000031525
.2069	.4742	.008621	.000043105
.1578	.5036	.01005	.00005025
.0987	.5389	.01196	.0000598
.0576	.5635	.01366	.0000683
.8999	.0505	.0008	.000004
.8028	.0995	.001212	.00000606
.7065	.148	.001953	.000009765
.5911	.2063	.00298	.0000149
.499	.2528	.00443	.00002215
.3979	.3037	.006374	.00003187
.3119	.3471	.008577	.000042885
.2071	.4	.01206	.0000603
.1685	.4195	.01374	.0000687
.1118	.4481	.01628	.0000814
.0645	.4719	.0189	.0000945
.8901	.0443	.000931	.000004655
.79	.0846	.001547	.000007735
.7002	.1208	.002524	.00001262
.5947	.1634	.003856	.00001928
.4877	.2065	.006229	.000031145
.3874	.2469	.009092	.00004546
.2689	.2947	.01386	.0000693
.1848	.3286	.01821	.00009105
.1753	.3324	.01885	.00009425
.1317	.3499	.02147	.00010735
.037	.3881	.02831	.00014155
.8981	.0294	.000992	.00000496
.8137	.0536	.001727	.000008635
.7173	.0814	.002906	.00001453
.5899	.1181	.005526	.00002763
.4936	.1458	.008229	.000041145
.388	.1762	.01279	.00006395
.2964	.2026	.01752	.0000876
.2087	.2279	.0235	.0001175
.1575	.2426	.02751	.00013755
.1042	.258	.03257	.00016285
.0538	.2725	.0379	.0001895
.8952	.0203	.001126	.00000563
.7968	.0394	.00223	.00001115
.6913	.0598	.004029	.000020145
.597	.0781	.006502	.00003251
.4956	.0978	.01028	.0000514
.4014	.116	.01535	.00007675
.3052	.1347	.02183	.00010915
.2045	.1542	.03054	.0001527
.16	.1628	.03537	.00017685
.0967	.1751	.04255	.00021275
.0507	.184	.04786	.0002393
.9031	.0093	.001138	.00000569
.7979	.0194	.002769	.000013845
.7077	.0281	.004389	.000021945
.5961	.0388	.008007	.000040035
.5102	.0471	.0121	.0000605
.4059	.0571	.01876	.0000938
.2967	.0676	.02846	.0001423
.2012	.0768	.03919	.00019595
.1527	.0815	.045	.000225
.0984	.0867	.05299	.00026495
.0545	.0909	.06011	.00030055
