Measured thermophysical data. Solubility Measurements and Data Correlation of Carbon Dioxide in Pentaerythritol Tetrahexanoate (PEC6)
Source: J. Chem. Eng. Data, 2008, 10.1021/je800429j
Compound 1: pentaerythritol ester hexaonic acid, C29H52O8
Compound 2: carbon dioxide, CO2

System: pentaerythritol ester hexaonic acid; phases: Liquid
Fixed: Pressure, kPa = 101.325
Property: Mass density, kg/m3 (Liquid); method: Pycnometric method
Temperature, K	Mass density, kg/m3	uncertainty
283.15	1004.2	

System: carbon dioxide + pentaerythritol ester hexaonic acid; phases: Liquid, Gas
Property: Vapor or sublimation pressure, kPa (Liquid); method: Closed cell (Static) method
Temperature, K	Mole fraction of carbon dioxide	Vapor or sublimation pressure, kPa	uncertainty
243.15	.6675	767	20
243.15	.7415	936	20
243.15	.7973	1074	20
243.15	.8398	1183	20
243.15	.8953	1309	20
243.15	.9199	1352	20
243.15	.9669	1401	20
253.15	.3733	412	20
253.15	.4649	564	20
253.15	.5627	765	20
253.15	.6312	938	20
253.15	.7098	1166	20
253.15	.7704	1369	20
253.15	.8184	1541	20
253.15	.8834	1764	20
253.15	.9125	1843	20
253.15	.9659	1930	20
263.15	.1561	182	20
263.15	.278	363	20
263.15	.3397	472	20
263.15	.4279	649	20
263.15	.5242	889	20
263.15	.5932	1099	20
263.15	.6741	1388	20
263.15	.7385	1661	20
263.15	.7907	1912	20
263.15	.8655	2281	20
263.15	.901	2436	20
263.15	.9644	2592	20
273.15	.1391	202	20
273.15	.252	404	20
273.15	.3095	527	20
273.15	.3924	729	20
273.15	.4873	1004	20
273.15	.5557	1250	20
273.15	.6369	1597	20
273.15	.7032	1938	20
273.15	.7579	2268	20
273.15	.8402	2822	20
273.15	.883	3097	20
273.15	.9621	3410	20
283.15	.1592	284	20
283.15	.3509	762	20
283.15	.5118	1341	20
283.15	.6215	1898	20
283.15	.719	2536	20
283.15	.8038	3258	20
283.15	.8734	3906	20
283.15	.9159	4239	20
283.15	.9474	4385	20
283.15	.9552	4406	20
283.15	.966	4427	20
283.15	.9771	4441	20
303.15	.1581	403	20
303.15	.2501	695	20
303.15	.3497	1101	20
303.15	.4162	1413	20
303.15	.4877	1816	20
303.15	.5746	2416	20
303.15	.647	3046	20
303.15	.7163	3797	20
303.15	.7849	4710	20
303.15	.8323	5491	20
303.15	.866	6080	20
303.15	.8903	6501	20
303.15	.929	7067	20
323.15	.1358	451	20
323.15	.2164	782	20
323.15	.3079	1243	20
323.15	.367	1600	20
323.15	.4359	2065	20
323.15	.5217	2766	20
323.15	.5937	3515	20
323.15	.6634	4433	20
323.15	.7335	5601	20
323.15	.7833	6660	20
323.15	.8178	7536	20
323.15	.8414	8244	20
323.15	.8787	9520	20
343.15	.1188	497	20
343.15	.1929	861	20
343.15	.277	1371	20
343.15	.3332	1769	20
343.15	.3997	2291	20
343.15	.4832	3083	20
343.15	.5552	3939	20
343.15	.6253	5008	20
343.15	.6986	6399	20
343.15	.751	7714	20
343.15	.7898	8851	20
343.15	.8185	9821	20
