Measured thermophysical data. Solubility of the Single Gases Carbon Monoxide and Oxygen in the Ionic Liquid  [hmim][Tf2N]
Source: J. Chem. Eng. Data, 2009, 10.1021/je8007556
Compound 1: 1-hexyl-3-methylimidazolium bis[(trifluoromethyl)sulfonyl]imide, C12H19F6N3O4S2, purity 99%
Compound 2: carbon monoxide, CO, purity 99.97%
Compound 3: oxygen, O2, purity 99.995%

System: oxygen + 1-hexyl-3-methylimidazolium bis[(trifluoromethyl)sulfonyl]imide; phases: Liquid, Gas
Property: Vapor or sublimation pressure, kPa (Liquid); method: Closed cell (Static) method
Temperature, K	Molality, mol/kg of oxygen	Vapor or sublimation pressure, kPa	uncertainty
293.3	.04527	1459	
293.3	.09535	3119	
293.3	.15435	5092	
293.3	.19349	6431	
293.3	.23353	7833	
293.3	.2709	9261	
333.2	.04655	1578	
333.2	.10545	3627	
333.2	.14188	4912	
333.2	.17901	6236	
333.2	.21679	7622	
333.2	.26027	9284	
373.25	.04192	1464	
373.25	.07389	2581	
373.25	.12079	4252	
373.25	.16667	5867	
373.25	.20381	7249	
373.25	.26123	9390	
413.15	.05691	1971	
413.15	.08904	3104	
413.15	.12097	4221	
413.15	.17755	6231	
413.15	.23359	8265	
413.15	.27495	9785	

System: carbon monoxide + 1-hexyl-3-methylimidazolium bis[(trifluoromethyl)sulfonyl]imide; phases: Liquid, Gas
Property: Vapor or sublimation pressure, kPa (Liquid); method: Closed cell (Static) method
Temperature, K	Molality, mol/kg of carbon monoxide	Vapor or sublimation pressure, kPa	uncertainty
293.25	.06362	1618	
293.25	.09961	2563	
293.25	.13556	3523	
293.25	.17874	4692	
293.25	.23595	6322	
293.25	.28916	7877	
333.15	.05388	1502	
333.15	.10779	3031	
333.15	.16431	4667	
333.15	.21729	6273	
333.15	.26086	7553	
333.15	.30504	8998	
373.2	.04991	1451	
373.2	.09934	2915	
373.2	.14885	4383	
373.2	.19867	5908	
373.2	.25033	7505	
373.2	.30139	9104	
413.2	.02456	724	
413.2	.09139	2716	
413.2	.14773	4412	
413.2	.20434	6129	
