Measured thermophysical data. Separation of Hexane/Ethanol Mixtures. LLE of Ternary Systems (Ionic Liquid  or Hyperbranched Polymer + Ethanol + Hexane) at T ) 298.15 K
Source: J. Chem. Eng. Data, 2009, 10.1021/je8007588
Compound 1: ethanol, C2H6O, purity 99.8%
Compound 2: hexane, C6H14, purity 99%
Compound 3: hexyl(2-hydroxyethyl)dimethylammonium tetrafluoroborate, C10H24BF4NO

System: hexyl(2-hydroxyethyl)dimethylammonium tetrafluoroborate; phases: Liquid
Fixed: Pressure, kPa = 101.325
Property: Mass density, kg/m3 (Liquid); method: Vibrating tube method
Temperature, K	Mass density, kg/m3	uncertainty
298.15	1123.6	.05

System: ethanol + hexane + hexyl(2-hydroxyethyl)dimethylammonium tetrafluoroborate; phases: Liquid mixture 1, Liquid mixture 2
Fixed: Temperature, K = 298.15
Fixed: Pressure, kPa = 101
Property: Mole fraction of hexyl(2-hydroxyethyl)dimethylammonium tetrafluoroborate (Liquid mixture 1); method: Density calibration data
Property: Mole fraction of ethanol (Liquid mixture 2); method: Density calibration data
Property: Mole fraction of hexyl(2-hydroxyethyl)dimethylammonium tetrafluoroborate (Liquid mixture 2); method: Density calibration data
Mole fraction of ethanol	Mole fraction of hexyl(2-hydroxyethyl)dimethylammonium tetrafluoroborate	uncertainty	Mole fraction of ethanol	uncertainty	Mole fraction of hexyl(2-hydroxyethyl)dimethylammonium tetrafluoroborate	uncertainty
0	0	.01	0	.01	.99	.01
.01	0	.01	.16	.01	.83	.01
.02	0	.01	.39	.01	.6	.01
.04	0	.01	.54	.01	.45	.01
.05	0	.01	.65	.01	.31	.01
.07	0	.01	.66	.01	.29	.01
.11	.01	.01	.69	.01	.25	.01
.17	.01	.01	.72	.01	.2	.01
.27	.03	.01	.73	.01	.17	.01
