Measured thermophysical data. Density, Viscosity, and Refractive Index in the Range (283.15 to 353.15) K and  Vapor Pressure of r-Pinene, d-Limonene, (()-Linalool, and Citral Over the  Pressure Range 1.0 kPa Atmospheric Pressure
Source: J. Chem. Eng. Data, 2009, 10.1021/je8007414
Compound 1: .alpha.-pinene, C10H16
Compound 2: (R)-(+)-limonene, C10H16
Compound 3: dl-2,6-dimethyl-2,7-octadien-6-ol, C10H18O
Compound 4: 3,7-dimethyl-2,6-octadienal, (cis+trans), C10H16O

System: .alpha.-pinene; phases: Liquid
Fixed: Pressure, kPa = 101.325
Property: Mass density, kg/m3 (Liquid); method: Vibrating tube method
Temperature, K	Mass density, kg/m3	uncertainty
283.15	865.9	.1
293.15	857.6	.1
298.15	853.7	.1
303.15	849.5	.1
313.15	841.2	.1
323.15	832.8	.1
333.15	824.5	.1
343.15	816.1	.1
353.15	807.6	.1

System: .alpha.-pinene; phases: Liquid
Fixed: Pressure, kPa = 101.325
Property: Viscosity, Pa*s (Liquid); method: Capillary tube (Ostwald; Ubbelohde) method
Temperature, K	Viscosity, Pa*s	uncertainty
283.15	.001676	.000005866
293.15	.001409	.0000049315
298.15	.001303	.0000045605
303.15	.001203	.0000042105
313.15	.001039	.0000036365
323.15	.000908	.000003178
333.15	.000804	.000002814
343.15	.00071	.000002485
353.15	.000635	.0000022225

System: .alpha.-pinene; phases: Liquid
Fixed: Pressure, kPa = 101.325
Property: Refractive index (Na D-line) (Liquid); method: Standard Abbe refractometry
Temperature, K	Refractive index (Na D-line)	uncertainty
283.15	1.47034	.00005
293.15	1.46508	.00005
298.15	1.4633	.00005
303.15	1.46034	.00005
313.15	1.45597	.00005
323.15	1.45114	.00005
333.15	1.44622	.00005

System: .alpha.-pinene; phases: Liquid, Gas
Property: Vapor or sublimation pressure, kPa (Liquid); method: Ebulliometric method (Recirculating still)
Temperature, K	Vapor or sublimation pressure, kPa	uncertainty
308.9	1	.1
315.8	1.5	.1
324.9	2.5	.1
339	5	.1
355.8	10	.1
374.4	20	.1
386.4	30	.1
395.5	40	.1
403	50	.1
409.4	60	.1
414.9	70	.1
419.8	80	.1
424.2	90	.1
427.1	96.7	.1

System: (R)-(+)-limonene; phases: Liquid
Fixed: Pressure, kPa = 101.325
Property: Mass density, kg/m3 (Liquid); method: Vibrating tube method
Temperature, K	Mass density, kg/m3	uncertainty
283.15	852.7	.1
293.15	844.8	.1
298.15	841	.1
303.15	837	.1
313.15	829	.1
323.15	821.1	.1
333.15	813.2	.1
343.15	805.2	.1
353.15	797.1	.1

System: (R)-(+)-limonene; phases: Liquid
Fixed: Pressure, kPa = 101.325
Property: Viscosity, Pa*s (Liquid); method: Capillary tube (Ostwald; Ubbelohde) method
Temperature, K	Viscosity, Pa*s	uncertainty
283.15	.001078	.000003773
293.15	.000932	.000003262
298.15	.000897	.0000031395
303.15	.000816	.000002856
313.15	.000722	.000002527
323.15	.000645	.0000022575
333.15	.00058	.00000203
343.15	.000524	.000001834
353.15	.000476	.000001666

System: (R)-(+)-limonene; phases: Liquid
Fixed: Pressure, kPa = 101.325
Property: Refractive index (Na D-line) (Liquid); method: Standard Abbe refractometry
Temperature, K	Refractive index (Na D-line)	uncertainty
283.15	1.4765	.00005
293.15	1.47212	.00005
298.15	1.47106	.00005
303.15	1.46798	.00005
313.15	1.46368	.00005
323.15	1.45907	.00005
333.15	1.45408	.00005

System: (R)-(+)-limonene; phases: Liquid, Gas
Property: Vapor or sublimation pressure, kPa (Liquid); method: Ebulliometric method (Recirculating still)
Temperature, K	Vapor or sublimation pressure, kPa	uncertainty
326.8	1	.1
333.7	1.5	.1
343.7	2.5	.1
358.7	5	.1
375.5	10	.1
394.5	20	.1
406.9	30	.1
416.2	40	.1
423.9	50	.1
430.5	60	.1
436.2	70	.1
441.2	80	.1
445.6	90	.1
448.2	96	.1

System: dl-2,6-dimethyl-2,7-octadien-6-ol; phases: Liquid
Fixed: Pressure, kPa = 101.325
Property: Mass density, kg/m3 (Liquid); method: Vibrating tube method
Temperature, K	Mass density, kg/m3	uncertainty
283.15	869.9	.1
293.15	861.8	.1
298.15	857.7	.1
303.15	853.3	.1
313.15	844.8	.1
323.15	836.2	.1
333.15	827.5	.1
343.15	818.7	.1
353.15	809.8	.1

System: dl-2,6-dimethyl-2,7-octadien-6-ol; phases: Liquid
Fixed: Pressure, kPa = 101.325
Property: Viscosity, Pa*s (Liquid); method: Capillary tube (Ostwald; Ubbelohde) method
Temperature, K	Viscosity, Pa*s	uncertainty
283.15	.00907	.000031745
293.15	.00553	.000019355
298.15	.00447	.000015645
303.15	.00363	.000012705
313.15	.002541	.0000088935
323.15	.001868	.000006538
333.15	.001432	.000005012
343.15	.001137	.0000039795
353.15	.00093	.000003255

System: dl-2,6-dimethyl-2,7-octadien-6-ol; phases: Liquid
Fixed: Pressure, kPa = 101.325
Property: Refractive index (Na D-line) (Liquid); method: Standard Abbe refractometry
Temperature, K	Refractive index (Na D-line)	uncertainty
283.15	1.46658	.00005
293.15	1.46152	.00005
298.15	1.45965	.00005
303.15	1.45665	.00005
313.15	1.45204	.00005
323.15	1.44738	.00005
333.15	1.44229	.00005

System: dl-2,6-dimethyl-2,7-octadien-6-ol; phases: Liquid, Gas
Property: Vapor or sublimation pressure, kPa (Liquid); method: Ebulliometric method (Recirculating still)
Temperature, K	Vapor or sublimation pressure, kPa	uncertainty
352.3	1	.1
358.8	1.5	.1
368.2	2.5	.1
382.4	5	.1
398.7	10	.1
417.1	20	.1
428.9	30	.1
438.1	40	.1
445.5	50	.1
451.8	60	.1
457.3	70	.1
462.2	80	.1
466.6	90	.1
468.7	95.2	.1

System: 3,7-dimethyl-2,6-octadienal, (cis+trans); phases: Liquid
Fixed: Pressure, kPa = 101.325
Property: Mass density, kg/m3 (Liquid); method: Vibrating tube method
Temperature, K	Mass density, kg/m3	uncertainty
283.15	896.5	.1
293.15	888.4	.1
298.15	884.7	.1
303.15	880.4	.1
313.15	872.3	.1
323.15	864.3	.1
333.15	856.3	.1
343.15	848.3	.1
353.15	840.2	.1

System: 3,7-dimethyl-2,6-octadienal, (cis+trans); phases: Liquid
Fixed: Pressure, kPa = 101.325
Property: Viscosity, Pa*s (Liquid); method: Capillary tube (Ostwald; Ubbelohde) method
Temperature, K	Viscosity, Pa*s	uncertainty
283.15	.002822	.000009877
293.15	.002225	.0000077875
298.15	.002111	.0000073885
303.15	.001807	.0000063245
313.15	.001502	.000005257
323.15	.001274	.000004459
333.15	.001097	.0000038395
343.15	.000956	.000003346
353.15	.000842	.000002947

System: 3,7-dimethyl-2,6-octadienal, (cis+trans); phases: Liquid
Fixed: Pressure, kPa = 101.325
Property: Refractive index (Na D-line) (Liquid); method: Standard Abbe refractometry
Temperature, K	Refractive index (Na D-line)	uncertainty
283.15	1.4893	.00005
293.15	1.48669	.00005
298.15	1.48485	.00005
303.15	1.48294	.00005
313.15	1.47869	.00005
323.15	1.4742	.00005
333.15	1.469	.00005

System: 3,7-dimethyl-2,6-octadienal, (cis+trans); phases: Liquid, Gas
Property: Vapor or sublimation pressure, kPa (Liquid); method: Ebulliometric method (Recirculating still)
Temperature, K	Vapor or sublimation pressure, kPa	uncertainty
371.6	1	.1
379.7	1.5	.1
389.8	2.5	.1
405.2	5	.1
424.4	10	.1
444.3	20	.1
456.7	30	.1
465.9	40	.1
473.6	50	.1
