Measured thermophysical data. Liquid-Liquid Equilibria in Binary Mixtures Containing Fluorinated Benzenes  and Ionic Liquid 1-Ethyl-3-methylimidazolium Bis(trifluoromethylsulfonyl)imide
Source: J. Chem. Eng. Data, 2008, 10.1021/je8006474
Compound 1: fluorobenzene, C6H5F, purity 99%
Compound 2: 1,2-difluorobenzene, C6H4F2, purity 98%
Compound 3: 1,3-difluorobenzene, C6H4F2, purity 99%
Compound 4: 1,4-difluorobenzene, C6H4F2, purity 99%
Compound 5: 1,2,3-trifluorobenzene, C6H3F3, purity 99%
Compound 6: 1,2,4-trifluorobenzene, C6H3F3, purity 98%
Compound 7: 1,3,5-trifluorobenzene, C6H3F3, purity 97%
Compound 8: benzene, 1,2,3,4-tetrafluoro-, C6H2F4, purity 99%
Compound 9: benzene, 1,2,3,5-tetrafluoro-, C6H2F4, purity 95%
Compound 10: 1,2,4,5-tetrafluorobenzene, C6H2F4, purity 99%
Compound 11: benzene, pentafluoro-, C6HF5, purity 99%
Compound 12: 1-ethyl-3-methylimidazolium bis[(trifluoromethyl)sulfonyl]imide, C8H11F6N3O4S2, purity 99.5%

System: fluorobenzene; phases: Liquid
Fixed: Pressure, kPa = 101.325
Property: Mass density, kg/m3 (Liquid); method: Pycnometric method
Temperature, K	Mass density, kg/m3	uncertainty
296.2	1022	8
330.1	985	8

System: 1,2-difluorobenzene; phases: Liquid
Fixed: Pressure, kPa = 101.325
Property: Mass density, kg/m3 (Liquid); method: Pycnometric method
Temperature, K	Mass density, kg/m3	uncertainty
296.2	1156	18
331.1	1117	18

System: 1,3-difluorobenzene; phases: Liquid
Fixed: Pressure, kPa = 101.325
Property: Mass density, kg/m3 (Liquid); method: Pycnometric method
Temperature, K	Mass density, kg/m3	uncertainty
296.2	1139	18
330.6	1094	18

System: 1,4-difluorobenzene; phases: Liquid
Fixed: Pressure, kPa = 101.325
Property: Mass density, kg/m3 (Liquid); method: Pycnometric method
Temperature, K	Mass density, kg/m3	uncertainty
296.1	1146	18
327.2	1110	18

System: 1,2,3-trifluorobenzene; phases: Liquid
Fixed: Pressure, kPa = 101.325
Property: Mass density, kg/m3 (Liquid); method: Pycnometric method
Temperature, K	Mass density, kg/m3	uncertainty
296	1292	18
331.6	1240	18

System: 1,2,4-trifluorobenzene; phases: Liquid
Fixed: Pressure, kPa = 101.325
Property: Mass density, kg/m3 (Liquid); method: Pycnometric method
Temperature, K	Mass density, kg/m3	uncertainty
296.6	1280	18
330.7	1247	18

System: 1,3,5-trifluorobenzene; phases: Liquid
Fixed: Pressure, kPa = 101.325
Property: Mass density, kg/m3 (Liquid); method: Pycnometric method
Temperature, K	Mass density, kg/m3	uncertainty
297.2	1268	18
324.9	1225	18

System: benzene, 1,2,3,4-tetrafluoro-; phases: Liquid
Fixed: Pressure, kPa = 101.325
Property: Mass density, kg/m3 (Liquid); method: Pycnometric method
Temperature, K	Mass density, kg/m3	uncertainty
296.4	1408	20
327.4	1360	20

System: benzene, 1,2,3,5-tetrafluoro-; phases: Liquid
Fixed: Pressure, kPa = 101.325
Property: Mass density, kg/m3 (Liquid); method: Pycnometric method
Temperature, K	Mass density, kg/m3	uncertainty
296.3	1403	18
325.9	1352	18

System: 1,2,4,5-tetrafluorobenzene; phases: Liquid
Fixed: Pressure, kPa = 101.325
Property: Mass density, kg/m3 (Liquid); method: Pycnometric method
Temperature, K	Mass density, kg/m3	uncertainty
296.7	1421	18
327.4	1370	18

System: benzene, pentafluoro-; phases: Liquid
Fixed: Pressure, kPa = 101.325
Property: Mass density, kg/m3 (Liquid); method: Pycnometric method
Temperature, K	Mass density, kg/m3	uncertainty
296.9	1511	10
327.6	1453	10

System: fluorobenzene + 1-ethyl-3-methylimidazolium bis[(trifluoromethyl)sulfonyl]imide; phases: Liquid mixture 1, Liquid mixture 2
Fixed: Pressure, kPa = 101
Property: Mole fraction of fluorobenzene (Liquid mixture 1); method: volumetric method
Temperature, K	Mole fraction of fluorobenzene	uncertainty
282.5	.875	.003
297.9	.875	.003
315.5	.874	.003
333.2	.872	.003
353.1	.869	.003
373	.865	.003

System: fluorobenzene + 1-ethyl-3-methylimidazolium bis[(trifluoromethyl)sulfonyl]imide; phases: Liquid mixture 2, Liquid mixture 1
Fixed: Pressure, kPa = 101
Property: Mole fraction of fluorobenzene (Liquid mixture 2); method: volumetric method
Temperature, K	Mole fraction of fluorobenzene	uncertainty
282.5	.992	.009
297.9	.991	.009
315.5	.99	.009
333.2	.989	.009
353.1	.989	.009
373	.989	.009

System: fluorobenzene + 1-ethyl-3-methylimidazolium bis[(trifluoromethyl)sulfonyl]imide; phases: Liquid mixture 1, Liquid mixture 2
Property: Molar volume, m3/mol (Liquid mixture 1); method: Pycnometric method
Temperature, K	Mole fraction of fluorobenzene	Molar volume, m3/mol	uncertainty
282.5	.875	.0001125	.0000028
297.9	.875	.0001137	.0000028
315.5	.874	.000115	.0000028
333.2	.872	.0001169	.0000028
353.1	.869	.0001197	.0000028
373	.865	.0001231	.0000028

System: fluorobenzene + 1-ethyl-3-methylimidazolium bis[(trifluoromethyl)sulfonyl]imide; phases: Liquid mixture 2, Liquid mixture 1
Property: Molar volume, m3/mol (Liquid mixture 2); method: Pycnometric method
Temperature, K	Mole fraction of fluorobenzene	Molar volume, m3/mol	uncertainty
282.5	.992	.0000931	.0000012
297.9	.991	.0000945	.0000012
315.5	.99	.0000961	.0000012
333.2	.989	.0000984	.0000012
353.1	.989	.000101	.0000012
373	.989	.0001035	.0000012

System: 1,3-difluorobenzene + 1-ethyl-3-methylimidazolium bis[(trifluoromethyl)sulfonyl]imide; phases: Liquid mixture 1, Liquid mixture 2
Fixed: Pressure, kPa = 101
Property: Mole fraction of 1,3-difluorobenzene (Liquid mixture 1); method: volumetric method
Temperature, K	Mole fraction of 1,3-difluorobenzene	uncertainty
283.3	.757	.004
294.4	.755	.004
316.1	.753	.004
333.3	.748	.004
353.1	.742	.004
373	.736	.004

System: 1,3-difluorobenzene + 1-ethyl-3-methylimidazolium bis[(trifluoromethyl)sulfonyl]imide; phases: Liquid mixture 2, Liquid mixture 1
Fixed: Pressure, kPa = 101
Property: Mole fraction of 1,3-difluorobenzene (Liquid mixture 2); method: volumetric method
Temperature, K	Mole fraction of 1,3-difluorobenzene	uncertainty
283.3	1	.003
294.4	1	.003
316.1	1	.003
333.3	1	.003
353.1	1	.003
373	1	.003

System: 1,3-difluorobenzene + 1-ethyl-3-methylimidazolium bis[(trifluoromethyl)sulfonyl]imide; phases: Liquid mixture 1, Liquid mixture 2
Property: Molar volume, m3/mol (Liquid mixture 1); method: Pycnometric method
Temperature, K	Mole fraction of 1,3-difluorobenzene	Molar volume, m3/mol	uncertainty
283.3	.757	.000134	.0000036
294.4	.755	.0001363	.0000036
316.1	.753	.0001404	.0000036
333.3	.748	.0001429	.0000036
353.1	.742	.000146	.0000036
373	.736	.0001492	.0000036

System: 1,3-difluorobenzene + 1-ethyl-3-methylimidazolium bis[(trifluoromethyl)sulfonyl]imide; phases: Liquid mixture 2, Liquid mixture 1
Property: Molar volume, m3/mol (Liquid mixture 2); method: Pycnometric method
Temperature, K	Mole fraction of 1,3-difluorobenzene	Molar volume, m3/mol	uncertainty
283.3	1	.0000982	.0000038
294.4	1	.0000993	.0000038
316.1	1	.000102	.0000038
333.3	1	.000104	.0000038
353.1	1	.0001065	.0000038
373	1	.000109	.0000038

System: 1,4-difluorobenzene + 1-ethyl-3-methylimidazolium bis[(trifluoromethyl)sulfonyl]imide; phases: Liquid mixture 1, Liquid mixture 2
Fixed: Pressure, kPa = 101
Property: Mole fraction of 1,4-difluorobenzene (Liquid mixture 1); method: volumetric method
Temperature, K	Mole fraction of 1,4-difluorobenzene	uncertainty
283.4	.816	.005
294.4	.814	.005
316.2	.81	.005
343.2	.807	.005
353.1	.804	.005
373	.799	.005

System: 1,4-difluorobenzene + 1-ethyl-3-methylimidazolium bis[(trifluoromethyl)sulfonyl]imide; phases: Liquid mixture 2, Liquid mixture 1
Fixed: Pressure, kPa = 101
Property: Mole fraction of 1,4-difluorobenzene (Liquid mixture 2); method: volumetric method
Temperature, K	Mole fraction of 1,4-difluorobenzene	uncertainty
283.4	1	.002
294.4	1	.002
316.2	1	.002
343.2	.999	.002
353.1	.999	.002
373	.999	.002

System: 1,4-difluorobenzene + 1-ethyl-3-methylimidazolium bis[(trifluoromethyl)sulfonyl]imide; phases: Liquid mixture 1, Liquid mixture 2
Property: Molar volume, m3/mol (Liquid mixture 1); method: Pycnometric method
Temperature, K	Mole fraction of 1,4-difluorobenzene	Molar volume, m3/mol	uncertainty
283.4	.816	.0001239	.0000036
294.4	.814	.0001255	.0000036
316.2	.81	.0001288	.0000036
343.2	.807	.0001337	.0000036
353.1	.804	.0001354	.0000036
373	.799	.0001387	.0000036

System: 1,4-difluorobenzene + 1-ethyl-3-methylimidazolium bis[(trifluoromethyl)sulfonyl]imide; phases: Liquid mixture 2, Liquid mixture 1
Property: Molar volume, m3/mol (Liquid mixture 2); method: Pycnometric method
Temperature, K	Mole fraction of 1,4-difluorobenzene	Molar volume, m3/mol	uncertainty
283.4	1	.0000976	.0000032
294.4	1	.0000988	.0000032
316.2	1	.000101	.0000032
343.2	.999	.0001038	.0000032
353.1	.999	.000105	.0000032
373	.999	.0001069	.0000032

System: 1,2,4-trifluorobenzene + 1-ethyl-3-methylimidazolium bis[(trifluoromethyl)sulfonyl]imide; phases: Liquid mixture 1, Liquid mixture 2
Fixed: Pressure, kPa = 101
Property: Mole fraction of 1,2,4-trifluorobenzene (Liquid mixture 1); method: volumetric method
Temperature, K	Mole fraction of 1,2,4-trifluorobenzene	uncertainty
362.4	.893	.008
367.4	.892	.008
372.4	.891	.008

System: 1,2,4-trifluorobenzene + 1-ethyl-3-methylimidazolium bis[(trifluoromethyl)sulfonyl]imide; phases: Liquid mixture 2, Liquid mixture 1
Fixed: Pressure, kPa = 101
Property: Mole fraction of 1,2,4-trifluorobenzene (Liquid mixture 2); method: volumetric method
Temperature, K	Mole fraction of 1,2,4-trifluorobenzene	uncertainty
362.4	.977	.01
367.4	.977	.01
372.4	.977	.01

System: 1,2,4-trifluorobenzene + 1-ethyl-3-methylimidazolium bis[(trifluoromethyl)sulfonyl]imide; phases: Liquid mixture 1, Liquid mixture 2
Property: Molar volume, m3/mol (Liquid mixture 1); method: Pycnometric method
Temperature, K	Mole fraction of 1,2,4-trifluorobenzene	Molar volume, m3/mol	uncertainty
362.4	.893	.0001242	.0000026
367.4	.892	.0001247	.0000026
372.4	.891	.0001252	.0000026

System: 1,2,4-trifluorobenzene + 1-ethyl-3-methylimidazolium bis[(trifluoromethyl)sulfonyl]imide; phases: Liquid mixture 2, Liquid mixture 1
Property: Molar volume, m3/mol (Liquid mixture 2); method: Pycnometric method
Temperature, K	Mole fraction of 1,2,4-trifluorobenzene	Molar volume, m3/mol	uncertainty
362.4	.977	.0001135	.0000031
367.4	.977	.000114	.0000031
372.4	.977	.0001145	.0000031

System: 1,3,5-trifluorobenzene + 1-ethyl-3-methylimidazolium bis[(trifluoromethyl)sulfonyl]imide; phases: Liquid mixture 1, Liquid mixture 2
Fixed: Pressure, kPa = 101
Property: Mole fraction of 1,3,5-trifluorobenzene (Liquid mixture 1); method: volumetric method
Temperature, K	Mole fraction of 1,3,5-trifluorobenzene	uncertainty
283.5	.497	.023
298.2	.498	.023
316.6	.487	.023
333.2	.482	.023
353.1	.478	.023
373	.482	.023

System: 1,3,5-trifluorobenzene + 1-ethyl-3-methylimidazolium bis[(trifluoromethyl)sulfonyl]imide; phases: Liquid mixture 2, Liquid mixture 1
Fixed: Pressure, kPa = 101
Property: Mole fraction of 1,3,5-trifluorobenzene (Liquid mixture 2); method: volumetric method
Temperature, K	Mole fraction of 1,3,5-trifluorobenzene	uncertainty
283.5	1	.008
298.2	1	.008
316.6	1	.008
333.2	1	.008
353.1	1	.008
373	1	.008

System: 1,3,5-trifluorobenzene + 1-ethyl-3-methylimidazolium bis[(trifluoromethyl)sulfonyl]imide; phases: Liquid mixture 1, Liquid mixture 2
Property: Molar volume, m3/mol (Liquid mixture 1); method: Pycnometric method
Temperature, K	Mole fraction of 1,3,5-trifluorobenzene	Molar volume, m3/mol	uncertainty
283.5	.497	.0001754	.0000066
298.2	.498	.0001762	.0000066
316.6	.487	.000179	.0000066
333.2	.482	.0001815	.0000066
353.1	.478	.000183	.0000066
373	.482	.0001846	.0000066

System: 1,3,5-trifluorobenzene + 1-ethyl-3-methylimidazolium bis[(trifluoromethyl)sulfonyl]imide; phases: Liquid mixture 2, Liquid mixture 1
Property: Molar volume, m3/mol (Liquid mixture 2); method: Pycnometric method
Temperature, K	Mole fraction of 1,3,5-trifluorobenzene	Molar volume, m3/mol	uncertainty
283.5	1	.0001013	.0000018
298.2	1	.0001035	.0000018
316.6	1	.0001057	.0000018
333.2	1	.000108	.0000018
353.1	1	.0001108	.0000018
373	1	.0001144	.0000018

System: benzene, 1,2,3,5-tetrafluoro- + 1-ethyl-3-methylimidazolium bis[(trifluoromethyl)sulfonyl]imide; phases: Liquid mixture 1, Liquid mixture 2
Fixed: Pressure, kPa = 101
Property: Mole fraction of benzene, 1,2,3,5-tetrafluoro- (Liquid mixture 1); method: volumetric method
Temperature, K	Mole fraction of benzene, 1,2,3,5-tetrafluoro-	uncertainty
283.5	.659	.007
298.3	.652	.007
316.7	.647	.007
333.2	.638	.007
353.1	.631	.007
373	.623	.007

System: benzene, 1,2,3,5-tetrafluoro- + 1-ethyl-3-methylimidazolium bis[(trifluoromethyl)sulfonyl]imide; phases: Liquid mixture 2, Liquid mixture 1
Fixed: Pressure, kPa = 101
Property: Mole fraction of benzene, 1,2,3,5-tetrafluoro- (Liquid mixture 2); method: volumetric method
Temperature, K	Mole fraction of benzene, 1,2,3,5-tetrafluoro-	uncertainty
283.5	1	.003
298.3	1	.003
316.7	1	.003
333.2	1	.003
353.1	1	.003
373	1	.003

System: benzene, 1,2,3,5-tetrafluoro- + 1-ethyl-3-methylimidazolium bis[(trifluoromethyl)sulfonyl]imide; phases: Liquid mixture 1, Liquid mixture 2
Property: Molar volume, m3/mol (Liquid mixture 1); method: Pycnometric method
Temperature, K	Mole fraction of benzene, 1,2,3,5-tetrafluoro-	Molar volume, m3/mol	uncertainty
283.5	.659	.0001523	.0000054
298.3	.652	.0001562	.0000054
316.7	.647	.0001579	.0000054
333.2	.638	.0001605	.0000054
353.1	.631	.000164	.0000054
373	.623	.0001688	.0000054

System: benzene, 1,2,3,5-tetrafluoro- + 1-ethyl-3-methylimidazolium bis[(trifluoromethyl)sulfonyl]imide; phases: Liquid mixture 2, Liquid mixture 1
Property: Molar volume, m3/mol (Liquid mixture 2); method: Pycnometric method
Temperature, K	Mole fraction of benzene, 1,2,3,5-tetrafluoro-	Molar volume, m3/mol	uncertainty
283.5	1	.0001053	.0000025
298.3	1	.0001069	.0000025
316.7	1	.0001096	.0000025
333.2	1	.0001119	.0000025
353.1	1	.0001149	.0000025
373	1	.000118	.0000025

System: 1,2,4,5-tetrafluorobenzene + 1-ethyl-3-methylimidazolium bis[(trifluoromethyl)sulfonyl]imide; phases: Liquid mixture 1, Liquid mixture 2
Fixed: Pressure, kPa = 101
Property: Mole fraction of 1,2,4,5-tetrafluorobenzene (Liquid mixture 1); method: volumetric method
Temperature, K	Mole fraction of 1,2,4,5-tetrafluorobenzene	uncertainty
283.3	.736	.006
298.2	.731	.006
315.5	.725	.006
333.2	.718	.006
353.1	.71	.006
373	.702	.006

System: 1,2,4,5-tetrafluorobenzene + 1-ethyl-3-methylimidazolium bis[(trifluoromethyl)sulfonyl]imide; phases: Liquid mixture 2, Liquid mixture 1
Fixed: Pressure, kPa = 101
Property: Mole fraction of 1,2,4,5-tetrafluorobenzene (Liquid mixture 2); method: volumetric method
Temperature, K	Mole fraction of 1,2,4,5-tetrafluorobenzene	uncertainty
283.3	.999	.002
298.2	.999	.002
315.5	1	.002
333.2	1	.002
353.1	1	.002
373	1	.002

System: 1,2,4,5-tetrafluorobenzene + 1-ethyl-3-methylimidazolium bis[(trifluoromethyl)sulfonyl]imide; phases: Liquid mixture 1, Liquid mixture 2
Property: Molar volume, m3/mol (Liquid mixture 1); method: Pycnometric method
Temperature, K	Mole fraction of 1,2,4,5-tetrafluorobenzene	Molar volume, m3/mol	uncertainty
283.3	.736	.0001422	.0000026
298.2	.731	.0001449	.0000026
315.5	.725	.0001473	.0000026
333.2	.718	.0001508	.0000026
353.1	.71	.0001551	.0000026
373	.702	.0001595	.0000026

System: 1,2,4,5-tetrafluorobenzene + 1-ethyl-3-methylimidazolium bis[(trifluoromethyl)sulfonyl]imide; phases: Liquid mixture 2, Liquid mixture 1
Property: Molar volume, m3/mol (Liquid mixture 2); method: Pycnometric method
Temperature, K	Mole fraction of 1,2,4,5-tetrafluorobenzene	Molar volume, m3/mol	uncertainty
283.3	.999	.000103	.0000015
298.2	.999	.0001047	.0000015
315.5	1	.0001074	.0000015
333.2	1	.0001095	.0000015
353.1	1	.0001124	.0000015
373	1	.0001157	.0000015

System: benzene, pentafluoro- + 1-ethyl-3-methylimidazolium bis[(trifluoromethyl)sulfonyl]imide; phases: Liquid mixture 1, Liquid mixture 2
Fixed: Pressure, kPa = 101
Property: Mole fraction of benzene, pentafluoro- (Liquid mixture 1); method: volumetric method
Temperature, K	Mole fraction of benzene, pentafluoro-	uncertainty
283.4	.715	.008
298.2	.704	.008
316.6	.696	.008
333.2	.681	.008
353.1	.669	.008
373	.657	.008

System: benzene, pentafluoro- + 1-ethyl-3-methylimidazolium bis[(trifluoromethyl)sulfonyl]imide; phases: Liquid mixture 2, Liquid mixture 1
Fixed: Pressure, kPa = 101
Property: Mole fraction of benzene, pentafluoro- (Liquid mixture 2); method: volumetric method
Temperature, K	Mole fraction of benzene, pentafluoro-	uncertainty
283.4	.997	.004
298.2	.998	.004
316.6	.997	.004
333.2	1	.004
353.1	1	.004
373	1	.004

System: benzene, pentafluoro- + 1-ethyl-3-methylimidazolium bis[(trifluoromethyl)sulfonyl]imide; phases: Liquid mixture 1, Liquid mixture 2
Property: Molar volume, m3/mol (Liquid mixture 1); method: Pycnometric method
Temperature, K	Mole fraction of benzene, pentafluoro-	Molar volume, m3/mol	uncertainty
283.4	.715	.0001484	.0000031
298.2	.704	.0001523	.0000031
316.6	.696	.0001552	.0000031
333.2	.681	.0001605	.0000031
353.1	.669	.0001652	.0000031
373	.657	.0001692	.0000031

System: benzene, pentafluoro- + 1-ethyl-3-methylimidazolium bis[(trifluoromethyl)sulfonyl]imide; phases: Liquid mixture 2, Liquid mixture 1
Property: Molar volume, m3/mol (Liquid mixture 2); method: Pycnometric method
Temperature, K	Mole fraction of benzene, pentafluoro-	Molar volume, m3/mol	uncertainty
283.4	.997	.0001093	.0000024
298.2	.998	.0001109	.0000024
316.6	.997	.0001139	.0000024
333.2	1	.0001155	.0000024
353.1	1	.0001187	.0000024
373	1	.0001228	.0000024
