Measured thermophysical data. Shear Viscosity of Mixtures of r-Tocopherol with Nonpolar Solvents
Source: J. Chem. Eng. Data, 2009, 10.1021/je800439e
Compound 1: dl-.alpha.-tocopherol, C29H50O2
Compound 2: 1,3,5-trimethylbenzene, C9H12
Compound 3: 1-pentyl-4-(4-propylcyclohexyl)-benzene, C20H32

System: dl-.alpha.-tocopherol; phases: Liquid
Property: Viscosity, Pa*s (Liquid); method: Cone and plate viscometry
Temperature, K	Pressure, kPa	Viscosity, Pa*s	uncertainty
278.15	101	37.128	.111384
296.15	101	3.0175	.0090525
314.15	101	.45458	.00136374
330.15	101	.1292	.0003876
345.15	101	.04998	.00014994
284.15	101	15.242	.045726
302.15	101	1.531	.004593
320.15	101	.28356	.00085068
335.15	101	.09265	.00027795
350.15	101	.0374	.0001122
290.15	101	6.38	.01914
308.15	101	.81481	.00244443
325.15	101	.18751	.00056253
340.15	101	.06732	.00020196
290.15	101	6.3801	.0191403

System: 1,3,5-trimethylbenzene; phases: Liquid
Property: Viscosity, Pa*s (Liquid); method: Cone and plate viscometry
Temperature, K	Pressure, kPa	Viscosity, Pa*s	uncertainty
278.15	101	.00085	.00000255
296.15	101	.00063	.00000189
314.15	101	.00049	.00000147
330.15	101	.00041	.00000123
345.15	101	.00035	.00000105
284.15	101	.0008	.0000024
302.15	101	.00057	.00000171
320.15	101	.00046	.00000138
335.15	101	.0004	.0000012
350.15	101	.00034	.00000102
290.15	101	.00075	.00000225
308.15	101	.00053	.00000159
325.15	101	.00044	.00000132
340.15	101	.00039	.00000117

System: 1-pentyl-4-(4-propylcyclohexyl)-benzene; phases: Liquid
Property: Viscosity, Pa*s (Liquid); method: Cone and plate viscometry
Temperature, K	Pressure, kPa	Viscosity, Pa*s	uncertainty
278.15	101	.02774	.00008322
296.15	101	.0135	.0000405
314.15	101	.00764	.00002292
330.15	101	.00519	.00001557
345.15	101	.00368	.00001104
284.15	101	.02148	.00006444
302.15	101	.01109	.00003327
320.15	101	.00658	.00001974
335.15	101	.00457	.00001371
350.15	101	.00329	.00000987
290.15	101	.01695	.00005085
308.15	101	.00921	.00002763
325.15	101	.00601	.00001803
340.15	101	.00413	.00001239

System: dl-.alpha.-tocopherol + 1-pentyl-4-(4-propylcyclohexyl)-benzene; phases: Liquid
Fixed: Pressure, kPa = 101
Property: Viscosity, Pa*s (Liquid); method: Cone and plate viscometry
Mole fraction of dl-.alpha.-tocopherol	Temperature, K	Viscosity, Pa*s	uncertainty
0	278.15	.02774	.00008322
.2058	278.15	.07595	.00022785
.4023	278.15	.38428	.00115284
.6026	278.15	1.2706	.0038118
.8018	278.15	7.4719	.0224157
1	278.15	37.128	.111384
0	296.15	.0135	.0000405
.2058	296.15	.0281	.0000843
.4023	296.15	.09637	.00028911
.6026	296.15	.26641	.00079923
.8018	296.15	.91116	.00273348
1	296.15	3.0175	.0090525
0	314.15	.00764	.00002292
.2058	314.15	.01317	.00003951
.4023	314.15	.03391	.00010173
.6026	314.15	.07105	.00021315
.8018	314.15	.17309	.00051927
1	314.15	.45458	.00136374
0	330.15	.00519	.00001557
.2058	330.15	.00798	.00002394
.4023	330.15	.01686	.00005058
.6026	330.15	.0302	.0000906
.8018	330.15	.06104	.00018312
1	330.15	.1292	.0003876
0	345.15	.00368	.00001104
.2058	345.15	.00537	.00001611
.4023	345.15	.00997	.00002991
.6026	345.15	.0161	.0000483
.8018	345.15	.02732	.00008196
1	345.15	.04998	.00014994
0	284.15	.02148	.00006444
.2058	284.15	.05348	.00016044
.4023	284.15	.2316	.0006948
.6026	284.15	.79438	.00238314
.8018	284.15	3.4882	.0104646
1	284.15	15.242	.045726
0	302.15	.01109	.00003327
.2058	302.15	.02157	.00006471
.4023	302.15	.06592	.00019776
.6026	302.15	.16327	.00048981
.8018	302.15	.48533	.00145599
1	302.15	1.531	.004593
0	320.15	.00658	.00001974
.2058	320.15	.01098	.00003294
.4023	320.15	.02601	.00007803
.6026	320.15	.05166	.00015498
.8018	320.15	.12077	.00036231
1	320.15	.28356	.00085068
0	335.15	.00457	.00001371
.2058	335.15	.00685	.00002055
.4023	335.15	.01403	.00004209
.6026	335.15	.02408	.00007224
.8018	335.15	.04615	.00013845
1	335.15	.09265	.00027795
0	350.15	.00329	.00000987
.2058	350.15	.0047	.0000141
.4023	350.15	.00855	.00002565
.6026	350.15	.0133	.0000399
.8018	350.15	.02224	.00006672
1	350.15	.0374	.0001122
0	290.15	.01695	.00005085
.2058	290.15	.03825	.00011475
.4023	290.15	.14552	.00043656
.6026	290.15	.44194	.00132582
.8018	290.15	1.6699	.0050097
1	290.15	6.38	.01914
0	308.15	.00921	.00002763
.2058	308.15	.0168	.0000504
.4023	308.15	.04614	.00013842
.6026	308.15	.10633	.00031899
.8018	308.15	.27853	.00083559
1	308.15	.81481	.00244443
0	325.15	.00601	.00001803
.2058	325.15	.00933	.00002799
.4023	325.15	.02065	.00006195
.6026	325.15	.03936	.00011808
.8018	325.15	.08286	.00024858
1	325.15	.18751	.00056253
0	340.15	.00413	.00001239
.2058	340.15	.00604	.00001812
.4023	340.15	.01175	.00003525
.6026	340.15	.01947	.00005841
.8018	340.15	.03524	.00010572
1	340.15	.06732	.00020196

System: 1,3,5-trimethylbenzene + dl-.alpha.-tocopherol; phases: Liquid
Fixed: Pressure, kPa = 101
Property: Viscosity, Pa*s (Liquid); method: Cone and plate viscometry
Mole fraction of dl-.alpha.-tocopherol	Temperature, K	Viscosity, Pa*s	uncertainty
0	278.15	.00085	.00000255
.2025	278.15	.00685	.00002055
.4036	278.15	.14808	.00044424
.5972	278.15	1.2536	.0037608
.7955	278.15	5.9447	.0178341
1	278.15	37.128	.111384
0	296.15	.00063	.00000189
.2025	296.15	.00388	.00001164
.4036	296.15	.038	.000114
.5972	296.15	.21082	.00063246
.7955	296.15	.81967	.00245901
1	296.15	3.0175	.0090525
0	314.15	.00049	.00000147
.2025	314.15	.00239	.00000717
.4036	314.15	.01443	.00004329
.5972	314.15	.05552	.00016656
.7955	314.15	.17398	.00052194
1	314.15	.45458	.00136374
0	330.15	.00041	.00000123
.2025	330.15	.00183	.00000549
.4036	330.15	.00775	.00002325
.5972	330.15	.02373	.00007119
.7955	330.15	.0601	.0001803
1	330.15	.1292	.0003876
0	345.15	.00035	.00000105
.2025	345.15	.00152	.00000456
.4036	345.15	.00481	.00001443
.5972	345.15	.01233	.00003699
.7955	345.15	.02647	.00007941
1	345.15	.04998	.00014994
0	284.15	.0008	.0000024
.2025	284.15	.00555	.00001665
.4036	284.15	.09232	.00027696
.5972	284.15	.65851	.00197553
.7955	284.15	3.0376	.0091128
1	284.15	15.242	.045726
0	302.15	.00057	.00000171
.2025	302.15	.00324	.00000972
.4036	302.15	.02665	.00007995
.5972	302.15	.13099	.00039297
.7955	302.15	.47736	.00143208
1	302.15	1.531	.004593
0	320.15	.00046	.00000138
.2025	320.15	.00214	.00000642
.4036	320.15	.01142	.00003426
.5972	320.15	.04057	.00012171
.7955	320.15	.116	.000348
1	320.15	.28356	.00085068
0	335.15	.0004	.0000012
.2025	335.15	.00172	.00000516
.4036	335.15	.00656	.00001968
.5972	335.15	.01889	.00005667
.7955	335.15	.04563	.00013689
1	335.15	.09265	.00027795
0	350.15	.00034	.00000102
.2025	350.15	.00137	.00000411
.4036	350.15	.00425	.00001275
.5972	350.15	.0105	.0000315
.7955	350.15	.02144	.00006432
1	350.15	.0374	.0001122
0	290.15	.00075	.00000225
.2025	290.15	.0046	.0000138
.4036	290.15	.05698	.00017094
.5972	290.15	.35726	.00107178
.7955	290.15	1.5332	.0045996
1	290.15	6.3801	.0191403
0	308.15	.00053	.00000159
.2025	308.15	.00294	.00000882
.4036	308.15	.01906	.00005718
.5972	308.15	.08396	.00025188
.7955	308.15	.27612	.00082836
1	308.15	.81481	.00244443
0	325.15	.00044	.00000132
.2025	325.15	.00196	.00000588
.4036	325.15	.00928	.00002784
.5972	325.15	.03055	.00009165
.7955	325.15	.08201	.00024603
1	325.15	.18751	.00056253
0	340.15	.00039	.00000117
.2025	340.15	.00165	.00000495
.4036	340.15	.00559	.00001677
.5972	340.15	.01533	.00004599
.7955	340.15	.03446	.00010338
1	340.15	.06732	.00020196
