Measured thermophysical data. Synthesis and Physical Properties of 1-Ethylpyridinium Ethylsulfate and its  Binary Mixtures with Ethanol and 1-Propanol at Several Temperatures
Source: J. Chem. Eng. Data, 2009, 10.1021/je800981d
Compound 1: ethanol, C2H6O, purity 99.8%
Compound 2: 1-propanol, C3H8O, purity 99.9%
Compound 3: 1-ethylpyridinium ethylsulfate, C9H15NO4S, purity 99%

System: ethanol; phases: Liquid
Property: Mass density, kg/m3 (Liquid); method: Vibrating tube method
Temperature, K	Pressure, kPa	Mass density, kg/m3	uncertainty
298.15	101	785.5	.1
313.15	101	772	.1
328.15	101	758.6	.1

System: ethanol; phases: Liquid
Property: Viscosity, Pa*s (Liquid); method: Capillary tube (Ostwald; Ubbelohde) method
Temperature, K	Pressure, kPa	Viscosity, Pa*s	uncertainty
298.15	101	.001082	.0002
313.15	101	.000827	.0002
328.15	101	.000641	.0002

System: ethanol; phases: Liquid
Fixed: Pressure, kPa = 101.325
Property: Refractive index (Na D-line) (Liquid); method: Standard Abbe refractometry
Temperature, K	Refractive index (Na D-line)	uncertainty
298.15	1.36023	.00004

System: ethanol; phases: Liquid
Property: Speed of sound, m/s (Liquid); method: Pulse-echo method
Temperature, K	Pressure, kPa	Speed of sound, m/s	uncertainty
298.15	101	1146	1
313.15	101	1093	1
328.15	101	1043	1

System: 1-propanol; phases: Liquid
Property: Mass density, kg/m3 (Liquid); method: Vibrating tube method
Temperature, K	Pressure, kPa	Mass density, kg/m3	uncertainty
298.15	101	799.6	.1
313.15	101	787.4	.1
328.15	101	774.8	.1

System: 1-propanol; phases: Liquid
Property: Viscosity, Pa*s (Liquid); method: Capillary tube (Ostwald; Ubbelohde) method
Temperature, K	Pressure, kPa	Viscosity, Pa*s	uncertainty
298.15	101	.002017	.0002
313.15	101	.00143	.0002
328.15	101	.001041	.0002

System: 1-propanol; phases: Liquid
Fixed: Pressure, kPa = 101.325
Property: Refractive index (Na D-line) (Liquid); method: Standard Abbe refractometry
Temperature, K	Refractive index (Na D-line)	uncertainty
298.15	1.3831	.00004

System: 1-propanol; phases: Liquid
Property: Speed of sound, m/s (Liquid); method: Pulse-echo method
Temperature, K	Pressure, kPa	Speed of sound, m/s	uncertainty
298.15	101	1207	1
313.15	101	1155	1
328.15	101	1105	1

System: 1-ethylpyridinium ethylsulfate; phases: Liquid
Fixed: Pressure, kPa = 101.325
Property: Mass density, kg/m3 (Liquid); method: Vibrating tube method
Temperature, K	Mass density, kg/m3	uncertainty
298.15	1252	.1
303.15	1248.7	.1
308.15	1245.4	.1
313.15	1242.1	.1
318.15	1238.8	.1
323.15	1235.6	.1
328.15	1232.3	.1
333.15	1229.1	.1
338.15	1225.9	.1
343.15	1222.7	.1

System: 1-ethylpyridinium ethylsulfate; phases: Liquid
Fixed: Pressure, kPa = 101.325
Property: Refractive index (Na D-line) (Liquid); method: Standard Abbe refractometry
Temperature, K	Refractive index (Na D-line)	uncertainty
298.15	1.50525	.00004
303.15	1.50394	.00004
308.15	1.50258	.00004
313.15	1.5012	.00004
318.15	1.49976	.00004
323.15	1.4985	.00004
328.15	1.4972	.00004
333.15	1.49587	.00004
338.15	1.49454	.00004
343.15	1.49309	.00004
298.15	1.50252	.00004

System: 1-ethylpyridinium ethylsulfate; phases: Liquid
Fixed: Pressure, kPa = 101.325
Property: Speed of sound, m/s (Liquid); method: Pulse-echo method
Temperature, K	Speed of sound, m/s	uncertainty
298.15	1711	1
303.15	1699	1
308.15	1687	1
313.15	1676	1
318.15	1664	1
323.15	1653	1
328.15	1641	1
333.15	1630	1
338.15	1619	1
343.15	1608	1

System: 1-ethylpyridinium ethylsulfate; phases: Liquid
Fixed: Pressure, kPa = 101.325
Property: Viscosity, Pa*s (Liquid); method: Capillary tube (Ostwald; Ubbelohde) method
Temperature, K	Viscosity, Pa*s	uncertainty
298.15	.1263	.0002
303.15	.093	.0002
308.15	.0721	.0002
313.15	.0576	.0002
318.15	.0464	.0002
323.15	.0386	.0002
328.15	.03253	.0002
333.15	.02778	.0002
338.15	.0239	.0002
343.15	.02071	.0002

System: 1-ethylpyridinium ethylsulfate; phases: Liquid
Property: Viscosity, Pa*s (Liquid); method: Capillary tube (Ostwald; Ubbelohde) method
Temperature, K	Pressure, kPa	Viscosity, Pa*s	uncertainty
328.15	101	.0386	.0002

System: ethanol + 1-ethylpyridinium ethylsulfate; phases: Liquid
Fixed: Pressure, kPa = 101
Property: Mass density, kg/m3 (Liquid); method: Vibrating tube method
Temperature, K	Mole fraction of ethanol	Mass density, kg/m3	uncertainty
298.15	0	1252	.1
298.15	.0476	1245.3	.1
298.15	.1993	1220.8	.1
298.15	.2992	1201.2	.1
298.15	.5009	1147.2	.1
298.15	.6033	1109.2	.1
298.15	.7023	1062	.1
298.15	.8016	999.9	.1
298.15	.899	915.5	.1
298.15	.9476	860.1	.1
298.15	1	785.5	.1
313.15	0	1242.1	.1
313.15	.0476	1235.3	.1
313.15	.1993	1210.8	.1
313.15	.2992	1190.9	.1
313.15	.5009	1136.4	.1
313.15	.6033	1098.4	.1
313.15	.7023	1051	.1
313.15	.8016	988.1	.1
313.15	.899	903.3	.1
313.15	.9476	847.5	.1
313.15	1	772	.1
328.15	0	1232.3	.1
328.15	.0476	1225.3	.1
328.15	.1993	1200.7	.1
328.15	.2992	1180.7	.1
328.15	.5009	1125.9	.1
328.15	.6033	1087.7	.1
328.15	.7023	1039.9	.1
328.15	.8016	976.6	.1
328.15	.899	890.1	.1
328.15	.9476	834.1	.1
328.15	1	758.6	.1

System: ethanol + 1-ethylpyridinium ethylsulfate; phases: Liquid
Fixed: Pressure, kPa = 101
Property: Viscosity, Pa*s (Liquid); method: Capillary tube (Ostwald; Ubbelohde) method
Temperature, K	Mole fraction of ethanol	Viscosity, Pa*s	uncertainty
298.15	0	.1263	.0002
298.15	.0476	.1033	.0002
298.15	.1993	.0584	.0002
298.15	.2992	.0403	.0002
298.15	.5009	.01727	.0002
298.15	.6033	.01079	.0002
298.15	.7023	.00663	.0002
298.15	.8016	.003947	.0002
298.15	.899	.002244	.0002
298.15	.9476	.001641	.0002
298.15	1	.001082	.0002
313.15	0	.0576	.0002
313.15	.0476	.0503	.0002
313.15	.1993	.0339	.0002
313.15	.2992	.02351	.0002
313.15	.5009	.01139	.0002
313.15	.6033	.00707	.0002
313.15	.7023	.0048	.0002
313.15	.8016	.002943	.0002
313.15	.899	.001717	.0002
313.15	.9476	.001261	.0002
313.15	1	.000827	.0002
328.15	0	.0386	.0002
328.15	.0476	.03414	.0002
328.15	.1993	.02238	.0002
328.15	.2992	.0152	.0002
328.15	.5009	.008015	.0002
328.15	.6033	.005198	.0002
328.15	.7023	.003642	.0002
328.15	.8016	.002287	.0002
328.15	.899	.001344	.0002
328.15	.9476	.000987	.0002
328.15	1	.000641	.0002

System: ethanol + 1-ethylpyridinium ethylsulfate; phases: Liquid
Fixed: Pressure, kPa = 101
Property: Refractive index (Na D-line) (Liquid); method: Standard Abbe refractometry
Temperature, K	Mole fraction of ethanol	Refractive index (Na D-line)	uncertainty
298.15	0	1.50252	.00004
298.15	.0476	1.50313	.00004
298.15	.1993	1.49585	.00004
298.15	.2992	1.48987	.00004
298.15	.5009	1.47321	.00004
298.15	.6033	1.46152	.00004
298.15	.7023	1.44693	.00004
298.15	.8016	1.42734	.00004
298.15	.899	1.40078	.00004
298.15	.9476	1.38342	.00004
298.15	1	1.36023	.00004

System: ethanol + 1-ethylpyridinium ethylsulfate; phases: Liquid
Fixed: Pressure, kPa = 101
Property: Speed of sound, m/s (Liquid); method: Pulse-echo method
Temperature, K	Mole fraction of ethanol	Speed of sound, m/s	uncertainty
298.15	0	1711	1
298.15	.0476	1700	1
298.15	.1993	1661	1
298.15	.2992	1630	1
298.15	.5009	1546	1
298.15	.6033	1491	1
298.15	.7023	1428	1
298.15	.8016	1349	1
298.15	.899	1258	1
298.15	.9476	1206	1
298.15	1	1146	1
313.15	0	1676	1
313.15	.0476	1665	1
313.15	.1993	1625	1
313.15	.2992	1593	1
313.15	.5009	1508	1
313.15	.6033	1453	1
313.15	.7023	1388	1
313.15	.8016	1308	1
313.15	.899	1214	1
313.15	.9476	1160	1
313.15	1	1093	1
328.15	0	1641	1
328.15	.0476	1631	1
328.15	.1993	1591	1
328.15	.2992	1558	1
328.15	.5009	1472	1
328.15	.6033	1388	1
328.15	.7023	1350	1
328.15	.8016	1267	1
328.15	.899	1170	1
328.15	.9476	1113	1
328.15	1	1043	1

System: 1-propanol + 1-ethylpyridinium ethylsulfate; phases: Liquid
Fixed: Pressure, kPa = 101
Property: Mass density, kg/m3 (Liquid); method: Vibrating tube method
Temperature, K	Mole fraction of 1-propanol	Mass density, kg/m3	uncertainty
298.15	0	1252	.1
298.15	.0814	1237.2	.1
298.15	.1994	1212.7	.1
298.15	.3084	1186.1	.1
298.15	.4035	1159	.1
298.15	.5077	1123.8	.1
298.15	.6013	1085.8	.1
298.15	.7016	1036.7	.1
298.15	.8004	976.9	.1
298.15	.9002	900.6	.1
298.15	.9521	852.4	.1
298.15	1	799.6	.1
313.15	0	1242.1	.1
313.15	.0814	1227.4	.1
313.15	.1994	1202.7	.1
313.15	.3084	1176.1	.1
313.15	.4035	1148.5	.1
313.15	.5077	1113	.1
313.15	.6013	1074.8	.1
313.15	.7016	1025.2	.1
313.15	.8004	965.3	.1
313.15	.9002	888.9	.1
313.15	.9521	840.3	.1
313.15	1	787.4	.1
328.15	0	1232.3	.1
328.15	.0814	1217.6	.1
328.15	.1994	1192.7	.1
328.15	.3084	1165.9	.1
328.15	.4035	1138.3	.1
328.15	.5077	1102.6	.1
328.15	.6013	1064.2	.1
328.15	.7016	1014.3	.1
328.15	.8004	954.1	.1
328.15	.9002	877.1	.1
328.15	.9521	828.1	.1
328.15	1	774.8	.1

System: 1-propanol + 1-ethylpyridinium ethylsulfate; phases: Liquid
Fixed: Pressure, kPa = 101
Property: Viscosity, Pa*s (Liquid); method: Capillary tube (Ostwald; Ubbelohde) method
Temperature, K	Mole fraction of 1-propanol	Viscosity, Pa*s	uncertainty
298.15	0	.1263	.0002
298.15	.0814	.0952	.0002
298.15	.1994	.0627	.0002
298.15	.3084	.0436	.0002
298.15	.4035	.03003	.0002
298.15	.5077	.02012	.0002
298.15	.6013	.01368	.0002
298.15	.7016	.00884	.0002
298.15	.8004	.005597	.0002
298.15	.9002	.003483	.0002
298.15	.9521	.002676	.0002
298.15	1	.002017	.0002
313.15	0	.0576	.0002
313.15	.0814	.048	.0002
313.15	.1994	.03423	.0002
313.15	.3084	.02521	.0002
313.15	.4035	.01831	.0002
313.15	.5077	.01291	.0002
313.15	.6013	.009161	.0002
313.15	.7016	.006131	.0002
313.15	.8004	.003988	.0002
313.15	.9002	.002507	.0002
313.15	.9521	.001921	.0002
313.15	1	.00143	.0002
328.15	0	.0386	.0002
328.15	.0814	.03249	.0002
328.15	.1994	.02331	.0002
328.15	.3084	.01727	.0002
328.15	.4035	.01221	.0002
328.15	.5077	.008898	.0002
328.15	.6013	.006523	.0002
328.15	.7016	.004494	.0002
328.15	.8004	.002977	.0002
328.15	.9002	.001874	.0002
328.15	.9521	.001411	.0002
328.15	1	.001041	.0002

System: 1-propanol + 1-ethylpyridinium ethylsulfate; phases: Liquid
Fixed: Pressure, kPa = 101
Property: Refractive index (Na D-line) (Liquid); method: Standard Abbe refractometry
Temperature, K	Mole fraction of 1-propanol	Refractive index (Na D-line)	uncertainty
298.15	0	1.50525	.00004
298.15	.0814	1.50137	.00004
298.15	.1994	1.49499	.00004
298.15	.3084	1.48804	.00004
298.15	.4035	1.48081	.00004
298.15	.5077	1.47142	.00004
298.15	.6013	1.46126	.00004
298.15	.7016	1.44802	.00004
298.15	.8004	1.43181	.00004
298.15	.9002	1.411	.00004
298.15	.9521	1.39773	.00004
298.15	1	1.3831	.00004

System: 1-propanol + 1-ethylpyridinium ethylsulfate; phases: Liquid
Fixed: Pressure, kPa = 101
Property: Speed of sound, m/s (Liquid); method: Pulse-echo method
Temperature, K	Mole fraction of 1-propanol	Speed of sound, m/s	uncertainty
298.15	0	1711	1
298.15	.0814	1689	1
298.15	.1994	1649	1
298.15	.3084	1608	1
298.15	.4035	1565	1
298.15	.5077	1516	1
298.15	.6013	1466	1
298.15	.7016	1409	1
298.15	.8004	1347	1
298.15	.9002	1279	1
298.15	.9521	1244	1
298.15	1	1207	1
313.15	0	1676	1
313.15	.0814	1654	1
313.15	.1994	1613	1
313.15	.3084	1572	1
313.15	.4035	1528	1
313.15	.5077	1478	1
313.15	.6013	1427	1
313.15	.7016	1367	1
313.15	.8004	1304	1
313.15	.9002	1234	1
313.15	.9521	1195	1
313.15	1	1155	1
328.15	0	1641	1
328.15	.0814	1619	1
328.15	.1994	1578	1
328.15	.3084	1537	1
328.15	.4035	1493	1
328.15	.5077	1440	1
328.15	.6013	1388	1
328.15	.7016	1327	1
328.15	.8004	1262	1
328.15	.9002	1189	1
328.15	.9521	1147	1
328.15	1	1105	1
