Measured thermophysical data. Solubility and Stability of Nesquehonite MgCO3*3H2O) in NaCl, KCl, MgCl2, and NH4Cl Solutions
Source: J. Chem. Eng. Data, 2008, 10.1021/je800438p
Compound 1: nesquehonite, CH6MgO6
Compound 2: magnesium chloride, Cl2Mg
Compound 3: ammonium chloride, ClH4N
Compound 4: sodium chloride, ClNa
Compound 5: potassium chloride, ClK
Compound 6: water, H2O

System: water + nesquehonite; phases: Liquid, Crystal
Fixed: Pressure, kPa = 101
Property: Molality, mol/kg of nesquehonite (Liquid); method: gravimetric method
Temperature, K	Molality, mol/kg of nesquehonite	uncertainty
298.15	.009448	.00226
298.15	.009612	.00226
303.15	.008782	.00226
313.15	.008745	.00226
313.15	.008757	.00226
313.15	.008893	.00226
323.15	.01188	.00226
323.15	.01217	.00226
333.15	.0193	.00226
333.15	.01831	.00226
333.15	.01707	.00226
343.15	.009944	.00226

System: sodium chloride + water + nesquehonite; phases: Liquid, Crystal
Fixed: Pressure, kPa = 101
Property: Molality, mol/kg of nesquehonite (Liquid); method: gravimetric method
Temperature, K	Solvent: Amount concentration (molarity), mol/dm3 of sodium chloride	Molality, mol/kg of nesquehonite	uncertainty
288.15	.1	.01343	.00226
288.15	.3	.01848	.00226
288.15	.5	.02172	.00226
288.15	.7	.02363	.00226
288.15	.9	.02555	.00226
288.15	1	.02658	.00226
288.15	1.5	.02868	.00226
288.15	2	.02999	.00226
288.15	2.5	.03053	.00226
288.15	3	.02925	.00226
288.15	3.5	.02853	.00226
288.15	4	.0256	.00226
298.15	.1	.01272	.00226
298.15	.3	.01641	.00226
298.15	.5	.01973	.00226
298.15	.7	.02142	.00226
298.15	.9	.02314	.00226
298.15	1	.02282	.00226
298.15	1.5	.02604	.00226
298.15	2	.0265	.00226
298.15	2.5	.02726	.00226
298.15	3	.02732	.00226
298.15	3.5	.02623	.00226
298.15	4	.02521	.00226
308.15	.1	.01191	.00226
308.15	.3	.01578	.00226
308.15	.5	.01802	.00226
308.15	.7	.02015	.00226
308.15	.9	.02166	.00226
308.15	1	.02205	.00226
308.15	1.5	.02409	.00226
308.15	2	.02528	.00226
308.15	2.5	.02589	.00226
308.15	3	.02603	.00226
308.15	3.5	.02517	.00226
308.15	4	.02392	.00226

System: water + ammonium chloride + nesquehonite; phases: Liquid, Crystal
Fixed: Pressure, kPa = 101
Property: Molality, mol/kg of nesquehonite (Liquid); method: gravimetric method
Temperature, K	Solvent: Amount concentration (molarity), mol/dm3 of water	Molality, mol/kg of nesquehonite	uncertainty
288.15	.1	.03197	.00226
288.15	.3	.05513	.00226
288.15	.5	.0679	.00226
288.15	.7	.08309	.00226
288.15	.9	.08983	.00226
288.15	1	.09262	.00226
288.15	1.5	.1089	.00226
288.15	2	.1224	.00226
288.15	2.5	.1388	.00226
288.15	3	.1492	.00226
288.15	3.5	.1544	.00226
298.15	.1	.0333	.00226
298.15	.3	.05589	.00226
298.15	.5	.07081	.00226
298.15	.7	.08284	.00226
298.15	.9	.09382	.00226
298.15	1	.09836	.00226
298.15	1.5	.11821	.00226
298.15	2	.1329	.00226
298.15	2.5	.14676	.00226
298.15	3	.15598	.00226
298.15	3.5	.16397	.00226
308.15	.1	.03562	.00226
308.15	.3	.05916	.00226
308.15	.5	.07172	.00226
308.15	.7	.08931	.00226
308.15	.9	.09911	.00226
308.15	1	.10201	.00226
308.15	1.5	.12471	.00226
308.15	2	.14122	.00226
308.15	2.5	.15439	.00226
308.15	3	.16854	.00226
308.15	3.5	.1756	.00226

System: water + magnesium chloride + nesquehonite; phases: Liquid, Crystal
Fixed: Pressure, kPa = 101
Property: Molality, mol/kg of nesquehonite (Liquid); method: gravimetric method
Temperature, K	Solvent: Amount concentration (molarity), mol/dm3 of water	Molality, mol/kg of nesquehonite	uncertainty
288.15	.1	.009477	.00226
288.15	.3	.01168	.00226
288.15	.5	.01407	.00226
288.15	.7	.0153	.00226
288.15	.9	.01766	.00226
288.15	1	.01871	.00226
288.15	1.5	.02353	.00226
288.15	2	.02771	.00226
288.15	2.5	.03649	.00226
288.15	3	.04185	.00226
288.15	3.5	.04766	.00226
288.15	4	.06103	.00226
298.15	.1	.01559	.00226
298.15	.3	.01651	.00226
298.15	.5	.01824	.00226
298.15	.7	.01985	.00226
298.15	.9	.02143	.00226
298.15	1	.02258	.00226
298.15	1.5	.02713	.00226
298.15	2	.03251	.00226
298.15	2.5	.03848	.00226
298.15	3	.04836	.00226
298.15	3.5	.05369	.00226
298.15	4	.05835	.00226
308.15	.1	.02062	.00226
308.15	.3	.02124	.00226
308.15	.5	.02206	.00226
308.15	.7	.02298	.00226
308.15	.9	.02277	.00226
308.15	1	.02588	.00226
308.15	1.5	.02785	.00226
308.15	2	.03002	.00226
308.15	2.5	.03358	.00226
308.15	3	.03565	.00226
308.15	3.5	.03859	.00226
308.15	4	.04118	.00226

System: potassium chloride + water + nesquehonite; phases: Liquid, Crystal
Fixed: Pressure, kPa = 101
Property: Molality, mol/kg of nesquehonite (Liquid); method: gravimetric method
Temperature, K	Solvent: Amount concentration (molarity), mol/dm3 of water	Molality, mol/kg of nesquehonite	uncertainty
298.15	.1	.01278	.00226
298.15	.2	.01503	.00226
298.15	.3	.01705	.00226
298.15	.35	.0176	.00226
298.15	.4	.01893	.00226
298.15	.5	.0195	.00226
298.15	.55	.01964	.00226
298.15	.6	.02032	.00226
298.15	.7	.02101	.00226
298.15	.8	.02175	.00226
298.15	.9	.02214	.00226
298.15	1	.02278	.00226
