Measured thermophysical data. Solubilities of Cinnamic Acid Esters in Ionic Liquids
Source: J. Chem. Eng. Data, 2009, 10.1021/je800596c
Compound 1: 2-propenoic acid, 3-(4-hydroxyphenyl)-, methyl ester, C10H10O3
Compound 2: 2-propenoic acid, 3-(4-hydroxy-3-methoxyphenyl)-, methyl ester, C11H12O4
Compound 3: 3,5-dimethoxy-4-hydroxy cinnamic acid methyl ester, C12H14O5
Compound 4: 1-n-butyl-3-methylimidazolium hexafluorophosphate, C8H15F6N2P
Compound 5: 1-octyl-3-methylimidazolium hexafluorophosphate, C12H23F6N2P
Compound 6: 3-(2-hydroxyethyl)-1-methylimidazolium hexafluorophosphate, C6H11F6N2OP
Compound 7: 1-(2-methoxyethyl)-3-methyl-imidazolium hexafluorophosphate, C6H10F6N2OP
Compound 8: 1-butyl-3-methylimidazolium tetrafluoroborate, C8H15BF4N2
Compound 9: 1-octyl-3-methylimidazolium tetrafluoroborate, C12H23BF4N2
Compound 10: 1-(2-hydroxyethyl)-3-methylimidazolium tetrafluoroborate, C6H11N2OBF4
Compound 11: 1-(2-methoxyethyl)-3-methyl-imidazolium tetrafluoroborate, C6H10BF4N2O

System: 2-propenoic acid, 3-(4-hydroxyphenyl)-, methyl ester; phases: Crystal, Liquid, Air at 1 atmosphere
Property: Normal melting temperature, K (Crystal); method: DSC/DTA
Normal melting temperature, K	uncertainty
410.71	

System: 2-propenoic acid, 3-(4-hydroxyphenyl)-, methyl ester; phases: Crystal, Liquid, Air at 1 atmosphere
Property: Molar enthalpy of transition or fusion, kJ/mol (Crystal); method: DSC/DTA
Molar enthalpy of transition or fusion, kJ/mol	uncertainty
30.216	

System: 2-propenoic acid, 3-(4-hydroxy-3-methoxyphenyl)-, methyl ester; phases: Crystal, Liquid, Air at 1 atmosphere
Property: Normal melting temperature, K (Crystal); method: DSC/DTA
Normal melting temperature, K	uncertainty
335.71	

System: 2-propenoic acid, 3-(4-hydroxy-3-methoxyphenyl)-, methyl ester; phases: Crystal, Liquid, Air at 1 atmosphere
Property: Molar enthalpy of transition or fusion, kJ/mol (Crystal); method: DSC/DTA
Molar enthalpy of transition or fusion, kJ/mol	uncertainty
25.836	

System: 3,5-dimethoxy-4-hydroxy cinnamic acid methyl ester; phases: Crystal, Liquid, Air at 1 atmosphere
Property: Normal melting temperature, K (Crystal); method: DSC/DTA
Normal melting temperature, K	uncertainty
361.79	

System: 3,5-dimethoxy-4-hydroxy cinnamic acid methyl ester; phases: Crystal, Liquid, Air at 1 atmosphere
Property: Molar enthalpy of transition or fusion, kJ/mol (Crystal); method: DSC/DTA
Molar enthalpy of transition or fusion, kJ/mol	uncertainty
29.858	

System: 2-propenoic acid, 3-(4-hydroxyphenyl)-, methyl ester + 1-n-butyl-3-methylimidazolium hexafluorophosphate; phases: Liquid, Crystal
Fixed: Pressure, kPa = 101
Property: Mole fraction of 2-propenoic acid, 3-(4-hydroxyphenyl)-, methyl ester (Liquid); method: Chromatography
Temperature, K	Mole fraction of 2-propenoic acid, 3-(4-hydroxyphenyl)-, methyl ester	uncertainty
303.15	.026	
312.15	.042	
321.15	.056	

System: 2-propenoic acid, 3-(4-hydroxy-3-methoxyphenyl)-, methyl ester + 1-n-butyl-3-methylimidazolium hexafluorophosphate; phases: Liquid, Crystal
Fixed: Pressure, kPa = 101
Property: Mole fraction of 2-propenoic acid, 3-(4-hydroxy-3-methoxyphenyl)-, methyl ester (Liquid); method: Chromatography
Temperature, K	Mole fraction of 2-propenoic acid, 3-(4-hydroxy-3-methoxyphenyl)-, methyl ester	uncertainty
303.15	.201	
312.15	.245	
321.15	.394	

System: 3,5-dimethoxy-4-hydroxy cinnamic acid methyl ester + 1-n-butyl-3-methylimidazolium hexafluorophosphate; phases: Liquid, Crystal
Fixed: Pressure, kPa = 101
Property: Mole fraction of 3,5-dimethoxy-4-hydroxy cinnamic acid methyl ester (Liquid); method: Chromatography
Temperature, K	Mole fraction of 3,5-dimethoxy-4-hydroxy cinnamic acid methyl ester	uncertainty
303.15	.124	
312.15	.175	
321.15	.197	

System: 2-propenoic acid, 3-(4-hydroxyphenyl)-, methyl ester + 1-octyl-3-methylimidazolium hexafluorophosphate; phases: Liquid, Crystal
Fixed: Pressure, kPa = 101
Property: Mole fraction of 2-propenoic acid, 3-(4-hydroxyphenyl)-, methyl ester (Liquid); method: Chromatography
Temperature, K	Mole fraction of 2-propenoic acid, 3-(4-hydroxyphenyl)-, methyl ester	uncertainty
303.15	.061	
312.15	.071	
321.15	.092	

System: 2-propenoic acid, 3-(4-hydroxyphenyl)-, methyl ester + 3-(2-hydroxyethyl)-1-methylimidazolium hexafluorophosphate; phases: Liquid, Crystal
Fixed: Pressure, kPa = 101
Property: Mole fraction of 2-propenoic acid, 3-(4-hydroxyphenyl)-, methyl ester (Liquid); method: Chromatography
Temperature, K	Mole fraction of 2-propenoic acid, 3-(4-hydroxyphenyl)-, methyl ester	uncertainty
303.15	.017	
312.15	.027	
321.15	.037	

System: 2-propenoic acid, 3-(4-hydroxyphenyl)-, methyl ester + 1-(2-methoxyethyl)-3-methyl-imidazolium hexafluorophosphate; phases: Liquid, Crystal
Fixed: Pressure, kPa = 101
Property: Mole fraction of 2-propenoic acid, 3-(4-hydroxyphenyl)-, methyl ester (Liquid); method: Chromatography
Temperature, K	Mole fraction of 2-propenoic acid, 3-(4-hydroxyphenyl)-, methyl ester	uncertainty
303.15	.016	
312.15	.025	
321.15	.033	

System: 2-propenoic acid, 3-(4-hydroxyphenyl)-, methyl ester + 1-butyl-3-methylimidazolium tetrafluoroborate; phases: Liquid, Crystal
Fixed: Pressure, kPa = 101
Property: Mole fraction of 2-propenoic acid, 3-(4-hydroxyphenyl)-, methyl ester (Liquid); method: Chromatography
Temperature, K	Mole fraction of 2-propenoic acid, 3-(4-hydroxyphenyl)-, methyl ester	uncertainty
303.15	.136	
312.15	.159	
321.15	.198	

System: 2-propenoic acid, 3-(4-hydroxyphenyl)-, methyl ester + 1-octyl-3-methylimidazolium tetrafluoroborate; phases: Liquid, Crystal
Fixed: Pressure, kPa = 101
Property: Mole fraction of 2-propenoic acid, 3-(4-hydroxyphenyl)-, methyl ester (Liquid); method: Chromatography
Temperature, K	Mole fraction of 2-propenoic acid, 3-(4-hydroxyphenyl)-, methyl ester	uncertainty
303.15	.188	
312.15	.208	
321.15	.22	

System: 2-propenoic acid, 3-(4-hydroxyphenyl)-, methyl ester + 1-(2-hydroxyethyl)-3-methylimidazolium tetrafluoroborate; phases: Liquid, Crystal
Fixed: Pressure, kPa = 101
Property: Mole fraction of 2-propenoic acid, 3-(4-hydroxyphenyl)-, methyl ester (Liquid); method: Chromatography
Temperature, K	Mole fraction of 2-propenoic acid, 3-(4-hydroxyphenyl)-, methyl ester	uncertainty
303.15	.024	
312.15	.028	
321.15	.05	

System: 2-propenoic acid, 3-(4-hydroxyphenyl)-, methyl ester + 1-(2-methoxyethyl)-3-methyl-imidazolium tetrafluoroborate; phases: Liquid, Crystal
Fixed: Pressure, kPa = 101
Property: Mole fraction of 2-propenoic acid, 3-(4-hydroxyphenyl)-, methyl ester (Liquid); method: Chromatography
Temperature, K	Mole fraction of 2-propenoic acid, 3-(4-hydroxyphenyl)-, methyl ester	uncertainty
303.15	.048	
312.15	.063	
321.15	.092	

System: 2-propenoic acid, 3-(4-hydroxy-3-methoxyphenyl)-, methyl ester + 1-octyl-3-methylimidazolium hexafluorophosphate; phases: Liquid, Crystal
Fixed: Pressure, kPa = 101
Property: Mole fraction of 2-propenoic acid, 3-(4-hydroxy-3-methoxyphenyl)-, methyl ester (Liquid); method: Chromatography
Temperature, K	Mole fraction of 2-propenoic acid, 3-(4-hydroxy-3-methoxyphenyl)-, methyl ester	uncertainty
303.15	.292	
312.15	.348	
321.15	.466	

System: 2-propenoic acid, 3-(4-hydroxy-3-methoxyphenyl)-, methyl ester + 3-(2-hydroxyethyl)-1-methylimidazolium hexafluorophosphate; phases: Liquid, Crystal
Fixed: Pressure, kPa = 101
Property: Mole fraction of 2-propenoic acid, 3-(4-hydroxy-3-methoxyphenyl)-, methyl ester (Liquid); method: Chromatography
Temperature, K	Mole fraction of 2-propenoic acid, 3-(4-hydroxy-3-methoxyphenyl)-, methyl ester	uncertainty
303.15	.028	
312.15	.055	
321.15	.096	

System: 2-propenoic acid, 3-(4-hydroxy-3-methoxyphenyl)-, methyl ester + 1-(2-methoxyethyl)-3-methyl-imidazolium hexafluorophosphate; phases: Liquid, Crystal
Fixed: Pressure, kPa = 101
Property: Mole fraction of 2-propenoic acid, 3-(4-hydroxy-3-methoxyphenyl)-, methyl ester (Liquid); method: Chromatography
Temperature, K	Mole fraction of 2-propenoic acid, 3-(4-hydroxy-3-methoxyphenyl)-, methyl ester	uncertainty
303.15	.114	
312.15	.206	
321.15	.272	

System: 2-propenoic acid, 3-(4-hydroxy-3-methoxyphenyl)-, methyl ester + 1-butyl-3-methylimidazolium tetrafluoroborate; phases: Liquid, Crystal
Fixed: Pressure, kPa = 101
Property: Mole fraction of 2-propenoic acid, 3-(4-hydroxy-3-methoxyphenyl)-, methyl ester (Liquid); method: Chromatography
Temperature, K	Mole fraction of 2-propenoic acid, 3-(4-hydroxy-3-methoxyphenyl)-, methyl ester	uncertainty
303.15	.276	
312.15	.326	
321.15	.41	

System: 2-propenoic acid, 3-(4-hydroxy-3-methoxyphenyl)-, methyl ester + 1-octyl-3-methylimidazolium tetrafluoroborate; phases: Liquid, Crystal
Fixed: Pressure, kPa = 101
Property: Mole fraction of 2-propenoic acid, 3-(4-hydroxy-3-methoxyphenyl)-, methyl ester (Liquid); method: Chromatography
Temperature, K	Mole fraction of 2-propenoic acid, 3-(4-hydroxy-3-methoxyphenyl)-, methyl ester	uncertainty
303.15	.336	
312.15	.364	
321.15	.492	

System: 2-propenoic acid, 3-(4-hydroxy-3-methoxyphenyl)-, methyl ester + 1-(2-hydroxyethyl)-3-methylimidazolium tetrafluoroborate; phases: Liquid, Crystal
Fixed: Pressure, kPa = 101
Property: Mole fraction of 2-propenoic acid, 3-(4-hydroxy-3-methoxyphenyl)-, methyl ester (Liquid); method: Chromatography
Temperature, K	Mole fraction of 2-propenoic acid, 3-(4-hydroxy-3-methoxyphenyl)-, methyl ester	uncertainty
303.15	.103	
312.15	.12	
321.15	.227	

System: 2-propenoic acid, 3-(4-hydroxy-3-methoxyphenyl)-, methyl ester + 1-(2-methoxyethyl)-3-methyl-imidazolium tetrafluoroborate; phases: Liquid, Crystal
Fixed: Pressure, kPa = 101
Property: Mole fraction of 2-propenoic acid, 3-(4-hydroxy-3-methoxyphenyl)-, methyl ester (Liquid); method: Chromatography
Temperature, K	Mole fraction of 2-propenoic acid, 3-(4-hydroxy-3-methoxyphenyl)-, methyl ester	uncertainty
303.15	.17	
312.15	.238	
321.15	.348	

System: 3,5-dimethoxy-4-hydroxy cinnamic acid methyl ester + 1-octyl-3-methylimidazolium hexafluorophosphate; phases: Liquid, Crystal
Fixed: Pressure, kPa = 101
Property: Mole fraction of 3,5-dimethoxy-4-hydroxy cinnamic acid methyl ester (Liquid); method: Chromatography
Temperature, K	Mole fraction of 3,5-dimethoxy-4-hydroxy cinnamic acid methyl ester	uncertainty
303.15	.165	
312.15	.209	
321.15	.252	

System: 3,5-dimethoxy-4-hydroxy cinnamic acid methyl ester + 3-(2-hydroxyethyl)-1-methylimidazolium hexafluorophosphate; phases: Liquid, Crystal
Fixed: Pressure, kPa = 101
Property: Mole fraction of 3,5-dimethoxy-4-hydroxy cinnamic acid methyl ester (Liquid); method: Chromatography
Temperature, K	Mole fraction of 3,5-dimethoxy-4-hydroxy cinnamic acid methyl ester	uncertainty
303.15	.077	
312.15	.124	
321.15	.163	

System: 3,5-dimethoxy-4-hydroxy cinnamic acid methyl ester + 1-(2-methoxyethyl)-3-methyl-imidazolium hexafluorophosphate; phases: Liquid, Crystal
Fixed: Pressure, kPa = 101
Property: Mole fraction of 3,5-dimethoxy-4-hydroxy cinnamic acid methyl ester (Liquid); method: Chromatography
Temperature, K	Mole fraction of 3,5-dimethoxy-4-hydroxy cinnamic acid methyl ester	uncertainty
303.15	.091	
312.15	.127	
321.15	.182	

System: 3,5-dimethoxy-4-hydroxy cinnamic acid methyl ester + 1-butyl-3-methylimidazolium tetrafluoroborate; phases: Liquid, Crystal
Fixed: Pressure, kPa = 101
Property: Mole fraction of 3,5-dimethoxy-4-hydroxy cinnamic acid methyl ester (Liquid); method: Chromatography
Temperature, K	Mole fraction of 3,5-dimethoxy-4-hydroxy cinnamic acid methyl ester	uncertainty
303.15	.176	
312.15	.196	
321.15	.225	

System: 3,5-dimethoxy-4-hydroxy cinnamic acid methyl ester + 1-octyl-3-methylimidazolium tetrafluoroborate; phases: Liquid, Crystal
Fixed: Pressure, kPa = 101
Property: Mole fraction of 3,5-dimethoxy-4-hydroxy cinnamic acid methyl ester (Liquid); method: Chromatography
Temperature, K	Mole fraction of 3,5-dimethoxy-4-hydroxy cinnamic acid methyl ester	uncertainty
303.15	.226	
312.15	.234	
321.15	.287	

System: 3,5-dimethoxy-4-hydroxy cinnamic acid methyl ester + 1-(2-hydroxyethyl)-3-methylimidazolium tetrafluoroborate; phases: Liquid, Crystal
Fixed: Pressure, kPa = 101
Property: Mole fraction of 3,5-dimethoxy-4-hydroxy cinnamic acid methyl ester (Liquid); method: Chromatography
Temperature, K	Mole fraction of 3,5-dimethoxy-4-hydroxy cinnamic acid methyl ester	uncertainty
303.15	.068	
312.15	.086	
321.15	.131	

System: 3,5-dimethoxy-4-hydroxy cinnamic acid methyl ester + 1-(2-methoxyethyl)-3-methyl-imidazolium tetrafluoroborate; phases: Liquid, Crystal
Fixed: Pressure, kPa = 101
Property: Mole fraction of 3,5-dimethoxy-4-hydroxy cinnamic acid methyl ester (Liquid); method: Chromatography
Temperature, K	Mole fraction of 3,5-dimethoxy-4-hydroxy cinnamic acid methyl ester	uncertainty
303.15	.105	
312.15	.135	
321.15	.184	
