Measured thermophysical data. Solubility of Enrofloxacin Sodium in Various Solvents at Various Temperatures
Source: J. Chem. Eng. Data, 2008, 10.1021/je8005826
Compound 1: enrofloxacin sodium, C19H22FN3NaO3
Compound 2: propanone, C3H6O
Compound 3: methanol, CH4O
Compound 4: 1,2-dichloroethane, C2H4Cl2
Compound 5: dichloromethane, CH2Cl2

System: enrofloxacin sodium; phases: Crystal, Liquid, Air at 1 atmosphere
Property: Normal melting temperature, K (Crystal); method: Visual observation
Normal melting temperature, K	uncertainty
481.15	

System: propanone + enrofloxacin sodium; phases: Liquid, Crystal
Fixed: Pressure, kPa = 101
Property: Mole fraction of enrofloxacin sodium (Liquid); method: visual observation
Temperature, K	Mole fraction of enrofloxacin sodium	uncertainty
293.15	.00133	.00002
295.15	.00147	.00005
298.15	.00171	.00003
300.15	.00198	.00001
303.15	.00252	.00002
305.15	.00273	.00002
308.15	.00313	.00001
310.15	.00347	.00003

System: methanol + enrofloxacin sodium; phases: Liquid, Crystal
Fixed: Pressure, kPa = 101
Property: Mole fraction of enrofloxacin sodium (Liquid); method: visual observation
Temperature, K	Mole fraction of enrofloxacin sodium	uncertainty
293.15	.00096	.00003
295.15	.00102	.00001
298.15	.00115	.00004
300.15	.0012	.00006
303.15	.0013	.00001
305.15	.00135	.00002
308.15	.00144	.00002
310.15	.00149	.00003

System: 1,2-dichloroethane + enrofloxacin sodium; phases: Liquid, Crystal
Fixed: Pressure, kPa = 101
Property: Mole fraction of enrofloxacin sodium (Liquid); method: visual observation
Temperature, K	Mole fraction of enrofloxacin sodium	uncertainty
293.15	.00248	.00002
295.15	.00279	.00005
298.15	.00358	.00002
300.15	.00415	.00003
303.15	.00656	.00001
305.15	.00858	.00004
308.15	.00996	.00002
310.15	.01086	.00003

System: dichloromethane + enrofloxacin sodium; phases: Liquid, Crystal
Fixed: Pressure, kPa = 101
Property: Mole fraction of enrofloxacin sodium (Liquid); method: visual observation
Temperature, K	Mole fraction of enrofloxacin sodium	uncertainty
293.15	.00809	.00002
295.15	.00818	.00006
298.15	.00835	.00002
300.15	.00838	.00003
303.15	.00844	.00004
305.15	.00853	.00005
308.15	.00868	.00003
310.15	.00874	.00001
