Measured thermophysical data. Carbon Dioxide Solubility in the Homologous 1-Alkyl-3-methylimidazolium  Bis(trifluoromethylsulfonyl)imide Family
Source: J. Chem. Eng. Data, 2009, 10.1021/je800433r
Compound 1: carbon dioxide, CO2
Compound 2: 1-butyl-3-methylimidazolium bis[(trifluoromethyl)sulfonyl]imide, C10H15F6N3O4S2

System: carbon dioxide + 1-butyl-3-methylimidazolium bis[(trifluoromethyl)sulfonyl]imide; phases: Gas, Liquid
Property: Vapor or sublimation pressure, kPa (Gas); method: Closed cell (Static) method
Mole fraction of carbon dioxide	Temperature, K	Vapor or sublimation pressure, kPa	uncertainty
.0847	313.55	422	.1266
.0847	342.43	648	.1944
.0847	371.5	903	.2709
.0847	400.58	1198	.3594
.0847	429.98	1503	.4509
.0847	323.08	488	.1464
.0847	352.13	723	.2169
.0847	381.17	1003	.3009
.0847	410.32	1303	.3909
.0847	439.54	1603	.4809
.0847	332.73	558	.1674
.0847	361.82	813	.2439
.0847	390.67	1098	.3294
.0847	420.12	1408	.4224
.0847	449.29	1703	.5109
.1886	313.6	1002	.3006
.1886	342.42	1552	.4656
.1886	371.43	2202	.6606
.1886	400.64	2912	.8736
.1886	429.89	3648	1.0944
.1886	323.08	1172	.3516
.1886	352.11	1757	.5271
.1886	380.99	2433	.7299
.1886	410.37	3158	.9474
.1886	439.64	3888	1.1664
.1886	332.74	1357	.4071
.1886	361.76	1972	.5916
.1886	390.86	2668	.8004
.1886	420.16	3398	1.0194
.1886	449.38	4133	1.2399
.2926	313.58	1724	.5172
.2926	342.55	2700	.81
.2926	371.56	3900	1.17
.2926	400.62	5150	1.545
.2926	429.87	6475	1.9425
.2926	323.08	2024	.6072
.2926	352.1	3105	.9315
.2926	381.22	4304	1.2912
.2926	410.37	5600	1.68
.2926	439.6	6900	2.07
.2926	332.75	2350	.705
.2926	361.77	3500	1.05
.2926	390.88	4729	1.4187
.2926	420.21	6035	1.8105
.2926	449.36	7325	2.1975
.3818	313.5	2473	.7419
.3818	342.47	3943	1.1829
.3818	371.5	5682	1.7046
.3818	400.63	7593	2.2779
.3818	429.86	9548	2.8644
.3818	323.08	2938	.8814
.3818	352.12	4497	1.3491
.3818	381.25	6303	1.8909
.3818	410.52	8248	2.4744
.3818	439.65	10198	3.0594
.3818	332.77	3423	1.0269
.3818	361.86	5082	1.5246
.3818	390.91	6943	2.0829
.3818	420.12	8933	2.6799
.3818	449.41	10833	3.2499
.4866	313.57	3799	1.1397
.4866	352.1	7197	2.1591
.4866	410.37	13473	4.0419
.4866	332.76	5289	1.5867
.4866	371.46	9172	2.7516
.4866	415.25	14023	4.2069
.4866	342.53	6137	1.8411
.4866	390.87	11273	3.3819
.5257	314.65	4448	1.3344
.5257	342.45	7074	2.1222
.5257	371.43	10425	3.1275
.5257	400.59	14099	4.2297
.5257	323.15	5174	1.5522
.5257	352.11	8124	2.4372
.5257	381.11	11625	3.4875
.5257	332.79	6099	1.8297
.5257	361.76	9250	2.775
.5257	390.95	12874	3.8622
.5852	313.65	5483	1.6449
.5852	342.43	9213	2.7639
.5852	371.59	13959	4.1877
.5852	323.13	6588	1.9764
.5852	352.11	10713	3.2139
.5852	313.65	5527	1.6581
.5852	332.73	7828	2.3484
.5852	361.93	12304	3.6912
