Measured thermophysical data. Solubility of Salol in Pure Alcohols from (283.15 to 308.15) K
Source: J. Chem. Eng. Data, 2009, 10.1021/je800668j
Compound 1: phenyl salycilate, C13H10O3
Compound 2: methanol, CH4O
Compound 3: ethanol, C2H6O
Compound 4: 1-propanol, C3H8O
Compound 5: 2-propanol, C3H8O
Compound 6: 1-butanol, C4H10O
Compound 7: 2-butanol, dl-, C4H10O
Compound 8: 2-methyl-1-propanol, C4H10O

System: methanol + phenyl salycilate; phases: Liquid, Crystal
Fixed: Pressure, kPa = 101
Property: Mole fraction of phenyl salycilate (Liquid); method: UV Spectrometry
Temperature, K	Mole fraction of phenyl salycilate	uncertainty
283.15	.01621	
288.15	.02514	
293.15	.0459	
298.15	.09459	
303.15	.274	
308.15	.6939	

System: ethanol + phenyl salycilate; phases: Liquid, Crystal
Fixed: Pressure, kPa = 101
Property: Mole fraction of phenyl salycilate (Liquid); method: UV Spectrometry
Temperature, K	Mole fraction of phenyl salycilate	uncertainty
283.15	.02265	
288.15	.03609	
293.15	.0647	
298.15	.1272	
303.15	.2893	
308.15	.715	

System: 1-propanol + phenyl salycilate; phases: Liquid, Crystal
Fixed: Pressure, kPa = 101
Property: Mole fraction of phenyl salycilate (Liquid); method: UV Spectrometry
Temperature, K	Mole fraction of phenyl salycilate	uncertainty
283.15	.02715	
288.15	.04295	
293.15	.07557	
298.15	.152	
303.15	.3298	
308.15	.718	

System: 2-propanol + phenyl salycilate; phases: Liquid, Crystal
Fixed: Pressure, kPa = 101
Property: Mole fraction of phenyl salycilate (Liquid); method: UV Spectrometry
Temperature, K	Mole fraction of phenyl salycilate	uncertainty
283.15	.01689	
288.15	.02733	
293.15	.0487	
298.15	.1009	
303.15	.2751	
308.15	.7019	

System: 1-butanol + phenyl salycilate; phases: Liquid, Crystal
Fixed: Pressure, kPa = 101
Property: Mole fraction of phenyl salycilate (Liquid); method: UV Spectrometry
Temperature, K	Mole fraction of phenyl salycilate	uncertainty
283.15	.03369	
288.15	.05111	
293.15	.09082	
298.15	.1817	
303.15	.3404	
308.15	.7495	

System: 2-butanol, dl- + phenyl salycilate; phases: Liquid, Crystal
Fixed: Pressure, kPa = 101
Property: Mole fraction of phenyl salycilate (Liquid); method: UV Spectrometry
Temperature, K	Mole fraction of phenyl salycilate	uncertainty
283.15	.03813	
288.15	.0602	
293.15	.1048	
298.15	.2011	
303.15	.3976	
308.15	.752	

System: 2-methyl-1-propanol + phenyl salycilate; phases: Liquid, Crystal
Fixed: Pressure, kPa = 101
Property: Mole fraction of phenyl salycilate (Liquid); method: UV Spectrometry
Temperature, K	Mole fraction of phenyl salycilate	uncertainty
283.15	.01854	
288.15	.02877	
293.15	.05165	
298.15	.1115	
303.15	.2787	
308.15	.7086	
