Measured thermophysical data. Vapor Pressures and Sublimation Enthalpies of Mercury(I, II) Fluorides by the  Torsion-Effusion Method
Source: J. Chem. Eng. Data, 2008, 10.1021/je800231f
Compound 1: mercury fluoride (HgF2), F2Hg
Compound 2: Mercury(I) fluoride, F2Hg2

System: mercury fluoride (HgF2); phases: Crystal, Gas
Property: Vapor or sublimation pressure, kPa (Crystal); method: Torsion effusion method
Temperature, K	Vapor or sublimation pressure, kPa	uncertainty
498	.00135	
504	.00178	
513	.00288	
516	.00347	
526	.00479	
535	.00759	
543	.01047	
552	.01445	
483	.00051	
490	.00076	
493	.00091	
499	.00112	
514	.00229	
527	.00437	
533	.00575	
551	.01318	
557	.0166	
457	.00015	
466	.00024	
469	.0003	
474	.00042	
481	.00066	
488	.00089	
504	.00178	
518	.00363	
480	.00048	
496	.00115	
502	.00162	
511	.00245	
525	.00437	
542	.00871	
555	.0138	
560	.01862	
565	.02188	
568	.02455	
496	.00095	
502	.00132	
507	.00162	
523	.00331	
525	.00363	
539	.00646	
549	.00933	
557	.01318	
561	.01622	
570	.02042	
580	.02951	
589	.04074	
487	.0006	
494	.00089	
503	.00151	
512	.00224	
521	.00398	
529	.0055	
537	.00759	
544	.01072	
473	.00024	
481	.00042	
487	.0006	
492	.00078	
498	.00107	
505	.00174	
510	.00209	
515	.00257	
521	.00339	
528	.00457	
464	.00018	
475	.00036	
483	.00054	
490	.00078	
496	.00107	
507	.00186	
513	.00245	
520	.00324	
527	.00457	
535	.00617	
543	.00871	
551	.01175	
560	.01698	

System: Mercury(I) fluoride; phases: Crystal, Gas
Property: Vapor or sublimation pressure, kPa (Crystal); method: Torsion effusion method
Temperature, K	Vapor or sublimation pressure, kPa	uncertainty
536	.000288	
546	.000501	
554	.000871	
564	.001288	
573	.002138	
582	.003162	
591	.004571	
600	.006918	
609	.00955	
616	.012589	
625	.018621	
545	.000437	
557	.000794	
565	.001148	
571	.001585	
577	.002399	
584	.003236	
592	.004467	
599	.006026	
605	.007762	
611	.00955	
618	.012303	
623	.015136	
543	.000324	
547	.000437	
554	.000646	
559	.000871	
565	.001148	
572	.001585	
579	.002089	
588	.003236	
595	.004365	
600	.00537	
606	.006918	
614	.01	
622	.013804	
536	.000214	
546	.000363	
554	.000575	
559	.000724	
564	.001	
569	.00123	
574	.001585	
578	.00195	
584	.002512	
589	.00309	
593	.003631	
599	.004786	
606	.00631	
611	.007413	
614	.00871	
619	.010233	
626	.013804	
536	.000229	
546	.000363	
549	.000457	
553	.00055	
557	.000724	
563	.001	
567	.001259	
573	.001549	
578	.002089	
585	.002692	
590	.003548	
596	.004571	
601	.005754	
606	.006761	
611	.008128	
615	.01	
622	.012303	
628	.015488	
544	.000407	
556	.000676	
562	.001	
565	.001259	
576	.002042	
585	.002818	
594	.004467	
605	.006457	
616	.010715	
624	.017378	
509	.000046	
516	.000068	
524	.000138	
531	.000204	
539	.000275	
549	.000457	
560	.000794	
573	.001349	
583	.002089	
596	.004571	
629	.019498	
496	.000023	
508	.000058	
515	.000079	
526	.000138	
533	.000229	
542	.000389	
552	.000589	
562	.000912	
572	.001445	
580	.002089	
588	.003162	
596	.004365	
606	.007244	
617	.011482	
503	.000034	
520	.000102	
531	.000204	
539	.000275	
548	.000501	
559	.000851	
569	.00123	
578	.001905	
586	.002884	
595	.004365	
605	.006761	
616	.010965	
