Measured thermophysical data. Dynamic Viscosity Study of Binary Mixtures Triethylamine + Water at  Temperatures Ranging from (283.15 to 291.35) K
Source: J. Chem. Eng. Data, 2009, 10.1021/je80082n
Compound 1: triethylamine, C6H15N, purity 99.95%
Compound 2: water, H2O

System: triethylamine; phases: Liquid
Property: Mass density, kg/m3 (Liquid); method: Vibrating tube method
Temperature, K	Pressure, kPa	Mass density, kg/m3	uncertainty
283.15	101	737	.1
286.15	101	734	.1
288.15	101	731.8	.1
290.15	101	729.8	.1
291.15	101	728.7	.1
291.35	101	728.5	.1

System: triethylamine; phases: Liquid
Property: Viscosity, Pa*s (Liquid); method: Capillary tube (Ostwald; Ubbelohde) method
Temperature, K	Pressure, kPa	Viscosity, Pa*s	uncertainty
283.15	101	.0004229	.000003
286.15	101	.0004085	.000003
288.15	101	.0003989	.000003
290.15	101	.00039	.000003
291.15	101	.0003855	.000003
291.35	101	.0003847	.000003

System: triethylamine + water; phases: Liquid
Fixed: Pressure, kPa = 101
Property: Mass density, kg/m3 (Liquid); method: Vibrating tube method
Temperature, K	Mole fraction of triethylamine	Mass density, kg/m3	uncertainty
283.15	0	999.5	.1
283.15	.0192	985.3	.1
283.15	.0429	965.8	.1
283.15	.0775	936.2	.1
283.15	.106	919	.1
283.15	.151	895.1	.1
283.15	.2117	868	.1
283.15	.293	839.5	.1
283.15	.4167	809.3	.1
283.15	.615	775	.1
283.15	1	737	.1
286.15	0	999.3	.1
286.15	.0192	984.3	.1
286.15	.0429	964.2	.1
286.15	.0775	934	.1
286.15	.106	916.3	.1
286.15	.151	892.4	.1
286.15	.2117	865.3	.1
286.15	.293	836.8	.1
286.15	.4167	806.6	.1
286.15	.615	772.3	.1
286.15	1	734	.1
288.15	0	999	.1
288.15	.0192	983.6	.1
288.15	.0429	962.8	.1
288.15	.0775	931.7	.1
288.15	.106	913.8	.1
288.15	.151	889.9	.1
288.15	.2117	862.8	.1
288.15	.293	834.3	.1
288.15	.4167	804.1	.1
288.15	.615	769.8	.1
288.15	1	731.8	.1
290.15	0	998.7	.1
290.15	.0192	982.8	.1
290.15	.0429	961.4	.1
290.15	.0775	929	.1
290.15	.106	910.9	.1
290.15	.151	887	.1
290.15	.2117	859.9	.1
290.15	.293	831.4	.1
290.15	.4167	801.2	.1
290.15	.615	766.9	.1
290.15	1	729.8	.1
291.15	0	998.5	.1
291.15	.0192	982.4	.1
291.15	.0429	960.5	.1
291.15	.0775	927.5	.1
291.15	.106	909.2	.1
291.15	.151	885.3	.1
291.15	.2117	858.2	.1
291.15	.293	829.7	.1
291.15	.4167	799.5	.1
291.15	.615	765.2	.1
291.15	1	728.7	.1
291.35	0	998.5	.1
291.35	.0192	982.3	.1
291.35	.0429	960.4	.1
291.35	.0775	927.1	.1
291.35	.106	909	.1
291.35	.151	885.1	.1
291.35	.2117	858	.1
291.35	.293	829.5	.1
291.35	.4167	799.3	.1
291.35	.615	765	.1
291.35	1	728.5	.1

System: triethylamine + water; phases: Liquid
Fixed: Pressure, kPa = 101
Property: Viscosity, Pa*s (Liquid); method: Capillary tube (Ostwald; Ubbelohde) method
Temperature, K	Mole fraction of triethylamine	Viscosity, Pa*s	uncertainty
283.15	0	.0013054	.000003
283.15	.0192	.0025131	.000003
283.15	.0429	.0040642	.000003
283.15	.0775	.0055315	.000003
283.15	.106	.0066209	.000003
283.15	.151	.0066426	.000003
283.15	.2117	.0056286	.000003
283.15	.293	.0042307	.000003
283.15	.4167	.0028128	.000003
283.15	.615	.0018354	.000003
283.15	1	.0004229	.000003
286.15	0	.0012002	.000003
286.15	.0192	.0022072	.000003
286.15	.0429	.0035021	.000003
286.15	.0775	.0047479	.000003
286.15	.106	.0054685	.000003
286.15	.151	.0054898	.000003
286.15	.2117	.0047923	.000003
286.15	.293	.0036689	.000003
286.15	.4167	.0025041	.000003
286.15	.615	.001527	.000003
286.15	1	.0004085	.000003
288.15	0	.0011372	.000003
288.15	.0192	.0020274	.000003
288.15	.0429	.0031903	.000003
288.15	.0775	.0042304	.000003
288.15	.106	.0047414	.000003
288.15	.151	.0047628	.000003
288.15	.2117	.0042959	.000003
288.15	.293	.0033571	.000003
288.15	.4167	.0023269	.000003
288.15	.615	.0013497	.000003
288.15	1	.0003989	.000003
290.15	0	.0010797	.000003
290.15	.0192	.0018697	.000003
290.15	.0429	.0029395	.000003
290.15	.0775	.0037533	.000003
290.15	.106	.0040647	.000003
290.15	.151	.0040871	.000003
290.15	.2117	.003847	.000003
290.15	.293	.0031064	.000003
290.15	.4167	.0021694	.000003
290.15	.615	.001192	.000003
290.15	1	.00039	.000003
291.15	0	.0010524	.000003
291.15	.0192	.0017985	.000003
291.15	.0429	.002838	.000003
291.15	.0775	.0035209	.000003
291.15	.106	.003747	.000003
291.15	.151	.0037683	.000003
291.15	.2117	.003643	.000003
291.15	.293	.003005	.000003
291.15	.4167	.0020985	.000003
291.15	.615	.001121	.000003
291.15	1	.0003855	.000003
291.35	0	.0010466	.000003
291.35	.0192	.001783	.000003
291.35	.0429	.002819	.000003
291.35	.0775	.0034703	.000003
291.35	.106	.0036788	.000003
291.35	.151	.0036999	.000003
291.35	.2117	.0036025	.000003
291.35	.293	.0029851	.000003
291.35	.4167	.0020846	.000003
291.35	.615	.0011071	.000003
291.35	1	.0003847	.000003
