Measured thermophysical data. Solubilities of 1,1  -(Butane-1,4-diyl)-bis(pyridinium) Dihexafluorophosphate in  Acetone + Water from (278.15 to 328.15) K
Source: J. Chem. Eng. Data, 2009, 10.1021/je800893n
Compound 1: 1,1'-(butane-1,4-diyl)-bis(pyridinium) dihexafluorophosphate, C14H18F12N2P2, purity 99%
Compound 2: propanone, C3H6O, purity 99%
Compound 3: water, H2O

System: 1,1'-(butane-1,4-diyl)-bis(pyridinium) dihexafluorophosphate; phases: Crystal, Liquid, Air at 1 atmosphere
Property: Normal melting temperature, K (Crystal); method: DSC/DTA
Normal melting temperature, K	uncertainty
552.12	

System: 1,1'-(butane-1,4-diyl)-bis(pyridinium) dihexafluorophosphate; phases: Crystal, Liquid, Air at 1 atmosphere
Property: Molar enthalpy of transition or fusion, kJ/mol (Crystal); method: DSC/DTA
Molar enthalpy of transition or fusion, kJ/mol	uncertainty
42.18813	

System: propanone + water + 1,1'-(butane-1,4-diyl)-bis(pyridinium) dihexafluorophosphate; phases: Liquid, Crystal
Fixed: Pressure, kPa = 101
Property: Mole fraction of 1,1'-(butane-1,4-diyl)-bis(pyridinium) dihexafluorophosphate (Liquid); method: Laser Monitoring Techniquie
Solvent: Mass fraction of water	Temperature, K	Mole fraction of 1,1'-(butane-1,4-diyl)-bis(pyridinium) dihexafluorophosphate	uncertainty
0	278.15	.00048	.0000096
0	283.15	.00052	.0000104
0	288.15	.000573	.00001146
0	293.15	.000623	.00001246
0	298.15	.000675	.0000135
0	303.15	.000713	.00001426
0	308.15	.000767	.00001534
0	313.15	.00082	.0000164
0	318.15	.00087	.0000174
0	323.15	.000925	.0000185
0	328.15	.000992	.00001984
.1	278.15	.000643	.00001286
.1	283.15	.00081	.0000162
.1	288.15	.000982	.00001964
.1	293.15	.001182	.00002364
.1	298.15	.001361	.00002722
.1	303.15	.001582	.00003164
.1	308.15	.001795	.0000359
.1	313.15	.002032	.00004064
.1	318.15	.002291	.00004582
.1	323.15	.002574	.00005148
.1	328.15	.002825	.0000565
.2	278.15	.000769	.00001538
.2	283.15	.000918	.00001836
.2	288.15	.001152	.00002304
.2	293.15	.001365	.0000273
.2	298.15	.001552	.00003104
.2	303.15	.001786	.00003572
.2	308.15	.002068	.00004136
.2	313.15	.002305	.0000461
.2	318.15	.002621	.00005242
.2	323.15	.002906	.00005812
.2	328.15	.003288	.00006576
.3	278.15	.001209	.00002418
.3	283.15	.001441	.00002882
.3	288.15	.001738	.00003476
.3	293.15	.001966	.00003932
.3	298.15	.002305	.0000461
.3	303.15	.002684	.00005368
.3	308.15	.002962	.00005924
.3	313.15	.003374	.00006748
.3	318.15	.003699	.00007398
.3	323.15	.004204	.00008408
.3	328.15	.004763	.00009526
.4	278.15	.000982	.00001964
.4	283.15	.001134	.00002268
.4	288.15	.001292	.00002584
.4	293.15	.001478	.00002956
.4	298.15	.001668	.00003336
.4	303.15	.001936	.00003872
.4	308.15	.002322	.00004644
.4	313.15	.002719	.00005438
.4	318.15	.003108	.00006216
.4	323.15	.003578	.00007156
.4	328.15	.004112	.00008224
.5	278.15	.000578	.00001156
.5	283.15	.000691	.00001382
.5	288.15	.000813	.00001626
.5	293.15	.000932	.00001864
.5	298.15	.001015	.0000203
.5	303.15	.001199	.00002398
.5	308.15	.001392	.00002784
.5	313.15	.001715	.0000343
.5	318.15	.001992	.00003984
.5	323.15	.002274	.00004548
.5	328.15	.002525	.0000505
.6	278.15	.000208	.00000416
.6	283.15	.000228	.00000456
.6	288.15	.000257	.00000514
.6	293.15	.000289	.00000578
.6	298.15	.000313	.00000626
.6	303.15	.000356	.00000712
.6	308.15	.000401	.00000802
.6	313.15	.000451	.00000902
.6	318.15	.000509	.00001018
.6	323.15	.000576	.00001152
.6	328.15	.000652	.00001304
.7	278.15	.000029	.00000058
.7	283.15	.000042	.00000084
.7	288.15	.000076	.00000152
.7	293.15	.000102	.00000204
.7	298.15	.000146	.00000292
.7	303.15	.000195	.0000039
.7	308.15	.000236	.00000472
.7	313.15	.000314	.00000628
.7	318.15	.000381	.00000762
.7	323.15	.000478	.00000956
.7	328.15	.000595	.0000119
.8	278.15	.000007	.00000014
.8	283.15	.000011	.00000022
.8	288.15	.000017	.00000034
.8	293.15	.000026	.00000052
.8	298.15	.000038	.00000076
.8	303.15	.000052	.00000104
.8	308.15	.000074	.00000148
.8	313.15	.000108	.00000216
.8	318.15	.000155	.0000031
.8	323.15	.000217	.00000434
.8	328.15	.000272	.00000544
.9	278.15	.000002	.00000004
.9	283.15	.000004	.00000008
.9	288.15	.000006	.00000012
.9	293.15	.00001	.0000002
.9	298.15	.000014	.00000028
.9	303.15	.000021	.00000042
.9	308.15	.000032	.00000064
.9	313.15	.000046	.00000092
.9	318.15	.000063	.00000126
.9	323.15	.000085	.0000017
.9	328.15	.000114	.00000228
1	278.15	.000001	.00000002
1	283.15	.000002	.00000004
1	288.15	.000003	.00000006
1	293.15	.000007	.00000014
1	298.15	.000011	.00000022
1	303.15	.000014	.00000028
1	308.15	.000021	.00000042
1	313.15	.000028	.00000056
1	318.15	.000042	.00000084
1	323.15	.000053	.00000106
1	328.15	.000066	.00000132

System: propanone + 1,1'-(butane-1,4-diyl)-bis(pyridinium) dihexafluorophosphate; phases: Liquid, Crystal
Property: Mole fraction of 1,1'-(butane-1,4-diyl)-bis(pyridinium) dihexafluorophosphate (Liquid); method: Laser Monitoring Techniquie
Temperature, K	Pressure, kPa	Mole fraction of 1,1'-(butane-1,4-diyl)-bis(pyridinium) dihexafluorophosphate	uncertainty
278.15	101	.00048	.0000096
283.15	101	.00052	.0000104
288.15	101	.000573	.00001146
293.15	101	.000623	.00001246
298.15	101	.000675	.0000135
303.15	101	.000713	.00001426
308.15	101	.000767	.00001534
313.15	101	.00082	.0000164
318.15	101	.00087	.0000174
323.15	101	.000925	.0000185
328.15	101	.000992	.00001984

System: water + 1,1'-(butane-1,4-diyl)-bis(pyridinium) dihexafluorophosphate; phases: Liquid, Crystal
Property: Mole fraction of 1,1'-(butane-1,4-diyl)-bis(pyridinium) dihexafluorophosphate (Liquid); method: Laser Monitoring Techniquie
Temperature, K	Pressure, kPa	Mole fraction of 1,1'-(butane-1,4-diyl)-bis(pyridinium) dihexafluorophosphate	uncertainty
278.15	101	.000001	.00000002
283.15	101	.000002	.00000004
288.15	101	.000003	.00000006
293.15	101	.000007	.00000014
298.15	101	.000011	.00000022
303.15	101	.000014	.00000028
308.15	101	.000021	.00000042
313.15	101	.000028	.00000056
318.15	101	.000042	.00000084
323.15	101	.000053	.00000106
328.15	101	.000066	.00000132
