Measured thermophysical data. Solubility of H2S in Ionic Liquids [bmim][PF6], [bmim][BF4], and [bmim][Tf2N]
Source: J. Chem. Eng. Data, 2009, 10.1021/je8009495
Compound 1: 1-n-butyl-3-methylimidazolium hexafluorophosphate, C8H15F6N2P
Compound 2: 1-butyl-3-methylimidazolium tetrafluoroborate, C8H15BF4N2
Compound 3: 1-butyl-3-methylimidazolium bis[(trifluoromethyl)sulfonyl]imide, C10H15F6N3O4S2
Compound 4: hydrogen sulfide, H2S

System: hydrogen sulfide + 1-n-butyl-3-methylimidazolium hexafluorophosphate; phases: Liquid, Gas
Property: Mole fraction of hydrogen sulfide (Liquid); method: Volume Change on Dissolution
Temperature, K	Pressure, kPa	Mole fraction of hydrogen sulfide	uncertainty
303.15	165	.075	.002
303.15	217	.113	.002
303.15	277	.148	.002
303.15	333	.177	.002
303.15	393	.206	.002
303.15	444	.229	.002
303.15	515	.26	.002
303.15	625	.312	.002
303.15	737	.358	.002
303.15	826	.405	.002
313.15	171	.075	.002
313.15	237	.11	.002
313.15	313	.142	.002
313.15	385	.169	.002
313.15	453	.197	.002
313.15	514	.22	.002
313.15	580	.242	.002
313.15	674	.29	.002
313.15	793	.334	.002
313.15	905	.369	.002
323.15	123	.047	.002
323.15	257	.096	.002
323.15	380	.139	.002
323.15	527	.189	.002
323.15	650	.229	.002
323.15	749	.261	.002
323.15	893	.299	.002
323.15	993	.333	.002
333.15	137	.044	.002
333.15	289	.09	.002
333.15	424	.13	.002
333.15	588	.176	.002
333.15	726	.213	.002
333.15	839	.242	.002
333.15	1011	.285	.002
343.15	229	.065	.002
343.15	338	.093	.002
343.15	447	.121	.002
343.15	545	.146	.002
343.15	642	.171	.002
343.15	727	.192	.002
343.15	823	.212	.002

System: hydrogen sulfide + 1-butyl-3-methylimidazolium tetrafluoroborate; phases: Liquid, Gas
Property: Mole fraction of hydrogen sulfide (Liquid); method: Volume Change on Dissolution
Temperature, K	Pressure, kPa	Mole fraction of hydrogen sulfide	uncertainty
303.15	60.8	.039	.002
303.15	124	.081	.002
303.15	188	.12	.002
303.15	293	.163	.002
303.15	328	.183	.002
303.15	411	.228	.002
303.15	524	.27	.002
303.15	624	.31	.002
303.15	736	.354	.002
313.15	71.8	.038	.002
313.15	146	.076	.002
313.15	221	.111	.002
313.15	346	.166	.002
313.15	387	.18	.002
313.15	485	.22	.002
313.15	568	.25	.002
313.15	644	.28	.002
313.15	757	.32	.002
323.15	83.8	.035	.002
323.15	170	.074	.002
323.15	257	.11	.002
323.15	401	.168	.002
323.15	450	.187	.002
323.15	562	.225	.002
323.15	613	.24	.002
323.15	757	.28	.002
323.15	813	.303	.002
333.15	96.8	.033	.002
333.15	195	.07	.002
333.15	294	.105	.002
333.15	459	.15	.002
333.15	514	.169	.002
333.15	639	.201	.002
333.15	755	.235	.002
333.15	836	.269	.002
343.15	112	.03	.002
343.15	222	.066	.002
343.15	332	.097	.002
343.15	518	.149	.002
343.15	579	.161	.002
343.15	718	.203	.002
343.15	813	.227	.002

System: hydrogen sulfide + 1-butyl-3-methylimidazolium bis[(trifluoromethyl)sulfonyl]imide; phases: Liquid, Gas
Property: Mole fraction of hydrogen sulfide (Liquid); method: Volume Change on Dissolution
Temperature, K	Pressure, kPa	Mole fraction of hydrogen sulfide	uncertainty
303.15	94.4	.07	.002
303.15	177	.128	.002
303.15	246	.174	.002
303.15	297	.209	.002
303.15	350	.241	.002
303.15	406	.273	.002
303.15	478	.307	.002
303.15	583	.364	.002
303.15	715	.444	.002
303.15	826	.51	.002
313.15	107	.065	.002
313.15	200	.12	.002
313.15	279	.163	.002
313.15	338	.196	.002
313.15	399	.227	.002
313.15	464	.258	.002
313.15	547	.291	.002
313.15	667	.347	.002
313.15	825	.434	.002
323.15	120	.06	.002
323.15	224	.114	.002
323.15	313	.157	.002
323.15	379	.188	.002
323.15	447	.219	.002
323.15	521	.252	.002
323.15	615	.293	.002
323.15	751	.34	.002
323.15	888	.403	.002
333.15	133	.055	.002
333.15	243	.107	.002
333.15	345	.148	.002
333.15	419	.177	.002
333.15	494	.206	.002
333.15	583	.238	.002
333.15	682	.272	.002
333.15	835	.322	.002
343.15	146	.051	.002
343.15	270	.098	.002
343.15	378	.134	.002
343.15	460	.163	.002
343.15	542	.19	.002
343.15	640	.215	.002
343.15	748	.246	.002
343.15	916	.299	.002
