Measured thermophysical data. Equilibrium Data for the N2O5 + HNO3+ N2O4 System at 258.2 K, 265.2 K, 273.2  K, and 281.2 K
Source: J. Chem. Eng. Data, 2009, 10.1021/je800971f
Compound 1: nitrogen oxide (N2O5), N2O5
Compound 2: dinitrogen tetroxide, N2O4
Compound 3: nitric acid, HNO3

System: nitric acid + nitrogen oxide (N2O5) + dinitrogen tetroxide; phases: Liquid mixture 1, Liquid mixture 2
Fixed: Pressure, kPa = 101
Property: Mass fraction of nitric acid (Liquid mixture 1); method: Titration method
Temperature, K	Mass fraction of nitrogen oxide (N2O5)	Mass fraction of nitric acid	uncertainty
258.2	0	.4737	.0000146847
258.2	.0677	.4887	.0000151497
258.2	.0977	.4916	.0000152396
258.2	.1448	.4986	.0000154566
258.2	.2474	.5041	.0000156271
258.2	.2215	.5029	.0000155899
265.2	0	.4645	.0000143995
265.2	.0699	.4478	.0000138818
265.2	.0793	.4453	.0000138043
265.2	.0904	.4721	.0000146351
265.2	.1441	.4778	.0000148118
265.2	.2657	.4871	.0000151001
265.2	.2237	.4717	.0000146227
273.2	.0699	.4477	.0000138787
273.2	.0793	.4453	.0000138043
273.2	.0944	.449	.000013919
273.2	.1224	.4558	.0000141298
273.2	.165	.4541	.0000140771
273.2	.2462	.4488	.0000139128
281.2	0	.4315	.0000133765
281.2	.0495	.4208	.0000130448
281.2	.0835	.4217	.0000130727
281.2	.1606	.431	.000013361
281.2	.1924	.4312	.0000133672
281.2	.2503	.42698	.00001323638
281.2	.2739	.4289	.0000132959

System: nitric acid + nitrogen oxide (N2O5) + dinitrogen tetroxide; phases: Liquid mixture 1, Liquid mixture 2
Fixed: Pressure, kPa = 101
Property: Mass fraction of nitric acid (Liquid mixture 1); method: Titration method
Temperature, K	Mass fraction of nitrogen oxide (N2O5)	Mass fraction of nitric acid	uncertainty
258.2	.0787	.4862	.0031
258.2	.0575	.4903	.0031
258.2	.1391	.4873	.0031
258.2	.1028	.4958	.0031
265.2	.0884	.4563	.0031
265.2	.1125	.4625	.0031
265.2	.1281	.4674	.0031
265.2	.037	.4496	.0031
265.2	.0662	.4713	.0031
265.2	.1597	.4795	.0031
273.2	.1879	.4432	.0031
273.2	.1435	.447	.0031
273.2	.0545	.4387	.0031
273.2	.0821	.4412	.0031
273.2	.1129	.4563	.0031
281.2	.0988	.4132	.0031
281.2	.2225	.4193	.0031
281.2	.0693	.4117	.0031
281.2	.1338	.4215	.0031
281.2	.1604	.4217	.0031

System: nitric acid + nitrogen oxide (N2O5) + dinitrogen tetroxide; phases: Liquid mixture 2, Liquid mixture 3
Fixed: Pressure, kPa = 101
Property: Mass fraction of nitric acid (Liquid mixture 2); method: Titration method
Temperature, K	Mass fraction of nitrogen oxide (N2O5)	Mass fraction of nitric acid	uncertainty
258.2	.1375	0	.0031
273.2	0	.0447	.0031
273.2	.2454	.0401	.0031
258.2	0	.0257	.0031
265.2	.2054	0	.0031
265.2	.2001	.0274	.0031
265.2	0	.0346	.0031
273.2	.2369	0	.0031
273.2	.24	.0387	.0031
273.2	0	.0412	.0031
281.2	.2512	.0378	.0031
281.2	0	.0463	.0031
281.2	.2571	0	.0031

System: nitric acid + nitrogen oxide (N2O5) + dinitrogen tetroxide; phases: Liquid mixture 1, Crystal
Fixed: Pressure, kPa = 101
Property: Mass fraction of nitric acid (Liquid mixture 1); method: Titration method
Temperature, K	Mass fraction of nitrogen oxide (N2O5)	Mass fraction of nitric acid	uncertainty
265.2	.3587	.6302	.0031
265.2	.3446	.5946	.0031
265.2	.3175	.5564	.0031
265.2	.2706	.524	.0031
281.2	.3833	.5687	.0031
281.2	.3363	.5379	.0031
281.2	.2838	.4895	.0031
258.2	.3072	.6071	.0031
258.2	.2769	.5828	.0031
258.2	.246	.5728	.0031
273.2	.3501	.5781	.0031
273.2	.339	.5639	.0031
273.2	.2689	.5033	.0031
273.2	.2471	.467	.0031
