Measured thermophysical data. Measurement through a Gas Stripping Technique of Henry's Law Constants and Infinite Dilution Activity Coefficients of  Propyl Mercaptan, Butyl Mercaptan, and Dimethyl Sulfide in  Methyldiethanolamine (1) + Water (2) with w1 = 0.25 and 0.35
Source: J. Chem. Eng. Data, 2008, 10.1021/je800349p
Compound 1: N-methyldiethanolamine, C5H13NO2
Compound 2: 1-butanethiol, C4H10S
Compound 3: 1-propanethiol, C3H8S
Compound 4: water, H2O
Compound 5: 2-thiapropane, C2H6S

System: N-methyldiethanolamine + 1-propanethiol + water; phases: Liquid, Gas
Fixed: Mole fraction of 1-propanethiol = 0
Property: Henry's Law constant (mole fraction scale), kPa of 1-propanethiol (Liquid); method: inert gas stripping method
Temperature, K	Solvent: Mass fraction of N-methyldiethanolamine	Henry's Law constant (mole fraction scale), kPa of 1-propanethiol	uncertainty
298.1	.25	4300	215
303.1	.25	5400	270
313.1	.25	6900	345
323.1	.25	10400	520
333.1	.25	15000	750
343.1	.25	17100	855
303.1	.35	4500	225
323.1	.35	6700	335
343.1	.35	12100	605

System: N-methyldiethanolamine + 1-propanethiol + water; phases: Liquid, Gas
Fixed: Mole fraction of 1-propanethiol = 0
Property: Activity coefficient of 1-propanethiol (Liquid); method: inert gas stripping method
Temperature, K	Solvent: Mass fraction of N-methyldiethanolamine	Activity coefficient of 1-propanethiol	uncertainty
298.1	.25	209	10.45
303.1	.25	211	10.55
313.1	.25	181	9.05
323.1	.25	187	9.35
333.1	.25	189	9.45
343.1	.25	157	7.85
303.1	.35	176	8.8
323.1	.35	120	6
343.1	.35	111	5.55

System: N-methyldiethanolamine + 1-butanethiol + water; phases: Liquid, Gas
Fixed: Mole fraction of 1-butanethiol = 0
Property: Henry's Law constant (mole fraction scale), kPa of 1-butanethiol (Liquid); method: inert gas stripping method
Temperature, K	Solvent: Mass fraction of N-methyldiethanolamine	Henry's Law constant (mole fraction scale), kPa of 1-butanethiol	uncertainty
293.1	.25	3400	170
303.1	.25	4900	245
313.1	.25	7800	390
318.1	.25	10000	500
293.1	.35	2700	135
303.1	.35	4600	230
313.1	.35	6100	305
323.1	.35	8600	430
333.1	.35	12600	630
343.1	.35	16900	845

System: N-methyldiethanolamine + 1-butanethiol + water; phases: Liquid, Gas
Fixed: Mole fraction of 1-butanethiol = 0
Property: Activity coefficient of 1-butanethiol (Liquid); method: inert gas stripping method
Temperature, K	Solvent: Mass fraction of N-methyldiethanolamine	Activity coefficient of 1-butanethiol	uncertainty
293.1	.25	708	35.4
303.1	.25	622	31.1
313.1	.25	623	31.15
318.1	.25	644	32.2
293.1	.35	552	27.6
303.1	.35	577	28.85
313.1	.35	487	24.35
323.1	.35	451	22.55
333.1	.35	446	22.3
343.1	.35	413	20.65

System: 2-thiapropane + N-methyldiethanolamine + water; phases: Liquid, Gas
Fixed: Mole fraction of 2-thiapropane = 0
Property: Henry's Law constant (mole fraction scale), kPa of N-methyldiethanolamine (Liquid); method: inert gas stripping method
Temperature, K	Solvent: Mass fraction of N-methyldiethanolamine	Henry's Law constant (mole fraction scale), kPa of N-methyldiethanolamine	uncertainty
293.1	.25	6400	320
303.1	.25	8400	420
313.1	.25	11200	560
323.1	.25	14400	720
333.1	.25	19300	965
343.1	.25	28200	1410
294.1	.35	5700	285
303.1	.35	7000	350
313.1	.35	10100	505
323.1	.35	11800	590
333.1	.35	14900	745
343.1	.35	17900	895

System: 2-thiapropane + N-methyldiethanolamine + water; phases: Liquid, Gas
Fixed: Mole fraction of 2-thiapropane = 0
Property: Activity coefficient of N-methyldiethanolamine (Liquid); method: inert gas stripping method
Temperature, K	Solvent: Mass fraction of N-methyldiethanolamine	Activity coefficient of N-methyldiethanolamine	uncertainty
293.1	.25	121	6.05
303.1	.25	107	5.35
313.1	.25	100	5
323.1	.25	93	4.65
333.1	.25	92	4.6
343.1	.25	101	5.05
294.1	.35	103	5.15
303.1	.35	89	4.45
313.1	.35	91	4.55
323.1	.35	77	3.85
333.1	.35	71	3.55
343.1	.35	64	3.2
