Measured thermophysical data. Phase Equilibrium, Volumetric, and Interfacial Properties of the Ionic Liquid, 1-Hexyl-3-methylimidazolium Bis(trifluoromethylsulfonyl)amide and 1-Octene
Source: J. Chem. Eng. Data, 2010, 10.1021/je900697w
Compound 1: 1-hexyl-3-methylimidazolium bis[(trifluoromethyl)sulfonyl]imide, C12H19F6N3O4S2
Compound 2: 1-octene, C8H16

System: 1-hexyl-3-methylimidazolium bis[(trifluoromethyl)sulfonyl]imide; phases: Liquid
Fixed: Pressure, kPa = 101.325
Property: Mass density, kg/m3 (Liquid); method: Vibrating tube method
Temperature, K	Mass density, kg/m3	uncertainty
283.15	1385.4	.4
298.15	1370.7	.6
323.15	1348	2
348.15	1324	2

System: 1-hexyl-3-methylimidazolium bis[(trifluoromethyl)sulfonyl]imide; phases: Liquid, Air at 1 atmosphere
Property: Surface tension liquid-gas, N/m (Liquid); method: Ring tensiometer
Temperature, K	Surface tension liquid-gas, N/m	uncertainty
283.15	.0312	
298.15	.0308	
323.15	.0289	
348.15	.0276	

System: 1-octene; phases: Liquid
Fixed: Pressure, kPa = 101.325
Property: Mass density, kg/m3 (Liquid); method: Vibrating tube method
Temperature, K	Mass density, kg/m3	uncertainty
283.15	723.5	.6
298.15	711.2	.6
323.15	690	10
348.15	668	12

System: 1-octene; phases: Liquid, Air at 1 atmosphere
Property: Surface tension liquid-gas, N/m (Liquid); method: Ring tensiometer
Temperature, K	Surface tension liquid-gas, N/m	uncertainty
283.15	.0225	
298.15	.0212	
323.15	.0185	
348.15	.0157	

System: 1-octene + 1-hexyl-3-methylimidazolium bis[(trifluoromethyl)sulfonyl]imide; phases: Liquid mixture 1, Liquid mixture 2
Fixed: Pressure, kPa = 101
Property: Mole fraction of 1-octene (Liquid mixture 1); method: Titration method
Temperature, K	Mole fraction of 1-octene	uncertainty
283.15	.16	.01
298.15	.19	.01
323.15	.23	.02
348.15	.28	.02

System: 1-octene + 1-hexyl-3-methylimidazolium bis[(trifluoromethyl)sulfonyl]imide; phases: Liquid mixture 2, Liquid mixture 1
Fixed: Pressure, kPa = 101
Property: Mole fraction of 1-octene (Liquid mixture 2); method: Titration method
Temperature, K	Mole fraction of 1-octene	uncertainty
283.15	.9999	.0001
298.15	.9999	.0004
323.15	.9986	.0009
348.15	.9552	.0008

System: 1-octene + 1-hexyl-3-methylimidazolium bis[(trifluoromethyl)sulfonyl]imide; phases: Liquid
Fixed: Pressure, kPa = 101
Property: Mass density, kg/m3 (Liquid); method: Vibrating tube method
Temperature, K	Mole fraction of 1-octene	Mass density, kg/m3	uncertainty
283.15	0	1385.4	.1
283.15	.05	1372.1	.1
283.15	.1	1356	.1
283.15	.139	1340	.1
283.15	.154	1340	.1
298.15	0	1370.7	.1
298.15	.05	1358	.1
298.15	.1	1342	.1
298.15	.139	1328	.1
298.15	.154	1326	.1
323.15	0	1348	.1
323.15	.05	1336	.1
323.15	.1	1319	.1
323.15	.139	1306	.1
323.15	.154	1303	.1
348.15	0	1324	.1
348.15	.05	1313	.1
348.15	.1	1300	.1
348.15	.139	1282	.1
348.15	.154	1279	.1

System: 1-octene + 1-hexyl-3-methylimidazolium bis[(trifluoromethyl)sulfonyl]imide; phases: Liquid mixture 1, Liquid mixture 2
Fixed: Pressure, kPa = 101
Property: Mass density, kg/m3 (Liquid mixture 1); method: Vibrating tube method
Temperature, K	Mass density, kg/m3	uncertainty
283.15	1340	.1
298.15	1320.4	.1
323.15	1300	.1
348.15	1267	.1

System: 1-octene + 1-hexyl-3-methylimidazolium bis[(trifluoromethyl)sulfonyl]imide; phases: Liquid, Air at 1 atmosphere
Property: Surface tension liquid-gas, N/m (Liquid); method: Ring tensiometer
Temperature, K	Mole fraction of 1-octene	Surface tension liquid-gas, N/m	uncertainty
283.15	0	.0312	
283.15	.05	.0309	
283.15	.1	.0298	
283.15	.15	.0278	
298.15	0	.0308	
298.15	.05	.0303	
298.15	.1	.0294	
298.15	.15	.0274	
323.15	0	.0289	
323.15	.05	.0288	
323.15	.1	.0287	
323.15	.15	.0266	
348.15	0	.0276	
348.15	.05	.0274	
348.15	.1	.0272	
348.15	.15	.0263	
283.15	1	.0225	
298.15	1	.0212	
323.15	1	.0185	
348.15	1	.0157	
283.15	.16	.0277	
298.15	.19	.027	
323.15	.23	.0255	
348.15	.28	.0253	

System: 1-octene + 1-hexyl-3-methylimidazolium bis[(trifluoromethyl)sulfonyl]imide; phases: Liquid mixture 1, Liquid mixture 2
Fixed: Pressure, kPa = 101
Property: Interfacial tension, N/m (Liquid mixture 1); method: Ring tensiometer
Temperature, K	Interfacial tension, N/m	uncertainty
283.15	.0133	.0013
298.15	.013	.0013
323.15	.0097	.0013
348.15	.0044	.0013
