Measured thermophysical data. Solubility of Penicillin Sulfoxide in Different Solvents
Source: J. Chem. Eng. Data, 2010, 10.1021/je900326e
Compound 1: 4-thia-1-azabicyclo[3.2.0]heptane-2-carboxylic acid, 3,3-dimethyl-7-oxo-6-[(phenylacetyl)amino]- [2S-(2.alpha.,5.alpha.,6.beta.)]-, 4-oxide, (4.beta.)-, C16H18N2O5S
Compound 2: ethyl ethanoate, C4H8O2, purity 99.5%
Compound 3: 4-methyl-2-pentanone, C6H12O, purity 99.5%
Compound 4: butyl ethanoate, C6H12O2, purity 99.5%
Compound 5: toluene, C7H8, purity 99.5%

System: 4-thia-1-azabicyclo[3.2.0]heptane-2-carboxylic acid, 3,3-dimethyl-7-oxo-6-[(phenylacetyl)amino]- [2S-(2.alpha.,5.alpha.,6.beta.)]-, 4-oxide, (4.beta.)-; phases: Crystal, Liquid, Air at 1 atmosphere
Property: Normal melting temperature, K (Crystal); method: DSC/DTA
Normal melting temperature, K	uncertainty
437.15	

System: ethyl ethanoate + 4-thia-1-azabicyclo[3.2.0]heptane-2-carboxylic acid, 3,3-dimethyl-7-oxo-6-[(phenylacetyl)amino]- [2S-(2.alpha.,5.alpha.,6.beta.)]-, 4-oxide, (4.beta.)-; phases: Liquid, Crystal
Fixed: Pressure, kPa = 101
Property: Mole fraction of 4-thia-1-azabicyclo[3.2.0]heptane-2-carboxylic acid, 3,3-dimethyl-7-oxo-6-[(phenylacetyl)amino]- [2S-(2.alpha.,5.alpha.,6.beta.)]-, 4-oxide, (4.beta.)- (Liquid); method: Titration method
Temperature, K	Mole fraction of 4-thia-1-azabicyclo[3.2.0]heptane-2-carboxylic acid, 3,3-dimethyl-7-oxo-6-[(phenylacetyl)amino]- [2S-(2.alpha.,5.alpha.,6.beta.)]-, 4-oxide, (4.beta.)-	uncertainty
273.15	.0021072	.000010536
278.15	.0022178	.000011089
283.25	.0022717	.0000113585
288.15	.0023313	.0000116565
292.75	.0025638	.000012819
298.55	.0027962	.000013981
303.15	.0031588	.000015794
307.45	.0033768	.000016884
312.85	.0038323	.0000191615
317.65	.0044004	.000022002
321.25	.0048587	.0000242935

System: 4-methyl-2-pentanone + 4-thia-1-azabicyclo[3.2.0]heptane-2-carboxylic acid, 3,3-dimethyl-7-oxo-6-[(phenylacetyl)amino]- [2S-(2.alpha.,5.alpha.,6.beta.)]-, 4-oxide, (4.beta.)-; phases: Liquid, Crystal
Fixed: Pressure, kPa = 101
Property: Mole fraction of 4-thia-1-azabicyclo[3.2.0]heptane-2-carboxylic acid, 3,3-dimethyl-7-oxo-6-[(phenylacetyl)amino]- [2S-(2.alpha.,5.alpha.,6.beta.)]-, 4-oxide, (4.beta.)- (Liquid); method: Titration method
Temperature, K	Mole fraction of 4-thia-1-azabicyclo[3.2.0]heptane-2-carboxylic acid, 3,3-dimethyl-7-oxo-6-[(phenylacetyl)amino]- [2S-(2.alpha.,5.alpha.,6.beta.)]-, 4-oxide, (4.beta.)-	uncertainty
273.15	.0016207	.0000081035
278.15	.0017321	.0000086605
283.15	.0018004	.000009002
287.85	.00184	.0000092
295.15	.0020053	.0000100265
297.95	.0021274	.000010637
303.35	.0022675	.0000113375
308.05	.0023752	.000011876
313.35	.0026229	.0000131145
317.65	.0027772	.000013886
323.75	.0031644	.000015822

System: butyl ethanoate + 4-thia-1-azabicyclo[3.2.0]heptane-2-carboxylic acid, 3,3-dimethyl-7-oxo-6-[(phenylacetyl)amino]- [2S-(2.alpha.,5.alpha.,6.beta.)]-, 4-oxide, (4.beta.)-; phases: Liquid, Crystal
Fixed: Pressure, kPa = 101
Property: Mole fraction of 4-thia-1-azabicyclo[3.2.0]heptane-2-carboxylic acid, 3,3-dimethyl-7-oxo-6-[(phenylacetyl)amino]- [2S-(2.alpha.,5.alpha.,6.beta.)]-, 4-oxide, (4.beta.)- (Liquid); method: Titration method
Temperature, K	Mole fraction of 4-thia-1-azabicyclo[3.2.0]heptane-2-carboxylic acid, 3,3-dimethyl-7-oxo-6-[(phenylacetyl)amino]- [2S-(2.alpha.,5.alpha.,6.beta.)]-, 4-oxide, (4.beta.)-	uncertainty
273.15	.0006028	.000003014
278.25	.0006781	.0000033905
281.95	.0007346	.000003673
287.65	.0008249	.0000041245
292.55	.0009792	.000004896
297.35	.0011033	.0000055165
302.95	.0013402	.000006701
307.65	.0015056	.000007528
312.65	.0016559	.0000082795
317.65	.0019189	.0000095945

System: toluene + 4-thia-1-azabicyclo[3.2.0]heptane-2-carboxylic acid, 3,3-dimethyl-7-oxo-6-[(phenylacetyl)amino]- [2S-(2.alpha.,5.alpha.,6.beta.)]-, 4-oxide, (4.beta.)-; phases: Liquid, Crystal
Fixed: Pressure, kPa = 101
Property: Mole fraction of 4-thia-1-azabicyclo[3.2.0]heptane-2-carboxylic acid, 3,3-dimethyl-7-oxo-6-[(phenylacetyl)amino]- [2S-(2.alpha.,5.alpha.,6.beta.)]-, 4-oxide, (4.beta.)- (Liquid); method: Titration method
Temperature, K	Mole fraction of 4-thia-1-azabicyclo[3.2.0]heptane-2-carboxylic acid, 3,3-dimethyl-7-oxo-6-[(phenylacetyl)amino]- [2S-(2.alpha.,5.alpha.,6.beta.)]-, 4-oxide, (4.beta.)-	uncertainty
283.15	.00002739	.00000013695
288.35	.00003682	.0000001841
293.95	.00005256	.0000002628
298.15	.00006119	.00000030595
303.45	.0000697	.0000003485
311.65	.000087	.000000435
316.85	.0001049	.0000005245
323.65	.0001135	.0000005675
