Measured thermophysical data. Volumetric and Conductometric Behavior at T = 298.15 K of 2-[(2-Aminoacetyl)amino]acetic Acid, 2-[(2-Aminoacetyl)amino]-3-methylbutanoic Acid, and (2S)-2-[(2-Aminoacetyl)amino]-4-methylpentanoic Acid with Sodium Hexanoate
Source: J. Chem. Eng. Data, 2010, 10.1021/je900449q
Compound 1: glycylglycine, C4H8N2O3
Compound 2: water, H2O
Compound 3: L-glycylvaline, C7H14N2O3
Compound 4: glycyl-L-leucine, C8H16N2O3
Compound 5: sodium hexanoate, C6H11NaO2

System: glycylglycine + water + sodium hexanoate; phases: Liquid
Fixed: Pressure, kPa = 101
Fixed: Temperature, K = 298.15
Property: Mass density, kg/m3 (Liquid); method: Vibrating tube method
Molality, mol/kg of sodium hexanoate	Molality, mol/kg of glycylglycine	Mass density, kg/m3	uncertainty
.5	0	1014.429	.003
.5	.04141	1016.53	.003
.5	.06155	1017.544	.003
.5	.08219	1018.59	.003
.5	.1009	1019.523	.003
.5	.1464	1021.792	.003
.5	.1976	1024.298	.003
.5	.2428	1026.514	.003
.5	.2961	1029.125	.003
1	0	1028.531	.003
1	.04092	1030.538	.003
1	.06071	1031.506	.003
1	.08319	1032.601	.003
1	.09906	1033.385	.003
1	.1517	1035.941	.003
1	.2017	1038.341	.003
1	.2524	1040.769	.003
1	.3063	1043.326	.003
1.5	0	1040.025	.003
1.5	.03899	1041.842	.003
1.5	.05992	1042.824	.003
1.5	.07883	1043.717	.003
1.5	.09953	1044.665	.003
1.5	.1508	1047.062	.003
1.5	.1969	1049.171	.003
1.5	.2393	1051.1	.003
1.5	.3016	1053.978	.003
2	0	1049.202	.003
2	.03889	1050.952	.003
2	.06063	1051.909	.003
2	.08379	1052.941	.003
2	.1029	1053.786	.003
2	.1533	1056.02	.003
2	.2	1058.072	.003
2	.248	1060.168	.003
2	.3051	1062.663	.003

System: glycylglycine + water + sodium hexanoate; phases: Liquid
Fixed: Pressure, kPa = 101
Fixed: Temperature, K = 298.15
Property: Molar conductivity, S*m2/mol (Liquid); method: Alternating current cell with electrodes
Solvent: Molality, mol/kg of glycylglycine	Amount concentration (molarity), mol/dm3 of sodium hexanoate	Molar conductivity, S*m2/mol	uncertainty
.05	.003833	.006988	.00003494
.05	.0056763	.006951	.000034755
.05	.0070188	.006914	.00003457
.05	.0085412	.006897	.000034485
.05	.009792	.006864	.00003432
.05	.010988	.006842	.00003421
.05	.012342	.006809	.000034045
.05	.013584	.00679	.00003395
.05	.015055	.006758	.00003379
.05	.016346	.006732	.00003366
.05	.017598	.006707	.000033535
.05	.019017	.006695	.000033475
.05	.019886	.006683	.000033415
.05	.02104	.006659	.000033295
.05	.022088	.006645	.000033225
.05	.023264	.006624	.00003312
.1	.0054939	.006718	.00003359
.1	.0069879	.006689	.000033445
.1	.0084299	.006646	.00003323
.1	.0098646	.006632	.00003316
.1	.011124	.006608	.00003304
.1	.012433	.006581	.000032905
.1	.013764	.006548	.00003274
.1	.015059	.006522	.00003261
.1	.016432	.006502	.00003251
.1	.017644	.006489	.000032445
.1	.018966	.006481	.000032405
.1	.020251	.006469	.000032345
.1	.021477	.006451	.000032255
.1	.022782	.006427	.000032135
.1	.023598	.006418	.00003209
.15	.0030233	.006716	.00003358
.15	.0047817	.006668	.00003334
.15	.0062529	.006654	.00003327
.15	.0077742	.006631	.000033155
.15	.0093908	.006606	.00003303
.15	.011092	.006578	.00003289
.15	.012663	.006556	.00003278
.15	.014097	.006532	.00003266
.15	.015602	.006505	.000032525
.15	.017167	.006485	.000032425
.15	.018684	.006473	.000032365
.15	.019826	.006453	.000032265
.15	.021095	.006438	.00003219
.15	.022322	.006422	.00003211
.15	.023603	.006402	.00003201
.2	.0029728	.006592	.00003296
.2	.0048111	.00657	.00003285
.2	.0063298	.006547	.000032735
.2	.0077571	.006512	.00003256
.2	.0091922	.006494	.00003247
.2	.010695	.00647	.00003235
.2	.012118	.006449	.000032245
.2	.013534	.006429	.000032145
.2	.014907	.006416	.00003208
.2	.016172	.006394	.00003197
.2	.017355	.006374	.00003187
.2	.018649	.006371	.000031855
.2	.019932	.0063556	.000031778
.2	.0211	.006341	.000031705
.2	.022279	.006324	.00003162
.2	.02312	.006316	.00003158

System: L-glycylvaline + water + sodium hexanoate; phases: Liquid
Fixed: Pressure, kPa = 101
Fixed: Temperature, K = 298.15
Property: Mass density, kg/m3 (Liquid); method: Vibrating tube method
Molality, mol/kg of sodium hexanoate	Molality, mol/kg of L-glycylvaline	Mass density, kg/m3	uncertainty
.5	0	1014.429	.003
.5	.01988	1015.376	.003
.5	.04056	1016.344	.003
.5	.05927	1017.211	.003
.5	.0823	1018.274	.003
.5	.1007	1019.086	.003
.5	.1422	1020.967	.003
.5	.2035	1023.691	.003
1	0	1028.531	.003
1	.0408	1030.356	.003
1	.06263	1031.33	.003
1	.08307	1032.239	.003
1	.1032	1033.133	.003
1	.1501	1035.186	.003
1	.1967	1037.216	.003
1	.246	1039.346	.003
1.5	0	1040.891	.003
1.5	.02833	1041.967	.003
1.5	.04272	1042.53	.003
1.5	.06114	1043.254	.003
1.5	.07755	1043.902	.003
1.5	.09458	1044.571	.003
1.5	.1115	1045.235	.003
1.5	.1619	1047.211	.003
1.5	.2275	1049.735	.003
2	0	1049.279	.003
2	.02453	1050.18	.003
2	.04156	1050.806	.003
2	.06047	1051.518	.003
2	.08243	1052.339	.003
2	.1025	1053.078	.003
2	.1514	1054.871	.003
2	.2008	1056.676	.003

System: L-glycylvaline + water + sodium hexanoate; phases: Liquid
Fixed: Pressure, kPa = 101
Fixed: Temperature, K = 298.15
Property: Molar conductivity, S*m2/mol (Liquid); method: Alternating current cell with electrodes
Solvent: Molality, mol/kg of L-glycylvaline	Amount concentration (molarity), mol/dm3 of sodium hexanoate	Molar conductivity, S*m2/mol	uncertainty
.05	.0022481	.00689	.00003445
.05	.0034877	.006844	.00003422
.05	.0047079	.006799	.000033995
.05	.00625	.006781	.000033905
.05	.0077164	.006748	.00003374
.05	.0092602	.006693	.000033465
.05	.01087	.006667	.000033335
.05	.01229	.006628	.00003314
.05	.013714	.006596	.00003298
.05	.015222	.006568	.00003284
.05	.016586	.006539	.000032695
.05	.017963	.006527	.000032635
.05	.019369	.006498	.00003249
.05	.020684	.006479	.000032395
.05	.021872	.006456	.00003228
.05	.02317	.006433	.000032165
.05	.024358	.006413	.000032065
.1	.0021502	.006496	.00003248
.1	.0035547	.006453	.000032265
.1	.0049836	.006448	.00003224
.1	.006241	.006403	.000032015
.1	.0075818	.006367	.000031835
.1	.0088778	.006337	.000031685
.1	.0099878	.006309	.000031545
.1	.011193	.006283	.000031415
.1	.012456	.006264	.00003132
.1	.013699	.006239	.000031195
.1	.014925	.006213	.000031065
.1	.016116	.006195	.000030975
.1	.017255	.006173	.000030865
.1	.018343	.006166	.00003083
.1	.019481	.006153	.000030765
.15	.0029898	.006426	.00003213
.15	.0043304	.006354	.00003177
.15	.0057731	.006318	.00003159
.15	.0070433	.00628	.0000314
.15	.0082917	.006243	.000031215
.15	.009572	.006219	.000031095
.15	.010708	.006192	.00003096
.15	.011979	.006164	.00003082
.15	.013277	.006129	.000030645
.15	.014434	.006115	.000030575
.15	.015565	.006092	.00003046
.15	.016666	.00607	.00003035
.15	.017774	.006048	.00003024
.15	.01891	.006043	.000030215
.15	.020166	.006025	.000030125
.2	.0036689	.006207	.000031035
.2	.0053372	.00615	.00003075
.2	.0067894	.006106	.00003053
.2	.0082286	.006074	.00003037
.2	.0096813	.006054	.00003027
.2	.011127	.006023	.000030115
.2	.012492	.005995	.000029975
.2	.013817	.005966	.00002983
.2	.015025	.005945	.000029725
.2	.016334	.005916	.00002958
.2	.017669	.005896	.00002948
.2	.019019	.005891	.000029455
.2	.020333	.005865	.000029325
.2	.021676	.005845	.000029225
.2	.022956	.005824	.00002912
.2	.024176	.005806	.00002903
.2	.025383	.005788	.00002894

System: glycyl-L-leucine + water + sodium hexanoate; phases: Liquid
Fixed: Pressure, kPa = 101
Fixed: Temperature, K = 298.15
Property: Mass density, kg/m3 (Liquid); method: Vibrating tube method
Molality, mol/kg of sodium hexanoate	Molality, mol/kg of glycyl-L-leucine	Mass density, kg/m3	uncertainty
.5	0	1014.429	.003
.5	.02086	1015.344	.003
.5	.03981	1016.168	.003
.5	.06061	1017.073	.003
.5	.08223	1017.997	.003
.5	.1019	1018.835	.003
.5	.1231	1019.731	.003
.5	.1513	1020.911	.003
1	0	1028.343	.003
1	.01908	1029.12	.003
1	.04164	1030.036	.003
1	.06078	1030.814	.003
1	.07937	1031.568	.003
1	.09961	1032.383	.003
1	.1225	1033.3	.003
1	.148	1034.333	.003
1.5	0	1040.11	.003
1.5	.04128	1041.547	.003
1.5	.06051	1042.211	.003
1.5	.08158	1042.936	.003
1.5	.1013	1043.594	.003
1.5	.119	1044.201	.003
1.5	.1468	1045.121	.003
2	0	1050.351	.003
2	.03903	1051.412	.003
2	.05443	1051.855	.003
2	.06743	1052.234	.003
2	.081	1052.645	.003
2	.1135	1053.593	.003
2	.1435	1054.483	.003
2	.1935	1055.958	.003

System: glycyl-L-leucine + water + sodium hexanoate; phases: Liquid
Fixed: Pressure, kPa = 101
Fixed: Temperature, K = 298.15
Property: Molar conductivity, S*m2/mol (Liquid); method: Alternating current cell with electrodes
Solvent: Molality, mol/kg of glycyl-L-leucine	Amount concentration (molarity), mol/dm3 of sodium hexanoate	Molar conductivity, S*m2/mol	uncertainty
.05	.0066283	.006569	.000032845
.05	.0081278	.006527	.000032635
.05	.0095599	.006486	.00003243
.05	.011011	.006465	.000032325
.05	.012419	.006427	.000032135
.05	.013785	.0064	.000032
.05	.015201	.006372	.00003186
.05	.016571	.006347	.000031735
.05	.017802	.006319	.000031595
.05	.019059	.006293	.000031465
.05	.02031	.006287	.000031435
.05	.02158	.006261	.000031305
.05	.022892	.006242	.00003121
.05	.024101	.006219	.000031095
.05	.025465	.006195	.000030975
.1	.0041501	.006498	.00003249
.1	.0057838	.006457	.000032285
.1	.0074099	.006411	.000032055
.1	.0090126	.006374	.00003187
.1	.010603	.006335	.000031675
.1	.012054	.006298	.00003149
.1	.013442	.006265	.000031325
.1	.01485	.006238	.00003119
.1	.016323	.006211	.000031055
.1	.01777	.006184	.00003092
.1	.019108	.006163	.000030815
.1	.020476	.006152	.00003076
.1	.021779	.00613	.00003065
.1	.023031	.006106	.00003053
.1	.0244	.006086	.00003043
.1	.025343	.006071	.000030355
.15	.0039128	.006214	.00003107
.15	.0054094	.006171	.000030855
.15	.0068443	.006138	.00003069
.15	.0083258	.006122	.00003061
.15	.0097851	.006091	.000030455
.15	.011179	.006065	.000030325
.15	.012556	.006035	.000030175
.15	.013907	.006006	.00003003
.15	.015461	.005975	.000029875
.15	.016705	.005956	.00002978
.15	.018023	.005926	.00002963
.15	.019381	.005906	.00002953
.15	.020663	.005894	.00002947
.15	.02197	.005872	.00002936
.15	.023166	.005856	.00002928
.15	.024386	.005837	.000029185
.15	.0256	.005812	.00002906
.2	.0041507	.005963	.000029815
.2	.0057111	.005941	.000029705
.2	.0071041	.005898	.00002949
.2	.008619	.005876	.00002938
.2	.010163	.005843	.000029215
.2	.011636	.005808	.00002904
.2	.012975	.005781	.000028905
.2	.014448	.005759	.000028795
.2	.015832	.005732	.00002866
.2	.017227	.005705	.000028525
.2	.018407	.005684	.00002842
.2	.019806	.005663	.000028315
.2	.021133	.005649	.000028245
.2	.02263	.005628	.00002814
.2	.023791	.00561	.00002805
.2	.024951	.005591	.000027955
.2	.02559	.005579	.000027895

System: water + sodium hexanoate; phases: Liquid
Fixed: Pressure, kPa = 101
Fixed: Temperature, K = 298.15
Property: Molar conductivity, S*m2/mol (Liquid); method: Alternating current cell with electrodes
Amount concentration (molarity), mol/dm3 of sodium hexanoate	Molar conductivity, S*m2/mol	uncertainty
.0035275	.00725	.00003625
.0049904	.007154	.00003577
.0062685	.007113	.000035565
.007748	.007048	.00003524
.0090742	.00701	.00003505
.010442	.006965	.000034825
.011809	.006932	.00003466
.013196	.006887	.000034435
.014591	.006854	.00003427
.015935	.006821	.000034105
.017307	.006789	.000033945
.018662	.006773	.000033865
.019969	.006748	.00003374
.021223	.006722	.00003361
.022675	.00669	.00003345

System: water + sodium hexanoate; phases: Liquid
Property: Mass density, kg/m3 (Liquid); method: Vibrating tube method
Molality, mol/kg of sodium hexanoate	Pressure, kPa	Temperature, K	Mass density, kg/m3	uncertainty
.5	101	298.15	1014.429	.003
1	101	298.15	1028.531	.003
1.5	101	298.15	1040.025	.003
2	101	298.15	1049.202	.003
1.5	101	298.15	1040.891	.003
2	101	298.15	1049.279	.003
1	101	298.15	1028.343	.003
1.5	101	298.15	1040.11	.003
2	101	298.15	1050.351	.003
