Measured thermophysical data. Liquid-Liquid Phase Behavior of Solutions of 1-Octyl- and 1-Decyl-3-methylimidazolium Bis(trifluoromethylsulfonyl)imide (C8,10mimNTf2) in n-Alkyl Alcohols
Source: J. Chem. Eng. Data, 2010, 10.1021/je900988a
Compound 1: 1-octanol, C8H18O
Compound 2: 1-nonanol, C9H20O
Compound 3: 1-decanol, C10H22O
Compound 4: 1-undecanol, C11H24O
Compound 5: 1-dodecanol, C12H26O
Compound 6: 1-tetradecanol, C14H30O
Compound 7: 1-hexadecanol, C16H34O
Compound 8: 1-octadecanol, C18H38O
Compound 9: 1-eicosanol, C20H42O
Compound 10: 1-octyl-3-methylimidazolium bis[(trifluoromethyl)sulfonyl]imide, C14H23F6N3O4S2
Compound 11: 1-decyl-3-methylimidazolium bis(trifluoromethylsulfonyl)imide, C16H23F6N3O4S2

System: 1-octanol + 1-octyl-3-methylimidazolium bis[(trifluoromethyl)sulfonyl]imide; phases: Liquid mixture 1, Liquid mixture 2
Fixed: Pressure, kPa = 101
Property: Liquid-liquid equilibrium temperature, K (Liquid mixture 1); method: Visual observation
Mole fraction of 1-octyl-3-methylimidazolium bis[(trifluoromethyl)sulfonyl]imide	Liquid-liquid equilibrium temperature, K	uncertainty
.015	293.46	.05
.024	300.23	.05
.051	306.73	.05
.075	308.22	.05
.1	308.63	.05
.15	309.24	.05
.18	308.54	.05
.2	308.36	.05
.25	307.46	.05
.3	305.73	.05
.36	302.9	.05
.4	300.05	.05
.44	297.56	.05
.5	291.33	.05

System: 1-nonanol + 1-octyl-3-methylimidazolium bis[(trifluoromethyl)sulfonyl]imide; phases: Liquid mixture 1, Liquid mixture 2
Fixed: Pressure, kPa = 101
Property: Liquid-liquid equilibrium temperature, K (Liquid mixture 1); method: Visual observation
Mole fraction of 1-octyl-3-methylimidazolium bis[(trifluoromethyl)sulfonyl]imide	Liquid-liquid equilibrium temperature, K	uncertainty
.02	305.15	.05
.025	307.91	.05
.048	315.21	.05
.075	317.86	.05
.101	319.2	.05
.151	319.21	.05
.175	319.02	.05
.201	318.81	.05
.241	318.42	.05
.3	317.21	.05
.352	314.44	.05
.403	311.15	.05
.444	308.57	.05
.5	301.84	.05

System: 1-decanol + 1-octyl-3-methylimidazolium bis[(trifluoromethyl)sulfonyl]imide; phases: Liquid mixture 1, Liquid mixture 2
Fixed: Pressure, kPa = 101
Property: Liquid-liquid equilibrium temperature, K (Liquid mixture 1); method: Visual observation
Mole fraction of 1-octyl-3-methylimidazolium bis[(trifluoromethyl)sulfonyl]imide	Liquid-liquid equilibrium temperature, K	uncertainty
.015	313.9	.05
.025	321.24	.05
.051	327.54	.05
.075	329.33	.05
.101	330.13	.05
.145	330.5	.05
.176	330.35	.05
.2	330.45	.05
.258	329.65	.05
.3	328.65	.05
.357	326.03	.05
.398	323.55	.05
.44	321.19	.05
.497	318.69	.05

System: 1-undecanol + 1-octyl-3-methylimidazolium bis[(trifluoromethyl)sulfonyl]imide; phases: Liquid mixture 1, Liquid mixture 2
Fixed: Pressure, kPa = 101
Property: Liquid-liquid equilibrium temperature, K (Liquid mixture 1); method: Visual observation
Mole fraction of 1-octyl-3-methylimidazolium bis[(trifluoromethyl)sulfonyl]imide	Liquid-liquid equilibrium temperature, K	uncertainty
.015	317.26	.05
.025	326.87	.05
.05	332.62	.05
.075	335.05	.05
.099	336.31	.05
.125	336.77	.05
.149	337.19	.05
.151	337.12	.05
.2	337.33	.05
.245	337.19	.05
.301	336.04	.05
.352	334.57	.05
.406	332.05	.05
.448	329.15	.05
.496	326.72	.05

System: 1-dodecanol + 1-octyl-3-methylimidazolium bis[(trifluoromethyl)sulfonyl]imide; phases: Liquid mixture 1, Liquid mixture 2
Fixed: Pressure, kPa = 101
Property: Liquid-liquid equilibrium temperature, K (Liquid mixture 1); method: Visual observation
Mole fraction of 1-octyl-3-methylimidazolium bis[(trifluoromethyl)sulfonyl]imide	Liquid-liquid equilibrium temperature, K	uncertainty
.02	337.54	.05
.049	345.24	.05
.099	348.03	.05
.147	348.55	.05
.201	348.45	.05
.26	347.85	.05
.301	346.75	.05
.353	344.9	.05
.399	342.16	.05
.453	339.06	.05

System: 1-tetradecanol + 1-octyl-3-methylimidazolium bis[(trifluoromethyl)sulfonyl]imide; phases: Liquid mixture 1, Liquid mixture 2
Fixed: Pressure, kPa = 101
Property: Liquid-liquid equilibrium temperature, K (Liquid mixture 1); method: Visual observation
Mole fraction of 1-octyl-3-methylimidazolium bis[(trifluoromethyl)sulfonyl]imide	Liquid-liquid equilibrium temperature, K	uncertainty
.028	351.75	.05
.037	357.95	.05
.05	359.95	.05
.075	363.85	.05
.101	364	.05
.15	364.45	.05
.197	364.34	.05
.25	363.92	.05
.296	363.23	.05
.349	361.88	.05
.356	361.01	.05

System: 1-hexadecanol + 1-octyl-3-methylimidazolium bis[(trifluoromethyl)sulfonyl]imide; phases: Liquid mixture 1, Liquid mixture 2
Fixed: Pressure, kPa = 101
Property: Liquid-liquid equilibrium temperature, K (Liquid mixture 1); method: Visual observation
Mole fraction of 1-octyl-3-methylimidazolium bis[(trifluoromethyl)sulfonyl]imide	Liquid-liquid equilibrium temperature, K	uncertainty
.025	366.59	.05
.057	375.87	.05
.098	379.22	.05
.149	379.85	.05
.246	379.95	.05
.298	379.88	.05
.359	378.85	.05
.409	374.62	.05

System: 1-octadecanol + 1-octyl-3-methylimidazolium bis[(trifluoromethyl)sulfonyl]imide; phases: Liquid mixture 1, Liquid mixture 2
Fixed: Pressure, kPa = 101
Property: Liquid-liquid equilibrium temperature, K (Liquid mixture 1); method: Visual observation
Mole fraction of 1-octyl-3-methylimidazolium bis[(trifluoromethyl)sulfonyl]imide	Liquid-liquid equilibrium temperature, K	uncertainty
.029	380.65	.05
.047	389.03	.05
.095	395.57	.05
.152	397.06	.05
.178	397.2	.05
.224	397.81	.05
.261	397.85	.05
.299	396.28	.05
.347	395.25	.05
.402	392.88	.05
.452	391.42	.05

System: 1-eicosanol + 1-octyl-3-methylimidazolium bis[(trifluoromethyl)sulfonyl]imide; phases: Liquid mixture 1, Liquid mixture 2
Fixed: Pressure, kPa = 101
Property: Liquid-liquid equilibrium temperature, K (Liquid mixture 1); method: Visual observation
Mole fraction of 1-octyl-3-methylimidazolium bis[(trifluoromethyl)sulfonyl]imide	Liquid-liquid equilibrium temperature, K	uncertainty
.024	391.72	.05
.046	413.14	.05
.099	428.37	.05
.201	438.05	.05
.253	436.05	.05
.295	433.08	.05
.351	430.58	.05
.402	427.87	.05
.446	422.56	.05

System: 1-nonanol + 1-decyl-3-methylimidazolium bis(trifluoromethylsulfonyl)imide; phases: Liquid mixture 1, Liquid mixture 2
Fixed: Pressure, kPa = 101
Property: Liquid-liquid equilibrium temperature, K (Liquid mixture 1); method: Visual observation
Mole fraction of 1-decyl-3-methylimidazolium bis(trifluoromethylsulfonyl)imide	Liquid-liquid equilibrium temperature, K	uncertainty
.025	289.4	.05
.049	294.26	.05
.1	296.41	.05
.15	296.5	.05
.181	296.39	.05
.248	295.23	.05
.319	292.09	.05
.373	288.85	.05
.398	286.95	.05
.448	282.55	.05

System: 1-decanol + 1-decyl-3-methylimidazolium bis(trifluoromethylsulfonyl)imide; phases: Liquid mixture 1, Liquid mixture 2
Fixed: Pressure, kPa = 101
Property: Liquid-liquid equilibrium temperature, K (Liquid mixture 1); method: Visual observation
Mole fraction of 1-decyl-3-methylimidazolium bis(trifluoromethylsulfonyl)imide	Liquid-liquid equilibrium temperature, K	uncertainty
.025	298.55	.05
.048	303.05	.05
.087	306.88	.05
.139	307.94	.05
.173	307.8	.05
.218	306.99	.05
.268	305.08	.05
.35	301.75	.05
.42	297.05	.05

System: 1-undecanol + 1-decyl-3-methylimidazolium bis(trifluoromethylsulfonyl)imide; phases: Liquid mixture 1, Liquid mixture 2
Fixed: Pressure, kPa = 101
Property: Liquid-liquid equilibrium temperature, K (Liquid mixture 1); method: Visual observation
Mole fraction of 1-decyl-3-methylimidazolium bis(trifluoromethylsulfonyl)imide	Liquid-liquid equilibrium temperature, K	uncertainty
.0251	304.34	.05
.0507	310.55	.05
.1008	313.42	.05
.1437	313.82	.05
.1938	313.98	.05
.2619	313.62	.05
.3198	311.5	.05
.3682	309.27	.05
.4093	306.74	.05
.4619	302.85	.05

System: 1-dodecanol + 1-decyl-3-methylimidazolium bis(trifluoromethylsulfonyl)imide; phases: Liquid mixture 1, Liquid mixture 2
Fixed: Pressure, kPa = 101
Property: Liquid-liquid equilibrium temperature, K (Liquid mixture 1); method: Visual observation
Mole fraction of 1-decyl-3-methylimidazolium bis(trifluoromethylsulfonyl)imide	Liquid-liquid equilibrium temperature, K	uncertainty
.017	313.16	.05
.051	322.93	.05
.085	325.26	.05
.133	325.35	.05
.192	325.54	.05
.249	324.27	.05
.367	319.53	.05
.435	317.34	.05
.513	308.45	.05

System: 1-tetradecanol + 1-decyl-3-methylimidazolium bis(trifluoromethylsulfonyl)imide; phases: Liquid mixture 1, Liquid mixture 2
Fixed: Pressure, kPa = 101
Property: Liquid-liquid equilibrium temperature, K (Liquid mixture 1); method: Visual observation
Mole fraction of 1-decyl-3-methylimidazolium bis(trifluoromethylsulfonyl)imide	Liquid-liquid equilibrium temperature, K	uncertainty
.025	332.01	.05
.045	337.45	.05
.091	340.14	.05
.127	340.21	.05
.202	340.02	.05
.257	339.2	.05
.304	337.89	.05
.333	336.76	.05
.395	333.74	.05
.484	327.75	.05

System: 1-hexadecanol + 1-decyl-3-methylimidazolium bis(trifluoromethylsulfonyl)imide; phases: Liquid mixture 1, Liquid mixture 2
Fixed: Pressure, kPa = 101
Property: Liquid-liquid equilibrium temperature, K (Liquid mixture 1); method: Visual observation
Mole fraction of 1-decyl-3-methylimidazolium bis(trifluoromethylsulfonyl)imide	Liquid-liquid equilibrium temperature, K	uncertainty
.033	346.55	.05
.055	349.84	.05
.123	352.68	.05
.146	352.77	.05
.152	352.79	.05
.249	352.13	.05
.291	351.15	.05
.335	349.67	.05
.364	348.27	.05
.404	346.36	.05

System: 1-octadecanol + 1-decyl-3-methylimidazolium bis(trifluoromethylsulfonyl)imide; phases: Liquid mixture 1, Liquid mixture 2
Fixed: Pressure, kPa = 101
Property: Liquid-liquid equilibrium temperature, K (Liquid mixture 1); method: Visual observation
Mole fraction of 1-decyl-3-methylimidazolium bis(trifluoromethylsulfonyl)imide	Liquid-liquid equilibrium temperature, K	uncertainty
.025	352.35	.05
.05	359.85	.05
.09	363.01	.05
.139	363.45	.05
.197	363.54	.05
.255	363	.05
.312	361.78	.05
.33	361.05	.05
.334	360.9	.05

System: 1-eicosanol + 1-decyl-3-methylimidazolium bis(trifluoromethylsulfonyl)imide; phases: Liquid mixture 1, Liquid mixture 2
Fixed: Pressure, kPa = 101
Property: Liquid-liquid equilibrium temperature, K (Liquid mixture 1); method: Visual observation
Mole fraction of 1-decyl-3-methylimidazolium bis(trifluoromethylsulfonyl)imide	Liquid-liquid equilibrium temperature, K	uncertainty
.025	361.6	.05
.052	370.05	.05
.089	373.8	.05
.14	374.66	.05
.19	374.77	.05
.265	374.32	.05
.325	372.98	.05
.373	371.14	.05
.406	369.79	.05
.447	367.27	.05
