Measured thermophysical data. Solubilities of (2,5-Dihydroxyphenyl)diphenyl Phosphine Oxide in Selected Solvents
Source: J. Chem. Eng. Data, 2010, 10.1021/je900730w
Compound 1: (2,5-dihydroxyphenyl)diphenyl phosphine oxide, C18H15O3P, purity 99%
Compound 2: methanol, CH4O, purity 99.5%
Compound 3: ethanol, C2H6O, purity 99.7%
Compound 4: ethanol, 2-ethoxy-, C4H10O2, purity 99.5%
Compound 5: toluene, C7H8, purity 99.5%
Compound 6: propanone, C3H6O, purity 99.5%
Compound 7: water, H2O, purity 99.9%

System: (2,5-dihydroxyphenyl)diphenyl phosphine oxide; phases: Crystal, Liquid, Air at 1 atmosphere
Property: Normal melting temperature, K (Crystal); method: DSC/DTA
Normal melting temperature, K	uncertainty
487.75	

System: (2,5-dihydroxyphenyl)diphenyl phosphine oxide; phases: Crystal, Liquid, Air at 1 atmosphere
Property: Molar enthalpy of transition or fusion, kJ/mol (Crystal); method: DSC/DTA
Molar enthalpy of transition or fusion, kJ/mol	uncertainty
37.26	

System: methanol; phases: Liquid
Fixed: Pressure, kPa = 101.325
Property: Mass density, kg/m3 (Liquid); method: Vibrating tube method
Temperature, K	Mass density, kg/m3	uncertainty
293.15	792	

System: methanol; phases: Liquid
Fixed: Pressure, kPa = 101.325
Property: Refractive index (Na D-line) (Liquid); method: Standard Abbe refractometry
Temperature, K	Refractive index (Na D-line)	uncertainty
293.15	1.3301	

System: ethanol; phases: Liquid
Fixed: Pressure, kPa = 101.325
Property: Mass density, kg/m3 (Liquid); method: Vibrating tube method
Temperature, K	Mass density, kg/m3	uncertainty
293.15	790	

System: ethanol; phases: Liquid
Fixed: Pressure, kPa = 101.325
Property: Refractive index (Na D-line) (Liquid); method: Standard Abbe refractometry
Temperature, K	Refractive index (Na D-line)	uncertainty
293.15	1.366	

System: ethanol, 2-ethoxy-; phases: Liquid
Fixed: Pressure, kPa = 101.325
Property: Mass density, kg/m3 (Liquid); method: Vibrating tube method
Temperature, K	Mass density, kg/m3	uncertainty
293.15	929	

System: ethanol, 2-ethoxy-; phases: Liquid
Fixed: Pressure, kPa = 101.325
Property: Refractive index (Na D-line) (Liquid); method: Standard Abbe refractometry
Temperature, K	Refractive index (Na D-line)	uncertainty
293.15	1.4065	

System: toluene; phases: Liquid
Fixed: Pressure, kPa = 101.325
Property: Mass density, kg/m3 (Liquid); method: Vibrating tube method
Temperature, K	Mass density, kg/m3	uncertainty
293.15	866	

System: toluene; phases: Liquid
Fixed: Pressure, kPa = 101.325
Property: Refractive index (Na D-line) (Liquid); method: Standard Abbe refractometry
Temperature, K	Refractive index (Na D-line)	uncertainty
293.15	1.4967	

System: propanone; phases: Liquid
Fixed: Pressure, kPa = 101.325
Property: Mass density, kg/m3 (Liquid); method: Vibrating tube method
Temperature, K	Mass density, kg/m3	uncertainty
293.15	790	

System: propanone; phases: Liquid
Fixed: Pressure, kPa = 101.325
Property: Refractive index (Na D-line) (Liquid); method: Standard Abbe refractometry
Temperature, K	Refractive index (Na D-line)	uncertainty
293.15	1.359	

System: toluene + (2,5-dihydroxyphenyl)diphenyl phosphine oxide; phases: Liquid, Crystal
Fixed: Pressure, kPa = 101
Property: Mole fraction of (2,5-dihydroxyphenyl)diphenyl phosphine oxide (Liquid); method: Gravimetric
Temperature, K	Mole fraction of (2,5-dihydroxyphenyl)diphenyl phosphine oxide	uncertainty
293.96	.00071	.0000142
298.25	.00075	.000015
303.47	.00078	.0000156
308.24	.00082	.0000164
313.45	.00086	.0000172
318.43	.00089	.0000178
323.38	.00094	.0000188
328.45	.00099	.0000198

System: propanone + (2,5-dihydroxyphenyl)diphenyl phosphine oxide; phases: Liquid, Crystal
Fixed: Pressure, kPa = 101
Property: Mole fraction of (2,5-dihydroxyphenyl)diphenyl phosphine oxide (Liquid); method: Gravimetric
Temperature, K	Mole fraction of (2,5-dihydroxyphenyl)diphenyl phosphine oxide	uncertainty
299.45	.00175	.000035
303.26	.00188	.0000376
308.24	.00216	.0000432
313.47	.00236	.0000472
318.13	.00262	.0000524
323.26	.00296	.0000592
328.25	.00332	.0000664

System: methanol + (2,5-dihydroxyphenyl)diphenyl phosphine oxide; phases: Liquid, Crystal
Fixed: Pressure, kPa = 101
Property: Mole fraction of (2,5-dihydroxyphenyl)diphenyl phosphine oxide (Liquid); method: Gravimetric
Temperature, K	Mole fraction of (2,5-dihydroxyphenyl)diphenyl phosphine oxide	uncertainty
294.16	.00625	.000125
298.35	.00707	.0001414
303.87	.00814	.0001628
308.85	.00946	.0001892
313.34	.01082	.0002164
318.15	.01232	.0002464
323.56	.01383	.0002766

System: ethanol + (2,5-dihydroxyphenyl)diphenyl phosphine oxide; phases: Liquid, Crystal
Fixed: Pressure, kPa = 101
Property: Mole fraction of (2,5-dihydroxyphenyl)diphenyl phosphine oxide (Liquid); method: Gravimetric
Temperature, K	Mole fraction of (2,5-dihydroxyphenyl)diphenyl phosphine oxide	uncertainty
293.95	.00571	.0001142
298.26	.00634	.0001268
303.44	.00721	.0001442
308.26	.00787	.0001574
313.45	.00903	.0001806
318.47	.00979	.0001958
323.35	.01093	.0002186
328.43	.01168	.0002336
333.35	.01267	.0002534

System: water + (2,5-dihydroxyphenyl)diphenyl phosphine oxide; phases: Liquid, Crystal
Fixed: Pressure, kPa = 101
Property: Mole fraction of (2,5-dihydroxyphenyl)diphenyl phosphine oxide (Liquid); method: Gravimetric
Temperature, K	Mole fraction of (2,5-dihydroxyphenyl)diphenyl phosphine oxide	uncertainty
297.16	.00011	.0000022
308.15	.00012	.0000024
313.34	.00013	.0000026
318.15	.00014	.0000028
323.47	.00014	.0000028
328.46	.00015	.000003
333.25	.00015	.000003
338.17	.00016	.0000032
343.25	.00017	.0000034
348.36	.00017	.0000034
353.14	.00018	.0000036
358.13	.00018	.0000036
363.27	.00019	.0000038
368.26	.00019	.0000038

System: ethanol, 2-ethoxy- + (2,5-dihydroxyphenyl)diphenyl phosphine oxide; phases: Liquid, Crystal
Fixed: Pressure, kPa = 101
Property: Mole fraction of (2,5-dihydroxyphenyl)diphenyl phosphine oxide (Liquid); method: Gravimetric
Temperature, K	Mole fraction of (2,5-dihydroxyphenyl)diphenyl phosphine oxide	uncertainty
299.43	.01076	.0002152
303.25	.01131	.0002262
308.24	.01241	.0002482
313.46	.01367	.0002734
318.15	.01544	.0003088
323.27	.01681	.0003362
328.26	.01803	.0003606
333.45	.01983	.0003966
338.75	.02229	.0004458
343.15	.02356	.0004712
348.15	.02521	.0005042
353.14	.02786	.0005572
358.06	.02955	.000591
363.15	.03158	.0006316
368.16	.03482	.0006964

System: ethanol, 2-ethoxy- + water + (2,5-dihydroxyphenyl)diphenyl phosphine oxide; phases: Liquid, Crystal
Fixed: Pressure, kPa = 101
Property: Mole fraction of (2,5-dihydroxyphenyl)diphenyl phosphine oxide (Liquid); method: Gravimetric
Temperature, K	Solvent: Mass fraction of ethanol, 2-ethoxy-	Mole fraction of (2,5-dihydroxyphenyl)diphenyl phosphine oxide	uncertainty
299.85	.1983	.00017	.0000034
303.46	.1983	.00018	.0000036
308.14	.1983	.00019	.0000038
313.65	.1983	.00022	.0000044
318.37	.1983	.00024	.0000048
323.25	.1983	.00027	.0000054
328.23	.1983	.00028	.0000056
333.55	.1983	.00031	.0000062
338.16	.1983	.00033	.0000066
343.14	.1983	.00036	.0000072
348.15	.1983	.00038	.0000076
353.86	.1983	.00041	.0000082
358.35	.1983	.00044	.0000088
363.24	.1983	.00048	.0000096
368.35	.1983	.00051	.0000102
298.25	.4012	.00025	.000005
303.36	.4012	.00027	.0000054
308.07	.4012	.00029	.0000058
313.44	.4012	.00032	.0000064
318.56	.4012	.00035	.000007
323.15	.4012	.00037	.0000074
328.14	.4012	.00041	.0000082
333.54	.4012	.00042	.0000084
338.85	.4012	.00044	.0000088
343.16	.4012	.00047	.0000094
348.15	.4012	.00051	.0000102
353.34	.4012	.00053	.0000106
358.06	.4012	.00056	.0000112
363.35	.4012	.00061	.0000122
368.26	.4012	.00063	.0000126
299.85	.6032	.00119	.0000238
303.46	.6032	.00131	.0000262
308.14	.6032	.00147	.0000294
313.65	.6032	.00165	.000033
318.37	.6032	.00191	.0000382
323.25	.6032	.00214	.0000428
328.23	.6032	.00237	.0000474
333.54	.6032	.00269	.0000538
338.15	.6032	.00298	.0000596
343.16	.6032	.00339	.0000678
348.15	.6032	.00373	.0000746
353.84	.6032	.00415	.000083
358.35	.6032	.00461	.0000922
363.26	.6032	.00501	.0001002
368.35	.6032	.00547	.0001094
298.25	.8043	.00519	.0001038
303.36	.8043	.00571	.0001142
308.05	.8043	.00659	.0001318
313.44	.8043	.00699	.0001398
318.55	.8043	.00795	.000159
323.16	.8043	.00858	.0001716
328.15	.8043	.00951	.0001902
333.54	.8043	.01068	.0002136
338.85	.8043	.01153	.0002306
343.17	.8043	.01251	.0002502
348.13	.8043	.01351	.0002702
353.35	.8043	.01477	.0002954
358.06	.8043	.01548	.0003096
363.34	.8043	.01735	.000347
368.25	.8043	.01831	.0003662
