Measured thermophysical data. Liquid-Liquid Equilibria for Aliphatic Alcohols + Dipotassium Oxalate + Water
Source: J. Chem. Eng. Data, 2010, 10.1021/je9008188
Compound 1: propan-1-ol, C3H8O
Compound 2: 2-propanol, C3H8O
Compound 3: dl-sec-butyl alcohol, C4H10O
Compound 4: potassium oxalate, C2K2O4
Compound 5: water, H2O
Compound 6: tert-butanol, C4H10O

System: 2-propanol + potassium oxalate + water; phases: Liquid mixture 1, Liquid mixture 2
Fixed: Pressure, kPa = 101
Fixed: Temperature, K = 298.15
Property: Mass fraction of potassium oxalate (Liquid mixture 1); method: Titration method
Mass fraction of 2-propanol	Mass fraction of potassium oxalate	uncertainty
.02019	.24306	
.03688	.22457	
.05634	.20498	
.07222	.18822	
.09694	.16831	
.11707	.15321	
.13919	.13752	
.16104	.12537	
.17702	.11743	
.20374	.1034	
.21958	.09593	
.24301	.0858	
.27594	.07392	
.30379	.06259	
.3274	.05421	
.36145	.04456	
.37185	.04077	
.39205	.03441	
.41274	.03017	
.42129	.02914	

System: 2-propanol + potassium oxalate + water; phases: Liquid mixture 1, Liquid mixture 2
Fixed: Pressure, kPa = 101
Property: Mole fraction of 2-propanol (Liquid mixture 1); method: Titration method
Temperature, K	Solvent: Amount ratio of component to other component of binary solvent of potassium oxalate	Mole fraction of 2-propanol	uncertainty
298.15	.00885	.167	.0002
303.15	.00885	.164	.0002
308.15	.00885	.161	.0002
313.15	.00885	.16	.0002
318.15	.00885	.157	.0002
323.15	.00885	.155	.0002
328.15	.00885	.153	.0002

System: 2-propanol + potassium oxalate + water; phases: Liquid
Fixed: Temperature, K = 298.15
Fixed: Pressure, kPa = 101
Property: Refractive index (Na D-line) (Liquid); method: Standard Abbe refractometry
Mass fraction of 2-propanol	Mass fraction of potassium oxalate	Refractive index (Na D-line)	uncertainty
0	.047291	1.3387	
.009711	.043723	1.3392	
.010436	.04074	1.3387	
.017439	.035413	1.3389	
.024813	.03422	1.3395	
.031296	.030592	1.3393	
.038646	.028773	1.3397	
.043815	.025645	1.3398	
.055326	.022864	1.3405	
.054903	.019348	1.3402	
.061805	.015693	1.3399	
.067627	.013951	1.3405	
.07356	.009755	1.3406	
.078453	.007774	1.3403	
.085307	.004214	1.3405	
.091135	.001579	1.3404	
.096518	0	1.3406	

System: 2-propanol + potassium oxalate + water; phases: Liquid mixture 1, Liquid mixture 2
Fixed: Temperature, K = 298.15
Fixed: Pressure, kPa = 101
Property: Refractive index (Na D-line) (Liquid mixture 1); method: Standard Abbe refractometry
Mass fraction of 2-propanol	Refractive index (Na D-line)	uncertainty
.017223	1.3363	
.02076	1.3367	
.021333	1.3364	
.014487	1.3366	
.019273	1.3365	
.021863	1.3365	

System: 2-propanol + potassium oxalate + water; phases: Liquid mixture 2, Liquid mixture 1
Fixed: Temperature, K = 298.15
Fixed: Pressure, kPa = 101
Property: Refractive index (Na D-line) (Liquid mixture 2); method: Standard Abbe refractometry
Mass fraction of 2-propanol	Refractive index (Na D-line)	uncertainty
.00368	1.3373	
.00257	1.338	
.002021	1.3382	
.005025	1.337	
.00279	1.3378	
.001901	1.338	
.017223	1.3363	
.02076	1.3367	
.021333	1.3364	
.014487	1.3366	

System: 2-propanol + potassium oxalate + water; phases: Liquid mixture 1, Liquid mixture 2
Property: Mass fraction of potassium oxalate (Liquid mixture 1); method: Index of refraction calibration data
Property: Mass fraction of 2-propanol (Liquid mixture 2); method: Index of refraction calibration data
Property: Mass fraction of potassium oxalate (Liquid mixture 2); method: Index of refraction calibration data
Temperature, K	Pressure, kPa	Mass fraction of 2-propanol	Mass fraction of potassium oxalate	uncertainty	Mass fraction of 2-propanol	uncertainty	Mass fraction of potassium oxalate	uncertainty
298.15	1	.34937	.05221	.0002	.2072	.0002	.1098	.0002
298.15	1	.40906	.03583	.0002	.14609	.0002	.13868	.0002
298.15	1	.46211	.02398	.0002	.13031	.0002	.1496	.0002
298.15	1	.49255	.02245	.0002	.12277	.0002	.15866	.0002
298.15	1	.52105	.01681	.0002	.09494	.0002	.17303	.0002

System: propan-1-ol + potassium oxalate + water; phases: Liquid mixture 1, Liquid mixture 2
Fixed: Pressure, kPa = 101
Fixed: Temperature, K = 298.15
Property: Mass fraction of potassium oxalate (Liquid mixture 1); method: Titration method
Mass fraction of propan-1-ol	Mass fraction of potassium oxalate	uncertainty
.04918	.20588	
.05826	.18329	
.06735	.17043	
.07852	.15269	
.08787	.14244	
.10208	.12412	
.11105	.11696	
.11976	.1091	
.13551	.09722	
.14767	.09034	
.15978	.0855	
.16701	.08132	
.1796	.07589	
.19711	.06972	
.21934	.06351	
.23587	.05935	
.2549	.05498	
.27108	.0515	
.29256	.04748	
.30663	.04487	
.32063	.04229	
.33565	.0398	
.35304	.03663	
.36857	.03373	
.39165	.03094	
.3996	.02981	
.40571	.02846	
.41731	.02656	
.43999	.02208	
.47536	.01976	

System: propan-1-ol + potassium oxalate + water; phases: Liquid mixture 1, Liquid mixture 2
Fixed: Pressure, kPa = 101
Property: Mole fraction of propan-1-ol (Liquid mixture 1); method: Titration method
Temperature, K	Solvent: Amount ratio of component to other component of binary solvent of potassium oxalate	Mole fraction of propan-1-ol	uncertainty
293.15	.00886	.101	.0002
298.15	.00886	.096	.0002
303.15	.00886	.092	.0002
308.15	.00886	.089	.0002
313.15	.00886	.087	.0002
318.15	.00886	.087	.0002
323.15	.00886	.087	.0002
328.15	.00886	.087	.0002

System: propan-1-ol + potassium oxalate + water; phases: Liquid
Fixed: Temperature, K = 298.15
Fixed: Pressure, kPa = 101
Property: Refractive index (Na D-line) (Liquid); method: Standard Abbe refractometry
Mass fraction of propan-1-ol	Mass fraction of potassium oxalate	Refractive index (Na D-line)	uncertainty
0	.047255	1.3387	
.009613	.043349	1.3389	
.018513	.040151	1.3396	
.018715	.037483	1.3391	
.024529	.034518	1.3394	
.036911	.029265	1.3401	
.044098	.025441	1.3402	
.055112	.022065	1.3406	
.054121	.019191	1.34	
.061526	.016517	1.3404	
.067678	.012259	1.3401	
.073726	.011457	1.3406	
.078318	.009378	1.3407	
.085236	.004392	1.3407	
.091032	.002408	1.341	
.097685	0	1.3413	

System: propan-1-ol + potassium oxalate + water; phases: Liquid mixture 1, Liquid mixture 2
Fixed: Temperature, K = 298.15
Fixed: Pressure, kPa = 101
Property: Refractive index (Na D-line) (Liquid mixture 1); method: Standard Abbe refractometry
Mass fraction of propan-1-ol	Refractive index (Na D-line)	uncertainty
.014964	1.3367	
.017656	1.3368	
.020487	1.337	
.02314	1.3373	
.025229	1.3376	
.027294	1.3378	

System: propan-1-ol + potassium oxalate + water; phases: Liquid mixture 2, Liquid mixture 1
Fixed: Temperature, K = 298.15
Fixed: Pressure, kPa = 101
Property: Refractive index (Na D-line) (Liquid mixture 2); method: Standard Abbe refractometry
Mass fraction of propan-1-ol	Refractive index (Na D-line)	uncertainty
.001008	1.3389	
.000772	1.3394	
.000608	1.3398	
.000481	1.34	
.000351	1.3402	
.000284	1.3405	
.014964	1.3367	
.017656	1.3368	
.020487	1.337	
.02314	1.3373	

System: propan-1-ol + potassium oxalate + water; phases: Liquid mixture 2, Liquid mixture 1
Property: Mass fraction of potassium oxalate (Liquid mixture 2); method: Index of refraction calibration data
Property: Mass fraction of propan-1-ol (Liquid mixture 1); method: Index of refraction calibration data
Property: Mass fraction of potassium oxalate (Liquid mixture 1); method: Index of refraction calibration data
Temperature, K	Pressure, kPa	Mass fraction of propan-1-ol	Mass fraction of potassium oxalate	uncertainty	Mass fraction of propan-1-ol	uncertainty	Mass fraction of potassium oxalate	uncertainty
298.15	1	.14374	.09749	.0002	.56834	.0002	.00885	.0002
298.15	1	.11194	.11524	.0002	.61732	.0002	.00662	.0002
298.15	1	.08931	.13898	.0002	.65489	.0002	.00521	.0002
298.15	1	.0713	.16129	.0002	.68213	.0002	.00399	.0002
298.15	1	.06568	.18199	.0002	.70392	.0002	.00292	.0002
298.15	1	.05145	.19991	.0002	.72458	.0002	.00234	.0002

System: tert-butanol + potassium oxalate + water; phases: Liquid mixture 1, Liquid mixture 2
Fixed: Pressure, kPa = 101
Fixed: Temperature, K = 298.15
Property: Mass fraction of potassium oxalate (Liquid mixture 1); method: Titration method
Mass fraction of tert-butanol	Mass fraction of potassium oxalate	uncertainty
.03479	.20779	
.04567	.19434	
.06335	.16443	
.08933	.13443	
.09567	.12681	
.1035	.11578	
.10994	.11055	
.11575	.10396	
.1221	.09858	
.12713	.09541	
.13839	.08802	
.14762	.08254	
.15972	.0752	
.17603	.06844	
.18735	.0641	
.19648	.06071	
.20442	.05829	
.21511	.05501	
.22566	.05248	
.23432	.0502	
.25055	.04654	
.26619	.04362	
.27467	.04201	
.28447	.0402	
.30209	.03716	
.31594	.03502	
.32858	.033	
.34517	.03108	
.37673	.02839	

System: tert-butanol + potassium oxalate + water; phases: Liquid mixture 1, Liquid mixture 2
Fixed: Pressure, kPa = 101
Property: Mole fraction of tert-butanol (Liquid mixture 1); method: Titration method
Temperature, K	Solvent: Amount ratio of component to other component of binary solvent of potassium oxalate	Mole fraction of tert-butanol	uncertainty
293.15	.00885	.069	.0002
298.15	.00885	.062	.0002
303.15	.00885	.055	.0002
308.15	.00885	.049	.0002
313.15	.00885	.044	.0002
318.15	.00885	.041	.0002
323.15	.00885	.038	.0002
328.15	.00885	.035	.0002

System: tert-butanol + potassium oxalate + water; phases: Liquid
Fixed: Temperature, K = 298.15
Fixed: Pressure, kPa = 101
Property: Refractive index (Na D-line) (Liquid); method: Standard Abbe refractometry
Mass fraction of tert-butanol	Mass fraction of potassium oxalate	Refractive index (Na D-line)	uncertainty
0	.044551	1.3386	
.006422	.043584	1.339	
.0122	.040355	1.3391	
.018735	.038165	1.3395	
.025025	.03455	1.3398	
.03144	.03141	1.3401	
.037428	.027853	1.3402	
.043345	.024259	1.3403	
.049474	.022047	1.3405	
.055249	.018163	1.3408	
.061452	.015812	1.341	
.067282	.014674	1.3416	
.072809	.011152	1.3419	
.08523	.004582	1.3424	
.0958	0	1.3428	

System: tert-butanol + potassium oxalate + water; phases: Liquid mixture 1, Liquid mixture 2
Fixed: Temperature, K = 298.15
Fixed: Pressure, kPa = 101
Property: Refractive index (Na D-line) (Liquid mixture 1); method: Standard Abbe refractometry
Mass fraction of tert-butanol	Refractive index (Na D-line)	uncertainty
.013188	1.3359	
.013377	1.3358	
.015878	1.3359	
.017819	1.336	
.02003	1.3362	
.022809	1.3365	

System: tert-butanol + potassium oxalate + water; phases: Liquid mixture 2, Liquid mixture 1
Fixed: Temperature, K = 298.15
Fixed: Pressure, kPa = 101
Property: Refractive index (Na D-line) (Liquid mixture 2); method: Standard Abbe refractometry
Mass fraction of tert-butanol	Refractive index (Na D-line)	uncertainty
.000478	1.3404	
.000544	1.3405	
.000341	1.3409	
.000271	1.341	
.000201	1.3413	
.000136	1.3413	
.013188	1.3359	
.013377	1.3358	
.015878	1.3359	
.017819	1.336	

System: tert-butanol + potassium oxalate + water; phases: Liquid mixture 1, Liquid mixture 2
Property: Mass fraction of potassium oxalate (Liquid mixture 1); method: Index of refraction calibration data
Property: Mass fraction of potassium oxalate (Liquid mixture 2); method: Index of refraction calibration data
Property: Mass fraction of tert-butanol (Liquid mixture 2); method: Index of refraction calibration data
Temperature, K	Pressure, kPa	Mass fraction of tert-butanol	Mass fraction of potassium oxalate	uncertainty	Mass fraction of potassium oxalate	uncertainty	Mass fraction of tert-butanol	uncertainty
298.15	1	.61864	.00372	.0002	.09828	.0002	.12592	.0002
298.15	1	.64797	.00218	.0002	.12331	.0002	.1027	.0002
298.15	1	.6665	.00176	.0002	.14038	.0002	.08941	.0002
298.15	1	.6794	.00128	.0002	.16052	.0002	.08059	.0002
298.15	1	.69545	.00089	.0002	.18224	.0002	.07545	.0002

System: dl-sec-butyl alcohol + potassium oxalate + water; phases: Liquid mixture 1, Liquid mixture 2
Fixed: Pressure, kPa = 101
Fixed: Temperature, K = 298.15
Property: Mass fraction of potassium oxalate (Liquid mixture 1); method: Titration method
Mass fraction of dl-sec-butyl alcohol	Mass fraction of potassium oxalate	uncertainty
.02004	.23938	
.03601	.1579	
.04969	.12486	
.0556	.11431	
.05938	.10709	
.06339	.1001	
.06664	.09333	
.07025	.08542	
.07333	.08107	
.07572	.07776	
.07917	.07168	
.08193	.06663	
.08498	.06233	
.08887	.05811	
.09366	.05432	
.09621	.05017	
.10108	.04558	
.10229	.04165	
.1055	.03947	
.10844	.03674	
.11416	.02959	
.11752	.0277	
.12216	.02369	
.12451	.02232	
.12866	.02023	

System: dl-sec-butyl alcohol + potassium oxalate + water; phases: Liquid mixture 1, Liquid mixture 2
Fixed: Pressure, kPa = 101
Property: Mole fraction of dl-sec-butyl alcohol (Liquid mixture 1); method: Titration method
Temperature, K	Solvent: Amount ratio of component to other component of binary solvent of potassium oxalate	Mole fraction of dl-sec-butyl alcohol	uncertainty
293.15	.00885	.027	.0002
298.15	.00885	.025	.0002
303.15	.00885	.024	.0002
308.15	.00885	.023	.0002
313.15	.00885	.022	.0002
318.15	.00885	.021	.0002
323.15	.00885	.019	.0002
328.15	.00885	.018	.0002

System: dl-sec-butyl alcohol + potassium oxalate + water; phases: Liquid
Fixed: Temperature, K = 298.15
Fixed: Pressure, kPa = 101
Property: Refractive index (Na D-line) (Liquid); method: Standard Abbe refractometry
Mass fraction of dl-sec-butyl alcohol	Mass fraction of potassium oxalate	Refractive index (Na D-line)	uncertainty
.014752	.045071	1.3405	
.013526	.04123	1.34	
.027093	.035487	1.3406	
.033	.030502	1.3403	
.038513	.028124	1.3407	
.044882	.024549	1.3406	
.049386	.022237	1.341	
.055058	.018338	1.3412	
.061706	.014681	1.3412	
.067781	.01206	1.3414	
.073772	.010326	1.3416	
.078049	.005847	1.3416	
.091413	.001484	1.3425	
.096536	0	1.3426	

System: dl-sec-butyl alcohol + potassium oxalate + water; phases: Liquid mixture 1, Liquid mixture 2
Fixed: Temperature, K = 298.15
Fixed: Pressure, kPa = 101
Property: Refractive index (Na D-line) (Liquid mixture 1); method: Standard Abbe refractometry
Mass fraction of dl-sec-butyl alcohol	Refractive index (Na D-line)	uncertainty
.005338	1.3353	
.007241	1.3354	
.010539	1.3355	
.013718	1.3357	
.016845	1.3361	
.019665	1.3365	

System: dl-sec-butyl alcohol + potassium oxalate + water; phases: Liquid mixture 2, Liquid mixture 1
Fixed: Temperature, K = 298.15
Fixed: Pressure, kPa = 101
Property: Refractive index (Na D-line) (Liquid mixture 2); method: Standard Abbe refractometry
Mass fraction of dl-sec-butyl alcohol	Refractive index (Na D-line)	uncertainty
.000034	1.3404	
.000022	1.3405	
.000026	1.3408	
.000022	1.3408	
.000022	1.3412	
.000019	1.3411	
.005338	1.3353	
.007241	1.3354	
.010539	1.3355	
.013718	1.3357	

System: dl-sec-butyl alcohol + potassium oxalate + water; phases: Liquid mixture 1, Liquid mixture 2
Property: Mass fraction of potassium oxalate (Liquid mixture 1); method: Index of refraction calibration data
Property: Mass fraction of potassium oxalate (Liquid mixture 2); method: Index of refraction calibration data
Property: Mass fraction of dl-sec-butyl alcohol (Liquid mixture 2); method: Index of refraction calibration data
Temperature, K	Pressure, kPa	Mass fraction of dl-sec-butyl alcohol	Mass fraction of potassium oxalate	uncertainty	Mass fraction of potassium oxalate	uncertainty	Mass fraction of dl-sec-butyl alcohol	uncertainty
298.15	1	.7387	.00033	.0002	.03058	.0002	.1075	.0002
298.15	1	.75383	.00022	.0002	.04463	.0002	.10204	.0002
298.15	1	.77516	.00025	.0002	.06525	.0002	.08048	.0002
298.15	1	.78541	.00022	.0002	.08446	.0002	.06471	.0002
298.15	1	.80133	.00021	.0002	.10873	.0002	.05466	.0002
298.15	1	.8095	.00019	.0002	.13537	.0002	.04101	.0002
