Measured thermophysical data. Fractional Walden Rule for Ionic Liquids: Examples from Recent Measurements and a Critique of the So-Called Ideal KCl Line for the Walden Plot
Source: J. Chem. Eng. Data, 2010, 10.1021/je900878j
Compound 1: 1-ethyl-3-methylimidazolium tetrafluoroborate, C6H11BF4N2
Compound 2: 1-butyl-3-methylimidazolium tetrafluoroborate, C8H15BF4N2
Compound 3: [C2mim][NTf2], C8H11F6N3O4S2
Compound 4: 1-ethyl-3-methylimidazolium dicyanamide, C8H11N5

System: 1-ethyl-3-methylimidazolium tetrafluoroborate; phases: Liquid
Fixed: Pressure, kPa = 101.325
Property: Electrical conductivity, S/m (Liquid); method: Symmetrical Wheatstone bridge
Temperature, K	Electrical conductivity, S/m	uncertainty
238.15	.04188	.00016752
248.15	.10876	.00043504
258.15	.23327	.00093308
268.15	.4316	.0017264
278.15	.71684	.00286736
288.15	1.0962	.0043848
298.15	1.5725	.00629
303.15	1.8466	.0073864
313.15	2.4658	.0098632
323.15	3.1759	.0127036
333.15	3.9698	.0158792
343.15	4.8434	.0193736
353.15	5.7938	.0231752

System: 1-ethyl-3-methylimidazolium tetrafluoroborate; phases: Liquid
Fixed: Pressure, kPa = 101.325
Property: Viscosity, Pa*s (Liquid); method: Capillary tube (Ostwald; Ubbelohde) method
Temperature, K	Viscosity, Pa*s	uncertainty
269.15	.145	.000725
273.15	.1141	.0005705
278.15	.08688	.0004344
288.15	.0541	.0002705
293.15	.04419	.00022095
298.15	.03617	.00018085
303.15	.03013	.00015065
313.15	.02177	.00010885
323.15	.01635	.00008175
333.15	.0127	.0000635
343.15	.01012	.0000506
353.15	.00823	.00004115

System: 1-ethyl-3-methylimidazolium tetrafluoroborate; phases: Liquid
Fixed: Pressure, kPa = 101.325
Property: Mass density, kg/m3 (Liquid); method: Vibrating tube method
Temperature, K	Mass density, kg/m3	uncertainty
298.15	1288.8	.12888
303.15	1285	.1285
313.15	1277.5	.12775
323.15	1269.9	.12699
333.15	1262.4	.12624

System: 1-butyl-3-methylimidazolium tetrafluoroborate; phases: Liquid
Fixed: Pressure, kPa = 101.325
Property: Electrical conductivity, S/m (Liquid); method: Symmetrical Wheatstone bridge
Temperature, K	Electrical conductivity, S/m	uncertainty
258.15	.02318	.00009272
268.15	.05477	.00021908
278.15	.11367	.00045468
288.15	.21159	.00084636
298.15	.3587	.0014348
303.15	.45427	.00181708
313.15	.69129	.00276516
323.15	.99417	.00397668
333.15	1.364	.005456
343.15	1.7999	.0071996
353.15	2.3015	.009206

System: 1-butyl-3-methylimidazolium tetrafluoroborate; phases: Liquid
Fixed: Pressure, kPa = 101.325
Property: Viscosity, Pa*s (Liquid); method: Capillary tube (Ostwald; Ubbelohde) method
Temperature, K	Viscosity, Pa*s	uncertainty
293.15	.1411	.0007055
298.15	.1076	.000538
303.15	.0833	.0004165
313.15	.05281	.00026405
323.15	.03553	.00017765
333.15	.02511	.00012555
343.15	.01848	.0000924
353.15	.01406	.0000703

System: 1-butyl-3-methylimidazolium tetrafluoroborate; phases: Liquid
Fixed: Pressure, kPa = 101.325
Property: Mass density, kg/m3 (Liquid); method: Vibrating tube method
Temperature, K	Mass density, kg/m3	uncertainty
298.15	1202.4	.12024
303.15	1198.6	.11986
313.15	1191.6	.11916
323.15	1184.5	.11845
333.15	1177.3	.11773

System: [C2mim][NTf2]; phases: Liquid
Fixed: Pressure, kPa = 101.325
Property: Electrical conductivity, S/m (Liquid); method: Symmetrical Wheatstone bridge
Temperature, K	Electrical conductivity, S/m	uncertainty
248.15	.0705	.000282
258.15	.14754	.00059016
268.15	.26707	.00106828
278.15	.43466	.00173864
288.15	.65264	.00261056
298.15	.92098	.00368392
303.15	1.0736	.0042944
313.15	1.4139	.0056556
323.15	1.7989	.0071956
333.15	2.2244	.0088976
343.15	2.6887	.0107548
353.15	3.189	.012756

System: [C2mim][NTf2]; phases: Liquid
Fixed: Pressure, kPa = 101.325
Property: Viscosity, Pa*s (Liquid); method: Capillary tube (Ostwald; Ubbelohde) method
Temperature, K	Viscosity, Pa*s	uncertainty
263.15	.1751	.0008755
268.15	.1288	.000644
278.15	.07513	.00037565
288.15	.04778	.0002389
293.15	.03907	.00019535
298.15	.03246	.0001623
303.15	.0273	.0001365
313.15	.01997	.00009985
323.15	.01517	.00007585
333.15	.01187	.00005935
343.15	.00954	.0000477
353.15	.00783	.00003915

System: [C2mim][NTf2]; phases: Liquid
Fixed: Pressure, kPa = 101.325
Property: Mass density, kg/m3 (Liquid); method: Vibrating tube method
Temperature, K	Mass density, kg/m3	uncertainty
298.15	1519.3	.15193
303.15	1514.2	.15142
313.15	1504.3	.15043
323.15	1494.3	.14943
333.15	1484.4	.14844

System: 1-ethyl-3-methylimidazolium dicyanamide; phases: Liquid
Fixed: Pressure, kPa = 101.325
Property: Electrical conductivity, S/m (Liquid); method: Symmetrical Wheatstone bridge
Temperature, K	Electrical conductivity, S/m	uncertainty
238.15	.15461	.00061844
248.15	.34041	.00136164
258.15	.63051	.00252204
268.15	1.0352	.0041408
278.15	1.5558	.0062232
288.15	2.1886	.0087544
298.15	2.9281	.0117124
303.15	3.3421	.0133684
313.15	4.2263	.0169052
323.15	5.1945	.020778
333.15	6.2359	.0249436
343.15	7.3435	.029374
353.15	8.5093	.0340372

System: 1-ethyl-3-methylimidazolium dicyanamide; phases: Liquid
Fixed: Pressure, kPa = 101.325
Property: Viscosity, Pa*s (Liquid); method: Capillary tube (Ostwald; Ubbelohde) method
Temperature, K	Viscosity, Pa*s	uncertainty
258.15	.07538	.0003769
263.15	.05681	.00028405
268.15	.04424	.0002212
273.15	.03522	.0001761
278.15	.02859	.00014295
288.15	.01981	.00009905
293.15	.01685	.00008425
298.15	.0145	.0000725
303.15	.01262	.0000631
313.15	.0098	.000049
323.15	.00783	.00003915
333.15	.00643	.00003215
343.15	.00536	.0000268
353.15	.00455	.00002275

System: 1-ethyl-3-methylimidazolium dicyanamide; phases: Liquid
Fixed: Pressure, kPa = 101.325
Property: Mass density, kg/m3 (Liquid); method: Vibrating tube method
Temperature, K	Mass density, kg/m3	uncertainty
298.15	1100.8	.11008
303.15	1097.5	.10975
313.15	1091	.1091
323.15	1084.4	.10844
333.15	1077.9	.10779
