Measured thermophysical data. Thermal Stability, Sublimation Pressures, and Diffusion Coefficients of Anthracene, Pyrene, and Some Metal beta-Diketonates
Source: J. Chem. Eng. Data, 2009, 10.1021/je9001653
Compound 1: anthracene, C14H10
Compound 2: pyrene, C16H10
Compound 3: copper, bis(2,4-pentanedionato-O,O')-, (sp-4-1)-, C10H14CuO4
Compound 4: ruthenium(III) acetylacetonate, C15H21O6Ru

System: anthracene; phases: Crystal, Gas
Property: Vapor or sublimation pressure, kPa (Crystal); method: Knudsen effusion method
Temperature, K	Vapor or sublimation pressure, kPa	uncertainty
339.25	.000104	.000021
348.35	.000289	.000022
383.95	.00577	.0005
360.45	.000978	.000028
369.85	.00118	.000029
365.66	.00158	.000033
373.95	.00311	.000045
376.95	.00358	.000049
379.55	.00416	.000053
386.45	.00813	.000085
389.05	.00875	.00009
389.05	.00962	.000097
393.75	.01211	.000121
393.75	.01243	.000124
392.95	.01486	.000149
398.05	.01765	.000177
398.55	.01813	.000181
398.55	.0185	.000185

System: pyrene; phases: Crystal 1, Gas
Property: Vapor or sublimation pressure, kPa (Crystal 1); method: Knudsen effusion method
Temperature, K	Vapor or sublimation pressure, kPa	uncertainty
341.45	.000075	.00002
351.05	.000171	.000021
369.85	.000882	.000027
373.95	.00147	.000032
379.55	.00197	.000036
383.95	.00472	.000058
389.05	.00539	.000063
392.95	.00846	.000088
398.55	.01067	.000105
402.05	.01662	.000153
408.05	.02731	.000239

System: copper, bis(2,4-pentanedionato-O,O')-, (sp-4-1)-; phases: Crystal, Gas
Property: Vapor or sublimation pressure, kPa (Crystal); method: Closed cell (Static) method
Temperature, K	Vapor or sublimation pressure, kPa	uncertainty
367.65	.000022	.00002
372.42	.000039	.00002
376.95	.000068	.00002
381.83	.00011	.000021
386.45	.000172	.000021
388.98	.000201	.000021
395.55	.000398	.000023
398.5	.000601	.000025
400.64	.000705	.000025
403.26	.000875	.000027
405.05	.00118	.000029
414.35	.00257	.00004
417.53	.00387	.000051
423.85	.00479	.000058
433.65	.00927	.000094
442.85	.0199	.000179

System: ruthenium(III) acetylacetonate; phases: Crystal, Gas
Property: Vapor or sublimation pressure, kPa (Crystal); method: Closed cell (Static) method
Temperature, K	Vapor or sublimation pressure, kPa	uncertainty
393.75	.000029	.00002
398.51	.000038	.00002
403.26	.000057	.00002
408.02	.000106	.000021
408.02	.000117	.000021
412.78	.00025	.000022
417.53	.000355	.000023
417.54	.000443	.000023
422.3	.000592	.000025
427.15	.000891	.000027
431.81	.001395	.000031
431.81	.001413	.000031
436.57	.00184	.000035
441.33	.00353	.000048
