Measured thermophysical data. Density, Speed of Sound, and Refractive Index of Aqueous Binary Mixtures of Some Glycol Ethers at T = 298.15 K
Source: J. Chem. Eng. Data, 2010, 10.1021/je901072c
Compound 1: water, H2O, purity 99.5%
Compound 2: 2-isopropoxyethanol, C5H12O2
Compound 3: 2-butoxyethanol, C6H14O2
Compound 4: 2-(2-butoxyethoxy)ethanol, C8H18O3
Compound 5: 2,5,8-trioxanonane, C6H14O3
Compound 6: 1-methoxy-2-hydroxypropane (isomer not specified), C4H10O2
Compound 7: dipropylene glycol monomethyl ether, C7H16O3

System: 2-isopropoxyethanol; phases: Liquid
Property: Mass density, kg/m3 (Liquid); method: Pycnometric method
Temperature, K	Pressure, kPa	Mass density, kg/m3	uncertainty
298.15	101	899.69	.05

System: 2-isopropoxyethanol; phases: Liquid
Property: Speed of sound, m/s (Liquid); method: Linear variable-path acoustic interferometer
Temperature, K	Pressure, kPa	Speed of sound, m/s	uncertainty
298.15	101	1268.6	.5

System: 2-isopropoxyethanol; phases: Liquid
Fixed: Pressure, kPa = 101.325
Property: Refractive index (Na D-line) (Liquid); method: Standard Abbe refractometry
Temperature, K	Refractive index (Na D-line)	uncertainty
298.15	1.4079	.0001

System: 2-butoxyethanol; phases: Liquid
Property: Mass density, kg/m3 (Liquid); method: Pycnometric method
Temperature, K	Pressure, kPa	Mass density, kg/m3	uncertainty
298.15	101	895.79	.05

System: 2-butoxyethanol; phases: Liquid
Property: Speed of sound, m/s (Liquid); method: Linear variable-path acoustic interferometer
Temperature, K	Pressure, kPa	Speed of sound, m/s	uncertainty
298.15	101	1308.7	.5

System: 2-butoxyethanol; phases: Liquid
Fixed: Pressure, kPa = 101.325
Property: Refractive index (Na D-line) (Liquid); method: Standard Abbe refractometry
Temperature, K	Refractive index (Na D-line)	uncertainty
298.15	1.4171	.0001

System: 2-(2-butoxyethoxy)ethanol; phases: Liquid
Property: Mass density, kg/m3 (Liquid); method: Pycnometric method
Temperature, K	Pressure, kPa	Mass density, kg/m3	uncertainty
298.15	101	950.41	.05

System: 2-(2-butoxyethoxy)ethanol; phases: Liquid
Property: Speed of sound, m/s (Liquid); method: Linear variable-path acoustic interferometer
Temperature, K	Pressure, kPa	Speed of sound, m/s	uncertainty
298.15	101	1360	.5

System: 2-(2-butoxyethoxy)ethanol; phases: Liquid
Fixed: Pressure, kPa = 101.325
Property: Refractive index (Na D-line) (Liquid); method: Standard Abbe refractometry
Temperature, K	Refractive index (Na D-line)	uncertainty
298.15	1.4295	.0001

System: 2,5,8-trioxanonane; phases: Liquid
Property: Mass density, kg/m3 (Liquid); method: Pycnometric method
Temperature, K	Pressure, kPa	Mass density, kg/m3	uncertainty
298.15	101	938.78	.05

System: 2,5,8-trioxanonane; phases: Liquid
Property: Speed of sound, m/s (Liquid); method: Linear variable-path acoustic interferometer
Temperature, K	Pressure, kPa	Speed of sound, m/s	uncertainty
298.15	101	1278.4	.5

System: 2,5,8-trioxanonane; phases: Liquid
Fixed: Pressure, kPa = 101.325
Property: Refractive index (Na D-line) (Liquid); method: Standard Abbe refractometry
Temperature, K	Refractive index (Na D-line)	uncertainty
298.15	1.406	.0001

System: 1-methoxy-2-hydroxypropane (isomer not specified); phases: Liquid
Property: Mass density, kg/m3 (Liquid); method: Pycnometric method
Temperature, K	Pressure, kPa	Mass density, kg/m3	uncertainty
298.15	101	916.31	.05

System: 1-methoxy-2-hydroxypropane (isomer not specified); phases: Liquid
Property: Speed of sound, m/s (Liquid); method: Linear variable-path acoustic interferometer
Temperature, K	Pressure, kPa	Speed of sound, m/s	uncertainty
298.15	101	1261.1	.5

System: 1-methoxy-2-hydroxypropane (isomer not specified); phases: Liquid
Fixed: Pressure, kPa = 101.325
Property: Refractive index (Na D-line) (Liquid); method: Standard Abbe refractometry
Temperature, K	Refractive index (Na D-line)	uncertainty
298.15	1.401	.0001

System: dipropylene glycol monomethyl ether; phases: Liquid
Property: Mass density, kg/m3 (Liquid); method: Pycnometric method
Temperature, K	Pressure, kPa	Mass density, kg/m3	uncertainty
298.15	101	950.96	.05

System: dipropylene glycol monomethyl ether; phases: Liquid
Property: Speed of sound, m/s (Liquid); method: Linear variable-path acoustic interferometer
Temperature, K	Pressure, kPa	Speed of sound, m/s	uncertainty
298.15	101	1302.3	.5

System: dipropylene glycol monomethyl ether; phases: Liquid
Fixed: Pressure, kPa = 101.325
Property: Refractive index (Na D-line) (Liquid); method: Standard Abbe refractometry
Temperature, K	Refractive index (Na D-line)	uncertainty
298.15	1.4199	.0001

System: 2-isopropoxyethanol + water; phases: Liquid
Fixed: Temperature, K = 298.15
Fixed: Pressure, kPa = 101
Property: Mass density, kg/m3 (Liquid); method: Pycnometric method
Mole fraction of 2-isopropoxyethanol	Mass density, kg/m3	uncertainty
0	997.05	.05
.005	996.27	.05
.0075	996	.05
.01	995.77	.05
.0251	995	.05
.05	993.52	.05
.0748	989.7	.05
.0999	984.98	.05
.1504	974.25	.05
.1986	965.16	.05
.3015	949.21	.05
.4033	937.08	.05
.496	928.29	.05
.6005	920.17	.05
.7027	913.59	.05
.7957	908.56	.05
.9034	903.69	.05
1	899.69	.05

System: 2-isopropoxyethanol + water; phases: Liquid
Fixed: Temperature, K = 298.15
Fixed: Pressure, kPa = 101
Property: Speed of sound, m/s (Liquid); method: Linear variable-path acoustic interferometer
Mole fraction of 2-isopropoxyethanol	Speed of sound, m/s	uncertainty
0	1496.7	.5
.005	1524.5	.5
.0075	1530.2	.5
.01	1541.8	.5
.0251	1593.3	.5
.05	1620.9	.5
.0748	1610.9	.5
.0999	1588.8	.5
.1504	1532.7	.5
.1986	1493.9	.5
.3015	1435.8	.5
.4033	1391.8	.5
.496	1355.1	.5
.6005	1331.8	.5
.7027	1313.6	.5
.7957	1297.5	.5
.9034	1283.7	.5
1	1268.6	.5

System: 2-isopropoxyethanol + water; phases: Liquid
Fixed: Temperature, K = 298.15
Fixed: Pressure, kPa = 101
Property: Refractive index (Na D-line) (Liquid); method: Standard Abbe refractometry
Mole fraction of 2-isopropoxyethanol	Refractive index (Na D-line)	uncertainty
0	1.3325	.0001
.005	1.3355	.0001
.0075	1.3376	.0001
.01	1.3396	.0001
.0251	1.3476	.0001
.05	1.359	.0001
.0748	1.3675	.0001
.0999	1.3737	.0001
.1504	1.3845	.0001
.1986	1.389	.0001
.3015	1.3975	.0001
.4033	1.4019	.0001
.496	1.4047	.0001
.6005	1.4054	.0001
.7027	1.4065	.0001
.7957	1.407	.0001
.9034	1.4071	.0001
1	1.4079	.0001

System: 2-butoxyethanol + water; phases: Liquid
Fixed: Temperature, K = 298.15
Fixed: Pressure, kPa = 101
Property: Mass density, kg/m3 (Liquid); method: Pycnometric method
Mole fraction of 2-butoxyethanol	Mass density, kg/m3	uncertainty
0	997.05	.05
.005	995.62	.05
.0075	995.08	.05
.0124	994.34	.05
.0249	990.15	.05
.0502	980.52	.05
.0748	971.93	.05
.1187	960.53	.05
.1486	954.18	.05
.1993	945.3	.05
.2969	932.71	.05
.4011	923.1	.05
.4975	916.23	.05
.5981	910.49	.05
.7004	905.8	.05
.7937	902.23	.05
.9107	898.33	.05
1	895.79	.05

System: 2-butoxyethanol + water; phases: Liquid
Fixed: Temperature, K = 298.15
Fixed: Pressure, kPa = 101
Property: Speed of sound, m/s (Liquid); method: Linear variable-path acoustic interferometer
Mole fraction of 2-butoxyethanol	Speed of sound, m/s	uncertainty
0	1496.7	.5
.005	1521.8	.5
.0075	1536	.5
.0124	1552.6	.5
.0249	1538.3	.5
.0502	1506.7	.5
.0748	1481.8	.5
.1187	1455.1	.5
.1486	1442.7	.5
.1993	1424.9	.5
.2969	1398.2	.5
.4011	1376	.5
.4975	1361.8	.5
.5981	1346.7	.5
.7004	1335.5	.5
.7937	1323.4	.5
.9107	1313.2	.5
1	1308.7	.5

System: 2-butoxyethanol + water; phases: Liquid
Fixed: Temperature, K = 298.15
Fixed: Pressure, kPa = 101
Property: Refractive index (Na D-line) (Liquid); method: Standard Abbe refractometry
Mole fraction of 2-butoxyethanol	Refractive index (Na D-line)	uncertainty
0	1.3325	.0001
.005	1.3361	.0001
.0075	1.3393	.0001
.0124	1.3421	.0001
.0249	1.349	.0001
.0502	1.3601	.0001
.0748	1.3688	.0001
.1187	1.3803	.0001
.1486	1.3867	.0001
.1993	1.3931	.0001
.2969	1.4041	.0001
.4011	1.4075	.0001
.4975	1.4109	.0001
.5981	1.413	.0001
.7004	1.4155	.0001
.7937	1.4167	.0001
.9107	1.4168	.0001
1	1.4171	.0001

System: 2-(2-butoxyethoxy)ethanol + water; phases: Liquid
Fixed: Temperature, K = 298.15
Fixed: Pressure, kPa = 101
Property: Mass density, kg/m3 (Liquid); method: Pycnometric method
Mole fraction of 2-(2-butoxyethoxy)ethanol	Mass density, kg/m3	uncertainty
0	997.05	.05
.001	997.04	.05
.002	997.13	.05
.005	997.6	.05
.0075	998.1	.05
.0098	998.56	.05
.0125	999.03	.05
.025	999.25	.05
.0252	999.25	.05
.0502	996.46	.05
.0753	993.48	.05
.1012	990.25	.05
.1511	985.47	.05
.2014	980.54	.05
.303	973.56	.05
.4021	967.48	.05
.4939	964.01	.05
.6049	959.05	.05
.7064	956.27	.05
.7988	954.15	.05
.8948	952.06	.05
1	950.41	.05

System: 2-(2-butoxyethoxy)ethanol + water; phases: Liquid
Fixed: Temperature, K = 298.15
Fixed: Pressure, kPa = 101
Property: Speed of sound, m/s (Liquid); method: Linear variable-path acoustic interferometer
Mole fraction of 2-(2-butoxyethoxy)ethanol	Speed of sound, m/s	uncertainty
0	1496.7	.5
.001	1507.7	.5
.002	1513.9	.5
.005	1526.2	.5
.0075	1544.6	.5
.0098	1555.2	.5
.0125	1564.8	.5
.025	1571.7	.5
.0252	1566.2	.5
.0502	1546.2	.5
.0753	1532.8	.5
.1012	1515.2	.5
.1511	1494.4	.5
.2014	1481.7	.5
.303	1453.3	.5
.4021	1422.4	.5
.4939	1409.6	.5
.6049	1395.2	.5
.7064	1384	.5
.7988	1379.2	.5
.8948	1369.6	.5
1	1360	.5

System: 2-(2-butoxyethoxy)ethanol + water; phases: Liquid
Fixed: Temperature, K = 298.15
Fixed: Pressure, kPa = 101
Property: Refractive index (Na D-line) (Liquid); method: Standard Abbe refractometry
Mole fraction of 2-(2-butoxyethoxy)ethanol	Refractive index (Na D-line)	uncertainty
0	1.3325	.0001
.001	1.3339	.0001
.002	1.3356	.0001
.005	1.338	.0001
.0075	1.3415	.0001
.0098	1.3426	.0001
.0125	1.346	.0001
.025	1.3551	.0001
.0252	1.3563	.0001
.0502	1.3703	.0001
.0753	1.38	.0001
.1012	1.3886	.0001
.1511	1.3995	.0001
.2014	1.4072	.0001
.303	1.4152	.0001
.4021	1.4203	.0001
.4939	1.4229	.0001
.6049	1.4251	.0001
.7064	1.4269	.0001
.7988	1.4276	.0001
.8948	1.4284	.0001
1	1.4295	.0001

System: 2,5,8-trioxanonane + water; phases: Liquid
Fixed: Temperature, K = 298.15
Fixed: Pressure, kPa = 101
Property: Mass density, kg/m3 (Liquid); method: Pycnometric method
Mole fraction of 2,5,8-trioxanonane	Mass density, kg/m3	uncertainty
0	997.05	.05
.0048	997.4	.05
.0075	997.77	.05
.0124	998.61	.05
.0356	1003	.05
.0502	1004.83	.05
.0748	1006.15	.05
.0998	1005.85	.05
.15	1000.6	.05
.1996	993.39	.05
.3008	979.9	.05
.4062	968.57	.05
.5031	960.57	.05
.6025	954.28	.05
.7027	949.26	.05
.8052	944.94	.05
.9035	941.39	.05
1	938.78	.05

System: 2,5,8-trioxanonane + water; phases: Liquid
Fixed: Temperature, K = 298.15
Fixed: Pressure, kPa = 101
Property: Speed of sound, m/s (Liquid); method: Linear variable-path acoustic interferometer
Mole fraction of 2,5,8-trioxanonane	Speed of sound, m/s	uncertainty
0	1496.7	.5
.0048	1524.3	.5
.0075	1533.3	.5
.0124	1554	.5
.0356	1608.2	.5
.0502	1651.8	.5
.0748	1665.5	.5
.0998	1655.5	.5
.15	1603.8	.5
.1996	1550.5	.5
.3008	1469.5	.5
.4062	1408.2	.5
.5031	1372.3	.5
.6025	1346	.5
.7027	1334	.5
.8052	1306	.5
.9035	1294.4	.5
1	1278.4	.5

System: 2,5,8-trioxanonane + water; phases: Liquid
Fixed: Temperature, K = 298.15
Fixed: Pressure, kPa = 101
Property: Refractive index (Na D-line) (Liquid); method: Standard Abbe refractometry
Mole fraction of 2,5,8-trioxanonane	Refractive index (Na D-line)	uncertainty
0	1.3325	.0001
.0048	1.336	.0001
.0075	1.3373	.0001
.0124	1.342	.0001
.0356	1.3517	.0001
.0502	1.362	.0001
.0748	1.3718	.0001
.0998	1.3787	.0001
.15	1.3883	.0001
.1996	1.3935	.0001
.3008	1.3996	.0001
.4062	1.402	.0001
.5031	1.4036	.0001
.6025	1.404	.0001
.7027	1.4046	.0001
.8052	1.4051	.0001
.9035	1.4056	.0001
1	1.406	.0001

System: 1-methoxy-2-hydroxypropane (isomer not specified) + water; phases: Liquid
Fixed: Temperature, K = 298.15
Fixed: Pressure, kPa = 101
Property: Mass density, kg/m3 (Liquid); method: Pycnometric method
Mole fraction of 1-methoxy-2-hydroxypropane (isomer not specified)	Mass density, kg/m3	uncertainty
0	997.05	.05
.0025	996.69	.05
.0075	996.36	.05
.0122	996.29	.05
.0248	996.55	.05
.0502	996.91	.05
.0748	996.8	.05
.0988	995.92	.05
.1499	990.48	.05
.2002	984.07	.05
.3	970.87	.05
.3991	959.07	.05
.5039	948.69	.05
.6039	940.41	.05
.7019	933.32	.05
.7947	927.28	.05
.892	921.69	.05
1	916.31	.05

System: 1-methoxy-2-hydroxypropane (isomer not specified) + water; phases: Liquid
Fixed: Temperature, K = 298.15
Fixed: Pressure, kPa = 101
Property: Speed of sound, m/s (Liquid); method: Linear variable-path acoustic interferometer
Mole fraction of 1-methoxy-2-hydroxypropane (isomer not specified)	Speed of sound, m/s	uncertainty
0	1496.7	.5
.0025	1509.3	.5
.0075	1523.6	.5
.0122	1540.9	.5
.0248	1570.7	.5
.0502	1628.4	.5
.0748	1645.5	.5
.0988	1642.7	.5
.1499	1624.5	.5
.2002	1574.5	.5
.3	1508.2	.5
.3991	1440	.5
.5039	1400.9	.5
.6039	1357.3	.5
.7019	1337.3	.5
.7947	1304.7	.5
.892	1280.9	.5
1	1261.1	.5

System: 1-methoxy-2-hydroxypropane (isomer not specified) + water; phases: Liquid
Fixed: Temperature, K = 298.15
Fixed: Pressure, kPa = 101
Property: Refractive index (Na D-line) (Liquid); method: Standard Abbe refractometry
Mole fraction of 1-methoxy-2-hydroxypropane (isomer not specified)	Refractive index (Na D-line)	uncertainty
0	1.3325	.0001
.0025	1.3336	.0001
.0075	1.3363	.0001
.0122	1.3385	.0001
.0248	1.3435	.0001
.0502	1.3545	.0001
.0748	1.3618	.0001
.0988	1.3683	.0001
.1499	1.378	.0001
.2002	1.3848	.0001
.3	1.3917	.0001
.3991	1.3964	.0001
.5039	1.3981	.0001
.6039	1.3998	.0001
.7019	1.4003	.0001
.7947	1.4007	.0001
.892	1.4009	.0001
1	1.401	.0001

System: water + dipropylene glycol monomethyl ether; phases: Liquid
Fixed: Temperature, K = 298.15
Fixed: Pressure, kPa = 101
Property: Mass density, kg/m3 (Liquid); method: Pycnometric method
Mole fraction of dipropylene glycol monomethyl ether	Mass density, kg/m3	uncertainty
0	997.05	.05
.005	998	.05
.0075	998.58	.05
.0136	1000.11	.05
.025	1002.97	.05
.05	1007.24	.05
.0743	1008.35	.05
.0994	1007.66	.05
.148	1002.34	.05
.1966	996.47	.05
.2934	986.17	.05
.3986	977.22	.05
.495	970.81	.05
.579	966.24	.05
.6984	960.8	.05
.8177	956.29	.05
.8873	954.06	.05
1	950.96	.05

System: water + dipropylene glycol monomethyl ether; phases: Liquid
Fixed: Temperature, K = 298.15
Fixed: Pressure, kPa = 101
Property: Speed of sound, m/s (Liquid); method: Linear variable-path acoustic interferometer
Mole fraction of dipropylene glycol monomethyl ether	Speed of sound, m/s	uncertainty
0	1496.7	.5
.005	1524.7	.5
.0075	1537.4	.5
.0136	1561.7	.5
.025	1607	.5
.05	1643.5	.5
.0743	1640	.5
.0994	1613	.5
.148	1570.4	.5
.1966	1522.7	.5
.2934	1464.9	.5
.3986	1420	.5
.495	1386.1	.5
.579	1367.8	.5
.6984	1342.6	.5
.8177	1322.4	.5
.8873	1315.2	.5
1	1302.3	.5

System: water + dipropylene glycol monomethyl ether; phases: Liquid
Fixed: Temperature, K = 298.15
Fixed: Pressure, kPa = 101
Property: Refractive index (Na D-line) (Liquid); method: Standard Abbe refractometry
Mole fraction of dipropylene glycol monomethyl ether	Refractive index (Na D-line)	uncertainty
0	1.3325	.0001
.005	1.337	.0001
.0075	1.34	.0001
.0136	1.3444	.0001
.025	1.3529	.0001
.05	1.3683	.0001
.0743	1.3791	.0001
.0994	1.3871	.0001
.148	1.397	.0001
.1966	1.4033	.0001
.2934	1.4106	.0001
.3986	1.4148	.0001
.495	1.4167	.0001
.579	1.4178	.0001
.6984	1.4189	.0001
.8177	1.4192	.0001
.8873	1.4194	.0001
1	1.4199	.0001
