Measured thermophysical data. Measurement and Correlation of Phase Diagram Data for Several Hydrophilic Alcohol + Citrate Aqueous Two-Phase Systems at 298.15 K
Source: J. Chem. Eng. Data, 2010, 10.1021/je9007348
Compound 1: ethanol, C2H6O
Compound 2: 2-propanol, C3H8O
Compound 3: 3-carboxy-3-hydroxy-pentan-1,5-dioic acid trisodium salt, C6H5Na3O7
Compound 4: potassium citrate, C6H5K3O7
Compound 5: triammonium citrate, C6H17N3O7
Compound 6: water, H2O

System: ethanol + triammonium citrate + water; phases: Liquid mixture 1, Liquid mixture 2
Fixed: Pressure, kPa = 101
Fixed: Temperature, K = 298.15
Property: Mass fraction of triammonium citrate (Liquid mixture 1); method: Titration method
Mass fraction of ethanol	Mass fraction of triammonium citrate	uncertainty
.0935	.4324	.006
.0981	.4191	.006
.1322	.3636	.006
.1621	.3281	.006
.1764	.3105	.006
.1804	.3052	.006
.2497	.2418	.006
.3037	.1983	.006
.3239	.1832	.006
.3473	.1663	.006
.3785	.1442	.006
.4143	.1235	.006
.4557	.0967	.006
.466	.0898	.006
.4845	.0801	.006
.5269	.0593	.006
.5359	.0545	.006
.5702	.042	.006
.6292	.0256	.006
.6809	.0152	.006
.7086	.0113	.006
.734	.0084	.006
.7537	.0067	.006

System: ethanol + triammonium citrate + water; phases: Liquid mixture 1, Liquid mixture 2
Property: Mass fraction of triammonium citrate (Liquid mixture 1); method: Other
Property: Mass fraction of ethanol (Liquid mixture 2); method: Other
Property: Mass fraction of triammonium citrate (Liquid mixture 2); method: Other
Temperature, K	Pressure, kPa	Mass fraction of ethanol	Mass fraction of triammonium citrate	uncertainty	Mass fraction of ethanol	uncertainty	Mass fraction of triammonium citrate	uncertainty
298.15	1	.563	.0454	.006	.1268	.006	.3724	.006
298.15	1	.6129	.03	.006	.1	.006	.4102	.006
298.15	1	.5786	.0401	.006	.1188	.006	.383	.006
298.15	1	.5137	.0653	.006	.1534	.006	.3397	.006

System: 2-propanol + triammonium citrate + water; phases: Liquid mixture 1, Liquid mixture 2
Fixed: Pressure, kPa = 101
Fixed: Temperature, K = 298.15
Property: Mass fraction of triammonium citrate (Liquid mixture 1); method: Titration method
Mass fraction of 2-propanol	Mass fraction of triammonium citrate	uncertainty
.0362	.4365	.006
.0433	.4029	.006
.0465	.3906	.006
.0601	.3477	.006
.0767	.3081	.006
.0955	.2714	.006
.1149	.2436	.006
.1256	.2301	.006
.1571	.198	.006
.1847	.1763	.006
.1923	.1709	.006
.2518	.1359	.006
.3056	.1101	.006
.3282	.1003	.006
.3457	.0919	.006
.4124	.0653	.006
.4391	.0555	.006
.4671	.0464	.006
.5035	.036	.006
.5224	.0315	.006
.5469	.0257	.006
.5774	.0199	.006
.5999	.0163	.006
.6058	.0154	.006
.6217	.0132	.006
.64	.0109	.006
.652	.0096	.006
.6592	.0089	.006
.688	.0063	.006
.7186	.0043	.006

System: 2-propanol + triammonium citrate + water; phases: Liquid mixture 2, Liquid mixture 1
Property: Mass fraction of triammonium citrate (Liquid mixture 2); method: Other
Property: Mass fraction of 2-propanol (Liquid mixture 1); method: Other
Property: Mass fraction of triammonium citrate (Liquid mixture 1); method: Other
Temperature, K	Pressure, kPa	Mass fraction of 2-propanol	Mass fraction of triammonium citrate	uncertainty	Mass fraction of 2-propanol	uncertainty	Mass fraction of triammonium citrate	uncertainty
298.15	1	.1268	.237	.006	.5404	.006	.028	.006
298.15	1	.0443	.3764	.006	.7228	.006	.0032	.006
298.15	1	.0558	.3474	.006	.7014	.006	.0048	.006
298.15	1	.1674	.1968	.006	.4653	.006	.0464	.006

System: 2-propanol + 3-carboxy-3-hydroxy-pentan-1,5-dioic acid trisodium salt + water; phases: Liquid mixture 1, Liquid mixture 2
Fixed: Pressure, kPa = 101
Fixed: Temperature, K = 298.15
Property: Mass fraction of 3-carboxy-3-hydroxy-pentan-1,5-dioic acid trisodium salt (Liquid mixture 1); method: Titration method
Mass fraction of 2-propanol	Mass fraction of 3-carboxy-3-hydroxy-pentan-1,5-dioic acid trisodium salt	uncertainty
.0252	.3513	.006
.0348	.3183	.006
.0449	.289	.006
.0601	.2558	.006
.0718	.2386	.006
.0829	.2212	.006
.0877	.2166	.006
.1066	.1932	.006
.132	.169	.006
.1511	.1544	.006
.1578	.1496	.006
.1813	.1336	.006
.1989	.1236	.006
.2367	.1033	.006
.2643	.0891	.006
.2878	.0777	.006
.307	.069	.006
.3275	.0602	.006
.3527	.0505	.006
.373	.0435	.006
.39	.0382	.006
.4221	.0298	.006
.4513	.0232	.006
.4632	.0208	.006
.4743	.0189	.006
.499	.0149	.006
.5252	.0114	.006
.5443	.0093	.006
.5607	.0077	.006
.5776	.0063	.006

System: 2-propanol + 3-carboxy-3-hydroxy-pentan-1,5-dioic acid trisodium salt + water; phases: Liquid mixture 2, Liquid mixture 1
Property: Mass fraction of 3-carboxy-3-hydroxy-pentan-1,5-dioic acid trisodium salt (Liquid mixture 2); method: Other
Property: Mass fraction of 2-propanol (Liquid mixture 1); method: Other
Property: Mass fraction of 3-carboxy-3-hydroxy-pentan-1,5-dioic acid trisodium salt (Liquid mixture 1); method: Other
Temperature, K	Pressure, kPa	Mass fraction of 2-propanol	Mass fraction of 3-carboxy-3-hydroxy-pentan-1,5-dioic acid trisodium salt	uncertainty	Mass fraction of 2-propanol	uncertainty	Mass fraction of 3-carboxy-3-hydroxy-pentan-1,5-dioic acid trisodium salt	uncertainty
298.15	1	.0646	.2483	.006	.5368	.006	.0101	.006
298.15	1	.0469	.2783	.006	.589	.006	.0051	.006
298.15	1	.1048	.1988	.006	.4468	.006	.0246	.006
298.15	1	.0858	.2199	.006	.4881	.006	.0169	.006
298.15	1	.0706	.2397	.006	.5237	.006	.0117	.006

System: 2-propanol + potassium citrate + water; phases: Liquid mixture 1, Liquid mixture 2
Fixed: Pressure, kPa = 101
Fixed: Temperature, K = 298.15
Property: Mass fraction of potassium citrate (Liquid mixture 1); method: Titration method
Mass fraction of 2-propanol	Mass fraction of potassium citrate	uncertainty
.0053	.571	.006
.0079	.523	.006
.0119	.4427	.006
.018	.4087	.006
.0238	.3797	.006
.0425	.3269	.006
.0599	.2851	.006
.0794	.2519	.006
.0999	.2248	.006
.1178	.2054	.006
.1683	.162	.006
.2172	.1315	.006
.2596	.1094	.006
.2943	.0928	.006
.3192	.081	.006
.36	.0638	.006
.3934	.0512	.006
.4192	.0427	.006
.4403	.0365	.006
.4568	.0321	.006
.493	.0236	.006
.5193	.0186	.006
.5447	.0145	.006
.574	.0106	.006
.5952	.0084	.006
.6084	.0071	.006

System: 2-propanol + potassium citrate + water; phases: Liquid mixture 2, Liquid mixture 1
Property: Mass fraction of potassium citrate (Liquid mixture 2); method: Other
Property: Mass fraction of 2-propanol (Liquid mixture 1); method: Other
Property: Mass fraction of potassium citrate (Liquid mixture 1); method: Other
Temperature, K	Pressure, kPa	Mass fraction of 2-propanol	Mass fraction of potassium citrate	uncertainty	Mass fraction of 2-propanol	uncertainty	Mass fraction of potassium citrate	uncertainty
298.15	1	.1363	.1922	.006	.4543	.006	.0332	.006
298.15	1	.099	.2298	.006	.5272	.006	.0177	.006
298.15	1	.0731	.263	.006	.5827	.006	.0096	.006
298.15	1	.0846	.2472	.006	.559	.006	.0127	.006
