Measured thermophysical data. Apparent Molal Volumes and Viscosity B-Coefficients of Acetyl Salicylic Acid (2-Acetoxy Benzoic Acid) Solutions in Higher Alcohols at Different Temperatures
Source: J. Chem. Eng. Data, 2010, 10.1021/je9004646
Compound 1: acetylsalicylic acid, C9H8O4
Compound 2: propan-1-ol, C3H8O
Compound 3: 2-propanol, C3H8O
Compound 4: butan-1-ol, C4H10O
Compound 5: dl-sec-butyl alcohol, C4H10O

System: propan-1-ol; phases: Liquid
Fixed: Pressure, kPa = 101.325
Property: Mass density, kg/m3 (Liquid); method: Vibrating tube method
Temperature, K	Mass density, kg/m3	uncertainty
298.15	800.7	.01

System: propan-1-ol; phases: Liquid
Fixed: Pressure, kPa = 101.325
Property: Viscosity, Pa*s (Liquid); method: Capillary tube (Ostwald; Ubbelohde) method
Temperature, K	Viscosity, Pa*s	uncertainty
298.15	.001968	.000003

System: 2-propanol; phases: Liquid
Fixed: Pressure, kPa = 101.325
Property: Mass density, kg/m3 (Liquid); method: Vibrating tube method
Temperature, K	Mass density, kg/m3	uncertainty
298.15	780.9	.01

System: 2-propanol; phases: Liquid
Fixed: Pressure, kPa = 101.325
Property: Viscosity, Pa*s (Liquid); method: Capillary tube (Ostwald; Ubbelohde) method
Temperature, K	Viscosity, Pa*s	uncertainty
298.15	.002043	.000003

System: butan-1-ol; phases: Liquid
Fixed: Pressure, kPa = 101.325
Property: Mass density, kg/m3 (Liquid); method: Vibrating tube method
Temperature, K	Mass density, kg/m3	uncertainty
298.15	805.8	.01

System: butan-1-ol; phases: Liquid
Fixed: Pressure, kPa = 101.325
Property: Viscosity, Pa*s (Liquid); method: Capillary tube (Ostwald; Ubbelohde) method
Temperature, K	Viscosity, Pa*s	uncertainty
298.15	.002571	.000003

System: dl-sec-butyl alcohol; phases: Liquid
Fixed: Pressure, kPa = 101.325
Property: Mass density, kg/m3 (Liquid); method: Vibrating tube method
Temperature, K	Mass density, kg/m3	uncertainty
298.15	803.1	.01

System: dl-sec-butyl alcohol; phases: Liquid
Fixed: Pressure, kPa = 101.325
Property: Viscosity, Pa*s (Liquid); method: Capillary tube (Ostwald; Ubbelohde) method
Temperature, K	Viscosity, Pa*s	uncertainty
298.15	.002998	.000003

System: acetylsalicylic acid + propan-1-ol; phases: Liquid
Fixed: Pressure, kPa = 101
Property: Mass density, kg/m3 (Liquid); method: Vibrating tube method
Temperature, K	Molality, mol/kg of acetylsalicylic acid	Mass density, kg/m3	uncertainty
293.15	.0095	804.657	.01
293.15	.0127	804.844	.01
293.15	.0159	805.025	.01
293.15	.0191	805.201	.01
293.15	.0223	805.325	.01
293.15	.0255	805.485	.01
293.15	.0319	805.701	.01
303.15	.0095	796.879	.01
303.15	.0127	796.999	.01
303.15	.0159	797.105	.01
303.15	.0191	797.195	.01
303.15	.0223	797.301	.01
303.15	.0255	797.371	.01
303.15	.0319	797.405	.01
310.15	.0095	791.289	.01
310.15	.0127	791.425	.01
310.15	.0159	791.495	.01
310.15	.0191	791.601	.01
310.15	.0223	791.691	.01
310.15	.0255	791.761	.01
310.15	.0319	791.795	.01
298.15	.0095	801.345	.01
298.15	.0127	801.489	.01
298.15	.0159	801.595	.01
298.15	.0191	801.675	.01
298.15	.0223	801.765	.01
298.15	.0255	801.855	.01
298.15	.0319	801.925	.01
308.15	.0095	792.851	.01
308.15	.0127	792.985	.01
308.15	.0159	793.069	.01
308.15	.0191	793.171	.01
308.15	.0223	793.259	.01
308.15	.0255	793.349	.01
308.15	.0319	793.365	.01
313.15	.0095	788.791	.01
313.15	.0127	788.899	.01
313.15	.0159	788.999	.01
313.15	.0191	789.091	.01
313.15	.0223	789.165	.01
313.15	.0255	789.245	.01
313.15	.0319	789.305	.01

System: acetylsalicylic acid + propan-1-ol; phases: Liquid
Fixed: Pressure, kPa = 101
Property: Viscosity, Pa*s (Liquid); method: Capillary tube (Ostwald; Ubbelohde) method
Temperature, K	Molality, mol/kg of acetylsalicylic acid	Viscosity, Pa*s	uncertainty
293.15	.0095	.0022571	.000003
293.15	.0127	.0022596	.000003
293.15	.0159	.0022609	.000003
293.15	.0191	.0022623	.000003
293.15	.0223	.0022651	.000003
293.15	.0255	.0022655	.000003
293.15	.0319	.0022698	.000003
303.15	.0095	.0017175	.000003
303.15	.0127	.0017185	.000003
303.15	.0159	.0017195	.000003
303.15	.0191	.0017207	.000003
303.15	.0223	.0017217	.000003
303.15	.0255	.0017228	.000003
303.15	.0319	.0017255	.000003
310.15	.0095	.0014585	.000003
310.15	.0127	.0014589	.000003
310.15	.0159	.0014595	.000003
310.15	.0191	.0014599	.000003
310.15	.0223	.0014604	.000003
310.15	.0255	.0014608	.000003
310.15	.0319	.0014615	.000003
298.15	.0095	.0022073	.000003
298.15	.0127	.0022088	.000003
298.15	.0159	.0022099	.000003
298.15	.0191	.0022114	.000003
298.15	.0223	.0022127	.000003
298.15	.0255	.0022148	.000003
298.15	.0319	.0022165	.000003
308.15	.0095	.0016221	.000003
308.15	.0127	.0016233	.000003
308.15	.0159	.0016241	.000003
308.15	.0191	.0016248	.000003
308.15	.0223	.0016258	.000003
308.15	.0255	.0016267	.000003
308.15	.0319	.0016281	.000003
313.15	.0095	.0013974	.000003
313.15	.0127	.0013976	.000003
313.15	.0159	.0013985	.000003
313.15	.0191	.0013988	.000003
313.15	.0223	.0013992	.000003
313.15	.0255	.0013998	.000003
313.15	.0319	.0014006	.000003

System: acetylsalicylic acid + 2-propanol; phases: Liquid
Fixed: Pressure, kPa = 101
Property: Mass density, kg/m3 (Liquid); method: Vibrating tube method
Temperature, K	Molality, mol/kg of acetylsalicylic acid	Mass density, kg/m3	uncertainty
293.15	.0095	785.805	.01
293.15	.0127	785.969	.01
293.15	.0159	786.119	.01
293.15	.0191	786.295	.01
293.15	.0223	786.405	.01
293.15	.0255	786.545	.01
293.15	.0319	786.679	.01
303.15	.0095	777.301	.01
303.15	.0127	777.465	.01
303.15	.0159	777.595	.01
303.15	.0191	777.725	.01
303.15	.0223	777.855	.01
303.15	.0255	777.985	.01
303.15	.0319	778.079	.01
310.15	.0095	771.109	.01
310.15	.0127	771.271	.01
310.15	.0159	771.405	.01
310.15	.0191	771.525	.01
310.15	.0223	771.635	.01
310.15	.0255	771.725	.01
310.15	.0319	771.849	.01
298.15	.0095	781.589	.01
298.15	.0127	781.745	.01
298.15	.0159	781.895	.01
298.15	.0191	782.045	.01
298.15	.0223	782.155	.01
298.15	.0255	782.265	.01
298.15	.0319	782.399	.01
308.15	.0095	772.925	.01
308.15	.0127	773.071	.01
308.15	.0159	773.205	.01
308.15	.0191	773.349	.01
308.15	.0223	773.465	.01
308.15	.0255	773.595	.01
308.15	.0319	773.705	.01
313.15	.0095	768.415	.01
313.15	.0127	768.545	.01
313.15	.0159	768.685	.01
313.15	.0191	768.785	.01
313.15	.0223	768.891	.01
313.15	.0255	768.942	.01
313.15	.0319	768.995	.01

System: acetylsalicylic acid + 2-propanol; phases: Liquid
Fixed: Pressure, kPa = 101
Property: Viscosity, Pa*s (Liquid); method: Capillary tube (Ostwald; Ubbelohde) method
Temperature, K	Molality, mol/kg of acetylsalicylic acid	Viscosity, Pa*s	uncertainty
293.15	.0095	.0023818	.000003
293.15	.0127	.0023824	.000003
293.15	.0159	.0023833	.000003
293.15	.0191	.0023843	.000003
293.15	.0223	.0023851	.000003
293.15	.0255	.0023865	.000003
293.15	.0319	.0023885	.000003
303.15	.0095	.0017628	.000003
303.15	.0127	.0017635	.000003
303.15	.0159	.0017642	.000003
303.15	.0191	.0017651	.000003
303.15	.0223	.0017661	.000003
303.15	.0255	.0017669	.000003
303.15	.0319	.0017682	.000003
310.15	.0095	.0014375	.000003
310.15	.0127	.0014379	.000003
310.15	.0159	.0014381	.000003
310.15	.0191	.0014384	.000003
310.15	.0223	.0014388	.000003
310.15	.0255	.0014391	.000003
310.15	.0319	.0014396	.000003
298.15	.0095	.0020446	.000003
298.15	.0127	.0020449	.000003
298.15	.0159	.0020455	.000003
298.15	.0191	.0020465	.000003
298.15	.0223	.0020473	.000003
298.15	.0255	.0020481	.000003
298.15	.0319	.0020493	.000003
308.15	.0095	.0015236	.000003
308.15	.0127	.0015239	.000003
308.15	.0159	.0015245	.000003
308.15	.0191	.0015248	.000003
308.15	.0223	.0015253	.000003
308.15	.0255	.0015257	.000003
308.15	.0319	.0015264	.000003
313.15	.0095	.0013922	.000003
313.15	.0127	.0013925	.000003
313.15	.0159	.0013929	.000003
313.15	.0191	.0013933	.000003
313.15	.0223	.0013936	.000003
313.15	.0255	.0013939	.000003
313.15	.0319	.0013946	.000003

System: acetylsalicylic acid + butan-1-ol; phases: Liquid
Fixed: Pressure, kPa = 101
Property: Mass density, kg/m3 (Liquid); method: Vibrating tube method
Temperature, K	Molality, mol/kg of acetylsalicylic acid	Mass density, kg/m3	uncertainty
293.15	.0095	810.254	.01
293.15	.0127	810.441	.01
293.15	.0159	810.619	.01
293.15	.0191	810.791	.01
293.15	.0223	810.901	.01
293.15	.0255	811.075	.01
293.15	.0319	811.305	.01
303.15	.0095	802.56	.01
303.15	.0127	802.731	.01
303.15	.0159	802.911	.01
303.15	.0191	803.056	.01
303.15	.0223	803.209	.01
303.15	.0255	803.361	.01
303.15	.0319	803.636	.01
310.15	.0095	797.079	.01
310.15	.0127	797.253	.01
310.15	.0159	797.425	.01
310.15	.0191	797.591	.01
310.15	.0223	797.741	.01
310.15	.0255	797.869	.01
310.15	.0319	798.145	.01
298.15	.0095	806.421	.01
298.15	.0127	806.601	.01
298.15	.0159	806.785	.01
298.15	.0191	806.935	.01
298.15	.0223	807.089	.01
298.15	.0255	807.245	.01
298.15	.0319	807.489	.01
308.15	.0095	798.651	.01
308.15	.0127	798.829	.01
308.15	.0159	799.001	.01
308.15	.0191	799.151	.01
308.15	.0223	799.329	.01
308.15	.0255	799.481	.01
308.15	.0319	799.745	.01
313.15	.0095	794.719	.01
313.15	.0127	794.881	.01
313.15	.0159	795.059	.01
313.15	.0191	795.211	.01
313.15	.0223	795.351	.01
313.15	.0255	795.485	.01
313.15	.0319	795.761	.01

System: acetylsalicylic acid + butan-1-ol; phases: Liquid
Fixed: Pressure, kPa = 101
Property: Viscosity, Pa*s (Liquid); method: Capillary tube (Ostwald; Ubbelohde) method
Temperature, K	Molality, mol/kg of acetylsalicylic acid	Viscosity, Pa*s	uncertainty
293.15	.0095	.0029302	.000003
293.15	.0127	.0029311	.000003
293.15	.0159	.0029319	.000003
293.15	.0191	.0029328	.000003
293.15	.0223	.0029339	.000003
293.15	.0255	.0029354	.000003
293.15	.0319	.002938	.000003
303.15	.0095	.0022604	.000003
303.15	.0127	.0022617	.000003
303.15	.0159	.0022624	.000003
303.15	.0191	.002263	.000003
303.15	.0223	.0022638	.000003
303.15	.0255	.0022645	.000003
303.15	.0319	.0022661	.000003
310.15	.0095	.0018999	.000003
310.15	.0127	.0019006	.000003
310.15	.0159	.0019013	.000003
310.15	.0191	.0019019	.000003
310.15	.0223	.0019027	.000003
310.15	.0255	.0019033	.000003
310.15	.0319	.0019047	.000003
298.15	.0095	.0025701	.000003
298.15	.0127	.0025711	.000003
298.15	.0159	.0025718	.000003
298.15	.0191	.0025727	.000003
298.15	.0223	.0025736	.000003
298.15	.0255	.0025747	.000003
298.15	.0319	.0025761	.000003
308.15	.0095	.0020009	.000003
308.15	.0127	.0020021	.000003
308.15	.0159	.0020033	.000003
308.15	.0191	.0020046	.000003
308.15	.0223	.0020055	.000003
308.15	.0255	.0020067	.000003
308.15	.0319	.0020085	.000003
313.15	.0095	.0017665	.000003
313.15	.0127	.0017669	.000003
313.15	.0159	.0017674	.000003
313.15	.0191	.0017678	.000003
313.15	.0223	.0017682	.000003
313.15	.0255	.0017685	.000003
313.15	.0319	.0017691	.000003

System: acetylsalicylic acid + dl-sec-butyl alcohol; phases: Liquid
Fixed: Pressure, kPa = 101
Property: Mass density, kg/m3 (Liquid); method: Vibrating tube method
Temperature, K	Molality, mol/kg of acetylsalicylic acid	Mass density, kg/m3	uncertainty
293.15	.0095	807.809	.01
293.15	.0127	807.969	.01
293.15	.0159	808.035	.01
293.15	.0191	808.139	.01
293.15	.0223	808.245	.01
293.15	.0255	808.375	.01
293.15	.0319	808.405	.01
303.15	.0095	799.521	.01
303.15	.0127	799.639	.01
303.15	.0159	799.735	.01
303.15	.0191	799.835	.01
303.15	.0223	799.945	.01
303.15	.0255	799.999	.01
303.15	.0319	800.103	.01
310.15	.0095	793.418	.01
310.15	.0127	793.555	.01
310.15	.0159	793.651	.01
310.15	.0191	793.731	.01
310.15	.0223	793.815	.01
310.15	.0255	793.911	.01
310.15	.0319	794.014	.01
298.15	.0095	803.661	.01
298.15	.0127	803.799	.01
298.15	.0159	803.885	.01
298.15	.0191	803.985	.01
298.15	.0223	804.095	.01
298.15	.0255	804.175	.01
298.15	.0319	804.221	.01
308.15	.0095	795.185	.01
308.15	.0127	795.325	.01
308.15	.0159	795.415	.01
308.15	.0191	795.505	.01
308.15	.0223	795.591	.01
308.15	.0255	795.675	.01
308.15	.0319	795.765	.01
313.15	.0095	790.852	.01
313.15	.0127	790.985	.01
313.15	.0159	791.108	.01
313.15	.0191	791.185	.01
313.15	.0223	791.261	.01
313.15	.0255	791.355	.01
313.15	.0319	791.454	.01

System: acetylsalicylic acid + dl-sec-butyl alcohol; phases: Liquid
Fixed: Pressure, kPa = 101
Property: Viscosity, Pa*s (Liquid); method: Capillary tube (Ostwald; Ubbelohde) method
Temperature, K	Molality, mol/kg of acetylsalicylic acid	Viscosity, Pa*s	uncertainty
293.15	.0095	.0036225	.000003
293.15	.0127	.0036241	.000003
293.15	.0159	.0036256	.000003
293.15	.0191	.0036272	.000003
293.15	.0223	.0036284	.000003
293.15	.0255	.00363	.000003
293.15	.0319	.003632	.000003
303.15	.0095	.0025254	.000003
303.15	.0127	.0025263	.000003
303.15	.0159	.0025269	.000003
303.15	.0191	.0025275	.000003
303.15	.0223	.0025281	.000003
303.15	.0255	.0025289	.000003
303.15	.0319	.0025309	.000003
310.15	.0095	.0019742	.000003
310.15	.0127	.0019749	.000003
310.15	.0159	.0019756	.000003
310.15	.0191	.0019764	.000003
310.15	.0223	.0019772	.000003
310.15	.0255	.0019781	.000003
310.15	.0319	.0019788	.000003
298.15	.0095	.003014	.000003
298.15	.0127	.0030147	.000003
298.15	.0159	.0030155	.000003
298.15	.0191	.0030164	.000003
298.15	.0223	.0030172	.000003
298.15	.0255	.0030184	.000003
298.15	.0319	.0030199	.000003
308.15	.0095	.0021205	.000003
308.15	.0127	.0021211	.000003
308.15	.0159	.0021219	.000003
308.15	.0191	.0021225	.000003
308.15	.0223	.0021231	.000003
308.15	.0255	.0021237	.000003
308.15	.0319	.0021246	.000003
313.15	.0095	.0017923	.000003
313.15	.0127	.0017933	.000003
313.15	.0159	.0017943	.000003
313.15	.0191	.0017953	.000003
313.15	.0223	.0017962	.000003
313.15	.0255	.0017971	.000003
313.15	.0319	.0017984	.000003
