Measured thermophysical data. Heat Capacity and Standard Thermodynamic Functions of NaTi2(PO4)3 and NaHf2(PO4)3
Source: J. Chem. Eng. Data, 2010, 10.1021/je900494g
Compound 1: sodium dititania triphosphate, NaO12P3Ti2
Compound 2: sodium dihafnium triphosphate, Hf2NaO12P3

System: sodium dititania triphosphate; phases: Crystal
Property: Molar heat capacity at constant pressure, J/K/mol (Crystal); method: Vacuum adiabatic calorimetry
Pressure, kPa	Temperature, K	Molar heat capacity at constant pressure, J/K/mol	uncertainty
100	5	.0502	2
100	10	.4	2
100	15	1.58	2
100	20	4.221	.5
100	25	8.649	.5
100	30	14.55	.5
100	35	21.09	.5
100	40	28.02	.2
100	45	35.27	.2
100	50	42.74	.2
100	60	57.51	.2
100	70	72.69	.2
100	80	88.18	.2
100	90	103.1	.2
100	100	117.2	.2
100	110	130.8	.2
100	120	144.5	.2
100	130	156.3	.2
100	140	167.8	.2
100	150	178.8	.2
100	160	189.2	.2
100	170	199.3	.2
100	180	209	.2
100	190	218.2	.2
100	200	227	.2
100	210	235.4	.2
100	220	243.3	.2
100	230	250.8	.2
100	240	258.1	.2
100	250	265.3	.2
100	260	271.5	.2
100	270	277.6	.2
100	280	283.5	.2
100	290	289	.2
100	298.15	293.2	.2
100	300	294.4	.2
100	310	299.9	.2
100	320	305.3	.2
100	330	310.4	.2
100	340	315.6	.2
100	350	320.9	.2

System: sodium dititania triphosphate; phases: Crystal
Property: Molar enthalpy, kJ/mol (Crystal); method: Vacuum adiabatic calorimetry
Pressure, kPa	Temperature, K	Molar enthalpy, kJ/mol	uncertainty
100	5	.0001	.0000002
100	10	.001	.000002
100	15	.0054	.0000108
100	20	.0192	.0000384
100	25	.0507	.0001014
100	30	.1081	.0002162
100	35	.1971	.0003942
100	40	.3197	.0006394
100	45	.4778	.0009556
100	50	.6727	.0013454
100	60	1.174	.002348
100	70	1.825	.00365
100	80	2.629	.005258
100	90	3.587	.007174
100	100	4.689	.009378
100	110	5.929	.011858
100	120	7.305	.01461
100	130	8.809	.017618
100	140	10.43	.02086
100	150	12.16	.02432
100	160	14	.028
100	170	15.95	.0319
100	180	17.99	.03598
100	190	20.13	.04026
100	200	22.35	.0447
100	210	24.66	.04932
100	220	27.06	.05412
100	230	29.53	.05906
100	240	32.07	.06414
100	250	34.69	.06938
100	260	37.37	.07474
100	270	40.12	.08024
100	280	42.93	.08586
100	290	45.79	.09158
100	298.15	48.16	.09632
100	300	48.7	.0974
100	310	51.68	.10336
100	320	54.7	.1094
100	330	57.78	.11556
100	340	60.91	.12182
100	350	64.1	.1282

System: sodium dititania triphosphate; phases: Crystal
Property: Molar heat capacity at constant pressure, J/K/mol (Crystal); method: Vacuum adiabatic calorimetry
Pressure, kPa	Temperature, K	Molar heat capacity at constant pressure, J/K/mol	uncertainty
100	7.17	.135	2
100	7.83	.169	2
100	8.49	.228	2
100	9.15	.295	2
100	9.81	.373	2
100	10.26	.445	2
100	10.88	.54	2
100	11.5	.652	2
100	12.15	.782	2
100	12.83	.951	2
100	13.63	1.15	2
100	14.41	1.37	2
100	15.16	1.63	2
100	15.89	1.93	.5
100	16.61	2.23	.5
100	17.33	2.58	.5
100	18.03	2.95	.5
100	18.73	3.41	.5
100	19.43	3.81	.5
100	20.1	4.3	.5
100	21.67	5.405	.5
100	23.96	7.59	.5
100	26.98	10.91	.5
100	29.46	13.83	.5
100	31.81	16.86	.5
100	34.18	19.97	.5
100	37.8	24.94	.5
100	41.49	30.14	.2
100	45.01	35.31	.2
100	48.56	40.52	.2
100	52.13	45.97	.2
100	55.71	51.23	.2
100	59.31	56.47	.2
100	62.92	61.82	.2
100	66.54	67.41	.2
100	70.17	72.93	.2
100	74.16	79.24	.2
100	77.8	85.01	.2
100	81.43	90.18	.2
100	85.54	96.45	.2
100	88.9	101.4	.2
100	81.75	90.81	.2
100	84.3	94.7	.2
100	87.01	98.52	.2
100	89.06	102	.2
100	91.43	105.3	.2
100	93.81	108.7	.2
100	96.18	112.3	.2
100	98.56	115.3	.2
100	100.93	118.7	.2
100	103.42	121.6	.2
100	105.81	124.9	.2
100	108.32	128.4	.2
100	110.84	131.9	.2
100	113.35	135.4	.2
100	115.73	138.8	.2
100	118.11	141.7	.2
100	120.48	145.1	.2
100	122.86	147.8	.2
100	125.24	150.4	.2
100	127.62	153.4	.2
100	129.99	156.4	.2
100	133	159.9	.2
100	136.12	163.7	.2
100	139.08	166.6	.2
100	142.04	170.1	.2
100	145.01	173.3	.2
100	147.97	176.7	.2
100	150.93	179.9	.2
100	153.9	183.1	.2
100	156.86	185.9	.2
100	159.83	188.8	.2
100	162.79	192.1	.2
100	165.76	195.2	.2
100	168.73	198.1	.2
100	171.7	200.7	.2
100	174.67	204.2	.2
100	177.64	206.3	.2
100	180.63	209.5	.2
100	184.36	213	.2
100	187.43	215.8	.2
100	190.39	218.8	.2
100	193.37	221.7	.2
100	196.34	224.2	.2
100	199.32	226.4	.2
100	202.3	229	.2
100	205.27	231.8	.2
100	208.36	233.7	.2
100	211.41	236.2	.2
100	214.37	239	.2
100	217.34	240.9	.2
100	220.31	243.3	.2
100	223.26	245.7	.2
100	226.95	248.8	.2
100	229.39	250.8	.2
100	232.4	252.6	.2
100	235.35	254.5	.2
100	238.29	256.7	.2
100	241.23	259.1	.2
100	244.17	260.9	.2
100	247.1	263.4	.2
100	250.03	265.2	.2
100	252.96	267.3	.2
100	255.68	269	.2
100	258.59	270.7	.2
100	261.5	272.9	.2
100	264.4	274.5	.2
100	267.3	276	.2
100	270.2	277.4	.2
100	273.08	279.1	.2
100	275.95	281	.2
100	278.82	282.5	.2
100	281.68	284.1	.2
100	284.53	285.8	.2
100	287.37	287.4	.2
100	290.2	289.2	.2
100	293.03	291	.2
100	295.85	292.4	.2
100	298.62	293.7	.2
100	301.14	294.9	.2
100	303.97	296.4	.2
100	306.76	297.5	.2
100	309.55	299.2	.2
100	312.32	300.8	.2
100	315.8	302.4	.2
100	317.84	303.4	.2
100	320.6	305	.2
100	323.34	306.7	.2
100	326.07	308.6	.2
100	328.79	310	.2
100	331.51	311.9	.2
100	334.51	313.5	.2
100	336.39	313.9	.2
100	339.08	315.3	.2
100	341.75	316.7	.2
100	344.41	318	.2

System: sodium dititania triphosphate; phases: Crystal
Fixed: Pressure, kPa = 101.325
Property: Molar entropy, J/K/mol (Crystal); method: Vacuum adiabatic calorimetry
Temperature, K	Molar entropy, J/K/mol	uncertainty
5	.0167	.0000334
10	.133	.000266
15	.477	.000954
20	1.247	.002494
25	2.63	.00526
30	4.712	.009424
35	7.438	.014876
40	10.7	.0214
45	14.42	.02884
50	18.52	.03704
60	27.62	.05524
70	37.62	.07524
80	48.34	.09668
90	59.6	.1192
100	71.2	.1424
110	83.01	.16602
120	94.97	.18994
130	107	.214
140	119	.238
150	131	.262
160	142.8	.2856
170	154.6	.3092
180	166.3	.3326
190	177.8	.3556
200	189.3	.3786
210	200.5	.401
220	211.7	.4234
230	222.7	.4454
240	233.5	.467
250	244.2	.4884
260	254.7	.5094
270	265	.53
280	275.3	.5506
290	285.3	.5706
298.15	293.4	.5868
300	295.2	.5904
310	304.9	.6098
320	314.5	.629
330	324	.648
340	333.4	.6668
350	342.6	.6852
360	351.7	.7034
370	360.7	.7214
380	370	.74
390	378	.756
400	387	.774
420	404	.808
440	421	.842
460	437	.874
480	453	.906
500	469	.938
520	484	.968
540	499	.998
560	514	1.028
580	528	1.056
600	542	1.084
620	556	1.112
640	570	1.14
650	576	1.152

System: sodium dititania triphosphate; phases: Crystal
Fixed: Pressure, kPa = 101.325
Property: Molar heat capacity at constant pressure, J/K/mol (Crystal); method: Small sample (50 mg) DSC
Temperature, K	Molar heat capacity at constant pressure, J/K/mol	uncertainty
331	312	
333.8	313	
336.4	315	
339	316	
341.5	317	
344	318	
346.3	319	
348.5	320	
350.5	321	
352.5	322	
354.4	323	
356.2	324	
357.8	325	
359.4	326	
361	326	
362.4	327	
363.9	328	
365.3	329	
367.5	330	
369.3	331	
371	331	
372.8	332	
374.6	333	
376.3	334	
378.1	335	
379.9	336	
381.6	337	
383.6	338	
385.5	338	
387.5	339	
389.4	340	
391.3	341	
393.2	342	
395	343	
396.9	344	
398.7	345	
400.5	346	
402.3	346	
404	347	
405.8	348	
407.6	349	
409.3	350	
411.1	350	
412.8	351	
414.6	352	
416.4	353	
418.2	354	
419.9	354	
395	343	
396.9	344	
398.7	345	
400.5	346	
402.3	346	
404	347	
405.8	348	
407.6	349	
409.3	350	
411.1	350	
412.8	351	
414.6	352	
416.4	353	
418.2	354	
419.9	354	
421.7	355	
423.5	356	
425.3	357	
427.1	358	
429	359	
430.8	359	
432.6	360	
434.5	361	
436.3	362	
438.2	363	
440	363	
441.9	364	
443.7	365	
445.6	366	
447.5	367	
450.3	368	
451.2	368	
453	369	
454.9	370	
456.7	370	
458.6	371	
460.4	372	
462.2	373	
464	373	
465.8	374	
467.6	375	
469.4	376	
471.2	376	
473	377	
474.8	378	
476.6	379	
478.4	379	
480.2	380	
482	381	
483.8	381	
485.6	382	
487.4	383	
489.2	383	
491	384	
492.9	385	
494.7	385	
496.5	386	
498.3	387	
500.1	387	
501.9	388	
503.7	389	
505.6	389	
507.4	390	
509.2	391	
511	391	
512.9	392	
514.7	393	
516.5	393	
518.3	394	
520.2	395	
522	395	
523.8	396	
525.6	396	
527.4	397	
529.2	398	
531	398	
532.8	399	
534.6	399	
536.5	400	
538.3	401	
540.1	401	
541.9	402	
543.8	402	
545.6	403	
547.4	403	
549.2	404	
551.1	405	
552.9	405	
554.7	406	
556.6	406	
558.4	407	
560.2	407	
562	408	
563.9	408	
565.7	409	
567.5	409	
569.3	410	
571.1	410	
572.9	411	
574.8	411	
576.2	412	
578.1	412	
579.9	413	
581.8	413	
583.6	413	
585.4	414	
587.2	414	
589	415	
590.8	415	
592.6	416	
594.4	416	
596.2	417	
598	417	
599.8	417	
601.6	418	
603.3	418	
605.1	419	
606.9	419	
608.7	419	
610.5	420	
612.3	420	
614.1	420	
615.9	421	
617.8	421	
619.6	421	
621.4	422	
623.2	422	
625.1	423	
626.9	423	
628.7	423	
630.6	424	
632.4	424	
634.2	424	
636	424	
637.8	425	
639.6	425	
641.4	425	
643.3	426	
645.1	426	

System: sodium dihafnium triphosphate; phases: Crystal
Property: Molar heat capacity at constant pressure, J/K/mol (Crystal); method: Vacuum adiabatic calorimetry
Pressure, kPa	Temperature, K	Molar heat capacity at constant pressure, J/K/mol	uncertainty
100	5	.106	2
100	10	.84	2
100	15	3.05	2
100	20	7.25	.5
100	25	12.59	.5
100	30	19.78	.5
100	35	27.03	.5
100	40	34.33	.2
100	45	41.47	.2
100	50	48.16	.2
100	60	60.92	.2
100	70	74.59	.2
100	80	88.04	.2
100	90	100.6	.2
100	100	112.6	.2
100	110	123.6	.2
100	120	134.2	.2
100	130	144	.2
100	140	154.4	.2
100	150	163.8	.2
100	160	172.7	.2
100	170	181.5	.2
100	180	190.8	.2
100	190	199.7	.2
100	200	208.4	.2
100	210	217.2	.2
100	220	225.9	.2
100	230	234.6	.2
100	240	243.5	.2
100	250	252.2	.2
100	260	260.7	.2
100	270	269.1	.2
100	280	277.8	.2
100	290	285.9	.2
100	298.15	292.3	.2
100	300	293.6	.2
100	310	301.4	.2
100	320	309.1	.2
100	330	316.5	.2
100	340	323.6	.2
100	350	330.5	.2

System: sodium dihafnium triphosphate; phases: Crystal
Property: Molar enthalpy, kJ/mol (Crystal); method: Vacuum adiabatic calorimetry
Pressure, kPa	Temperature, K	Molar enthalpy, kJ/mol	uncertainty
100	5	.0001	.0000002
100	10	.0021	.0000042
100	15	.0109	.0000218
100	20	.0358	.0000716
100	25	.0862	.0001724
100	30	.167	.000334
100	35	.284	.000568
100	40	.4373	.0008746
100	45	.627	.001254
100	50	.8511	.0017022
100	60	1.397	.002794
100	70	2.074	.004148
100	80	2.888	.005776
100	90	3.831	.007662
100	100	4.898	.009796
100	110	6.081	.012162
100	120	7.368	.014736
100	130	8.762	.017524
100	140	10.25	.0205
100	150	11.85	.0237
100	160	13.53	.02706
100	170	15.3	.0306
100	180	17.16	.03432
100	190	19.11	.03822
100	200	21.15	.0423
100	210	23.28	.04656
100	220	25.5	.051
100	230	27.8	.0556
100	240	30.19	.06038
100	250	32.67	.06534
100	260	35.23	.07046
100	270	37.88	.07576
100	280	40.62	.08124
100	290	43.44	.08688
100	298.15	45.79	.09158
100	300	46.33	.09266
100	310	49.31	.09862
100	320	52.36	.10472
100	330	55.49	.11098
100	340	58.69	.11738
100	350	61.96	.12392

System: sodium dihafnium triphosphate; phases: Crystal
Property: Molar heat capacity at constant pressure, J/K/mol (Crystal); method: Vacuum adiabatic calorimetry
Pressure, kPa	Temperature, K	Molar heat capacity at constant pressure, J/K/mol	uncertainty
100	6.03	.19	2
100	7.27	.32	2
100	8.51	.51	2
100	9.75	.74	2
100	10.99	1.17	2
100	12.23	1.66	2
100	13.48	2.21	2
100	14.72	2.85	2
100	15.96	3.71	.5
100	17.16	4.63	.5
100	18.43	5.78	.5
100	19.71	6.99	.5
100	22.56	9.76	.5
100	25.33	13.01	.5
100	27.97	16.78	.5
100	30.58	20.66	.5
100	33.18	24.4	.5
100	35.76	28.09	.5
100	38.28	31.91	.5
100	40.8	35.37	.2
100	43.31	39.15	.2
100	45.79	42.57	.2
100	48.27	45.88	.2
100	50.75	49.04	.2
100	53.22	52.27	.2
100	55.59	55.41	.2
100	58.15	58.57	.2
100	60.61	61.7	.2
100	63.14	65.07	.2
100	65.61	68.54	.2
100	68.03	71.8	.2
100	70.45	75.29	.2
100	72.85	78.58	.2
100	75.29	81.81	.2
100	77.74	85.1	.2
100	80.18	88.32	.2
100	82.61	91.5	.2
100	85.04	94.48	.2
100	87.48	97.5	.2
100	83.57	92.59	.2
100	86.77	96.6	.2
100	89.82	100.4	.2
100	92.85	104.1	.2
100	95.88	107.8	.2
100	98.89	111.2	.2
100	101.9	114.5	.2
100	104.89	118.1	.2
100	107.89	121.4	.2
100	110.89	124.5	.2
100	113.87	127.7	.2
100	116.85	130.9	.2
100	119.52	133.7	.2
100	122.49	136.6	.2
100	125.47	139.5	.2
100	128.44	142.4	.2
100	131.41	145.4	.2
100	134.37	148.5	.2
100	137.32	151.7	.2
100	140.28	154.7	.2
100	143.23	157.5	.2
100	146.18	160.3	.2
100	149.12	162.8	.2
100	152.06	165.7	.2
100	155	168.1	.2
100	157.93	170.7	.2
100	160.87	173.3	.2
100	163.85	176.1	.2
100	166.8	178.7	.2
100	169.71	181.3	.2
100	172.63	183.8	.2
100	175.7	186.7	.2
100	178.48	189.2	.2
100	181.39	192	.2
100	184.31	194.8	.2
100	187.22	197.1	.2
100	184.11	194.5	.2
100	188.28	198.2	.2
100	192.33	201.6	.2
100	196.37	205.1	.2
100	200.4	208.7	.2
100	204.42	212.1	.2
100	208.45	215.7	.2
100	212.47	219.2	.2
100	216.49	222.9	.2
100	220.52	226.1	.2
100	224.3	229.8	.2
100	228.56	233.1	.2
100	232.58	236.8	.2
100	236.3	240	.2
100	240.59	244	.2
100	244.4	247.4	.2
100	248.8	251	.2
100	252.59	254.5	.2
100	256.58	257.9	.2
100	260.58	261.2	.2
100	264.57	264.5	.2
100	268.56	267.7	.2
100	272.56	271.3	.2
100	276.55	274.9	.2
100	280.54	278.3	.2
100	284.8	281.6	.2
100	288.49	284.6	.2
100	292.7	288	.2
100	295.9	290.5	.2
100	298.12	292.2	.2
100	300.95	294.4	.2
100	302.62	295.6	.2
100	305.6	298	.2
100	309.02	300.6	.2
100	312.3	303.2	.2
100	315.3	305.5	.2
100	318.72	308.1	.2
100	321.84	310.4	.2
100	324.93	313.2	.2
100	327.94	314.6	.2
100	330.9	317	.2
100	333.4	318.9	.2
100	336.63	321.4	.2
100	339.39	323.1	.2

System: sodium dihafnium triphosphate; phases: Crystal
Fixed: Pressure, kPa = 101.325
Property: Molar entropy, J/K/mol (Crystal); method: Vacuum adiabatic calorimetry
Temperature, K	Molar entropy, J/K/mol	uncertainty
5	.0352	.0000704
10	.28	.00056
15	.963	.001926
20	2.371	.004742
25	4.592	.009184
30	7.514	.015028
35	11.11	.02222
40	15.2	.0304
45	19.66	.03932
50	24.37	.04874
60	34.28	.06856
70	44.69	.08938
80	55.54	.11108
90	66.64	.13328
100	77.87	.15574
110	89.13	.17826
120	100.3	.2006
130	111.5	.223
140	122.5	.245
150	133.5	.267
160	144.4	.2888
170	155.1	.3102
180	165.8	.3316
190	176.3	.3526
200	186.8	.3736
210	197.1	.3942
220	207.4	.4148
230	217.7	.4354
240	227.9	.4558
250	238	.476
260	248	.496
270	258	.516
280	268	.536
290	277.9	.5558
298.15	285.9	.5718
300	287.7	.5754
310	297.4	.5948
320	307.1	.6142
330	316.8	.6336
340	326.3	.6526
350	335.8	.6716

System: sodium dihafnium triphosphate; phases: Crystal
Fixed: Pressure, kPa = 101.325
Property: Molar heat capacity at constant pressure, J/K/mol (Crystal); method: Small sample (50 mg) DSC
Temperature, K	Molar heat capacity at constant pressure, J/K/mol	uncertainty
322.9	311	
324.9	312	
326.9	314	
328.9	316	
331	317	
333	319	
335	320	
337	322	
339	323	
341.1	325	
343.1	326	
345.1	327	
347.1	329	
349.2	330	
351.2	331	
353.2	332	
355.2	334	
357.2	335	
359.2	336	
361.3	338	
363.3	339	
365.3	340	
367.3	342	
369.3	343	
371.3	345	
373.2	346	
375.1	347	
377	348	
378.9	349	
380.7	350	
382.6	351	
384.4	353	
386.1	354	
387.9	355	
389.7	356	
391.4	357	
393.2	358	
394.8	359	
396.7	360	
398.4	361	
399.7	361	
401.9	363	
403.7	364	
405.5	364	
407.2	365	
409	366	
410.8	367	
412.6	368	
414.4	369	
416.2	370	
418	371	
419.9	371	
421.7	372	
423.6	373	
425.4	374	
427.3	375	
429.2	376	
431	377	
432.9	377	
434.7	378	
436.5	379	
438.6	380	
440.1	381	
441.9	382	
443.8	382	
445.5	383	
447.4	384	
449.1	385	
450.9	386	
452.7	387	
454.5	388	
456.2	388	
458	389	
459.8	390	
461.7	391	
463.5	392	
465.4	392	
467.2	393	
469.1	394	
470.9	395	
472.8	395	
474.6	396	
476.5	397	
478.3	398	
480.2	399	
482	399	
483.9	400	
485.7	401	
487.6	401	
489.4	403	
491.3	403	
493.2	404	
495	405	
496.9	406	
498.7	406	
500.6	407	
502.4	408	
504.2	408	
506	409	
507.8	410	
509.6	410	
511.4	411	
513.1	412	
514.9	412	
516.7	413	
518.5	413	
520.2	414	
522	415	
523.8	416	
525.5	416	
527.3	416	
529.1	417	
530.9	418	
532.7	419	
534.6	420	
536.4	420	
538.2	420	
540.1	421	
541.9	422	
543.7	423	
545.5	423	
547.3	424	
549.1	424	
550.9	425	
552.7	425	
554.5	426	
556.3	427	
558.1	427	
559.9	427	
561.8	428	
563.6	429	
565.5	429	
567.3	430	
569.1	431	
571	431	
572.8	432	
574.6	432	
576.4	433	
578.2	433	
580	434	
581.9	434	
583.7	435	
585.5	435	
587.3	435	
589.1	436	
590.9	436	
592.7	437	
594.5	438	
596.3	438	
598	438	
599.8	439	
601.6	439	
603.4	440	
605.1	440	
606.9	440	
608.7	441	
610.5	441	
612.3	442	
614.1	442	
615.9	443	
617.7	443	
619.5	443	
621.3	444	
623.1	444	
624.9	444	
626.7	445	
628.5	445	
630.3	445	
632.1	446	
633.9	446	
635.7	446	
637.5	447	
639.3	447	
641.2	447	
643	447	
644.9	447	
646.8	448	
648.6	448	
