Measured thermophysical data. Thermodynamics of Ethyl Decanoate
Source: J. Chem. Eng. Data, 2009, 10.1021/je900093h
Compound 1: ethyl decanoate, C12H24O2, purity 99%
Compound 2: carbon dioxide, CO2
Compound 3: water, H2O
Compound 4: oxygen, O2

System: ethyl decanoate; phases: Crystal, Liquid, Gas
Property: Triple point temperature, K (Crystal); method: Adiabatic calorimetry
Triple point temperature, K	uncertainty
253.6	.04

System: ethyl decanoate; phases: Crystal, Liquid, Gas
Property: Molar enthalpy of transition or fusion, kJ/mol (Crystal); method: Adiabatic calorimetry
Molar enthalpy of transition or fusion, kJ/mol	uncertainty
32.289	.038

System: ethyl decanoate; phases: Liquid, Gas
Property: Molar enthalpy of vaporization or sublimation, kJ/mol (Liquid); method: Static calorimetry
Temperature, K	Molar enthalpy of vaporization or sublimation, kJ/mol	uncertainty
304.79	69.9	.699

System: ethyl decanoate; phases: Liquid, Gas
Property: Vapor or sublimation pressure, kPa (Liquid); method: Knudsen effusion method
Temperature, K	Vapor or sublimation pressure, kPa	uncertainty
293.77	.00169	.0000845
298.67	.00267	.0001335
298.72	.00267	.0001335
303.68	.00414	.000207
308.61	.00648	.000324
313.57	.01	.0005
318.32	.0152	.00076
323.24	.0219	.001095

System: ethyl decanoate; phases: Crystal, Gas
Property: Molar heat capacity at saturation pressure, J/K/mol (Crystal); method: Vacuum adiabatic calorimetry
Temperature, K	Molar heat capacity at saturation pressure, J/K/mol	uncertainty
5.07	.5226	.0020904
5.31	.6118	.0024472
5.56	.7121	.0028484
5.81	.825	.0033
6.07	.9558	.0038232
6.36	1.118	.004472
6.69	1.318	.005272
7.02	1.545	.00618
7.35	1.796	.007184
7.7	2.073	.008292
8.04	2.376	.009504
8.4	2.709	.010836
8.76	3.071	.012284
9.12	3.453	.013812
9.48	3.859	.015436
9.85	4.299	.017196
10.32	4.888	.019552
10.9	5.635	.02254
11.48	6.424	.025696
12.07	7.27	.02908
12.66	8.157	.032628
13.26	9.088	.036352
13.87	10.03	.04012
14.47	11.01	.04404
15.09	12.05	.0482
15.81	13.35	.0534
16.64	14.88	.05952
17.48	16.38	.06552
18.32	17.92	.07168
19.16	19.47	.07788
20.01	21.05	.0842
21.18	23.32	.09328
22.7	26.32	.10528
24.23	29.4	.1176
25.75	32.51	.13004
27.29	35.64	.14256
28.39	37.87	.15148
29.64	40.42	.16168
31.35	43.96	.17584
33.22	47.77	.19108
35.1	51.55	.2062
36.98	55.32	.22128
38.87	59.03	.23612
40.75	62.74	.25096
42.73	66.71	.26684
44.82	70.83	.28332
46.9	74.94	.29976
49	78.99	.31596
51.09	82.94	.33176
53.19	86.89	.34756
55.3	90.74	.36296
57.4	94.51	.37804
59.52	98.2	.3928
61.64	101.8	.4072
63.76	105.3	.4212
65.89	108.8	.4352
68.01	112.1	.4484
70.14	115.4	.4616
72.38	118.9	.4756
74.72	122.4	.4896
77.07	125.9	.5036
79.44	129.4	.5176
80.12	130.3	.5212
81.8	132.9	.5316
81.98	133	.532
83.85	135.7	.5428
84.15	136.2	.5448
85.73	138.3	.5532
87.62	141	.564
89.51	143.6	.5744
91.41	146.2	.5848
93.31	148.8	.5952
95.22	151.3	.6052
97.14	153.8	.6152
99.06	156.2	.6248
100.98	158.7	.6348
102.91	161	.644
104.84	163.3	.6532
106.77	165.7	.6628
108.71	167.9	.6716
110.66	170	.68
112.6	172.2	.6888
114.55	174.3	.6972
116.5	176.4	.7056
118.46	178.5	.714
120.41	180.4	.7216
122.37	182.4	.7296
124.33	184.3	.7372
126.29	186.2	.7448
128.26	188	.752
130.23	189.8	.7592
130.37	189.7	.7588
132.19	191.6	.7664
132.31	191.5	.766
134.17	193.3	.7732
134.25	193.3	.7732
136.14	195.1	.7804
136.19	195	.78
138.12	196.8	.7872
138.13	196.6	.7864
140.08	198.3	.7932
140.1	198.4	.7936
142.02	200	.8
142.07	200.1	.8004
143.97	201.6	.8064
144.06	201.8	.8072
145.92	203.3	.8132
146.04	203.6	.8144
147.87	205	.82
148.02	205.3	.8212
149.82	206.5	.826
150	206.9	.8276
151.77	208.2	.8328
151.98	208.5	.834
153.72	209.7	.8388
153.97	210	.84
155.68	211.2	.8448
155.95	211.5	.846
157.63	212.8	.8512
157.93	213.2	.8528
159.59	214.4	.8576
159.92	214.8	.8592
161.55	215.9	.8636
161.91	216.3	.8652
163.5	217.4	.8696
163.89	217.8	.8712
165.46	218.9	.8756
165.88	219.2	.8768
167.42	220.4	.8816
167.86	220.8	.8832
169.38	222	.888
169.85	222.3	.8892
171.34	223.6	.8944
171.83	223.9	.8956
173.3	225.1	.9004
173.81	225.6	.9024
175.26	226.6	.9064
175.79	227.1	.9084
177.23	228.3	.9132
177.77	228.7	.9148
179.19	229.8	.9192
179.74	230.3	.9212
180.73	230.9	.9236
181.15	231.3	.9252
181.61	231.8	.9272
181.72	232	.928
182.71	232.5	.93
183.11	233.1	.9324
183.59	233.4	.9336
183.69	233.6	.9344
184.69	234.2	.9368
185.07	234.7	.9388
185.57	235.1	.9404
185.67	235.2	.9408
186.66	235.8	.9432
187.04	236.4	.9456
187.54	236.7	.9468
187.64	236.8	.9472
188.63	237.5	.95
189	238	.952
189.52	238.4	.9536
189.6	238.5	.954
190.6	239.3	.9572
190.96	239.7	.9588
191.49	240	.96
191.57	240.2	.9608
191.61	240.1	.9604
192.56	240.9	.9636
192.93	241.4	.9656
193.45	241.6	.9664
193.53	241.9	.9676
193.58	241.8	.9672
194.53	242.6	.9704
194.89	243.1	.9724
195.42	243.3	.9732
195.48	243.5	.974
195.54	243.5	.974
196.49	244.4	.9776
196.85	244.7	.9788
197.38	245	.98
197.44	245.2	.9808
197.5	245.2	.9808
198.44	246.2	.9848
198.81	246.5	.986
199.33	246.7	.9868
199.39	247	.988
199.46	246.8	.9872
200.4	247.8	.9912
200.77	248.3	.9932
201.28	248.3	.9932
201.35	248.7	.9948
201.46	248.6	.9944
202.35	249.5	.998
202.74	249.9	.9996
203.24	250.1	1.0004
203.29	250.4	1.0016
203.52	250.4	1.0016
204.3	251.3	1.0052
204.7	251.8	1.0072
205.19	252	1.008
205.24	252.1	1.0084
205.57	252.3	1.0092
206.25	253.2	1.0128
206.66	253.6	1.0144
207.14	254	1.016
207.19	254	1.016
207.62	254.3	1.0172
208.2	255.2	1.0208
208.63	255.4	1.0216
209.09	255.7	1.0228
209.14	255.7	1.0228
209.67	256.4	1.0256
210.15	257	1.028
210.59	257.3	1.0292
211.04	257.6	1.0304
211.09	257.8	1.0312
211.71	258.4	1.0336
212.1	259	1.036
212.56	259.1	1.0364
212.98	259.7	1.0388
213.04	259.7	1.0388
213.75	260.3	1.0412
214.05	261	1.044
214.52	261.2	1.0448
214.93	261.7	1.0468
214.99	261.6	1.0464
215.78	262.5	1.05
215.99	263.2	1.0528
216.49	263.3	1.0532
216.87	263.9	1.0556
216.93	263.7	1.0548
217.81	264.8	1.0592
217.93	265.3	1.0612
218.46	265.4	1.0616
218.81	266.1	1.0644
218.87	265.9	1.0636
219.84	267.1	1.0684
219.87	267.5	1.07
220.42	267.6	1.0704
220.75	268.4	1.0736
220.81	268.3	1.0732
221.82	269.7	1.0788
221.86	269.6	1.0784
222.39	270	1.08
222.68	270.8	1.0832
222.75	270.5	1.082
223.76	272.3	1.0892
223.88	272.1	1.0884
224.36	272.5	1.09
224.61	273.3	1.0932
224.69	272.9	1.0916
225.69	274.9	1.0996
225.89	274.9	1.0996
226.33	275.1	1.1004
226.54	276.1	1.1044
226.62	275.6	1.1024
227.62	277.6	1.1104
227.9	277.8	1.1112
228.29	277.8	1.1112
228.46	278.4	1.1136
228.54	278.3	1.1132
229.55	280.1	1.1204
229.89	280.6	1.1224
230.26	280.8	1.1232
230.47	280.9	1.1236
232.23	284	1.136
232.58	284.3	1.1372
234.19	287.3	1.1492
234.97	289	1.156
236.16	291.1	1.1644
237.29	294.1	1.1764
238.11	296.8	1.1872
239.59	301	1.204
240.07	303	1.212
241.85	310.4	1.2416
244.07	325.4	1.3016
246.21	353.6	1.4144

System: ethyl decanoate; phases: Liquid, Gas
Property: Molar heat capacity at saturation pressure, J/K/mol (Liquid); method: Vacuum adiabatic calorimetry
Temperature, K	Molar heat capacity at saturation pressure, J/K/mol	uncertainty
254.4	386.7	1.5468
255.37	387	1.548
256.65	387.2	1.5488
257.1	387.4	1.5496
257.94	387.5	1.55
258.76	387.7	1.5508
259.18	387.9	1.5516
260.12	388.2	1.5528
260.59	388.3	1.5532
261.71	388.7	1.5548
262.29	388.9	1.5556
262.56	388.9	1.5556
264.24	389.3	1.5572
264.47	389.5	1.558
264.54	389.4	1.5576
266.52	390	1.56
266.65	390.1	1.5604
266.77	390.1	1.5604
268.5	390.8	1.5632
268.83	390.8	1.5632
269.31	391	1.564
270.48	391.6	1.5664
271.01	391.6	1.5664
271.84	391.9	1.5676
272.46	392.3	1.5692
273.19	392.4	1.5696
274.38	392.9	1.5716
274.44	393	1.572
275.37	393.2	1.5728
276.42	393.8	1.5752
276.91	394	1.576
277.55	394.1	1.5764
278.4	394.5	1.578
279.45	394.9	1.5796
279.73	394.9	1.5796
280.38	395.3	1.5812
281.91	396	1.584
281.98	396.1	1.5844
282.36	396.2	1.5848
284.09	396.8	1.5872
284.34	397.1	1.5884
284.52	397.2	1.5888
286.27	397.8	1.5912
286.32	397.8	1.5912
287.05	398.3	1.5932
288.3	398.7	1.5948
288.45	398.8	1.5952
289.59	399.4	1.5976
290.28	399.7	1.5988
290.63	399.9	1.5996
292.13	400.5	1.602
292.26	400.7	1.6028
292.81	401	1.604
294.23	401.6	1.6064
294.66	401.8	1.6072
294.99	401.9	1.6076
296.21	402.5	1.61
297.17	403.1	1.6124
297.19	403	1.612
298.19	403.4	1.6136
299.72	404.3	1.6172
300.16	404.4	1.6176
302.14	405.5	1.622
302.25	405.6	1.6224
304.12	406.5	1.626
304.78	406.9	1.6276
306.09	407.7	1.6308
307.31	408.3	1.6332
308.07	408.7	1.6348
309.83	409.6	1.6384
310.05	409.6	1.6384
312.02	410.7	1.6428
312.36	411	1.644
314	411.8	1.6472
314.88	412.3	1.6492
315.98	412.8	1.6512
317.41	413.8	1.6552
317.96	414	1.656
319.93	415	1.66
319.94	415	1.66
321.92	416.3	1.6652
322.45	416.4	1.6656
323.9	417.2	1.6688
324.96	417.7	1.6708
325.88	418.2	1.6728
327.48	419.3	1.6772
327.86	419.2	1.6768
329.84	420.3	1.6812
330	420.6	1.6824
331.82	421.5	1.686
332.51	422	1.688
333.8	422.7	1.6908
335.02	423.5	1.694
335.78	424	1.696
337.54	424.9	1.6996
337.76	425.1	1.7004
339.74	426.2	1.7048
340.05	426.4	1.7056
341.72	427.3	1.7092
342.56	428	1.712
343.7	428.7	1.7148
345.06	429.5	1.718
345.68	429.8	1.7192
347.57	430.9	1.7236
347.66	431	1.724
349.64	432.2	1.7288
350.07	432.4	1.7296
351.62	433.3	1.7332
352.57	433.9	1.7356
353.61	434.3	1.7372
355.06	435.2	1.7408
355.59	435.6	1.7424
357.56	436.8	1.7472
357.57	436.8	1.7472
359.55	438	1.752
360.05	438.2	1.7528
362.54	439.8	1.7592
365.03	441.4	1.7656
367.52	443	1.772

System: ethyl decanoate; phases: Crystal
Fixed: Pressure, kPa = 101.325
Property: Molar heat capacity at constant pressure, J/K/mol (Crystal); method: Vacuum adiabatic calorimetry
Temperature, K	Molar heat capacity at constant pressure, J/K/mol	uncertainty
5	.498	.001992
10	4.477	.017908
15	11.92	.04768
20	21.04	.08416
25	30.97	.12388
30	41.18	.16472
35	51.36	.20544
40	61.27	.24508
45	71.2	.2848
50	80.91	.32364
60	98.99	.39596
70	115.2	.4608
80	130.2	.5208
90	144.3	.5772
100	157.4	.6296
110	169.3	.6772
120	180	.72
130	189.6	.7584
140	198.3	.7932
150	206.8	.8272
160	214.7	.8588
170	222.5	.89
180	230.5	.922
190	238.8	.9552
200	247.4	.9896
210	256.7	1.0268
220	266.7	1.0668
230	277.5	1.11
240	288.9	1.1556
250	301.2	1.2048
253.6	305.7	1.2228

System: ethyl decanoate; phases: Crystal
Fixed: Pressure, kPa = 101.325
Property: Molar enthalpy function {Hm(T)-Hm(0)}/T, J/K/mol (Crystal); method: Vacuum adiabatic calorimetry
Temperature, K	Molar enthalpy function {Hm(T)-Hm(0)}/T, J/K/mol	uncertainty
5	.109	.000436
10	1.107	.004428
15	3.406	.013624
20	6.664	.026656
25	10.52	.04208
30	14.78	.05912
35	19.28	.07712
40	23.91	.09564
45	28.61	.11444
50	33.36	.13344
60	42.82	.17128
70	52.03	.20812
80	60.87	.24348
90	69.36	.27744
100	77.52	.31008
110	85.34	.34136
120	92.79	.37116
130	99.87	.39948
140	106.6	.4264
150	113	.452
160	119.1	.4764
170	125	.5
180	130.6	.5224
190	136.1	.5444
200	141.4	.5656
210	146.7	.5868
220	151.9	.6076
230	157.1	.6284
240	162.4	.6496
250	167.7	.6708
253.6	169.6	.6784

System: ethyl decanoate; phases: Crystal
Fixed: Pressure, kPa = 101.325
Property: Molar entropy, J/K/mol (Crystal); method: Vacuum adiabatic calorimetry
Temperature, K	Molar entropy, J/K/mol	uncertainty
5	.134	.000536
10	1.439	.005756
15	4.583	.018332
20	9.249	.036996
25	15	.06
30	21.55	.0862
35	28.66	.11464
40	36.17	.14468
45	43.96	.17584
50	51.97	.20788
60	68.35	.2734
70	84.85	.3394
80	101.2	.4048
90	117.4	.4696
100	133.3	.5332
110	148.8	.5952
120	164	.656
130	178.8	.7152
140	193.2	.7728
150	207.2	.8288
160	220.8	.8832
170	234	.936
180	247	.988
190	259.7	1.0388
200	272.1	1.0884
210	284.4	1.1376
220	296.6	1.1864
230	308.7	1.2348
240	320.7	1.2828
250	332.8	1.3312
253.6	337.1	1.3484

System: ethyl decanoate; phases: Liquid
Fixed: Pressure, kPa = 101.325
Property: Molar heat capacity at constant pressure, J/K/mol (Liquid); method: Vacuum adiabatic calorimetry
Temperature, K	Molar heat capacity at constant pressure, J/K/mol	uncertainty
253.6	386.5	1.546
260	388.1	1.5524
270	391.3	1.5652
280	395.2	1.5808
290	399.6	1.5984
298.15	403.5	1.614
300	404.4	1.6176
310	409.6	1.6384
320	415	1.66
330	420.6	1.6824
340	426.4	1.7056
350	432.3	1.7292
360	438.3	1.7532
370	444.5	1.778

System: ethyl decanoate; phases: Liquid
Fixed: Pressure, kPa = 101.325
Property: Molar enthalpy function {Hm(T)-Hm(0)}/T, J/K/mol (Liquid); method: Vacuum adiabatic calorimetry
Temperature, K	Molar enthalpy function {Hm(T)-Hm(0)}/T, J/K/mol	uncertainty
253.6	296.9	1.1876
260	299.2	1.1968
270	302.5	1.21
280	305.8	1.2232
290	308.9	1.2356
298.15	311.4	1.2456
300	312	1.248
310	315.1	1.2604
320	318.1	1.2724
330	321.1	1.2844
340	324.1	1.2964
350	327.2	1.3088
360	330.2	1.3208
370	333.2	1.3328

System: ethyl decanoate; phases: Liquid
Fixed: Pressure, kPa = 101.325
Property: Molar entropy, J/K/mol (Liquid); method: Vacuum adiabatic calorimetry
Temperature, K	Molar entropy, J/K/mol	uncertainty
253.6	464.4	1.8576
260	474.1	1.8964
270	488.8	1.9552
280	503.1	2.0124
290	517	2.068
298.15	528.2	2.1128
300	530.7	2.1228
310	544	2.176
320	557.1	2.2284
330	569.9	2.2796
340	582.6	2.3304
350	595	2.38
360	607.3	2.4292
370	619.4	2.4776

Reaction: -1 ethyl decanoate + 12 carbon dioxide + 12 water + -17 oxygen
Property: Specific internal energy of reaction at constant volume, J/g
-37225.7
