Measured thermophysical data. Solubilities in Supercritical Carbon Dioxide of (2E,6E)-3,7,11-Trimethyldodeca-2,6,10-trien-1-ol (Farnesol) and (2S)-5,7-Dihydroxy-2-(4-hydroxyphenyl)chroman-4-one (Naringenin)
Source: J. Chem. Eng. Data, 2010, 10.1021/je900957v
Compound 1: 3,7,11-trimethyl-2,6,1-dodecatrien-1-ol, C15H26O, purity 96%
Compound 2: 4',5,7-trihydroxyflavanone, C15H12O5, purity 95%
Compound 3: carbon dioxide, CO2, purity 99.99%

System: carbon dioxide + 3,7,11-trimethyl-2,6,1-dodecatrien-1-ol; phases: Fluid (supercritical or subcritical phases), Crystal
Property: Mole fraction of 3,7,11-trimethyl-2,6,1-dodecatrien-1-ol (Fluid (supercritical or subcritical phases)); method: Chromatography
Temperature, K	Pressure, kPa	Mole fraction of 3,7,11-trimethyl-2,6,1-dodecatrien-1-ol	uncertainty
313	12000	.0009	
313	12400	.0009	
313	12500	.00095	
313	12600	.00097	
313	13800	.00106	
313	16500	.00117	
313	20100	.00122	
313	20300	.00122	
333	11400	.00013	
333	11500	.00013	
333	11500	.00013	
313	12000	.00088	
323	11700	.00056	
323	10200	.00024	
323	10200	.00021	
323	16400	.00104	
323	16500	.00101	
323	16700	.001	
333	15300	.00092	
333	15400	.00096	
333	15400	.00095	
313	9700	.00083	
313	9750	.00089	
313	9750	.00083	
313	10200	.00084	
333	13300	.00045	
333	13300	.00043	
333	13400	.00049	
313	10200	.00089	
333	17200	.0011	
333	17300	.00116	
333	17400	.00114	
313	17100	.00119	
313	16900	.00113	
323	10100	.00022	
313	16200	.00112	
323	11600	.00053	
323	11700	.00048	
323	10100	.00026	
313	10300	.00087	
313	14100	.00105	
323	9740	.00023	
323	9740	.00019	
323	14700	.00109	
333	22600	.00164	
323	14600	.00098	
333	22900	.00182	
323	14500	.00104	
333	20600	.00163	
333	20700	.00169	
333	19400	.00147	
333	19200	.00144	
333	19400	.00149	
323	20500	.00136	
323	20800	.00134	
333	25600	.00181	
333	26000	.00191	
323	20300	.00133	

System: carbon dioxide + 4',5,7-trihydroxyflavanone; phases: Fluid (supercritical or subcritical phases), Crystal
Property: Mole fraction of 4',5,7-trihydroxyflavanone (Fluid (supercritical or subcritical phases)); method: Chromatography
Temperature, K	Pressure, kPa	Mole fraction of 4',5,7-trihydroxyflavanone	uncertainty
313	34200	.0000095	
323	24800	.0000087	
323	25000	.0000087	
313	33700	.0000093	
313	33900	.0000095	
323	19600	.0000082	
323	25700	.0000095	
313	44300	.0000105	
323	25800	.0000088	
333	15400	.0000079	
313	36400	.0000093	
313	36900	.0000102	
313	43800	.0000114	
323	29000	.0000098	
313	10300	.0000049	
313	10400	.0000055	
323	25200	.0000089	
323	25300	.0000092	
323	36200	.0000113	
323	15400	.0000074	
323	34400	.0000104	
323	15300	.0000068	
323	15400	.0000071	
323	25500	.0000088	
333	40800	.0000149	
333	40800	.0000134	
313	35000	.0000096	
313	35000	.0000104	
323	29400	.0000096	
313	35100	.00001	
333	20400	.0000093	
313	34600	.0000096	
333	10700	.0000068	
333	20400	.0000088	
333	24900	.0000113	
333	25500	.0000106	
333	34900	.0000115	
313	20500	.0000074	
323	30100	.00001	
333	20700	.0000094	
323	44300	.0000124	
333	35300	.0000117	
333	30300	.0000108	
313	30300	.0000084	
333	44500	.0000165	
313	14700	.0000059	
333	30100	.0000124	
313	19900	.0000073	
323	20900	.0000083	
323	20600	.0000085	
323	41000	.0000127	
333	34600	.0000124	
313	15000	.0000066	
323	43700	.0000138	
323	43200	.000013	
333	35600	.0000125	
313	29500	.0000084	
323	10200	.0000059	
313	29900	.0000095	
