Measured thermophysical data. Micellar Properties and Related Thermodynamic Parameters of the 14-6-14, 2Br- Gemini Surfactant in Water + Organic Solvent Mixed Media
Source: J. Chem. Eng. Data, 2010, 10.1021/je900894x
Compound 1: dioxane, C4H8O2, purity 99%
Compound 2: N,N-dimethylformamide, C3H7NO, purity 99.5%
Compound 3: ethylene glycol, C2H6O2, purity 98%
Compound 4: pyrene, C16H10, purity 98%
Compound 5: N,N,N',N'-tetramethyl-N,N'-ditetradecylhexane-1,6-diaminium bromide, C38H82Br2N2, purity 98%
Compound 6: water, H2O

System: dioxane; phases: Liquid
Property: Electrical conductivity, S/m (Liquid); method: Conductivity Bridge with Dip Cell
Temperature, K	Pressure, kPa	Electrical conductivity, S/m	uncertainty
298.15	101.3	0	0
303.15	101.3	0	0
315.15	101.3	0	0
323.15	101.3	0	0

System: N,N-dimethylformamide; phases: Liquid
Property: Electrical conductivity, S/m (Liquid); method: Conductivity Bridge With Dip Cell
Temperature, K	Pressure, kPa	Electrical conductivity, S/m	uncertainty
303.15	101.3	0	0

System: ethylene glycol; phases: Liquid
Property: Electrical conductivity, S/m (Liquid); method: Conductivity Bridge With Dip Cell
Temperature, K	Pressure, kPa	Electrical conductivity, S/m	uncertainty
303.15	101.3	0	0

System: dioxane + water + N,N,N',N'-tetramethyl-N,N'-ditetradecylhexane-1,6-diaminium bromide; phases: Liquid
Fixed: Pressure, kPa = 101.3
Fixed: Temperature, K = 303.15
Property: Electrical conductivity, S/m (Liquid); method: Conductivity Bridge With Dip Cell
Solvent: Volume fraction of dioxane	Amount concentration (molarity), mol/dm3 of N,N,N',N'-tetramethyl-N,N'-ditetradecylhexane-1,6-diaminium bromide	Electrical conductivity, S/m	uncertainty
0	0	0	0
0	.000039	1.06	.0106
0	.000077	2.08	.0208
0	.000113	3.05	.0305
0	.000148	3.96	.0396
0	.000182	4.71	.0471
0	.000214	5.21	.0521
0	.000246	5.59	.0559
0	.000276	5.9	.059
0	.000305	6.2	.062
0	.000333	6.49	.0649
0	.000361	6.78	.0678
0	.000387	7.05	.0705
0	.000413	7.32	.0732
0	.000438	7.57	.0757
0	.000462	7.82	.0782
0	.000485	8.06	.0806
0	.000507	8.28	.0828
0	.000529	8.51	.0851
0	.000551	8.74	.0874
0	.000618	9.43	.0943
0	.000678	10.05	.1005
0	.000734	10.6	.106
.05	0	0	0
.05	.00008	1.79	.0179
.05	.000159	3.5	.035
.05	.000239	5.46	.0546
.05	.000317	7.19	.0719
.05	.000396	8.14	.0814
.05	.000474	8.76	.0876
.05	.000552	9.32	.0932
.05	.00063	10.16	.1016
.05	.000707	10.75	.1075
.05	.000784	11.5	.115
.05	.000938	12.65	.1265
.05	.001088	13.9	.139
.05	.001241	15.15	.1515
.05	.00139	16.55	.1655
.05	.001538	17.7	.177
.05	.001686	18.85	.1885
.05	.001831	20.15	.2015
.05	.001977	21.25	.2125
.05	.002121	22.5	.225
.05	.002264	23.7	.237
.05	.002406	24.75	.2475
.05	.002546	25.85	.2585
.1	0	0	0
.1	.000239	5.15	.0515
.1	.000358	7.5	.075
.1	.000476	9.74	.0974
.1	.000594	11.3	.113
.1	.000711	11.88	.1188
.1	.000828	12.65	.1265
.1	.000944	13.57	.1357
.1	.001177	15.15	.1515
.1	.001407	16.74	.1674
.1	.001635	18.26	.1826
.1	.001861	19.79	.1979
.1	.002085	21.29	.2129
.1	.002308	22.9	.229
.1	.002529	24.43	.2443
.1	.002748	25.65	.2565
.1	.002966	27.08	.2708
.1	.003181	28.76	.2876
.1	.003396	30.19	.3019
.1	.00361	31.71	.3171
.1	.00382	33.28	.3328
.1	.00403	34.49	.3449
.15	0	0	0
.15	.000284	4.69	.0469
.15	.000565	9.42	.0942
.15	.000844	12.94	.1294
.15	.00112	14.27	.1427
.15	.001396	15.52	.1552
.15	.001668	17.21	.1721
.15	.001939	18.51	.1851
.15	.002208	20.18	.2018
.15	.002475	21.13	.2113
.15	.002739	22.92	.2292
.15	.003001	24.22	.2422
.15	.003262	25.52	.2552
.15	.003519	26.52	.2652
.15	.003776	28.19	.2819
.15	.00403	29.74	.2974
.15	.004282	30.58	.3058
.15	.004534	31.83	.3183
.15	.004783	32.83	.3283
.15	.00503	34.47	.3447
.2	0	0	0
.2	.00016	2.07	.0207
.2	.000318	4.38	.0438
.2	.000478	6.57	.0657
.2	.000636	8.95	.0895
.2	.000791	10.95	.1095
.2	.000949	12.28	.1228
.2	.001105	13.49	.1349
.2	.001261	14.16	.1416
.2	.001414	14.92	.1492
.2	.00157	15.66	.1566
.2	.001874	17.05	.1705
.2	.002179	18.5	.185
.2	.002481	19.94	.1994
.2	.002779	21.37	.2137
.2	.003077	22.76	.2276
.2	.003373	24.09	.2409
.2	.003664	25.44	.2544
.2	.003955	26.92	.2692
.2	.004242	28.35	.2835
.2	.004529	29.58	.2958
.25	0	0	0
.25	.00016	2.62	.0262
.25	.000318	4.35	.0435
.25	.000477	6.48	.0648
.25	.000636	8.84	.0884
.25	.000792	11.4	.114
.25	.000949	13.17	.1317
.25	.001105	15.99	.1599
.25	.001259	17.71	.1771
.25	.00157	20.41	.2041
.25	.001876	21.57	.2157
.25	.002179	22.94	.2294
.25	.002482	25.23	.2523
.25	.002781	26.77	.2677
.25	.003076	27.56	.2756
.25	.003372	29.28	.2928
.25	.003663	31.1	.311
.25	.003954	31.64	.3164
.25	.004243	33.75	.3375
.25	.004529	35.03	.3503
.25	.004813	36.7	.367
.3	0	0	0
.3	.0002	3.19	.0319
.3	.000398	6.34	.0634
.3	.000596	9.36	.0936
.3	.000794	12.27	.1227
.3	.00099	15.02	.1502
.3	.001186	17.42	.1742
.3	.001381	19.72	.1972
.3	.001575	21.55	.2155
.3	.001961	25.58	.2558
.3	.002344	28.28	.2828
.3	.002724	30.27	.3027
.3	.003101	32.72	.3272
.3	.003475	34.25	.3425
.3	.003846	36.5	.365
.3	.004215	38.03	.3803
.3	.00458	39.56	.3956
.3	.004943	41.19	.4119
.3	.005303	42	.42
.3	.00566	44.45	.4445
.3	.006015	46.34	.4634
.4	0	0	0
.4	.00024	3.48	.0348
.4	.000478	5.91	.0591
.4	.000716	9.24	.0924
.4	.000952	11.84	.1184
.4	.001188	14.34	.1434
.4	.001425	17.06	.1706
.4	.001655	19.72	.1972
.4	.00189	22.34	.2234
.4	.002355	27.09	.2709
.4	.002812	30.82	.3082
.4	.003269	33.44	.3344
.4	.003723	36.03	.3603
.4	.004169	38.22	.3822
.4	.004615	40.87	.4087
.4	.005057	42.9	.429
.4	.005495	45.26	.4526
.4	.005934	47.62	.4762
.4	.006365	49.85	.4985
.4	.006792	52.37	.5237
.4	.007219	54.4	.544
.4	.007638	56.72	.5672
.5	0	0	0
.5	.000277	1.74	.0174
.5	.00056	3.9	.039
.5	.000832	5.82	.0582
.5	.00111	7.91	.0791
.5	.001387	10.4	.104
.5	.001659	12.42	.1242
.5	.001932	14.51	.1451
.5	.002204	16.89	.1689
.5	.002476	18.84	.1884
.5	.002743	20.58	.2058
.5	.003281	23.35	.2335
.5	.003815	25.33	.2533
.5	.004343	27.46	.2746
.5	.004866	29.38	.2938
.5	.005384	31.22	.3122
.5	.005901	33.39	.3339
.5	.006414	35.05	.3505
.5	.00692	36.86	.3686
.5	.007422	38.89	.3889
.5	.007924	40.84	.4084
.5	.00842	42.54	.4254
.5	.008916	44.46	.4446
.6	0	0	0
.6	.00032	2.14	.0214
.6	.00064	4.5	.045
.6	.00095	6.33	.0633
.6	.001271	8.21	.0821
.6	.001581	10.48	.1048
.6	.001901	12.31	.1231
.6	.002211	14.32	.1432
.6	.002521	16.16	.1616
.6	.002829	17.85	.1785
.6	.003137	19.38	.1938
.6	.003752	22.79	.2279
.6	.004362	25.41	.2541
.6	.004962	27.77	.2777
.6	.005562	30.22	.3022
.6	.006153	32.01	.3201
.6	.006743	33.93	.3393
.6	.007328	35.8	.358
.6	.007909	37.74	.3774
.6	.008485	39.47	.3947
.6	.009057	41	.41
.6	.009624	43.23	.4323
.6	.010745	46.59	.4659
.7	0	0	0
.7	.00072	2.43	.0243
.7	.001431	5.43	.0543
.7	.002131	8.23	.0823
.7	.002835	10.8	.108
.7	.003532	13.63	.1363
.7	.004222	15.61	.1561
.7	.004902	17.23	.1723
.7	.005582	18.52	.1852
.7	.006253	20.05	.2005
.7	.006923	21.41	.2141
.7	.007586	23.04	.2304
.7	.008244	24.57	.2457
.7	.008897	25.9	.259
.7	.009545	27.22	.2722
.7	.010189	28.86	.2886
.7	.010827	29.77	.2977
.7	.011461	31.2	.312
.7	.01209	32.43	.3243
.8	0	0	0
.8	.00072	2.43	.0243
.8	.001431	5.43	.0543
.8	.002131	8.23	.0823
.8	.002835	10.8	.108
.8	.003532	13.63	.1363
.8	.004222	15.61	.1561
.8	.004902	17.23	.1723
.8	.005582	18.52	.1852
.8	.006253	20.05	.2005
.8	.006923	21.41	.2141
.8	.007586	23.04	.2304
.8	.008244	24.57	.2457
.8	.008897	25.9	.259
.8	.009545	27.22	.2722
.8	.010189	28.86	.2886
.8	.010827	29.77	.2977
.8	.011461	31.2	.312
.8	.01209	32.43	.3243

System: dioxane + water + N,N,N',N'-tetramethyl-N,N'-ditetradecylhexane-1,6-diaminium bromide; phases: Liquid
Fixed: Pressure, kPa = 101.3
Property: Electrical conductivity, S/m (Liquid); method: Conductivity Bridge with Dip Cell
Solvent: Volume fraction of dioxane	Temperature, K	Amount concentration (molarity), mol/dm3 of N,N,N',N'-tetramethyl-N,N'-ditetradecylhexane-1,6-diaminium bromide	Electrical conductivity, S/m	uncertainty
0	298.15	0	0	0
0	298.15	.000033	.94	.0094
0	298.15	.000066	1.89	.0189
0	298.15	.000099	2.85	.0285
0	298.15	.000132	3.81	.0381
0	298.15	.000164	4.55	.0455
0	298.15	.000196	4.94	.0494
0	298.15	.000228	5.3	.053
0	298.15	.00026	5.62	.0562
0	298.15	.000291	5.96	.0596
0	298.15	.000323	6.31	.0631
0	298.15	.000354	6.63	.0663
0	298.15	.000385	6.94	.0694
0	298.15	.000415	7.28	.0728
0	303.15	0	0	0
0	303.15	.000039	1.06	.0106
0	303.15	.000077	2.08	.0208
0	303.15	.000113	3.05	.0305
0	303.15	.000148	3.96	.0396
0	303.15	.000182	4.71	.0471
0	303.15	.000214	5.21	.0521
0	303.15	.000246	5.59	.0559
0	303.15	.000276	5.9	.059
0	303.15	.000305	6.2	.062
0	303.15	.000333	6.49	.0649
0	303.15	.000361	6.78	.0678
0	303.15	.000387	7.05	.0705
0	303.15	.000413	7.32	.0732
0	303.15	.000438	7.57	.0757
0	303.15	.000462	7.82	.0782
0	303.15	.000485	8.06	.0806
0	303.15	.000507	8.28	.0828
0	303.15	.000529	8.51	.0851
0	303.15	.000551	8.74	.0874
0	303.15	.000618	9.43	.0943
0	303.15	.000678	10.05	.1005
0	303.15	.000734	10.6	.106
0	315.15	0	0	0
0	315.15	.000033	1.12	.0112
0	315.15	.000066	2.31	.0231
0	315.15	.000099	3.54	.0354
0	315.15	.000132	4.69	.0469
0	315.15	.000164	5.87	.0587
0	315.15	.000196	6.99	.0699
0	315.15	.000228	7.82	.0782
0	315.15	.00026	8.27	.0827
0	315.15	.000291	8.74	.0874
0	315.15	.000323	9.19	.0919
0	315.15	.000354	9.62	.0962
0	315.15	.000385	10.03	.1003
0	315.15	.000415	10.47	.1047
0	315.15	.000446	10.89	.1089
0	315.15	.000476	11.29	.1129
0	323.15	0	0	0
0	323.15	.000033	1.85	.0185
0	323.15	.000066	3.77	.0377
0	323.15	.000099	5.84	.0584
0	323.15	.000132	7.69	.0769
0	323.15	.000164	9.56	.0956
0	323.15	.000196	11.42	.1142
0	323.15	.000228	13.13	.1313
0	323.15	.00026	14.62	.1462
0	323.15	.000291	15.57	.1557
0	323.15	.000323	16.32	.1632
0	323.15	.000354	16.99	.1699
0	323.15	.000385	17.74	.1774
0	323.15	.000415	18.42	.1842
0	323.15	.000446	19.14	.1914
0	323.15	.000476	19.87	.1987
0	323.15	.000506	20.53	.2053
0	323.15	.000536	21.27	.2127
0	323.15	.000566	21.93	.2193
.1	298.15	0	0	0
.1	298.15	.0001	1.98	.0198
.1	298.15	.000199	3.96	.0396
.1	298.15	.000299	5.62	.0562
.1	298.15	.000397	7.26	.0726
.1	298.15	.000496	8.12	.0812
.1	298.15	.000594	8.96	.0896
.1	298.15	.000789	10.23	.1023
.1	298.15	.000984	11.25	.1125
.1	298.15	.001176	12.37	.1237
.1	298.15	.001368	13.59	.1359
.1	298.15	.001558	14.82	.1482
.1	298.15	.001748	16.04	.1604
.1	298.15	.001935	16.45	.1645
.1	298.15	.002122	17.98	.1798
.1	298.15	.002308	19	.19
.1	298.15	.002492	20.02	.2002
.1	298.15	.002675	21.14	.2114
.1	298.15	.002857	21.96	.2196
.1	303.15	0	0	0
.1	303.15	.000239	5.15	.0515
.1	303.15	.000358	7.5	.075
.1	303.15	.000476	9.74	.0974
.1	303.15	.000594	11.3	.113
.1	303.15	.000711	11.88	.1188
.1	303.15	.000828	12.65	.1265
.1	303.15	.000944	13.57	.1357
.1	303.15	.001177	15.15	.1515
.1	303.15	.001407	16.74	.1674
.1	303.15	.001635	18.26	.1826
.1	303.15	.001861	19.79	.1979
.1	303.15	.002085	21.29	.2129
.1	303.15	.002308	22.9	.229
.1	303.15	.002529	24.43	.2443
.1	303.15	.002748	25.65	.2565
.1	303.15	.002966	27.08	.2708
.1	303.15	.003181	28.76	.2876
.1	303.15	.003396	30.19	.3019
.1	303.15	.00361	31.71	.3171
.1	303.15	.00382	33.28	.3328
.1	303.15	.00403	34.49	.3449
.1	313.15	0	0	0
.1	313.15	.0001	1.99	.0199
.1	313.15	.000199	3.69	.0369
.1	313.15	.000299	5.66	.0566
.1	313.15	.000397	7.4	.074
.1	313.15	.000495	8.84	.0884
.1	313.15	.000594	9.98	.0998
.1	313.15	.000789	11.77	.1177
.1	313.15	.000984	13.12	.1312
.1	313.15	.001176	14.3	.143
.1	313.15	.001367	15.5	.155
.1	313.15	.001557	16.68	.1668
.1	313.15	.001748	17.97	.1797
.1	313.15	.001934	19.26	.1926
.1	313.15	.002123	20.48	.2048
.1	313.15	.002308	21.59	.2159
.1	313.15	.002491	22.75	.2275
.1	313.15	.002675	23.93	.2393
.1	313.15	.002856	25.17	.2517
.1	313.15	.003038	26.2	.262
.1	313.15	0	0	0
.1	323.15	0	0	0
.1	323.15	.0001	2.72	.0272
.1	323.15	.000199	5.06	.0506
.1	323.15	.000299	7.4	.074
.1	323.15	.000397	9.65	.0965
.1	323.15	.000495	11.66	.1166
.1	323.15	.000594	13.94	.1394
.1	323.15	.000789	16.95	.1695
.1	323.15	.000984	18.69	.1869
.1	323.15	.001176	20.37	.2037
.1	323.15	.001367	22.05	.2205
.1	323.15	.001557	23.7	.237
.1	323.15	.001748	25.5	.255
.1	323.15	.001934	27.12	.2712
.1	323.15	.002123	28.77	.2877
.1	323.15	.002308	30.37	.3037
.1	323.15	.002491	32.02	.3202
.1	323.15	.002675	33.61	.3361
.1	323.15	.002856	35.14	.3514
.1	323.15	.003038	36.91	.3691
.1	323.15	0	0	0
.2	298.15	0	0	0
.2	298.15	.0001	1.25	.0125
.2	298.15	.000199	2.65	.0265
.2	298.15	.000299	3.97	.0397
.2	298.15	.000397	5.23	.0523
.2	298.15	.000496	6.54	.0654
.2	298.15	.000594	7.75	.0775
.2	298.15	.000789	9.82	.0982
.2	298.15	.000984	10.99	.1099
.2	298.15	.001176	11.85	.1185
.2	298.15	.001369	12.72	.1272
.2	298.15	.001558	13.52	.1352
.2	298.15	.001749	14.4	.144
.2	298.15	.001935	15.14	.1514
.2	298.15	.002121	16.05	.1605
.2	298.15	.002308	16.77	.1677
.2	298.15	.002491	17.57	.1757
.2	298.15	.002675	18.4	.184
.2	303.15	0	0	0
.2	303.15	.00016	2.07	.0207
.2	303.15	.000318	4.38	.0438
.2	303.15	.000478	6.57	.0657
.2	303.15	.000636	8.95	.0895
.2	303.15	.000791	10.95	.1095
.2	303.15	.000949	12.28	.1228
.2	303.15	.001105	13.49	.1349
.2	303.15	.001261	14.16	.1416
.2	303.15	.001414	14.92	.1492
.2	303.15	.00157	15.66	.1566
.2	303.15	.001874	17.05	.1705
.2	303.15	.002179	18.5	.185
.2	303.15	.002481	19.94	.1994
.2	303.15	.002779	21.37	.2137
.2	303.15	.003077	22.76	.2276
.2	303.15	.003373	24.09	.2409
.2	303.15	.003664	25.44	.2544
.2	303.15	.003955	26.92	.2692
.2	303.15	.004242	28.35	.2835
.2	303.15	.004529	29.58	.2958
.2	313.15	0	0	0
.2	313.15	.0001	1.61	.0161
.2	313.15	.0002	3.72	.0372
.2	313.15	.000299	5.54	.0554
.2	313.15	.000397	7.26	.0726
.2	313.15	.000593	10.72	.1072
.2	313.15	.00079	14.31	.1431
.2	313.15	.000984	17.65	.1765
.2	313.15	.001176	20.37	.2037
.2	313.15	.001369	21.97	.2197
.2	313.15	.001558	23.22	.2322
.2	313.15	.001748	24.3	.243
.2	313.15	.001935	25.63	.2563
.2	313.15	.002122	26.78	.2678
.2	313.15	.002308	27.96	.2796
.2	313.15	.002492	29.14	.2914
.2	313.15	.002676	30.32	.3032
.2	313.15	.002856	31.53	.3153
.2	323.15	0	0	0
.2	323.15	.000199	4.17	.0417
.2	323.15	.000398	7.94	.0794
.2	323.15	.000594	11.83	.1183
.2	323.15	.000789	15.76	.1576
.2	323.15	.000983	19.63	.1963
.2	323.15	.001176	23.4	.234
.2	323.15	.001369	26.97	.2697
.2	323.15	.001558	28.93	.2893
.2	323.15	.001749	30.47	.3047
.2	323.15	.001936	31.91	.3191
.2	323.15	.002123	33.09	.3309
.2	323.15	.002308	34.5	.345
.2	323.15	.002491	35.84	.3584
.2	323.15	.002675	37.18	.3718
.2	323.15	.002856	38.49	.3849
.2	323.15	.003038	39.84	.3984
.2	323.15	.003217	41.15	.4115
.2	323.15	.003397	42.55	.4255
.3	298.15	0	0	0
.3	298.15	.000133	1.63	.0163
.3	298.15	.000265	3.21	.0321
.3	298.15	.000398	4.58	.0458
.3	298.15	.00053	5.93	.0593
.3	298.15	.000791	8.7	.087
.3	298.15	.001053	11.69	.1169
.3	298.15	.001312	14.31	.1431
.3	298.15	.001569	17.09	.1709
.3	298.15	.001823	19.34	.1934
.3	298.15	.002078	20.43	.2043
.3	298.15	.002329	21.49	.2149
.3	298.15	.002581	22.45	.2245
.3	298.15	.002831	23.5	.235
.3	298.15	.003078	24.32	.2432
.3	298.15	.003322	25.36	.2536
.3	298.15	.003567	26.36	.2636
.3	298.15	.003809	27.39	.2739
.3	298.15	.004051	28.45	.2845
.3	298.15	.004291	29.25	.2925
.3	303.15	0	0	0
.3	303.15	.0002	3.19	.0319
.3	303.15	.000398	6.34	.0634
.3	303.15	.000596	9.36	.0936
.3	303.15	.000794	12.27	.1227
.3	303.15	.00099	15.02	.1502
.3	303.15	.001186	17.42	.1742
.3	303.15	.001381	19.72	.1972
.3	303.15	.001575	21.55	.2155
.3	303.15	.001961	25.58	.2558
.3	303.15	.002344	28.28	.2828
.3	303.15	.002724	30.27	.3027
.3	303.15	.003101	32.72	.3272
.3	303.15	.003475	34.25	.3425
.3	303.15	.003846	36.5	.365
.3	303.15	.004215	38.03	.3803
.3	303.15	.00458	39.56	.3956
.3	303.15	.004943	41.19	.4119
.3	303.15	.005303	42	.42
.3	303.15	.00566	44.45	.4445
.3	303.15	.006015	46.34	.4634
.3	313.15	0	0	0
.3	313.15	.000265	3.97	.0397
.3	313.15	.00053	7.71	.0771
.3	313.15	.000791	11.54	.1154
.3	313.15	.001053	15.53	.1553
.3	313.15	.001312	19.27	.1927
.3	313.15	.001569	23.07	.2307
.3	313.15	.001823	26.64	.2664
.3	313.15	.002078	30.47	.3047
.3	313.15	.002329	32.63	.3263
.3	313.15	.002581	34.5	.345
.3	313.15	.002831	35.94	.3594
.3	313.15	.003078	37.38	.3738
.3	313.15	.003322	38.85	.3885
.3	313.15	.003567	40.16	.4016
.3	313.15	.003809	41.6	.416
.3	313.15	.004051	43.05	.4305
.3	313.15	.004291	44.36	.4436
.3	313.15	.004528	45.76	.4576
.3	323.15	0	0	0
.3	323.15	.000266	5.96	.0596
.3	323.15	.000529	10.51	.1051
.3	323.15	.000792	15.29	.1529
.3	323.15	.001052	19.83	.1983
.3	323.15	.001312	24.47	.2447
.3	323.15	.001569	28.79	.2879
.3	323.15	.001824	33.15	.3315
.3	323.15	.002078	37.37	.3737
.3	323.15	.002329	41.08	.4108
.3	323.15	.002581	44.7	.447
.3	323.15	.002829	46.74	.4674
.3	323.15	.003078	49.25	.4925
.3	323.15	.003324	51.01	.5101
.3	323.15	.003566	52.87	.5287
.3	323.15	.003809	54.91	.5491
.3	323.15	.004052	56.63	.5663
.3	323.15	.004289	58.58	.5858
.3	323.15	.004529	60.62	.6062
.3	323.15	.004766	62.29	.6229
.3	323.15	.005	64	.64
.3	323.15	.005234	65.91	.6591
.5	298.15	0	0	0
.5	298.15	.000266	5.96	.0596
.5	298.15	.000529	10.51	.1051
.5	298.15	.000792	15.29	.1529
.5	298.15	.001052	19.83	.1983
.5	298.15	.001312	24.47	.2447
.5	298.15	.001569	28.79	.2879
.5	298.15	.001824	33.15	.3315
.5	298.15	.002078	37.37	.3737
.5	298.15	.002329	41.08	.4108
.5	298.15	.002581	44.7	.447
.5	298.15	.002829	46.74	.4674
.5	298.15	.003078	49.25	.4925
.5	298.15	.003324	51.01	.5101
.5	298.15	.003566	52.87	.5287
.5	298.15	.003809	54.91	.5491
.5	298.15	.004052	56.63	.5663
.5	298.15	.004289	58.58	.5858
.5	298.15	.004529	60.62	.6062
.5	298.15	.004766	62.29	.6229
.5	298.15	.005	64	.64
.5	298.15	.005234	65.91	.6591
.5	303.15	0	0	0
.5	303.15	.000277	1.74	.0174
.5	303.15	.00056	3.9	.039
.5	303.15	.000832	5.82	.0582
.5	303.15	.00111	7.91	.0791
.5	303.15	.001387	10.4	.104
.5	303.15	.001659	12.42	.1242
.5	303.15	.001932	14.51	.1451
.5	303.15	.002204	16.89	.1689
.5	303.15	.002476	18.84	.1884
.5	303.15	.002743	20.58	.2058
.5	303.15	.003281	23.35	.2335
.5	303.15	.003815	25.33	.2533
.5	303.15	.004343	27.46	.2746
.5	303.15	.004866	29.38	.2938
.5	303.15	.005384	31.22	.3122
.5	303.15	.005901	33.39	.3339
.5	303.15	.006414	35.05	.3505
.5	303.15	.00692	36.86	.3686
.5	303.15	.007422	38.89	.3889
.5	303.15	.007924	40.84	.4084
.5	303.15	.00842	42.54	.4254
.5	303.15	.008916	44.46	.4446
.5	313.15	0	0	0
.5	313.15	.000255	2.59	.0259
.5	313.15	.00051	5.46	.0546
.5	313.15	.000763	8.69	.0869
.5	313.15	.001012	11.42	.1142
.5	313.15	.001261	14.41	.1441
.5	313.15	.001506	17.28	.1728
.5	313.15	.001755	20.44	.2044
.5	313.15	.001998	23.13	.2313
.5	313.15	.002241	25.9	.259
.5	313.15	.002481	28.99	.2899
.5	313.15	.00272	31.29	.3129
.5	313.15	.002957	34.35	.3435
.5	313.15	.003197	36.4	.364
.5	313.15	.00343	38.53	.3853
.5	313.15	.003663	40.16	.4016
.5	313.15	.004124	43.14	.4314
.5	313.15	.004582	46.02	.4602
.5	313.15	.005033	49.07	.4907
.5	313.15	.005478	52.01	.5201
.5	313.15	.005917	54.85	.5485
.5	313.15	.006349	57.58	.5758
.5	323.15	0	0	0
.5	323.15	.000256	3.25	.0325
.5	323.15	.000509	6.26	.0626
.5	323.15	.000761	10.35	.1035
.5	323.15	.00101	13.18	.1318
.5	323.15	.001259	16.56	.1656
.5	323.15	.001508	20.14	.2014
.5	323.15	.001754	22.73	.2273
.5	323.15	.001999	26.45	.2645
.5	323.15	.002241	30.2	.302
.5	323.15	.002479	33.03	.3303
.5	323.15	.002721	36.14	.3614
.5	323.15	.003194	42.13	.4213
.5	323.15	.003664	48.35	.4835
.5	323.15	.004126	52.99	.5299
.5	323.15	.004582	57.63	.5763
.5	323.15	.005033	60.87	.6087
.5	323.15	.005478	64.72	.6472
.5	323.15	.005916	68.11	.6811
.5	323.15	.006349	71.31	.7131
.5	323.15	.00678	74.75	.7475
.5	323.15	.007203	78.46	.7846

System: N,N-dimethylformamide + water + N,N,N',N'-tetramethyl-N,N'-ditetradecylhexane-1,6-diaminium bromide; phases: Liquid
Fixed: Temperature, K = 303.15
Fixed: Pressure, kPa = 101.3
Property: Electrical conductivity, S/m (Liquid); method: Conductivity Bridge With Dip Cell
Solvent: Volume fraction of N,N-dimethylformamide	Amount concentration (molarity), mol/dm3 of N,N,N',N'-tetramethyl-N,N'-ditetradecylhexane-1,6-diaminium bromide	Electrical conductivity, S/m	uncertainty
0	0	0	0
0	.000039	1.06	.0106
0	.000077	2.08	.0208
0	.000113	3.05	.0305
0	.000148	3.96	.0396
0	.000182	4.71	.0471
0	.000214	5.21	.0521
0	.000246	5.59	.0559
0	.000276	5.9	.059
0	.000305	6.2	.062
0	.000333	6.49	.0649
0	.000361	6.78	.0678
0	.000387	7.05	.0705
0	.000413	7.32	.0732
0	.000438	7.57	.0757
0	.000462	7.82	.0782
0	.000485	8.06	.0806
0	.000507	8.28	.0828
0	.000529	8.51	.0851
0	.000551	8.74	.0874
0	.000618	9.43	.0943
0	.000678	10.05	.1005
0	.000734	10.6	.106
.05	0	0	0
.05	.000036	1.14	.0114
.05	.000073	2.31	.0231
.05	.000109	3.45	.0345
.05	.000145	4.6	.046
.05	.00018	5.69	.0569
.05	.000216	6.58	.0658
.05	.000251	7.29	.0729
.05	.000286	7.79	.0779
.05	.00032	8.32	.0832
.05	.000355	8.74	.0874
.05	.000389	9.21	.0921
.05	.000423	9.71	.0971
.05	.000457	10.18	.1018
.05	.00049	10.64	.1064
.05	.000524	11.1	.111
.1	0	0	0
.1	.000063	1.34	.0134
.1	.000126	2.76	.0276
.1	.000188	4.03	.0403
.1	.00025	5.42	.0542
.1	.000311	6.81	.0681
.1	.000373	8.15	.0815
.1	.000433	9.43	.0943
.1	.000494	10.28	.1028
.1	.000553	10.81	.1081
.1	.000613	11.32	.1132
.1	.000672	11.75	.1175
.1	.000731	12.16	.1216
.1	.000789	12.66	.1266
.1	.000847	13.12	.1312
.1	.000905	13.56	.1356
.1	.000962	13.95	.1395
.1	.001019	14.42	.1442
.1	.001076	14.9	.149
.1	.001132	15.36	.1536
.15	0	0	0
.15	.0001	1.86	.0186
.15	.000199	3.66	.0366
.15	.000297	5.5	.055
.15	.000395	7.33	.0733
.15	.000492	8.95	.0895
.15	.000588	10.67	.1067
.15	.000684	12.38	.1238
.15	.000779	13.77	.1377
.15	.000874	14.56	.1456
.15	.000968	15.23	.1523
.15	.001061	15.97	.1597
.15	.001154	16.62	.1662
.15	.001246	17.32	.1732
.15	.001338	17.93	.1793
.15	.001429	18.68	.1868
.15	.001519	19.25	.1925
.15	.001609	20.03	.2003
.15	.001698	20.67	.2067
.15	.001787	21.25	.2125
.15	.001875	22.06	.2206
.15	.001963	22.62	.2262
.2	0	0	0
.2	.000121	2.09	.0209
.2	.000242	3.96	.0396
.2	.000362	5.67	.0567
.2	.000481	7.45	.0745
.2	.000599	9.35	.0935
.2	.000717	11.18	.1118
.2	.000833	13.07	.1307
.2	.000949	14.92	.1492
.2	.001064	16.78	.1678
.2	.001179	18.01	.1801
.2	.001292	18.65	.1865
.2	.001405	19.32	.1932
.2	.001517	19.95	.1995
.2	.001629	20.62	.2062
.2	.00174	21.22	.2122
.2	.00185	21.88	.2188
.2	.00196	22.4	.224
.2	.002068	23.01	.2301
.2	.002177	23.68	.2368
.2	.002284	24.27	.2427
.2	.002391	24.89	.2489
.2	.002497	25.5	.255
.25	0	0	0
.25	.000159	2.49	.0249
.25	.000318	5.07	.0507
.25	.000475	7.43	.0743
.25	.000632	10.09	.1009
.25	.000787	12.34	.1234
.25	.00094	14.78	.1478
.25	.001094	17.28	.1728
.25	.001247	19.53	.1953
.25	.001397	21.8	.218
.25	.001548	22.63	.2263
.25	.001698	23.45	.2345
.25	.001846	24.48	.2448
.25	.001994	25.34	.2534
.25	.002139	26.14	.2614
.25	.002286	27	.27
.25	.002429	27.78	.2778
.25	.002574	28.74	.2874
.25	.002716	29.54	.2954
.25	.00286	30.36	.3036
.25	.003	31.13	.3113
.25	.00314	31.97	.3197
.25	.00328	32.77	.3277
.3	0	0	0
.3	.000157	2.52	.0252
.3	.000314	4.98	.0498
.3	.00047	7.25	.0725
.3	.000625	9.41	.0941
.3	.000779	11.35	.1135
.3	.000933	13.8	.138
.3	.001085	15.84	.1584
.3	.001237	18.19	.1819
.3	.001388	20.23	.2023
.3	.001538	22.06	.2206
.3	.001688	24.1	.241
.3	.001837	24.71	.2471
.3	.001985	26.65	.2665
.3	.002132	27.98	.2798
.3	.002278	29.3	.293
.3	.002424	30.53	.3053
.3	.002569	31.24	.3124
.3	.002714	31.96	.3196
.3	.002857	33.08	.3308
.3	.003	34	.34
.3	.003142	34.91	.3491
.4	0	0	0
.4	.000332	3.89	.0389
.4	.000662	7.83	.0783
.4	.00099	11.21	.1121
.4	.001316	14.63	.1463
.4	.001639	18.4	.184
.4	.001961	21.46	.2146
.4	.00228	24.37	.2437
.4	.002597	27.68	.2768
.4	.002912	30.53	.3053
.4	.003228	32.71	.3271
.4	.003535	33.97	.3397
.4	.003846	35.53	.3553
.4	.004153	36.53	.3653
.4	.00446	37.71	.3771
.4	.004762	38.94	.3894
.4	.005064	39.97	.3997
.4	.005362	41.23	.4123
.4	.00566	42.34	.4234
.4	.005958	43.14	.4314
.4	.006252	44.63	.4463
.4	.006541	45.51	.4551
.4	.006834	46.62	.4662
.5	0	0	0
.5	.000222	1.76	.0176
.5	.00044	4.38	.0438
.5	.000658	6.51	.0651
.5	.000876	8.23	.0823
.5	.001094	10.19	.1019
.5	.001307	12.36	.1236
.5	.001521	14.12	.1412
.5	.00173	16.42	.1642
.5	.001943	18.3	.183
.5	.002152	20.43	.2043
.5	.002357	22.27	.2227
.5	.002566	23.95	.2395
.5	.00277	26.16	.2616
.5	.00297	27.88	.2788
.5	.003175	29.89	.2989
.5	.003375	31.52	.3152
.5	.003575	33.2	.332
.5	.003775	34.31	.3431
.5	.003971	35.25	.3525
.5	.004166	36.03	.3603
.5	.004362	37.01	.3701
.5	.004749	39.1	.391
.5	.005127	40.57	.4057
.5	.005505	42.29	.4229
.5	.005878	44.42	.4442
.5	.006243	45.81	.4581
.5	.006607	47.45	.4745
.5	.006963	49.25	.4925
.5	.007319	51.05	.5105
.5	.00767	52.57	.5257

System: N,N-dimethylformamide + water + N,N,N',N'-tetramethyl-N,N'-ditetradecylhexane-1,6-diaminium bromide; phases: Liquid
Fixed: Pressure, kPa = 101.3
Property: Electrical conductivity, S/m (Liquid); method: Cunducting Bridge with Dip Cell
Solvent: Volume fraction of N,N-dimethylformamide	Temperature, K	Amount concentration (molarity), mol/dm3 of N,N,N',N'-tetramethyl-N,N'-ditetradecylhexane-1,6-diaminium bromide	Electrical conductivity, S/m	uncertainty
.1	298.15	0	0	0
.1	298.15	.000089	1.72	.0172
.1	298.15	.000177	3.41	.0341
.1	298.15	.000265	5.01	.0501
.1	298.15	.000352	6.59	.0659
.1	298.15	.00044	7.77	.0777
.1	298.15	.000526	8.71	.0871
.1	298.15	.000613	9.38	.0938
.1	298.15	.000699	10.38	.1038
.1	298.15	.000784	10.84	.1084
.1	298.15	.00087	11.6	.116
.1	298.15	.000954	12.26	.1226
.1	298.15	.001039	12.62	.1262
.1	298.15	.001123	13.18	.1318
.1	298.15	.001207	13.74	.1374
.1	298.15	.00129	14.41	.1441
.1	303.15	0	0	0
.1	303.15	.000063	1.34	.0134
.1	303.15	.000126	2.76	.0276
.1	303.15	.000188	4.03	.0403
.1	303.15	.00025	5.42	.0542
.1	303.15	.000311	6.81	.0681
.1	303.15	.000373	8.15	.0815
.1	303.15	.000433	9.43	.0943
.1	303.15	.000494	10.28	.1028
.1	303.15	.000553	10.81	.1081
.1	303.15	.000613	11.32	.1132
.1	303.15	.000672	11.75	.1175
.1	303.15	.000731	12.16	.1216
.1	303.15	.000789	12.66	.1266
.1	303.15	.000847	13.12	.1312
.1	303.15	.000905	13.56	.1356
.1	303.15	.000962	13.95	.1395
.1	303.15	.001019	14.42	.1442
.1	303.15	.001076	14.9	.149
.1	303.15	.001132	15.36	.1536
.1	313.15	0	0	0
.1	313.15	.000114	3.09	.0309
.1	313.15	.000227	6.25	.0625
.1	313.15	.00034	9.17	.0917
.1	313.15	.000452	11.9	.119
.1	313.15	.000563	14.2	.142
.1	313.15	.000674	15.36	.1536
.1	313.15	.000784	16.44	.1644
.1	313.15	.000894	17.46	.1746
.1	313.15	.001003	18.59	.1859
.1	313.15	.001111	19.7	.197
.1	313.15	.001219	20.62	.2062
.1	313.15	.001326	21.75	.2175
.1	313.15	.001433	22.88	.2288
.1	313.15	.001538	23.79	.2379
.1	313.15	.001644	24.89	.2489
.1	323.15	0	0	0
.1	323.15	.000133	4.73	.0473
.1	323.15	.000265	8.72	.0872
.1	323.15	.000396	12.7	.127
.1	323.15	.000526	16.98	.1698
.1	323.15	.000656	19.71	.1971
.1	323.15	.000784	22.33	.2233
.1	323.15	.000912	24.77	.2477
.1	323.15	.001039	26.71	.2671
.1	323.15	.001165	28.71	.2871
.1	323.15	.00129	30.5	.305
.1	323.15	.001415	32.34	.3234
.1	323.15	.001537	33.76	.3376
.1	323.15	.001661	35.71	.3571
.1	323.15	.001783	37.24	.3724
.1	323.15	.001905	38.51	.3851
.1	323.15	0	0	0
.1	323.15	.000133	4.73	.0473
.1	323.15	.000265	8.72	.0872
.2	298.15	0	0	0
.2	298.15	.000089	1.71	.0171
.2	298.15	.000177	3.33	.0333
.2	298.15	.000265	4.82	.0482
.2	298.15	.000352	6.31	.0631
.2	298.15	.00044	7.93	.0793
.2	298.15	.000526	9.42	.0942
.2	298.15	.000613	10.85	.1085
.2	298.15	.000699	12.32	.1232
.2	298.15	.000784	13.36	.1336
.2	298.15	.00087	14	.14
.2	298.15	.000954	14.47	.1447
.2	298.15	.001039	14.98	.1498
.2	298.15	.001123	15.52	.1552
.2	298.15	.001207	16.03	.1603
.2	298.15	.00129	16.51	.1651
.2	303.15	0	0	0
.2	303.15	.000121	2.09	.0209
.2	303.15	.000242	3.96	.0396
.2	303.15	.000362	5.67	.0567
.2	303.15	.000481	7.45	.0745
.2	303.15	.000599	9.35	.0935
.2	303.15	.000717	11.18	.1118
.2	303.15	.000833	13.07	.1307
.2	303.15	.000949	14.92	.1492
.2	303.15	.001064	16.78	.1678
.2	303.15	.001179	18.01	.1801
.2	303.15	.001292	18.65	.1865
.2	303.15	.001405	19.32	.1932
.2	303.15	.001517	19.95	.1995
.2	303.15	.001629	20.62	.2062
.2	303.15	.00174	21.22	.2122
.2	303.15	.00185	21.88	.2188
.2	303.15	.00196	22.4	.224
.2	303.15	.002068	23.01	.2301
.2	303.15	.002177	23.68	.2368
.2	303.15	.002284	24.27	.2427
.2	303.15	.002391	24.89	.2489
.2	303.15	.002497	25.5	.255
.2	313.15	0	0	0
.2	313.15	.000142	2.52	.0252
.2	313.15	.000284	5.12	.0512
.2	313.15	.000425	7.63	.0763
.2	313.15	.000565	9.99	.0999
.2	313.15	.000704	12.5	.125
.2	313.15	.000843	14.9	.149
.2	313.15	.000981	17.31	.1731
.2	313.15	.001117	19.68	.1968
.2	313.15	.001254	21.99	.2199
.2	313.15	.001389	24.19	.2419
.2	313.15	.001524	25.09	.2509
.2	313.15	.001658	25.91	.2591
.2	313.15	.001791	26.9	.269
.2	313.15	.001923	27.8	.278
.2	313.15	.002054	28.56	.2856
.2	323.15	0	0	0
.2	323.15	.000133	4.24	.0424
.2	323.15	.000265	7.94	.0794
.2	323.15	.000396	11.41	.1141
.2	323.15	.000526	15.08	.1508
.2	323.15	.000656	18.42	.1842
.2	323.15	.000784	22.09	.2209
.2	323.15	.000912	25.43	.2543
.2	323.15	.001039	28.96	.2896
.2	323.15	.001165	32.5	.325
.2	323.15	.001289	35.94	.3594
.2	323.15	.001415	39.28	.3928
.2	323.15	.001537	42.62	.4262
.2	323.15	.001662	44.55	.4455
.2	323.15	.001783	45.9	.459
.2	323.15	.001906	47.24	.4724
.2	323.15	.002024	48.58	.4858
.2	323.15	.002144	49.83	.4983
.2	323.15	.002264	51.14	.5114
.3	298.15	0	0	0
.3	298.15	.000133	1.74	.0174
.3	298.15	.000265	3.41	.0341
.3	298.15	.000397	5.05	.0505
.3	298.15	.000529	6.7	.067
.3	298.15	.000658	8.31	.0831
.3	298.15	.000789	9.91	.0991
.3	298.15	.000919	11.37	.1137
.3	298.15	.001048	12.84	.1284
.3	298.15	.001176	14.58	.1458
.3	298.15	.001304	16.15	.1615
.3	298.15	.001432	17.18	.1718
.3	298.15	.001557	17.82	.1782
.3	298.15	.001686	18.36	.1836
.3	298.15	.00181	18.89	.1889
.3	298.15	.001935	19.33	.1933
.3	298.15	.00206	19.85	.1985
.3	298.15	.002184	20.47	.2047
.3	298.15	.002308	21	.21
.3	298.15	.002431	21.62	.2162
.3	303.15	0	0	0
.3	303.15	.000157	2.52	.0252
.3	303.15	.000314	4.98	.0498
.3	303.15	.00047	7.25	.0725
.3	303.15	.000625	9.41	.0941
.3	303.15	.000779	11.35	.1135
.3	303.15	.000933	13.8	.138
.3	303.15	.001085	15.84	.1584
.3	303.15	.001237	18.19	.1819
.3	303.15	.001388	20.23	.2023
.3	303.15	.001538	22.06	.2206
.3	303.15	.001688	24.1	.241
.3	303.15	.001837	24.71	.2471
.3	303.15	.001985	26.65	.2665
.3	303.15	.002132	27.98	.2798
.3	303.15	.002278	29.3	.293
.3	303.15	.002424	30.53	.3053
.3	303.15	.002569	31.24	.3124
.3	303.15	.002714	31.96	.3196
.3	303.15	.002857	33.08	.3308
.3	303.15	.003	34	.34
.3	303.15	.003142	34.91	.3491
.3	313.15	0	0	0
.3	313.15	.000181	3.55	.0355
.3	313.15	.000361	6.83	.0683
.3	313.15	.000541	9.65	.0965
.3	313.15	.000719	13.02	.1302
.3	313.15	.000896	15.87	.1587
.3	313.15	.001071	18.93	.1893
.3	313.15	.001246	21.63	.2163
.3	313.15	.00142	24.54	.2454
.3	313.15	.001593	27.43	.2743
.3	313.15	.001765	30.37	.3037
.3	313.15	.001936	33.18	.3318
.3	313.15	.002104	35.73	.3573
.3	313.15	.002273	37.33	.3733
.3	313.15	.002442	39.46	.3946
.3	313.15	.002608	40.56	.4056
.3	313.15	.002938	42.83	.4283
.3	313.15	.003266	45.38	.4538
.3	313.15	.003589	47.58	.4758
.3	313.15	.003909	50.17	.5017
.3	313.15	.004225	52.3	.523
.3	323.15	0	0	0
.3	323.15	.000214	5.08	.0508
.3	323.15	.000426	9.73	.0973
.3	323.15	.000636	14.22	.1422
.3	323.15	.000844	18.22	.1822
.3	323.15	.001052	22.9	.229
.3	323.15	.00126	27.59	.2759
.3	323.15	.001462	31.61	.3161
.3	323.15	.001668	35.33	.3533
.3	323.15	.002069	44.61	.4461
.3	323.15	.002466	51.65	.5165
.3	323.15	.002858	57.67	.5767
.3	323.15	.003243	61.75	.6175
.3	323.15	.003624	65.47	.6547
.3	323.15	.004	68.54	.6854
.3	323.15	.00437	72.5	.725
.3	323.15	.004737	76.34	.7634
.3	323.15	.005098	79.35	.7935
.3	323.15	.005454	82.77	.8277
.5	298.15	0	0	0
.5	298.15	.000237	2.13	.0213
.5	298.15	.000473	4.06	.0406
.5	298.15	.000709	6.05	.0605
.5	298.15	.000944	8.09	.0809
.5	298.15	.001176	10.08	.1008
.5	298.15	.001409	12.14	.1214
.5	298.15	.001639	14	.14
.5	298.15	.00187	16.06	.1606
.5	298.15	.002098	17.92	.1792
.5	298.15	.002325	19.89	.1989
.5	298.15	.002552	21.11	.2111
.5	298.15	.002779	22.21	.2221
.5	298.15	.003002	23.03	.2303
.5	298.15	.003227	23.95	.2395
.5	298.15	.003448	24.94	.2494
.5	303.15	0	0	0
.5	303.15	.000222	1.76	.0176
.5	303.15	.00044	4.38	.0438
.5	303.15	.000658	6.51	.0651
.5	303.15	.000876	8.23	.0823
.5	303.15	.001094	10.19	.1019
.5	303.15	.001307	12.36	.1236
.5	303.15	.001521	14.12	.1412
.5	303.15	.00173	16.42	.1642
.5	303.15	.001943	18.3	.183
.5	303.15	.002152	20.43	.2043
.5	303.15	.002357	22.27	.2227
.5	303.15	.002566	23.95	.2395
.5	303.15	.00277	26.16	.2616
.5	303.15	.00297	27.88	.2788
.5	303.15	.003175	29.89	.2989
.5	303.15	.003375	31.52	.3152
.5	303.15	.003575	33.2	.332
.5	303.15	.003775	34.31	.3431
.5	303.15	.003971	35.25	.3525
.5	303.15	.004166	36.03	.3603
.5	303.15	.004362	37.01	.3701
.5	303.15	.004749	39.1	.391
.5	303.15	.005127	40.57	.4057
.5	303.15	.005505	42.29	.4229
.5	303.15	.005878	44.42	.4442
.5	303.15	.006243	45.81	.4581
.5	303.15	.006607	47.45	.4745
.5	303.15	.006963	49.25	.4925
.5	303.15	.007319	51.05	.5105
.5	303.15	.00767	52.57	.5257
.5	313.15	0	0	0
.5	313.15	.000569	6.99	.0699
.5	313.15	.001129	13.54	.1354
.5	313.15	.001679	20.02	.2002
.5	313.15	.002223	25.79	.2579
.5	313.15	.002756	32.27	.3227
.5	313.15	.00329	38.28	.3828
.5	313.15	.003807	43.74	.4374
.5	313.15	.004325	48.12	.4812
.5	313.15	.004832	51.36	.5136
.5	313.15	.005333	54.67	.5467
.5	313.15	.005828	57.67	.5767
.5	313.15	.006315	60.91	.6091
.5	313.15	.006795	63.85	.6385
.5	323.15	0	0	0
.5	323.15	.000286	2.81	.0281
.5	323.15	.000569	5.23	.0523
.5	323.15	.00085	7.85	.0785
.5	323.15	.00113	9.9	.099
.5	323.15	.001408	12.22	.1222
.5	323.15	.001685	14.76	.1476
.5	323.15	.00196	17.16	.1716
.5	323.15	.002234	19.37	.1937
.5	323.15	.002506	21.91	.2191
.5	323.15	.002777	23.93	.2393
.5	323.15	.003046	26.58	.2658
.5	323.15	.003315	28.68	.2868
.5	323.15	.003581	31.11	.3111
.5	323.15	.003847	33.29	.3329
.5	323.15	.00411	35.78	.3578
.5	323.15	.004373	37.41	.3741
.5	323.15	.004633	38.64	.3864
.5	323.15	.00489	39.84	.3984
.5	323.15	.00515	41.07	.4107
.5	323.15	.005405	42.22	.4222

System: ethylene glycol + water + N,N,N',N'-tetramethyl-N,N'-ditetradecylhexane-1,6-diaminium bromide; phases: Liquid
Fixed: Temperature, K = 303.15
Fixed: Pressure, kPa = 101.3
Property: Electrical conductivity, S/m (Liquid); method: Conductivity Bridge With Dip Cell
Solvent: Volume fraction of ethylene glycol	Amount concentration (molarity), mol/dm3 of N,N,N',N'-tetramethyl-N,N'-ditetradecylhexane-1,6-diaminium bromide	Electrical conductivity, S/m	uncertainty
0	0	0	0
0	.000039	1.06	.0106
0	.000077	2.08	.0208
0	.000113	3.05	.0305
0	.000148	3.96	.0396
0	.000182	4.71	.0471
0	.000214	5.21	.0521
0	.000246	5.59	.0559
0	.000276	5.9	.059
0	.000305	6.2	.062
0	.000333	6.49	.0649
0	.000361	6.78	.0678
0	.000387	7.05	.0705
0	.000413	7.32	.0732
0	.000438	7.57	.0757
0	.000462	7.82	.0782
0	.000485	8.06	.0806
0	.000507	8.28	.0828
0	.000529	8.51	.0851
0	.000551	8.74	.0874
0	.000618	9.43	.0943
0	.000678	10.05	.1005
0	.000734	10.6	.106
.05	0	0	0
.05	.000022	.64	.0064
.05	.000044	1.3	.013
.05	.000066	1.96	.0196
.05	.000087	2.58	.0258
.05	.000109	3.3	.033
.05	.00013	3.92	.0392
.05	.000152	4.53	.0453
.05	.000173	5.11	.0511
.05	.000194	5.74	.0574
.05	.000216	6.38	.0638
.05	.000237	6.72	.0672
.05	.000258	7.06	.0706
.05	.0003	7.6	.076
.05	.000341	7.96	.0796
.05	.000382	8.47	.0847
.05	.000423	8.88	.0888
.05	.000464	9.24	.0924
.05	.000504	9.81	.0981
.05	.000544	10.21	.1021
.1	0	0	0
.1	.000038	.95	.0095
.1	.000076	1.9	.019
.1	.000113	2.84	.0284
.1	.000151	3.5	.035
.1	.000188	4.19	.0419
.1	.000225	5.37	.0537
.1	.000262	6.05	.0605
.1	.000299	6.59	.0659
.1	.000336	6.84	.0684
.1	.000373	7.33	.0733
.1	.000409	7.7	.077
.1	.000445	7.96	.0796
.1	.000518	8.72	.0872
.1	.000589	9.37	.0937
.1	.00066	9.82	.0982
.1	.000731	10.28	.1028
.1	.000801	10.99	.1099
.1	.00087	11.55	.1155
.1	.000939	12.01	.1201
.1	.001008	12.57	.1257
.15	0	0	0
.15	.000076	1.14	.0114
.15	.000151	2.27	.0227
.15	.000227	3.75	.0375
.15	.000301	4.74	.0474
.15	.000376	5.58	.0558
.15	.000451	6.13	.0613
.15	.000526	6.51	.0651
.15	.000598	6.88	.0688
.15	.000672	7.3	.073
.15	.000818	8.29	.0829
.15	.000963	9.04	.0904
.15	.001107	9.7	.097
.15	.00125	10.27	.1027
.15	.001391	11.3	.113
.15	.001531	11.88	.1188
.15	.001671	12.77	.1277
.15	.00181	13.45	.1345
.15	.001948	13.96	.1396
.15	.002084	14.68	.1468
.15	.002218	15.5	.155
.15	.002353	16.25	.1625
.15	.002486	16.84	.1684
.15	.002619	17.85	.1785
.15	.002751	18.51	.1851
.2	0	0	0
.2	.000098	1.39	.0139
.2	.000195	3.88	.0388
.2	.000292	5.48	.0548
.2	.000389	6.84	.0684
.2	.000485	7.89	.0789
.2	.000581	8.77	.0877
.2	.000677	9.56	.0956
.2	.000772	9.92	.0992
.2	.000866	10.58	.1058
.2	.000961	11.25	.1125
.2	.001055	11.86	.1186
.2	.001148	12.27	.1227
.2	.001335	13.44	.1344
.2	.001519	14.71	.1471
.2	.001703	15.84	.1584
.2	.001885	16.81	.1681
.2	.002065	17.88	.1788
.2	.002244	18.95	.1895
.2	.002422	20.27	.2027
.25	0	0	0
.25	.000097	1.06	.0106
.25	.000191	2.71	.0271
.25	.000286	3.58	.0358
.25	.000382	5.07	.0507
.25	.000474	6.08	.0608
.25	.000569	7.19	.0719
.25	.000663	7.8	.078
.25	.000756	8.16	.0816
.25	.000849	8.58	.0858
.25	.000942	9.21	.0921
.25	.001033	9.6	.096
.25	.001125	9.95	.0995
.25	.001307	10.55	.1055
.25	.001488	11.68	.1168
.25	.001668	12.24	.1224
.25	.001846	13.13	.1313
.25	.002022	13.9	.139
.25	.002199	14.82	.1482
.25	.002373	15.5	.155
.25	.002545	16.61	.1661
.3	0	0	0
.3	.000117	1.3	.013
.3	.000232	2.71	.0271
.3	.000347	4.22	.0422
.3	.00046	5.58	.0558
.3	.000574	6.96	.0696
.3	.000689	7.8	.078
.3	.0008	8.38	.0838
.3	.000914	8.7	.087
.3	.001025	9.17	.0917
.3	.001137	9.59	.0959
.3	.001249	10.05	.1005
.3	.001359	10.39	.1039
.3	.001581	11.25	.1125
.3	.001797	12.15	.1215
.3	.002014	12.96	.1296
.3	.002231	13.74	.1374
.3	.002444	14.65	.1465
.3	.002656	15.36	.1536
.3	.002866	16.27	.1627
.3	.003076	16.9	.169
.3	.003283	17.89	.1789
.4	0	0	0
.4	.00014	.95	.0095
.4	.000278	2.11	.0211
.4	.000418	3.55	.0355
.4	.000556	4.54	.0454
.4	.000694	6.03	.0603
.4	.000829	7	.07
.4	.000967	8.57	.0857
.4	.001103	9.58	.0958
.4	.001238	10.22	.1022
.4	.001373	10.8	.108
.4	.001507	11.31	.1131
.4	.001641	11.82	.1182
.4	.001907	12.38	.1238
.4	.002171	13.25	.1325
.4	.002432	14.37	.1437
.4	.002692	14.83	.1483
.4	.00295	15.8	.158
.4	.003206	16.16	.1616
.4	.00346	16.82	.1682
.4	.003712	17.74	.1774
.4	.003962	18.25	.1825
.4	.004211	19.06	.1906
.5	0	0	0
.5	.00014	.99	.0099
.5	.000278	1.88	.0188
.5	.000418	3.09	.0309
.5	.000556	4.18	.0418
.5	.000694	5.27	.0527
.5	.000829	6.38	.0638
.5	.000967	7.31	.0731
.5	.001103	8.53	.0853
.5	.001238	9.37	.0937
.5	.001374	10.63	.1063
.5	.001507	11.47	.1147
.5	.001641	12.11	.1211
.5	.001908	13.28	.1328
.5	.002172	14.07	.1407
.5	.002432	14.74	.1474
.5	.002692	15.47	.1547
.5	.00295	15.99	.1599
.5	.003206	16.78	.1678
.5	.003459	17.33	.1733
.5	.003713	18.16	.1816
.5	.003962	18.69	.1869
.5	.004211	19.2	.192
.5	.004458	19.99	.1999
.6	0	0	0
.6	.00014	.98	.0098
.6	.000279	2.01	.0201
.6	.000417	2.77	.0277
.6	.000556	3.79	.0379
.6	.000693	4.66	.0466
.6	.00083	5.55	.0555
.6	.000966	6.45	.0645
.6	.001102	7.24	.0724
.6	.001238	8.09	.0809
.6	.001373	8.81	.0881
.6	.001506	9.76	.0976
.6	.001641	10.62	.1062
.6	.001908	11.95	.1195
.6	.002172	13.02	.1302
.6	.002431	13.84	.1384
.6	.002693	14.66	.1466
.6	.002949	15.44	.1544
.6	.003206	16.15	.1615
.6	.00346	16.85	.1685
.6	.003712	17.46	.1746
.6	.003962	18.19	.1819
.6	.004211	18.7	.187
.6	.004458	19.43	.1943
.6	.0047	20.08	.2008
.7	0	0	0
.7	.000279	1.38	.0138
.7	.000557	2.59	.0259
.7	.00083	3.89	.0389
.7	.0011	5.08	.0508
.7	.001374	6.21	.0621
.7	.001641	7.36	.0736
.7	.001907	8.63	.0863
.7	.002171	9.59	.0959
.7	.002431	10.67	.1067
.7	.002691	11.71	.1171
.7	.002951	12.65	.1265
.7	.003205	13.35	.1335
.7	.003462	14.14	.1414
.7	.003712	14.7	.147
.7	.003962	15.58	.1558
.7	.004212	16.28	.1628
.7	.004457	16.9	.169
.7	.004702	17.58	.1758
.7	.004946	18.12	.1812
.7	.005186	18.76	.1876
.7	.005422	19.51	.1951
.7	.005663	20.09	.2009
.7	.005896	20.77	.2077
.7	.006129	21.42	.2142
.7	.006363	22	.22
.7	.006593	22.6	.226
.7	.006823	23.32	.2332
.8	0	0	0
.8	.000556	1.76	.0176
.8	.001103	3.55	.0355
.8	.001641	5.2	.052
.8	.00217	6.99	.0699
.8	.00269	8.69	.0869
.8	.003206	10.3	.103
.8	.003712	11.78	.1178
.8	.004211	12.95	.1295
.8	.004701	13.87	.1387
.8	.005185	15.35	.1535
.8	.005662	16.22	.1622
.8	.006131	17.29	.1729
.8	.006594	18.31	.1831
.8	.00705	19.23	.1923
.8	.0075	20.25	.2025
.8	.007943	21.22	.2122
.8	.00838	22.24	.2224

System: ethylene glycol + water + N,N,N',N'-tetramethyl-N,N'-ditetradecylhexane-1,6-diaminium bromide; phases: Liquid
Fixed: Pressure, kPa = 101.3
Property: Electrical conductivity, S/m (Liquid); method: Cunducting Bridge with Dip Cell
Solvent: Volume fraction of ethylene glycol	Temperature, K	Amount concentration (molarity), mol/dm3 of N,N,N',N'-tetramethyl-N,N'-ditetradecylhexane-1,6-diaminium bromide	Electrical conductivity, S/m	uncertainty
.1	298.15	0	0	0
.1	298.15	.000089	1.86	.0186
.1	298.15	.000177	3.43	.0343
.1	298.15	.000265	4.38	.0438
.1	298.15	.000352	5.11	.0511
.1	298.15	.00044	5.76	.0576
.1	298.15	.000526	6.29	.0629
.1	298.15	.000613	6.9	.069
.1	298.15	.000699	7.26	.0726
.1	298.15	.000784	7.87	.0787
.1	298.15	.00087	8.49	.0849
.1	298.15	.000954	9	.09
.1	298.15	.001039	9.51	.0951
.1	298.15	.001123	10.02	.1002
.1	298.15	.001207	10.63	.1063
.1	298.15	.00129	11.34	.1134
.1	303.15	0	0	0
.1	303.15	.000038	.95	.0095
.1	303.15	.000076	1.9	.019
.1	303.15	.000113	2.84	.0284
.1	303.15	.000151	3.5	.035
.1	303.15	.000188	4.19	.0419
.1	303.15	.000225	5.37	.0537
.1	303.15	.000262	6.05	.0605
.1	303.15	.000299	6.59	.0659
.1	303.15	.000336	6.84	.0684
.1	303.15	.000373	7.33	.0733
.1	303.15	.000409	7.7	.077
.1	303.15	.000445	7.96	.0796
.1	303.15	.000518	8.72	.0872
.1	303.15	.000589	9.37	.0937
.1	303.15	.00066	9.82	.0982
.1	303.15	.000731	10.28	.1028
.1	303.15	.000801	10.99	.1099
.1	303.15	.00087	11.55	.1155
.1	303.15	.000939	12.01	.1201
.1	303.15	.001008	12.57	.1257
.1	313.15	0	0	0
.1	313.15	.0001	2.52	.0252
.1	313.15	.000199	4.73	.0473
.1	313.15	.000298	7.03	.0703
.1	313.15	.000396	8.17	.0817
.1	313.15	.000494	9.04	.0904
.1	313.15	.000591	9.87	.0987
.1	313.15	.000688	10.67	.1067
.1	313.15	.000784	11.38	.1138
.1	313.15	.00088	12.19	.1219
.1	313.15	.000976	13.01	.1301
.1	313.15	.001071	13.83	.1383
.1	313.15	.001165	14.57	.1457
.1	313.15	.001259	15.37	.1537
.1	313.15	.001353	16.08	.1608
.1	313.15	.001446	16.76	.1676
.1	323.15	0	0	0
.1	323.15	.0001	3.6	.036
.1	323.15	.000199	6.62	.0662
.1	323.15	.000298	9.67	.0967
.1	323.15	.000396	12.24	.1224
.1	323.15	.000494	13.45	.1345
.1	323.15	.000591	14.53	.1453
.1	323.15	.000688	15.42	.1542
.1	323.15	.000784	16.85	.1685
.1	323.15	.00088	17.67	.1767
.1	323.15	.000976	18.89	.1889
.1	323.15	.001071	20.01	.2001
.1	323.15	.001165	21.04	.2104
.1	323.15	.001259	22.27	.2227
.1	323.15	.001353	23.38	.2338
.1	323.15	.001446	24.31	.2431
.2	298.15	0	0	0
.2	298.15	.00012	2.06	.0206
.2	298.15	.000239	3.87	.0387
.2	298.15	.000358	4.81	.0481
.2	298.15	.000476	5.57	.0557
.2	298.15	.000594	6.33	.0633
.2	298.15	.000711	6.84	.0684
.2	298.15	.000828	7.25	.0725
.2	298.15	.000945	7.86	.0786
.2	298.15	.001061	8.58	.0858
.2	298.15	.001176	9.39	.0939
.2	298.15	.001292	9.9	.099
.2	298.15	.001406	10.31	.1031
.2	298.15	.00152	11.23	.1123
.2	298.15	.001634	11.54	.1154
.2	298.15	.001748	12.15	.1215
.2	303.15	0	0	0
.2	303.15	.000098	1.39	.0139
.2	303.15	.000195	3.88	.0388
.2	303.15	.000292	5.48	.0548
.2	303.15	.000389	6.84	.0684
.2	303.15	.000485	7.89	.0789
.2	303.15	.000581	8.77	.0877
.2	303.15	.000677	9.56	.0956
.2	303.15	.000772	9.92	.0992
.2	303.15	.000866	10.58	.1058
.2	303.15	.000961	11.25	.1125
.2	303.15	.001055	11.86	.1186
.2	303.15	.001148	12.27	.1227
.2	303.15	.001335	13.44	.1344
.2	303.15	.001519	14.71	.1471
.2	303.15	.001703	15.84	.1584
.2	303.15	.001885	16.81	.1681
.2	303.15	.002065	17.88	.1788
.2	303.15	.002244	18.95	.1895
.2	303.15	.002422	20.27	.2027
.2	313.15	0	0	0
.2	313.15	.00015	3.02	.0302
.2	313.15	.000299	5.62	.0562
.2	313.15	.000447	8.19	.0819
.2	313.15	.000594	9.97	.0997
.2	313.15	.000741	11.19	.1119
.2	313.15	.000887	12.31	.1231
.2	313.15	.001032	13.33	.1333
.2	313.15	.001176	14.25	.1425
.2	313.15	.00132	15.17	.1517
.2	313.15	.001463	15.98	.1598
.2	313.15	.001606	17	.17
.2	313.15	.001748	17.72	.1772
.2	313.15	.001889	19.55	.1955
.2	313.15	.002029	20.47	.2047
.2	313.15	.002169	21.08	.2108
.2	323.15	0	0	0
.2	323.15	.000172	4.17	.0417
.2	323.15	.000341	7.9	.079
.2	323.15	.00051	11.62	.1162
.2	323.15	.000678	14.55	.1455
.2	323.15	.000845	16.18	.1618
.2	323.15	.001011	17.71	.1771
.2	323.15	.001176	19.14	.1914
.2	323.15	.001341	21.07	.2107
.2	323.15	.001504	22.2	.222
.2	323.15	.001667	23.52	.2352
.2	323.15	.001828	25.15	.2515
.2	323.15	.001989	26.28	.2628
.2	323.15	.002149	28.01	.2801
.2	323.15	.002308	29.13	.2913
.2	323.15	.002466	30.15	.3015
.3	298.15	0	0	0
.3	298.15	.0002	2.49	.0249
.3	298.15	.000397	4.92	.0492
.3	298.15	.000596	6.65	.0665
.3	298.15	.000792	7.7	.077
.3	298.15	.000988	8.53	.0853
.3	298.15	.001182	9.34	.0934
.3	298.15	.001376	10.16	.1016
.3	298.15	.001569	10.77	.1077
.3	298.15	.00176	11.49	.1149
.3	298.15	.001951	12.3	.123
.3	298.15	.002141	13.02	.1302
.3	298.15	.00233	13.73	.1373
.3	298.15	.002518	14.75	.1475
.3	298.15	.002705	15.46	.1546
.3	298.15	.002892	16.08	.1608
.3	303.15	0	0	0
.3	303.15	.000117	1.3	.013
.3	303.15	.000232	2.71	.0271
.3	303.15	.000347	4.22	.0422
.3	303.15	.00046	5.58	.0558
.3	303.15	.000574	6.96	.0696
.3	303.15	.000689	7.8	.078
.3	303.15	.0008	8.38	.0838
.3	303.15	.000914	8.7	.087
.3	303.15	.001025	9.17	.0917
.3	303.15	.001137	9.59	.0959
.3	303.15	.001249	10.05	.1005
.3	303.15	.001359	10.39	.1039
.3	303.15	.001581	11.25	.1125
.3	303.15	.001797	12.15	.1215
.3	303.15	.002014	12.96	.1296
.3	303.15	.002231	13.74	.1374
.3	303.15	.002444	14.65	.1465
.3	303.15	.002656	15.36	.1536
.3	303.15	.002866	16.27	.1627
.3	303.15	.003076	16.9	.169
.3	303.15	.003283	17.89	.1789
.3	313.15	0	0	0
.3	313.15	.0002	3.08	.0308
.3	313.15	.000397	6.65	.0665
.3	313.15	.000597	9.55	.0955
.3	313.15	.000792	12.17	.1217
.3	313.15	.000988	13.39	.1339
.3	313.15	.001182	14.72	.1472
.3	313.15	.001376	15.94	.1594
.3	313.15	.001569	17.17	.1717
.3	313.15	.00176	18.59	.1859
.3	313.15	.001951	19.51	.1951
.3	313.15	.002141	20.94	.2094
.3	313.15	.00233	21.55	.2155
.3	313.15	.002518	22.88	.2288
.3	313.15	.002705	23.8	.238
.3	313.15	.002892	25.02	.2502
.3	323.15	0	0	0
.3	323.15	.000228	4.7	.047
.3	323.15	.000454	9.69	.0969
.3	323.15	.000679	14.18	.1418
.3	323.15	.000904	17.77	.1777
.3	323.15	.001127	19.56	.1956
.3	323.15	.001348	21.16	.2116
.3	323.15	.001569	23.08	.2308
.3	323.15	.001788	25	.25
.3	323.15	.002006	26.98	.2698
.3	323.15	.002221	28.8	.288
.3	323.15	.002439	30.03	.3003
.3	323.15	.002652	32.29	.3229
.3	323.15	.002866	33.96	.3396
.3	323.15	.003077	35.58	.3558
.3	323.15	.003289	37.2	.372
.5	298.15	0	0	0
.5	298.15	.000267	2.13	.0213
.5	298.15	.000531	4.28	.0428
.5	298.15	.000795	6.47	.0647
.5	298.15	.001057	7.69	.0769
.5	298.15	.001318	8.74	.0874
.5	298.15	.001578	9.55	.0955
.5	298.15	.001838	10.3	.103
.5	298.15	.002096	11.22	.1122
.5	298.15	.002353	12.04	.1204
.5	298.15	.002609	12.85	.1285
.5	298.15	.002863	13.62	.1362
.5	298.15	.003117	14.28	.1428
.5	298.15	.003369	14.89	.1489
.5	298.15	.003621	15.5	.155
.5	298.15	.003871	16.73	.1673
.5	303.15	0	0	0
.5	303.15	.00014	.99	.0099
.5	303.15	.000278	1.88	.0188
.5	303.15	.000418	3.09	.0309
.5	303.15	.000556	4.18	.0418
.5	303.15	.000694	5.27	.0527
.5	303.15	.000829	6.38	.0638
.5	303.15	.000967	7.31	.0731
.5	303.15	.001103	8.53	.0853
.5	303.15	.001238	9.37	.0937
.5	303.15	.001374	10.63	.1063
.5	303.15	.001507	11.47	.1147
.5	303.15	.001641	12.11	.1211
.5	303.15	.001908	13.28	.1328
.5	303.15	.002172	14.07	.1407
.5	303.15	.002432	14.74	.1474
.5	303.15	.002692	15.47	.1547
.5	303.15	.00295	15.99	.1599
.5	303.15	.003206	16.78	.1678
.5	303.15	.003459	17.33	.1733
.5	303.15	.003713	18.16	.1816
.5	303.15	.003962	18.69	.1869
.5	303.15	.004211	19.2	.192
.5	303.15	.004458	19.99	.1999
.5	313.15	0	0	0
.5	313.15	.000343	3.25	.0325
.5	313.15	.000682	6.38	.0638
.5	313.15	.001021	9.77	.0977
.5	313.15	.001357	13.22	.1322
.5	313.15	.00169	16.32	.1632
.5	313.15	.002021	18.73	.1873
.5	313.15	.002352	20.71	.2071
.5	313.15	.002683	22.18	.2218
.5	313.15	.003008	23.37	.2337
.5	313.15	.003334	24.36	.2436
.5	313.15	.003657	25.49	.2549
.5	313.15	.003979	26.54	.2654
.5	313.15	.004297	27.88	.2788
.5	313.15	.004614	28.89	.2889
.5	313.15	.004932	29.77	.2977
.5	323.15	0	0	0
.5	323.15	.0004	4.97	.0497
.5	323.15	.000795	9.86	.0986
.5	323.15	.001187	14.99	.1499
.5	323.15	.001579	19.77	.1977
.5	323.15	.001968	24.15	.2415
.5	323.15	.002354	28.41	.2841
.5	323.15	.002737	30.4	.304
.5	323.15	.003117	32.14	.3214
.5	323.15	.003496	33.91	.3391
.5	323.15	.00387	35.86	.3586
.5	323.15	.004243	37.33	.3733
.5	323.15	.004614	39.1	.391
.5	323.15	.004984	40.3	.403
.5	323.15	.005351	42.61	.4261
.5	323.15	.005713	43.82	.4382

System: water + N,N,N',N'-tetramethyl-N,N'-ditetradecylhexane-1,6-diaminium bromide; phases: Liquid
Property: Electrical conductivity, S/m (Liquid); method: Conductivity Bridge With Dip Cell
Amount concentration (molarity), mol/dm3 of N,N,N',N'-tetramethyl-N,N'-ditetradecylhexane-1,6-diaminium bromide	Pressure, kPa	Temperature, K	Electrical conductivity, S/m	uncertainty
.000039	101.3	303.15	1.06	.0106
.000077	101.3	303.15	2.08	.0208
.000113	101.3	303.15	3.05	.0305
.000148	101.3	303.15	3.96	.0396
.000182	101.3	303.15	4.71	.0471
.000214	101.3	303.15	5.21	.0521
.000246	101.3	303.15	5.59	.0559
.000276	101.3	303.15	5.9	.059
.000305	101.3	303.15	6.2	.062
.000333	101.3	303.15	6.49	.0649
.000361	101.3	303.15	6.78	.0678
.000387	101.3	303.15	7.05	.0705
.000413	101.3	303.15	7.32	.0732
.000438	101.3	303.15	7.57	.0757
.000462	101.3	303.15	7.82	.0782
.000485	101.3	303.15	8.06	.0806
.000507	101.3	303.15	8.28	.0828
.000529	101.3	303.15	8.51	.0851
.000551	101.3	303.15	8.74	.0874
.000618	101.3	303.15	9.43	.0943
.000678	101.3	303.15	10.05	.1005
.000734	101.3	303.15	10.6	.106
.000033	101.3	298.15	.94	.0094
.000066	101.3	298.15	1.89	.0189
.000099	101.3	298.15	2.85	.0285
.000132	101.3	298.15	3.81	.0381
.000164	101.3	298.15	4.55	.0455
.000196	101.3	298.15	4.94	.0494
.000228	101.3	298.15	5.3	.053
.00026	101.3	298.15	5.62	.0562
.000291	101.3	298.15	5.96	.0596
.000323	101.3	298.15	6.31	.0631
.000354	101.3	298.15	6.63	.0663
.000385	101.3	298.15	6.94	.0694
.000415	101.3	298.15	7.28	.0728
.000033	101.3	315.15	1.12	.0112
.000066	101.3	315.15	2.31	.0231
.000099	101.3	315.15	3.54	.0354
.000132	101.3	315.15	4.69	.0469
.000164	101.3	315.15	5.87	.0587
.000196	101.3	315.15	6.99	.0699
.000228	101.3	315.15	7.82	.0782
.00026	101.3	315.15	8.27	.0827
.000291	101.3	315.15	8.74	.0874
.000323	101.3	315.15	9.19	.0919
.000354	101.3	315.15	9.62	.0962
.000385	101.3	315.15	10.03	.1003
.000415	101.3	315.15	10.47	.1047
.000446	101.3	315.15	10.89	.1089
.000476	101.3	315.15	11.29	.1129
.000033	101.3	323.15	1.85	.0185
.000066	101.3	323.15	3.77	.0377
.000099	101.3	323.15	5.84	.0584
.000132	101.3	323.15	7.69	.0769
.000164	101.3	323.15	9.56	.0956
.000196	101.3	323.15	11.42	.1142
.000228	101.3	323.15	13.13	.1313
.00026	101.3	323.15	14.62	.1462
.000291	101.3	323.15	15.57	.1557
.000323	101.3	323.15	16.32	.1632
.000354	101.3	323.15	16.99	.1699
.000385	101.3	323.15	17.74	.1774
.000415	101.3	323.15	18.42	.1842
.000446	101.3	323.15	19.14	.1914
.000476	101.3	323.15	19.87	.1987
.000506	101.3	323.15	20.53	.2053
.000536	101.3	323.15	21.27	.2127
.000566	101.3	323.15	21.93	.2193
