Measured thermophysical data. Isopiestic Determination of the Osmotic and Activity Coefficients of Aqueous Solutions of Symmetrical and Unsymmetrical Quaternary Ammonium Bromides at T = (283.15 and 288.15) K
Source: J. Chem. Eng. Data, 2009, 10.1021/je900216m
Compound 1: tetrabutylammonium bromide, C16H36BrN
Compound 2: tetra-sec-butyl ammonium bromide, C16H36NBr
Compound 3: tetra-iso-butyl ammonium bromide, C16H36NBr
Compound 4: dibutyldiethylammonium bromdie, C12H28BrN
Compound 5: Butyltriethylammonium bromide, C10H24BrN
Compound 6: water, H2O

System: tetrabutylammonium bromide + water; phases: Liquid, Gas
Property: Osmotic coefficient (Liquid); method: Isopiestic method
Temperature, K	Molality, mol/kg of tetrabutylammonium bromide	Osmotic coefficient	uncertainty
283.15	.1035	.9257	.00037028
283.15	.138	.9204	.00036816
283.15	.2197	.9146	.00036584
283.15	.2995	.9111	.00036444
283.15	.3343	.9104	.00036416
283.15	.4739	.9101	.00036404
283.15	.5629	.9111	.00036444
283.15	.6903	.9136	.00036544
283.15	.7953	.916	.0003664
283.15	.8682	.918	.0003672
283.15	.9751	.9217	.00036868
288.15	.1045	.9107	.00036428
288.15	.1582	.8964	.00035856
288.15	.2837	.8776	.00035104
288.15	.3864	.8681	.00034724
288.15	.4954	.8596	.00034384
288.15	.628	.8539	.00034156
288.15	.7262	.8512	.00034048
288.15	.8429	.8501	.00034004
288.15	.9276	.8517	.00034068
288.15	1.0787	.8566	.00034264

System: water + tetra-sec-butyl ammonium bromide; phases: Liquid, Gas
Property: Osmotic coefficient (Liquid); method: Isopiestic method
Temperature, K	Molality, mol/kg of tetra-sec-butyl ammonium bromide	Osmotic coefficient	uncertainty
283.15	.1033	.927	.0003708
283.15	.1377	.9222	.00036888
283.15	.2195	.9154	.00036616
283.15	.2991	.9123	.00036492
283.15	.3339	.9114	.00036456
283.15	.4732	.9114	.00036456
283.15	.5619	.9128	.00036512
283.15	.6887	.9157	.00036628
283.15	.7927	.919	.0003676
283.15	.8651	.9213	.00036852
283.15	.9705	.9261	.00037044
288.15	.1042	.913	.0003652
288.15	.1572	.9021	.00036084
288.15	.2811	.8859	.00035436
288.15	.3824	.8772	.00035088
288.15	.4912	.867	.0003468
288.15	.6212	.8632	.00034528
288.15	.7168	.8624	.00034496
288.15	.8295	.8638	.00034552
288.15	.9119	.8663	.00034652
288.15	1.0605	.8713	.00034852

System: water + tetra-iso-butyl ammonium bromide; phases: Liquid, Gas
Property: Osmotic coefficient (Liquid); method: Isopiestic method
Temperature, K	Molality, mol/kg of tetra-iso-butyl ammonium bromide	Osmotic coefficient	uncertainty
283.15	.1035	.9253	.00037012
283.15	.1376	.9231	.00036924
283.15	.2192	.9167	.00036668
283.15	.2986	.9138	.00036552
283.15	.3332	.9133	.00036532
283.15	.4724	.9129	.00036516
283.15	.5608	.9146	.00036584
283.15	.6871	.9179	.00036716
283.15	.7904	.9217	.00036868
283.15	.8617	.9249	.00036996
283.15	.9658	.9307	.00037228
288.15	.1041	.9142	.00036568
288.15	.1569	.9038	.00036152
288.15	.2795	.8908	.00035632
288.15	.3804	.8818	.00035272
288.15	.4856	.877	.0003508
288.15	.6127	.8752	.00035008
288.15	.7082	.8728	.00034912
288.15	.8192	.8747	.00034988
288.15	.9012	.8766	.00035064
288.15	1.0495	.8804	.00035216

System: water + dibutyldiethylammonium bromdie; phases: Liquid, Gas
Property: Osmotic coefficient (Liquid); method: Isopiestic method
Temperature, K	Molality, mol/kg of dibutyldiethylammonium bromdie	Osmotic coefficient	uncertainty
283.15	.1034	.9261	.00037044
283.15	.1376	.9232	.00036928
283.15	.2189	.9178	.00036712
283.15	.2978	.9163	.00036652
283.15	.3324	.9156	.00036624
283.15	.4702	.9172	.00036688
283.15	.5576	.9198	.00036792
283.15	.6825	.924	.0003696
283.15	.7842	.9289	.00037156
283.15	.8544	.9328	.00037312
283.15	.9569	.9393	.00037572
288.15	.1041	.9139	.00036556
288.15	.1562	.908	.0003632
288.15	.2772	.8982	.00035928
288.15	.3749	.8947	.00035788
288.15	.4763	.8941	.00035764
288.15	.6002	.8934	.00035736
288.15	.6897	.8963	.00035852
288.15	.7971	.8989	.00035956
288.15	.8741	.9038	.00036152
288.15	1.0119	.9132	.00036528

System: water + Butyltriethylammonium bromide; phases: Liquid, Gas
Property: Osmotic coefficient (Liquid); method: Isopiestic method
Temperature, K	Molality, mol/kg of Butyltriethylammonium bromide	Osmotic coefficient	uncertainty
283.15	.1033	.9271	.00037084
283.15	.1376	.9231	.00036924
283.15	.2187	.9188	.00036752
283.15	.2974	.9175	.000367
283.15	.3319	.9169	.00036676
283.15	.4688	.92	.000368
283.15	.555	.9241	.00036964
283.15	.679	.9288	.00037152
283.15	.78	.934	.0003736
283.15	.8485	.9393	.00037572
283.15	.9497	.9464	.00037856
288.15	.1039	.9158	.00036632
288.15	.1569	.904	.0003616
288.15	.2793	.8916	.00035664
288.15	.3789	.8853	.00035412
288.15	.4818	.884	.0003536
288.15	.6069	.8837	.00035348
288.15	.6983	.8853	.00035412
288.15	.8052	.8899	.00035596
288.15	.8847	.8929	.00035716
288.15	1.028	.8989	.00035956
