Measured thermophysical data. Vapor Pressures and Liquid Densities of Ammonium Iodide + Ammonia Mixtures
Source: J. Chem. Eng. Data, 2010, 10.1021/je9006713
Compound 1: ammonium iodide  ((NH4)I), H4IN
Compound 2: ammonia, H3N

System: ammonia + ammonium iodide  ((NH4)I); phases: Liquid, Gas
Property: Vapor or sublimation pressure, kPa (Liquid); method: Closed cell (Static) method
Temperature, K	Molality, mol/kg of ammonium iodide  ((NH4)I)	Vapor or sublimation pressure, kPa	uncertainty
303.12	.812	1154	5.77
313.14	.815	1535	7.675
323.16	.819	2000	10
333.13	.824	2569	12.845
343.13	.83	3256	16.28
353.13	.839	4068	20.34
363.12	.849	5029	25.145
373.16	.862	6177	30.885
303.12	1.769	1142	5.71
313.14	1.776	1506	7.53
323.16	1.785	1965	9.825
333.13	1.794	2525	12.625
343.13	1.805	3201	16.005
353.13	1.817	4003	20.015
363.12	1.837	4950	24.75
373.16	1.862	6066	30.33
303.12	3.171	1096	5.48
313.14	3.186	1448	7.24
323.16	3.204	1891	9.455
333.13	3.224	2431	12.155
343.13	3.25	3081	15.405
353.13	3.278	3855	19.275
363.12	3.313	4765	23.825
373.16	3.355	5893	29.465
303.12	4.846	1034	5.17
313.14	4.864	1346	6.73
323.16	4.884	1757	8.785
333.13	4.913	2260	11.3
343.13	4.949	2864	14.32
353.13	4.996	3577	17.885
363.12	5.029	4410	22.05
373.16	5.068	5364	26.82
303.12	7.373	866	4.33
313.14	7.415	1131	5.655
323.16	7.459	1473	7.365
333.13	7.51	1896	9.48
343.13	7.571	2403	12.015
353.13	7.635	2982	14.91
363.12	7.709	3654	18.27
373.16	7.73	4411	22.055
303.12	10.345	640	3.2
313.14	10.388	861	4.305
323.16	10.445	1135	5.675
333.13	10.488	1456	7.28
343.13	10.55	1840	9.2
353.13	10.603	2303	11.515
363.12	10.643	2825	14.125
373.16	10.701	3431	17.155
303.12	11.915	524	2.62
313.14	11.967	713	3.565
323.16	12.034	947	4.735
333.13	12.107	1228	6.14
343.13	12.197	1530	7.65
353.13	12.292	1901	9.505
363.12	12.405	2341	11.705
373.16	12.541	2840	14.2
303.12	16.473	300	1.5
313.14	16.504	420	2.1
323.16	16.552	574	2.87
333.13	16.592	771	3.855
343.13	16.64	1010	5.05
353.13	16.688	1300	6.5
363.12	16.745	1622	8.11
373.16	16.802	2004	10.02
303.12	18.475	235	1.175
313.14	18.532	336	1.68
323.16	18.616	465	2.325
333.13	18.701	626	3.13
343.13	18.816	826	4.13
353.13	18.951	1066	5.33
363.12	19.116	1328	6.64
373.16	19.314	1620	8.1

System: ammonia + ammonium iodide  ((NH4)I); phases: Liquid
Property: Mass density, kg/m3 (Liquid); method: glass piezometer
Temperature, K	Molality, mol/kg of ammonium iodide  ((NH4)I)	Pressure, kPa	Mass density, kg/m3	uncertainty
303.15	.867	10000	698.2	1.3964
303.15	.867	15000	702.3	1.4046
303.15	.867	20000	706.3	1.4126
303.15	.867	25000	710.1	1.4202
303.15	.867	30000	713.7	1.4274
303.15	1.827	10000	777.3	1.5546
303.15	1.827	15000	780.7	1.5614
303.15	1.827	20000	783.9	1.5678
303.15	1.827	25000	787.4	1.5748
303.15	1.827	30000	791	1.582
303.15	3.103	10000	870.7	1.7414
303.15	3.103	15000	874.3	1.7486
303.15	3.103	20000	877.8	1.7556
303.15	3.103	25000	881.1	1.7622
303.15	3.103	30000	884.5	1.769
303.15	4.856	10000	988.2	1.9764
303.15	4.856	15000	992.3	1.9846
303.15	4.856	20000	996.2	1.9924
303.15	4.856	25000	999.8	1.9996
303.15	4.856	30000	1003.5	2.007
303.15	7.271	10000	1109	2.218
303.15	7.271	15000	1112.4	2.2248
303.15	7.271	20000	1115.2	2.2304
303.15	7.271	25000	1118	2.236
303.15	7.271	30000	1120.4	2.2408
303.15	11.181	10000	1234	2.468
303.15	11.181	15000	1236.7	2.4734
303.15	11.181	20000	1238.9	2.4778
303.15	11.181	25000	1241.2	2.4824
303.15	11.181	30000	1243.5	2.487
303.15	16.465	10000	1329.5	2.659
303.15	16.465	15000	1332.2	2.6644
303.15	16.465	20000	1334.5	2.669
303.15	16.465	25000	1336.8	2.6736
313.15	16.465	30000	1338.7	2.6774
313.15	.867	10000	683.7	1.3674
313.15	.867	15000	688	1.376
313.15	.867	20000	691.9	1.3838
313.15	.867	25000	695.7	1.3914
313.15	.867	30000	699.6	1.3992
313.15	1.827	10000	762.9	1.5258
313.15	1.827	15000	766.9	1.5338
313.15	1.827	20000	770.7	1.5414
313.15	1.827	25000	774.7	1.5494
313.15	1.827	30000	778.6	1.5572
313.15	3.103	10000	857.4	1.7148
313.15	3.103	15000	861.1	1.7222
313.15	3.103	20000	864.6	1.7292
313.15	3.103	25000	867.8	1.7356
313.15	3.103	30000	871.3	1.7426
313.15	4.856	10000	974.7	1.9494
313.15	4.856	15000	978.5	1.957
313.15	4.856	20000	982.3	1.9646
313.15	4.856	25000	986.1	1.9722
313.15	4.856	30000	989.9	1.9798
313.15	7.271	10000	1097.5	2.195
313.15	7.271	15000	1100.9	2.2018
313.15	7.271	20000	1103.9	2.2078
313.15	7.271	25000	1107.3	2.2146
313.15	7.271	30000	1110.4	2.2208
313.15	11.181	10000	1222.9	2.4458
313.15	11.181	15000	1225.9	2.4518
313.15	11.181	20000	1228.8	2.4576
313.15	11.181	25000	1231.4	2.4628
313.15	11.181	30000	1233.7	2.4674
313.15	16.465	10000	1322	2.644
313.15	16.465	15000	1323.9	2.6478
313.15	16.465	20000	1326.5	2.653
313.15	16.465	25000	1329.2	2.6584
313.15	16.465	30000	1331.4	2.6628
323.15	.867	10000	668.4	1.3368
323.15	.867	15000	672.8	1.3456
323.15	.867	20000	677	1.354
323.15	.867	25000	681.3	1.3626
323.15	.867	30000	685.5	1.371
323.15	1.827	10000	748.7	1.4974
323.15	1.827	15000	752.7	1.5054
323.15	1.827	20000	756.8	1.5136
323.15	1.827	25000	760.7	1.5214
323.15	1.827	30000	764.7	1.5294
323.15	3.103	10000	844.3	1.6886
323.15	3.103	15000	848.1	1.6962
323.15	3.103	20000	852	1.704
323.15	3.103	25000	855.9	1.7118
323.15	3.103	30000	859.8	1.7196
323.15	4.856	10000	960.5	1.921
323.15	4.856	15000	964.8	1.9296
323.15	4.856	20000	969	1.938
323.15	4.856	25000	973.3	1.9466
323.15	4.856	30000	977.3	1.9546
323.15	7.271	10000	1085.9	2.1718
323.15	7.271	15000	1089.2	2.1784
323.15	7.271	20000	1092.5	2.185
323.15	7.271	25000	1095.5	2.191
323.15	7.271	30000	1098.5	2.197
323.15	11.181	10000	1212.3	2.4246
323.15	11.181	15000	1214.9	2.4298
323.15	11.181	20000	1217	2.434
323.15	11.181	25000	1219.2	2.4384
323.15	11.181	30000	1221.4	2.4428
323.15	16.465	10000	1312	2.624
323.15	16.465	15000	1314.6	2.6292
323.15	16.465	20000	1316.8	2.6336
323.15	16.465	25000	1319.4	2.6388
323.15	16.465	30000	1321.6	2.6432
333.15	.867	10000	650.5	1.301
333.15	.867	15000	655.7	1.3114
333.15	.867	20000	660.8	1.3216
333.15	.867	25000	666	1.332
333.15	.867	30000	671.3	1.3426
333.15	1.827	10000	732.5	1.465
333.15	1.827	15000	737	1.474
333.15	1.827	20000	741.3	1.4826
333.15	1.827	25000	745.9	1.4918
333.15	1.827	30000	749.9	1.4998
333.15	3.103	10000	829.3	1.6586
333.15	3.103	15000	833.5	1.667
333.15	3.103	20000	837.7	1.6754
333.15	3.103	25000	841.8	1.6836
333.15	3.103	30000	845.6	1.6912
333.15	4.856	10000	947.6	1.8952
333.15	4.856	15000	951.7	1.9034
333.15	4.856	20000	955.5	1.911
333.15	4.856	25000	959.4	1.9188
333.15	4.856	30000	963.1	1.9262
333.15	7.271	10000	1075.9	2.1518
333.15	7.271	15000	1078.8	2.1576
333.15	7.271	20000	1081.7	2.1634
333.15	7.271	25000	1084.6	2.1692
333.15	7.271	30000	1087.3	2.1746
333.15	11.181	10000	1199.8	2.3996
333.15	11.181	15000	1202.6	2.4052
333.15	11.181	20000	1205.5	2.411
333.15	11.181	25000	1208	2.416
333.15	11.181	30000	1210.2	2.4204
333.15	16.465	10000	1302.5	2.605
333.15	16.465	15000	1305	2.61
333.15	16.465	20000	1307.6	2.6152
333.15	16.465	25000	1310.2	2.6204
333.15	16.465	30000	1312.4	2.6248
343.15	.867	10000	632.1	1.2642
343.15	.867	15000	638	1.276
343.15	.867	20000	643.7	1.2874
343.15	.867	25000	649.4	1.2988
343.15	.867	30000	654.8	1.3096
343.15	1.827	10000	716.4	1.4328
343.15	1.827	15000	721.7	1.4434
343.15	1.827	20000	726.9	1.4538
343.15	1.827	25000	731.9	1.4638
343.15	1.827	30000	737	1.474
343.15	3.103	10000	814.6	1.6292
343.15	3.103	15000	818.9	1.6378
343.15	3.103	20000	823.2	1.6464
343.15	3.103	25000	827.6	1.6552
343.15	3.103	30000	831.8	1.6636
343.15	4.856	10000	933.1	1.8662
343.15	4.856	15000	937.1	1.8742
343.15	4.856	20000	941.1	1.8822
343.15	4.856	25000	945.1	1.8902
343.15	4.856	30000	949.2	1.8984
343.15	7.271	10000	1062.2	2.1244
343.15	7.271	15000	1065.7	2.1314
343.15	7.271	20000	1069.2	2.1384
343.15	7.271	25000	1072.4	2.1448
343.15	7.271	30000	1075.2	2.1504
343.15	11.181	10000	1188.9	2.3778
343.15	11.181	15000	1192.1	2.3842
343.15	11.181	20000	1194.9	2.3898
343.15	11.181	25000	1197.3	2.3946
343.15	11.181	30000	1199.8	2.3996
343.15	16.465	10000	1293.1	2.5862
343.15	16.465	15000	1296	2.592
343.15	16.465	20000	1298.5	2.597
343.15	16.465	25000	1301.4	2.6028
343.15	16.465	30000	1303.9	2.6078
353.15	.867	10000	615.5	1.231
353.15	.867	15000	621.8	1.2436
353.15	.867	20000	627.9	1.2558
353.15	.867	25000	634.3	1.2686
353.15	.867	30000	640.4	1.2808
353.15	1.827	10000	700.1	1.4002
353.15	1.827	15000	705.7	1.4114
353.15	1.827	20000	711.2	1.4224
353.15	1.827	25000	716.6	1.4332
353.15	1.827	30000	721.9	1.4438
353.15	3.103	10000	797.7	1.5954
353.15	3.103	15000	803	1.606
353.15	3.103	20000	808.3	1.6166
353.15	3.103	25000	813.5	1.627
353.15	3.103	30000	818.7	1.6374
353.15	4.856	10000	917.8	1.8356
353.15	4.856	15000	922.1	1.8442
353.15	4.856	20000	926.5	1.853
353.15	4.856	25000	931	1.862
353.15	4.856	30000	935.2	1.8704
353.15	7.271	10000	1049.9	2.0998
353.15	7.271	15000	1053.5	2.107
353.15	7.271	20000	1056.9	2.1138
353.15	7.271	25000	1060.4	2.1208
353.15	7.271	30000	1063.5	2.127
353.15	11.181	10000	1177.9	2.3558
353.15	11.181	15000	1181	2.362
353.15	11.181	20000	1183.7	2.3674
353.15	11.181	25000	1186.5	2.373
353.15	11.181	30000	1188.9	2.3778
353.15	16.465	10000	1284.9	2.5698
353.15	16.465	15000	1287.4	2.5748
353.15	16.465	20000	1289.9	2.5798
353.15	16.465	25000	1292.4	2.5848
353.15	16.465	30000	1294.5	2.589
363.15	.867	10000	593.9	1.1878
363.15	.867	15000	601.7	1.2034
363.15	.867	20000	609.6	1.2192
363.15	.867	25000	617.4	1.2348
363.15	.867	30000	625.2	1.2504
363.15	1.827	10000	680.1	1.3602
363.15	1.827	15000	687.2	1.3744
363.15	1.827	20000	694.2	1.3884
363.15	1.827	25000	701.2	1.4024
363.15	1.827	30000	708.4	1.4168
363.15	3.103	10000	780.9	1.5618
363.15	3.103	15000	786.3	1.5726
363.15	3.103	20000	791.7	1.5834
363.15	3.103	25000	797.3	1.5946
363.15	3.103	30000	802.8	1.6056
363.15	4.856	10000	903.2	1.8064
363.15	4.856	15000	907.9	1.8158
363.15	4.856	20000	912.5	1.825
363.15	4.856	25000	916.8	1.8336
363.15	4.856	30000	921.1	1.8422
363.15	7.271	10000	1037.1	2.0742
363.15	7.271	15000	1040.7	2.0814
363.15	7.271	20000	1044.1	2.0882
363.15	7.271	25000	1047.4	2.0948
363.15	7.271	30000	1050.5	2.101
363.15	11.181	10000	1166.7	2.3334
363.15	11.181	15000	1169.8	2.3396
363.15	11.181	20000	1172.8	2.3456
363.15	11.181	25000	1175.5	2.351
363.15	11.181	30000	1177.9	2.3558
363.15	16.465	10000	1274.7	2.5494
363.15	16.465	15000	1277.2	2.5544
363.15	16.465	20000	1279.6	2.5592
363.15	16.465	25000	1281.7	2.5634
363.15	16.465	30000	1283.9	2.5678
373.15	.867	10000	579.5	1.159
373.15	.867	15000	587.3	1.1746
373.15	.867	20000	595.1	1.1902
373.15	.867	25000	603.1	1.2062
373.15	.867	30000	610.8	1.2216
373.15	1.827	10000	666.9	1.3338
373.15	1.827	15000	674	1.348
373.15	1.827	20000	681	1.362
373.15	1.827	25000	687.8	1.3756
373.15	1.827	30000	694.7	1.3894
373.15	3.103	10000	768.1	1.5362
373.15	3.103	15000	773.7	1.5474
373.15	3.103	20000	779.4	1.5588
373.15	3.103	25000	785.2	1.5704
373.15	3.103	30000	790.9	1.5818
373.15	4.856	10000	889.8	1.7796
373.15	4.856	15000	894.4	1.7888
373.15	4.856	20000	898.9	1.7978
373.15	4.856	25000	903.4	1.8068
373.15	4.856	30000	907.8	1.8156
373.15	7.271	10000	1026.1	2.0522
373.15	7.271	15000	1029.7	2.0594
373.15	7.271	20000	1033.2	2.0664
373.15	7.271	25000	1036.7	2.0734
373.15	7.271	30000	1039.9	2.0798
373.15	11.181	10000	1155.3	2.3106
373.15	11.181	15000	1158.5	2.317
373.15	11.181	20000	1161.6	2.3232
373.15	11.181	25000	1164.3	2.3286
373.15	11.181	30000	1166.8	2.3336
373.15	16.465	10000	1265.9	2.5318
373.15	16.465	15000	1268.6	2.5372
373.15	16.465	20000	1271	2.542
373.15	16.465	25000	1273.4	2.5468
373.15	16.465	30000	1275.8	2.5516
