Measured thermophysical data. Solubility of Adamantane in Phosphonium-Based Ionic Liquids
Source: J. Chem. Eng. Data, 2010, 10.1021/je9006772
Compound 1: adamantane, C10H16, purity 99%
Compound 2: triisobutylmethylphosphonium p-toluenesulfonate, C20H37O3PS, purity 95%
Compound 3: trihexyl(tetradecyl)phosphonium chloride, C32H68ClP, purity 95%
Compound 4: trihexyl(tetradecyl)phosphonium bis[(trifluoromethyl)sulfonyl]imide, C34H68F6NO4PS2, purity 95%
Compound 5: tetradecyltrihexylphosphonium bromide, C26H55BrP, purity 95%
Compound 6: trihexyl (tetradecyl) phosphonium methanesulfonate, C33H71O3PS, purity 95%
Compound 7: trihexyltetradecylphosphonium dicyanamide, C34H66N3P, purity 95%
Compound 8: tetraoctylphosphonium bromide, C32H68BrP, purity 95%
Compound 9: tributylmethylphosphonium methylsulphate, C14H33O4PS, purity 95%

System: adamantane + tributylmethylphosphonium methylsulphate; phases: Liquid, Crystal
Fixed: Pressure, kPa = 101
Property: Solid-liquid equilibrium temperature, K (Liquid); method: Visual observation
Mole fraction of adamantane	Solid-liquid equilibrium temperature, K	uncertainty
.024	385.56	1.9278
.025	384.24	1.9212
.025	384.98	1.9249
.05	409.8	2.049
.109	440.78	2.2039
.125	443.88	2.2194
.148	454.96	2.2748

System: adamantane + triisobutylmethylphosphonium p-toluenesulfonate; phases: Liquid, Crystal
Fixed: Pressure, kPa = 101
Property: Solid-liquid equilibrium temperature, K (Liquid); method: Visual observation
Mole fraction of adamantane	Solid-liquid equilibrium temperature, K	uncertainty
.033	380.4	1.902
.056	388.24	1.9412
.101	416.1	2.0805
.133	427.71	2.13855
.158	440.3	2.2015

System: adamantane + trihexyl(tetradecyl)phosphonium chloride; phases: Liquid, Crystal
Fixed: Pressure, kPa = 101
Property: Solid-liquid equilibrium temperature, K (Liquid); method: Visual observation
Mole fraction of adamantane	Solid-liquid equilibrium temperature, K	uncertainty
.37	426.02	2.1301
.42	435.13	2.17565
.532	462.8	2.314

System: adamantane + trihexyl(tetradecyl)phosphonium bis[(trifluoromethyl)sulfonyl]imide; phases: Liquid, Crystal
Fixed: Pressure, kPa = 101
Property: Solid-liquid equilibrium temperature, K (Liquid); method: Visual observation
Mole fraction of adamantane	Solid-liquid equilibrium temperature, K	uncertainty
.358	419.44	2.0972
.458	439.65	2.19825
.52	452.87	2.26435

System: adamantane + tetradecyltrihexylphosphonium bromide; phases: Liquid, Crystal
Fixed: Pressure, kPa = 101
Property: Solid-liquid equilibrium temperature, K (Liquid); method: Visual observation
Mole fraction of adamantane	Solid-liquid equilibrium temperature, K	uncertainty
.298	410.3	2.0515
.405	429.74	2.1487
.454	441.88	2.2094

System: adamantane + trihexyl (tetradecyl) phosphonium methanesulfonate; phases: Liquid, Crystal
Fixed: Pressure, kPa = 101
Property: Solid-liquid equilibrium temperature, K (Liquid); method: Visual observation
Mole fraction of adamantane	Solid-liquid equilibrium temperature, K	uncertainty
.297	403.02	2.0151
.387	419.7	2.0985
.465	439.17	2.19585

System: adamantane + trihexyltetradecylphosphonium dicyanamide; phases: Liquid, Crystal
Fixed: Pressure, kPa = 101
Property: Solid-liquid equilibrium temperature, K (Liquid); method: Visual observation
Mole fraction of adamantane	Solid-liquid equilibrium temperature, K	uncertainty
.3	408.04	2.0402
.394	431.95	2.15975
.474	451.42	2.2571

System: adamantane + tetraoctylphosphonium bromide; phases: Liquid, Crystal
Fixed: Pressure, kPa = 101
Property: Solid-liquid equilibrium temperature, K (Liquid); method: Visual observation
Mole fraction of adamantane	Solid-liquid equilibrium temperature, K	uncertainty
.238	388.05	1.94025
.3	400.52	2.0026
.357	414.61	2.07305
.381	421.38	2.1069
.464	440.4	2.202
