Measured thermophysical data. Solubilities of Some Disperse Yellow Dyes in Supercritical CO2
Source: J. Chem. Eng. Data, 2010, 10.1021/je901049r
Compound 1: carbon dioxide, CO2, purity 99.99%
Compound 2: 5-diethylamino-2-[(5-choloro-2-hydroxy-phenylimino)-methyl]-phenol, C17H19ClN2O2, purity 99%
Compound 3: 5-diethylamino-2-[(2-hydroxy-5-methyl-phenylimino)-methyl]-phenol, C18H22N2O2, purity 99%
Compound 4: 3-(5-chloro-2-benzoxazolyl)-7-(diethylamino)-2H-1-benzopyran-2-one, C20H17ClN2O3, purity 99%
Compound 5: 3-(5-methyl-2-benzoxazolyl)-7-(diethylamino)-2H-1-benzopyran-2-one, C21H20N2O3, purity 99%

System: 5-diethylamino-2-[(5-choloro-2-hydroxy-phenylimino)-methyl]-phenol; phases: Crystal, Liquid, Air at 1 atmosphere
Property: Normal melting temperature, K (Crystal); method: Visual observation
Normal melting temperature, K	uncertainty
499.15	1

System: 5-diethylamino-2-[(2-hydroxy-5-methyl-phenylimino)-methyl]-phenol; phases: Crystal, Liquid, Air at 1 atmosphere
Property: Normal melting temperature, K (Crystal); method: Visual observation
Normal melting temperature, K	uncertainty
493.15	1

System: 3-(5-chloro-2-benzoxazolyl)-7-(diethylamino)-2H-1-benzopyran-2-one; phases: Crystal, Liquid, Air at 1 atmosphere
Property: Normal melting temperature, K (Crystal); method: Visual observation
Normal melting temperature, K	uncertainty
468.15	1

System: 3-(5-methyl-2-benzoxazolyl)-7-(diethylamino)-2H-1-benzopyran-2-one; phases: Crystal, Liquid, Air at 1 atmosphere
Property: Normal melting temperature, K (Crystal); method: Visual observation
Normal melting temperature, K	uncertainty
482.15	1

System: carbon dioxide + 5-diethylamino-2-[(5-choloro-2-hydroxy-phenylimino)-methyl]-phenol; phases: Fluid (supercritical or subcritical phases), Crystal
Property: Mole fraction of 5-diethylamino-2-[(5-choloro-2-hydroxy-phenylimino)-methyl]-phenol (Fluid (supercritical or subcritical phases)); method: Absorbance Measurements
Temperature, K	Pressure, kPa	Mole fraction of 5-diethylamino-2-[(5-choloro-2-hydroxy-phenylimino)-methyl]-phenol	uncertainty
308	12100	.00000023	
308	15200	.00000087	
308	18200	.00000093	
308	21300	.00000112	
308	24300	.00000128	
308	27300	.00000137	
308	30400	.00000165	
308	33400	.00000185	
308	35500	.00000218	
318	12100	.00000018	
318	15200	.00000089	
318	18200	.00000129	
318	21300	.00000144	
318	24300	.00000168	
318	27300	.00000175	
318	30400	.00000196	
318	33400	.00000215	
318	35500	.00000275	
328	12100	.0000001	
328	15200	.00000093	
328	18200	.00000161	
328	21300	.00000185	
328	24300	.00000219	
328	27300	.00000277	
328	30400	.00000315	
328	33400	.00000334	
328	35500	.00000388	
338	15200	.00000096	
338	18200	.00000156	
338	21300	.00000223	
338	24300	.00000279	
338	27300	.00000327	
338	30400	.00000346	
338	33400	.00000433	
338	35500	.0000056	
348	15200	.0000011	
348	18200	.00000254	
348	21300	.00000301	
348	24300	.00000356	
348	27300	.00000406	
348	30400	.00000449	
348	33400	.00000547	
348	35500	.00000686	

System: carbon dioxide + 5-diethylamino-2-[(2-hydroxy-5-methyl-phenylimino)-methyl]-phenol; phases: Fluid (supercritical or subcritical phases), Crystal
Property: Mole fraction of 5-diethylamino-2-[(2-hydroxy-5-methyl-phenylimino)-methyl]-phenol (Fluid (supercritical or subcritical phases)); method: Absorbance Measurements
Temperature, K	Pressure, kPa	Mole fraction of 5-diethylamino-2-[(2-hydroxy-5-methyl-phenylimino)-methyl]-phenol	uncertainty
308	12100	.00000109	
308	15200	.00000161	
308	18200	.00000208	
308	21300	.0000024	
308	24300	.0000025	
308	27300	.00000299	
308	30400	.00000328	
308	33400	.00000339	
308	35500	.00000392	
318	12100	.00000112	
318	15200	.00000158	
318	18200	.00000207	
318	21300	.00000264	
318	24300	.00000332	
318	27300	.00000391	
318	30400	.00000531	
318	33400	.0000064	
318	35500	.00000684	
328	12100	.00000098	
328	15200	.00000164	
328	18200	.00000214	
328	21300	.00000303	
328	24300	.00000385	
328	27300	.00000549	
328	30400	.00000714	
328	33400	.00000832	
328	35500	.00001037	
338	12100	.00000112	
338	15200	.0000021	
338	18200	.00000261	
338	21300	.00000515	
338	24300	.00000754	
338	27300	.00001108	
338	30400	.00001082	
338	33400	.00001375	
338	35500	.00001813	
348	12100	.00000103	
348	15200	.00000236	
348	18200	.00000327	
348	21300	.00000588	
348	24300	.0000082	
348	27300	.00001177	
348	30400	.00001257	
348	33400	.00001749	
348	35500	.00002057	

System: carbon dioxide + 3-(5-chloro-2-benzoxazolyl)-7-(diethylamino)-2H-1-benzopyran-2-one; phases: Fluid (supercritical or subcritical phases), Crystal
Property: Mole fraction of 3-(5-chloro-2-benzoxazolyl)-7-(diethylamino)-2H-1-benzopyran-2-one (Fluid (supercritical or subcritical phases)); method: Absorbance Measurements
Temperature, K	Pressure, kPa	Mole fraction of 3-(5-chloro-2-benzoxazolyl)-7-(diethylamino)-2H-1-benzopyran-2-one	uncertainty
308	12100	.00000047	
308	15200	.00000075	
308	18200	.00000077	
308	21300	.00000096	
308	24300	.00000117	
308	27300	.00000127	
308	30400	.00000154	
308	33400	.00000186	
308	35500	.000002	
318	12100	.00000042	
318	15200	.00000063	
318	18200	.00000107	
318	21300	.00000118	
318	24300	.00000135	
318	27300	.00000166	
318	30400	.000002	
318	33400	.00000236	
318	35500	.00000289	
328	15200	.00000059	
328	18200	.00000108	
328	21300	.0000013	
328	24300	.00000153	
328	27300	.00000206	
328	30400	.00000252	
328	33400	.00000316	
328	35500	.00000395	
338	15200	.00000034	
338	18200	.00000103	
338	21300	.00000171	
338	24300	.00000207	
338	27300	.00000287	
338	30400	.00000416	
338	33400	.00000495	
338	35500	.00000592	
348	15200	.0000002	
348	18200	.00000095	
348	21300	.00000187	
348	24300	.00000244	
348	27300	.00000388	
348	30400	.00000491	
348	33400	.00000631	
348	35500	.0000077	

System: carbon dioxide + 3-(5-methyl-2-benzoxazolyl)-7-(diethylamino)-2H-1-benzopyran-2-one; phases: Fluid (supercritical or subcritical phases), Crystal
Property: Mole fraction of 3-(5-methyl-2-benzoxazolyl)-7-(diethylamino)-2H-1-benzopyran-2-one (Fluid (supercritical or subcritical phases)); method: Absorption
Temperature, K	Pressure, kPa	Mole fraction of 3-(5-methyl-2-benzoxazolyl)-7-(diethylamino)-2H-1-benzopyran-2-one	uncertainty
308	15200	.00000002	
308	18200	.00000011	
308	21300	.00000099	
308	24300	.00000117	
308	27300	.00000144	
308	30400	.00000163	
308	33400	.00000188	
308	35500	.0000025	
318	18200	.0000001	
318	21300	.00000142	
318	24300	.00000141	
318	27300	.00000184	
318	30400	.00000271	
318	33400	.00000376	
318	35500	.00000428	
328	21300	.00000061	
328	24300	.00000168	
328	27300	.00000243	
328	30400	.00000306	
328	33400	.00000443	
328	35500	.00000538	
338	21300	.00000047	
338	24300	.00000202	
338	27300	.00000288	
338	30400	.00000412	
338	33400	.00000685	
338	35500	.00000717	
348	21300	.0000007	
348	24300	.0000024	
348	27300	.00000448	
348	30400	.00000524	
348	33400	.00000785	
348	35500	.00000909	
