Measured thermophysical data. Phase Equilibria of (1-Hexyl-3-methylimidazolium Thiocyanate + Water, Alcohol, or Hydrocarbon) Binary Systems
Source: J. Chem. Eng. Data, 2010, 10.1021/je900460m
Compound 1: 1-hexyl-3-methylimidazolium thiocyanate, C11H19N3S
Compound 2: water, H2O
Compound 3: hexane, C6H14, purity 99%
Compound 4: heptane, C7H16, purity 99%
Compound 5: octane, C8H18, purity 99%
Compound 6: nonane, C9H20, purity 99%
Compound 7: decane, C10H22, purity 99%
Compound 8: benzene, C6H6, purity 99.97%
Compound 9: toluene, C7H8, purity 99.7%
Compound 10: ethylbenzene, C8H10, purity 99%
Compound 11: cyclohexane, C6H12, purity 99.5%
Compound 12: cycloheptane, C7H14, purity 98%

System: 1-hexyl-3-methylimidazolium thiocyanate; phases: Glass, Liquid, Air at 1 atmosphere
Property: Triple point temperature, K (Glass); method: Visual observation
Triple point temperature, K	uncertainty
189.9	.1

System: 1-hexyl-3-methylimidazolium thiocyanate; phases: Liquid
Fixed: Pressure, kPa = 101.325
Property: Mass density, kg/m3 (Liquid); method: Pycnometric method
Temperature, K	Mass density, kg/m3	uncertainty
298.15	1056.92	

System: 1-hexyl-3-methylimidazolium thiocyanate; phases: Liquid, Air at 1 atmosphere
Property: Viscosity, Pa*s (Liquid); method: Capillary tube (Ostwald; Ubbelohde) method
Temperature, K	Viscosity, Pa*s	uncertainty
298.15	.0936206	

System: water + 1-hexyl-3-methylimidazolium thiocyanate; phases: Liquid, Crystal
Fixed: Pressure, kPa = 101
Property: Solid-liquid equilibrium temperature, K (Liquid); method: Visual observation
Mole fraction of 1-hexyl-3-methylimidazolium thiocyanate	Solid-liquid equilibrium temperature, K	uncertainty
.295	235.03	.05
.2566	244.65	.05
.2089	254.95	.05
.1495	264.21	.05
.1088	268.46	.05
.0832	269.98	.05
.0566	271.13	.05
.0304	272.16	.05
.0005	272.9	.05
0	273.15	.05

System: hexane + 1-hexyl-3-methylimidazolium thiocyanate; phases: Liquid mixture 1, Liquid mixture 2
Fixed: Pressure, kPa = 101
Property: Liquid-liquid equilibrium temperature, K (Liquid mixture 1); method: Visual observation
Mole fraction of 1-hexyl-3-methylimidazolium thiocyanate	Liquid-liquid equilibrium temperature, K	uncertainty
.9755	286.58	.05
.9629	299.57	.05
.9529	308.27	.05
.9497	313.04	.05
.9477	316.31	.05
.9453	320.56	.05
.9444	321.08	.05
.9418	324.32	.05
.9397	329.93	.05
.9362	333.46	.05
.9288	341.09	.05
.9177	351.19	.05
.9061	359.36	.05
.8962	367.31	.05

System: heptane + 1-hexyl-3-methylimidazolium thiocyanate; phases: Liquid mixture 1, Liquid mixture 2
Fixed: Pressure, kPa = 101
Property: Liquid-liquid equilibrium temperature, K (Liquid mixture 1); method: Visual observation
Mole fraction of 1-hexyl-3-methylimidazolium thiocyanate	Liquid-liquid equilibrium temperature, K	uncertainty
.9839	282.64	.05
.9673	325.87	.05
.9535	348.62	.05
.9401	363.23	.05
.9279	376.01	.05
.914	395.03	.05
.9012	408.84	.05

System: octane + 1-hexyl-3-methylimidazolium thiocyanate; phases: Liquid mixture 1, Liquid mixture 2
Fixed: Pressure, kPa = 101
Property: Liquid-liquid equilibrium temperature, K (Liquid mixture 1); method: Visual observation
Mole fraction of 1-hexyl-3-methylimidazolium thiocyanate	Liquid-liquid equilibrium temperature, K	uncertainty
.9906	284.66	.05
.9843	302.25	.05
.982	310.06	.05
.9793	318.11	.05
.9732	331.36	.05
.9703	339.18	.05
.9676	359.17	.05
.9651	353.22	.05
.9537	377.54	.05
.9481	389.15	.05
.9402	402.32	.05

System: nonane + 1-hexyl-3-methylimidazolium thiocyanate; phases: Liquid mixture 1, Liquid mixture 2
Fixed: Pressure, kPa = 101
Property: Liquid-liquid equilibrium temperature, K (Liquid mixture 1); method: Visual observation
Mole fraction of 1-hexyl-3-methylimidazolium thiocyanate	Liquid-liquid equilibrium temperature, K	uncertainty
.9901	312.15	.05
.9866	341.85	.05
.9769	368.69	.05
.9684	396.43	.05
.9613	416.8	.05

System: decane + 1-hexyl-3-methylimidazolium thiocyanate; phases: Liquid mixture 1, Liquid mixture 2
Fixed: Pressure, kPa = 101
Property: Liquid-liquid equilibrium temperature, K (Liquid mixture 1); method: Visual observation
Mole fraction of 1-hexyl-3-methylimidazolium thiocyanate	Liquid-liquid equilibrium temperature, K	uncertainty
.9941	310.48	.05
.9903	328.24	.05
.9873	346.54	.05
.9829	369.28	.05
.9802	383.99	.05
.974	410.6	.05

System: benzene + 1-hexyl-3-methylimidazolium thiocyanate; phases: Liquid mixture 1, Liquid mixture 2
Fixed: Pressure, kPa = 101
Property: Liquid-liquid equilibrium temperature, K (Liquid mixture 1); method: Visual observation
Mole fraction of 1-hexyl-3-methylimidazolium thiocyanate	Liquid-liquid equilibrium temperature, K	uncertainty
.2824	346.31	.05
.2784	332.26	.05
.2734	319.3	.05
.2694	306.89	.05
.2643	294.71	.05
.2609	284.38	.05
.2598	279.18	.05

System: toluene + 1-hexyl-3-methylimidazolium thiocyanate; phases: Liquid mixture 1, Liquid mixture 2
Fixed: Pressure, kPa = 101
Property: Liquid-liquid equilibrium temperature, K (Liquid mixture 1); method: Visual observation
Mole fraction of 1-hexyl-3-methylimidazolium thiocyanate	Liquid-liquid equilibrium temperature, K	uncertainty
.4356	355.69	.05
.4184	313.71	.05
.4137	292.66	.05
.4092	282.13	.05
.4047	272.58	.05
.4003	267.67	.05
.396	262.92	.05
.392	259.64	.05
.388	255.92	.05
.3839	252.78	.05
.3799	248.91	.05
.3758	244.97	.05
.3719	240.07	.05
.3684	239.63	.05
.3648	236.77	.05
.3612	233.91	.05
.3576	229.58	.05
.3541	226.14	.05
.3509	221.76	.05

System: ethylbenzene + 1-hexyl-3-methylimidazolium thiocyanate; phases: Liquid mixture 1, Liquid mixture 2
Fixed: Pressure, kPa = 101
Property: Liquid-liquid equilibrium temperature, K (Liquid mixture 1); method: Visual observation
Mole fraction of 1-hexyl-3-methylimidazolium thiocyanate	Liquid-liquid equilibrium temperature, K	uncertainty
.5835	359.04	.05
.5662	332.71	.05
.5524	300.44	.05
.5398	272.72	.05
.531	261.02	.05
.5222	250.66	.05
.5161	242.08	.05
.5101	232.57	.05
.5033	227.04	.05
.4968	223.14	.05
.4867	220.92	.05
.479	219.23	.05
.4698	217.73	.05
.4642	216.32	.05
.4471	214.19	.05
.4305	211.7	.05

System: cyclohexane + 1-hexyl-3-methylimidazolium thiocyanate; phases: Liquid mixture 1, Liquid mixture 2
Fixed: Pressure, kPa = 101
Property: Liquid-liquid equilibrium temperature, K (Liquid mixture 1); method: Visual observation
Mole fraction of 1-hexyl-3-methylimidazolium thiocyanate	Liquid-liquid equilibrium temperature, K	uncertainty
.9727	289.15	.05
.9269	305.65	.05
.915	318.6	.05
.9022	332.52	.05
.8927	341.47	.05
.8817	354.73	.05
.8685	364.92	.05
.8553	373.08	.05
.8468	376.54	.05
.8346	380.77	.05
.8191	386.56	.05
.8012	392.79	.05
.7911	397.23	.05
.7815	400.29	.05
.7613	407.84	.05

System: cycloheptane + 1-hexyl-3-methylimidazolium thiocyanate; phases: Liquid mixture 1, Liquid mixture 2
Fixed: Pressure, kPa = 101
Property: Liquid-liquid equilibrium temperature, K (Liquid mixture 1); method: Visual observation
Mole fraction of 1-hexyl-3-methylimidazolium thiocyanate	Liquid-liquid equilibrium temperature, K	uncertainty
.9698	279.56	.05
.9573	291.9	.05
.9455	309.81	.05
.933	324.02	.05
.9203	342.32	.05
.9096	353.61	.05
.8995	367.33	.05
.8885	381.66	.05
.8755	397.02	.05
.864	411.06	.05
