Measured thermophysical data. Liquid-Liquid Equilibria in Binary Mixtures Containing Substituted Benzenes with Ionic Liquid 1-Ethyl-3-methylimidazolium Bis(trifluoromethylsulfonyl)imide
Source: J. Chem. Eng. Data, 2010, 10.1021/je9003614
Compound 1: toluene, C7H8
Compound 2: ethylbenzene, C8H10
Compound 3: propylbenzene, C9H12
Compound 4: 1,2-dimethylbenzene, C8H10
Compound 5: 1,3-dimethylbenzene, C8H10
Compound 6: 1,4-dimethylbenzene, C8H10
Compound 7: 1,2,3-trimethylbenzene, C9H12
Compound 8: 1,2,4-trimethylbenzene, C9H12
Compound 9: 1,3,5-trimethylbenzene, C9H12
Compound 10: 1-ethyl-3-methylimidazolium bis[(trifluoromethyl)sulfonyl]imide, C8H11F6N3O4S2

System: toluene + 1-ethyl-3-methylimidazolium bis[(trifluoromethyl)sulfonyl]imide; phases: Liquid mixture 1, Liquid
Fixed: Pressure, kPa = 101
Property: Mole fraction of toluene (Liquid mixture 1); method: volumetric method
Temperature, K	Mole fraction of toluene	uncertainty
297.7	.656	.002
314.2	.649	.002
334.2	.64	.003
353.1	.636	.003
372.9	.631	.002

System: toluene + 1-ethyl-3-methylimidazolium bis[(trifluoromethyl)sulfonyl]imide; phases: Liquid, Liquid mixture 1
Fixed: Pressure, kPa = 101
Property: Mole fraction of toluene (Liquid); method: volumetric method
Temperature, K	Mole fraction of toluene	uncertainty
297.7	1	.002
314.2	1	.002
334.2	1	.002
353.1	1	.002
372.9	1	.002

System: toluene + 1-ethyl-3-methylimidazolium bis[(trifluoromethyl)sulfonyl]imide; phases: Liquid mixture 1, Liquid
Fixed: Pressure, kPa = 101
Property: Molar volume, m3/mol (Liquid mixture 1); method: piezometer
Temperature, K	Molar volume, m3/mol	uncertainty
297.7	.0001557	.0000013
314.2	.0001588	.0000013
334.2	.0001626	.0000016
353.1	.0001647	.0000022
372.9	.0001679	.0000013

System: toluene + 1-ethyl-3-methylimidazolium bis[(trifluoromethyl)sulfonyl]imide; phases: Liquid, Liquid mixture 1
Fixed: Pressure, kPa = 101
Property: Molar volume, m3/mol (Liquid); method: piezometer
Temperature, K	Molar volume, m3/mol	uncertainty
297.7	.0001059	.0000005
314.2	.0001076	.0000005
334.2	.00011	.0000005
353.1	.0001126	.0000006
372.9	.0001157	.0000005

System: ethylbenzene + 1-ethyl-3-methylimidazolium bis[(trifluoromethyl)sulfonyl]imide; phases: Liquid mixture 1, Liquid
Fixed: Pressure, kPa = 101
Property: Mole fraction of ethylbenzene (Liquid mixture 1); method: volumetric method
Temperature, K	Mole fraction of ethylbenzene	uncertainty
293.4	.515	.004
314	.505	.003
333.9	.504	.003
353.1	.501	.003
373	.498	.003

System: ethylbenzene + 1-ethyl-3-methylimidazolium bis[(trifluoromethyl)sulfonyl]imide; phases: Liquid, Liquid mixture 1
Fixed: Pressure, kPa = 101
Property: Mole fraction of ethylbenzene (Liquid); method: volumetric method
Temperature, K	Mole fraction of ethylbenzene	uncertainty
293.4	1	.002
314	1	.002
333.9	1	.002
353.1	1	.002
373	1	.002

System: ethylbenzene + 1-ethyl-3-methylimidazolium bis[(trifluoromethyl)sulfonyl]imide; phases: Liquid mixture 1, Liquid
Fixed: Pressure, kPa = 101
Property: Molar volume, m3/mol (Liquid mixture 1); method: piezometer
Temperature, K	Molar volume, m3/mol	uncertainty
293.4	.000186	.0000016
314	.0001911	.0000018
333.9	.0001933	.0000015
353.1	.0001963	.0000014
373	.0001997	.0000014

System: ethylbenzene + 1-ethyl-3-methylimidazolium bis[(trifluoromethyl)sulfonyl]imide; phases: Liquid, Liquid mixture 1
Fixed: Pressure, kPa = 101
Property: Molar volume, m3/mol (Liquid); method: piezometer
Temperature, K	Molar volume, m3/mol	uncertainty
293.4	.0001214	.0000006
314	.0001237	.0000006
333.9	.0001265	.0000008
353.1	.0001291	.0000006
373	.0001317	.0000006

System: propylbenzene + 1-ethyl-3-methylimidazolium bis[(trifluoromethyl)sulfonyl]imide; phases: Liquid mixture 1, Liquid
Fixed: Pressure, kPa = 101
Property: Mole fraction of propylbenzene (Liquid mixture 1); method: volumetric method
Temperature, K	Mole fraction of propylbenzene	uncertainty
293.1	.361	.004
313.9	.357	.004
333.9	.351	.004
353.1	.349	.005
373	.348	.005

System: propylbenzene + 1-ethyl-3-methylimidazolium bis[(trifluoromethyl)sulfonyl]imide; phases: Liquid, Liquid mixture 1
Fixed: Pressure, kPa = 101
Property: Mole fraction of propylbenzene (Liquid); method: volumetric method
Temperature, K	Mole fraction of propylbenzene	uncertainty
293.1	1	.002
313.9	1	.002
333.9	1	.002
353.1	1	.002
373	1	.002

System: propylbenzene + 1-ethyl-3-methylimidazolium bis[(trifluoromethyl)sulfonyl]imide; phases: Liquid mixture 1, Liquid
Fixed: Pressure, kPa = 101
Property: Molar volume, m3/mol (Liquid mixture 1); method: piezometer
Temperature, K	Molar volume, m3/mol	uncertainty
293.1	.000212	.0000012
313.9	.0002157	.0000012
333.9	.0002214	.0000012
353.1	.0002252	.0000029
373	.0002294	.0000029

System: propylbenzene + 1-ethyl-3-methylimidazolium bis[(trifluoromethyl)sulfonyl]imide; phases: Liquid, Liquid mixture 1
Fixed: Pressure, kPa = 101
Property: Molar volume, m3/mol (Liquid); method: piezometer
Temperature, K	Molar volume, m3/mol	uncertainty
293.1	.0001382	.0000006
313.9	.0001411	.0000007
333.9	.000144	.0000007
353.1	.0001475	.0000007
373	.0001502	.0000007

System: 1,2-dimethylbenzene + 1-ethyl-3-methylimidazolium bis[(trifluoromethyl)sulfonyl]imide; phases: Liquid mixture 1, Liquid
Fixed: Pressure, kPa = 101
Property: Mole fraction of 1,2-dimethylbenzene (Liquid mixture 1); method: volumetric method
Temperature, K	Mole fraction of 1,2-dimethylbenzene	uncertainty
297.7	.556	.005
314.2	.549	.005
334.2	.548	.005
353.1	.544	.008
372.9	.539	.008

System: 1,2-dimethylbenzene + 1-ethyl-3-methylimidazolium bis[(trifluoromethyl)sulfonyl]imide; phases: Liquid, Liquid mixture 1
Fixed: Pressure, kPa = 101
Property: Mole fraction of 1,2-dimethylbenzene (Liquid); method: volumetric method
Temperature, K	Mole fraction of 1,2-dimethylbenzene	uncertainty
297.7	1	.002
314.2	1	.002
334.2	1	.002
353.1	1	.002
372.9	1	.002

System: 1,2-dimethylbenzene + 1-ethyl-3-methylimidazolium bis[(trifluoromethyl)sulfonyl]imide; phases: Liquid mixture 1, Liquid
Fixed: Pressure, kPa = 101
Property: Molar volume, m3/mol (Liquid mixture 1); method: piezometer
Temperature, K	Molar volume, m3/mol	uncertainty
297.7	.0001771	.0000017
314.2	.0001801	.0000016
334.2	.0001826	.0000018
353.1	.0001877	.0000018
372.9	.0001915	.0000019

System: 1,2-dimethylbenzene + 1-ethyl-3-methylimidazolium bis[(trifluoromethyl)sulfonyl]imide; phases: Liquid, Liquid mixture 1
Fixed: Pressure, kPa = 101
Property: Molar volume, m3/mol (Liquid); method: piezometer
Temperature, K	Molar volume, m3/mol	uncertainty
297.7	.000121	.0000011
314.2	.0001227	.0000011
334.2	.0001252	.000001
353.1	.0001277	.0000014
372.9	.0001305	.0000014

System: 1,3-dimethylbenzene + 1-ethyl-3-methylimidazolium bis[(trifluoromethyl)sulfonyl]imide; phases: Liquid mixture 1, Liquid
Fixed: Pressure, kPa = 101
Property: Mole fraction of 1,3-dimethylbenzene (Liquid mixture 1); method: volumetric method
Temperature, K	Mole fraction of 1,3-dimethylbenzene	uncertainty
297.7	.502	.005
314.2	.498	.005
334.2	.493	.005
353.1	.483	.005
372.9	.481	.01

System: 1,3-dimethylbenzene + 1-ethyl-3-methylimidazolium bis[(trifluoromethyl)sulfonyl]imide; phases: Liquid, Liquid mixture 1
Fixed: Pressure, kPa = 101
Property: Mole fraction of 1,3-dimethylbenzene (Liquid); method: volumetric method
Temperature, K	Mole fraction of 1,3-dimethylbenzene	uncertainty
297.7	1	.002
314.2	1	.002
334.2	1	.002
353.1	1	.002
372.9	1	.002

System: 1,3-dimethylbenzene + 1-ethyl-3-methylimidazolium bis[(trifluoromethyl)sulfonyl]imide; phases: Liquid mixture 1, Liquid
Fixed: Pressure, kPa = 101
Property: Molar volume, m3/mol (Liquid mixture 1); method: piezometer
Temperature, K	Molar volume, m3/mol	uncertainty
297.7	.0001866	.0000019
314.2	.0001887	.0000012
334.2	.0001922	.000001
353.1	.0001971	.0000019
372.9	.0002005	.000002

System: 1,3-dimethylbenzene + 1-ethyl-3-methylimidazolium bis[(trifluoromethyl)sulfonyl]imide; phases: Liquid, Liquid mixture 1
Fixed: Pressure, kPa = 101
Property: Molar volume, m3/mol (Liquid); method: piezometer
Temperature, K	Molar volume, m3/mol	uncertainty
297.7	.0001223	.0000011
314.2	.0001245	.0000013
334.2	.0001272	.0000015
353.1	.0001304	.0000021
372.9	.0001328	.000002

System: 1,4-dimethylbenzene + 1-ethyl-3-methylimidazolium bis[(trifluoromethyl)sulfonyl]imide; phases: Liquid mixture 1, Liquid
Fixed: Pressure, kPa = 101
Property: Mole fraction of 1,4-dimethylbenzene (Liquid mixture 1); method: volumetric method
Temperature, K	Mole fraction of 1,4-dimethylbenzene	uncertainty
297.7	.491	.005
314.2	.486	.005
334.2	.48	.006
353.1	.476	.011
372.9	.475	.011

System: 1,4-dimethylbenzene + 1-ethyl-3-methylimidazolium bis[(trifluoromethyl)sulfonyl]imide; phases: Liquid, Liquid mixture 1
Fixed: Pressure, kPa = 101
Property: Mole fraction of 1,4-dimethylbenzene (Liquid); method: volumetric method
Temperature, K	Mole fraction of 1,4-dimethylbenzene	uncertainty
297.7	1	.002
314.2	1	.002
334.2	1	.002
353.1	1	.002
372.9	1	.002

System: 1,4-dimethylbenzene + 1-ethyl-3-methylimidazolium bis[(trifluoromethyl)sulfonyl]imide; phases: Liquid mixture 1, Liquid
Fixed: Pressure, kPa = 101
Property: Molar volume, m3/mol (Liquid mixture 1); method: piezometer
Temperature, K	Molar volume, m3/mol	uncertainty
297.7	.0001917	.000002
314.2	.0001947	.000002
334.2	.0001984	.0000021
353.1	.0002013	.0000022
372.9	.0002035	.0000026

System: 1,4-dimethylbenzene + 1-ethyl-3-methylimidazolium bis[(trifluoromethyl)sulfonyl]imide; phases: Liquid, Liquid mixture 1
Fixed: Pressure, kPa = 101
Property: Molar volume, m3/mol (Liquid); method: piezometer
Temperature, K	Molar volume, m3/mol	uncertainty
297.7	.0001235	.0000012
314.2	.0001257	.0000012
334.2	.0001284	.0000012
353.1	.0001316	.0000014
372.9	.0001344	.0000015

System: 1,2,3-trimethylbenzene + 1-ethyl-3-methylimidazolium bis[(trifluoromethyl)sulfonyl]imide; phases: Liquid mixture 1, Liquid
Fixed: Pressure, kPa = 101
Property: Mole fraction of 1,2,3-trimethylbenzene (Liquid mixture 1); method: volumetric method
Temperature, K	Mole fraction of 1,2,3-trimethylbenzene	uncertainty
292.7	.424	.006
314.1	.413	.006
334	.415	.006
353.1	.421	.008
373	.419	.008

System: 1,2,3-trimethylbenzene + 1-ethyl-3-methylimidazolium bis[(trifluoromethyl)sulfonyl]imide; phases: Liquid, Liquid mixture 1
Fixed: Pressure, kPa = 101
Property: Mole fraction of 1,2,3-trimethylbenzene (Liquid); method: volumetric method
Temperature, K	Mole fraction of 1,2,3-trimethylbenzene	uncertainty
292.7	1	.002
314.1	1	.002
334	1	.002
353.1	1	.002
373	1	.002

System: 1,2,3-trimethylbenzene + 1-ethyl-3-methylimidazolium bis[(trifluoromethyl)sulfonyl]imide; phases: Liquid mixture 1, Liquid
Fixed: Pressure, kPa = 101
Property: Molar volume, m3/mol (Liquid mixture 1); method: piezometer
Temperature, K	Molar volume, m3/mol	uncertainty
292.7	.0002	.0000019
314.1	.0002046	.0000015
334	.0002061	.0000014
353.1	.0002077	.0000016
373	.0002121	.0000016

System: 1,2,3-trimethylbenzene + 1-ethyl-3-methylimidazolium bis[(trifluoromethyl)sulfonyl]imide; phases: Liquid, Liquid mixture 1
Fixed: Pressure, kPa = 101
Property: Molar volume, m3/mol (Liquid); method: piezometer
Temperature, K	Molar volume, m3/mol	uncertainty
292.7	.0001337	.0000007
314.1	.0001361	.0000007
334	.0001394	.0000007
353.1	.000142	.0000008
373	.0001443	.0000008

System: 1,2,4-trimethylbenzene + 1-ethyl-3-methylimidazolium bis[(trifluoromethyl)sulfonyl]imide; phases: Liquid mixture 1, Liquid
Fixed: Pressure, kPa = 101
Property: Mole fraction of 1,2,4-trimethylbenzene (Liquid mixture 1); method: volumetric method
Temperature, K	Mole fraction of 1,2,4-trimethylbenzene	uncertainty
293.8	.362	.005
313.9	.355	.007
333.7	.352	.007
353.1	.359	.007
373	.36	.007

System: 1,2,4-trimethylbenzene + 1-ethyl-3-methylimidazolium bis[(trifluoromethyl)sulfonyl]imide; phases: Liquid, Liquid mixture 1
Fixed: Pressure, kPa = 101
Property: Mole fraction of 1,2,4-trimethylbenzene (Liquid); method: volumetric method
Temperature, K	Mole fraction of 1,2,4-trimethylbenzene	uncertainty
293.8	1	.002
313.9	1	.002
333.7	1	.002
353.1	1	.002
373	1	.002

System: 1,2,4-trimethylbenzene + 1-ethyl-3-methylimidazolium bis[(trifluoromethyl)sulfonyl]imide; phases: Liquid mixture 1, Liquid
Fixed: Pressure, kPa = 101
Property: Molar volume, m3/mol (Liquid mixture 1); method: piezometer
Temperature, K	Molar volume, m3/mol	uncertainty
293.8	.0002137	.0000015
313.9	.0002174	.0000015
333.7	.00022	.0000016
353.1	.0002216	.0000017
373	.0002253	.0000016

System: 1,2,4-trimethylbenzene + 1-ethyl-3-methylimidazolium bis[(trifluoromethyl)sulfonyl]imide; phases: Liquid, Liquid mixture 1
Fixed: Pressure, kPa = 101
Property: Molar volume, m3/mol (Liquid); method: piezometer
Temperature, K	Molar volume, m3/mol	uncertainty
293.8	.0001362	.0000007
313.9	.0001388	.0000007
333.7	.0001415	.0000007
353.1	.000144	.0000008
373	.0001469	.0000008

System: 1,3,5-trimethylbenzene + 1-ethyl-3-methylimidazolium bis[(trifluoromethyl)sulfonyl]imide; phases: Liquid mixture 1, Liquid
Fixed: Pressure, kPa = 101
Property: Mole fraction of 1,3,5-trimethylbenzene (Liquid mixture 1); method: volumetric method
Temperature, K	Mole fraction of 1,3,5-trimethylbenzene	uncertainty
292.7	.305	.007
314.1	.307	.007
334	.317	.007
353.1	.319	.007
373	.323	.007

System: 1,3,5-trimethylbenzene + 1-ethyl-3-methylimidazolium bis[(trifluoromethyl)sulfonyl]imide; phases: Liquid, Liquid mixture 1
Fixed: Pressure, kPa = 101
Property: Mole fraction of 1,3,5-trimethylbenzene (Liquid); method: volumetric method
Temperature, K	Mole fraction of 1,3,5-trimethylbenzene	uncertainty
292.7	1	.002
314.1	1	.002
334	1	.002
353.1	1	.002
373	1	.002

System: 1,3,5-trimethylbenzene + 1-ethyl-3-methylimidazolium bis[(trifluoromethyl)sulfonyl]imide; phases: Liquid mixture 1, Liquid
Fixed: Pressure, kPa = 101
Property: Molar volume, m3/mol (Liquid mixture 1); method: piezometer
Temperature, K	Molar volume, m3/mol	uncertainty
292.7	.0002209	.0000019
314.1	.0002232	.0000022
334	.0002255	.0000016
353.1	.0002281	.0000021
373	.0002297	.0000016

System: 1,3,5-trimethylbenzene + 1-ethyl-3-methylimidazolium bis[(trifluoromethyl)sulfonyl]imide; phases: Liquid, Liquid mixture 1
Fixed: Pressure, kPa = 101
Property: Molar volume, m3/mol (Liquid); method: piezometer
Temperature, K	Molar volume, m3/mol	uncertainty
292.7	.0001372	.0000007
314.1	.0001403	.0000007
334	.0001437	.0000007
353.1	.0001463	.0000008
373	.0001492	.0000008
