Measured thermophysical data. Thermal Properties of Ionic Liquids and IoNanofluids of Imidazolium and Pyrrolidinium Liquids
Source: J. Chem. Eng. Data, 2010, 10.1021/je900648p
Compound 1: 1-hexyl-3-methylimidazolium tetrafluoroborate, C10H19BF4N2
Compound 2: 1-n-butyl-3-methylimidazolium hexafluorophosphate, C8H15F6N2P
Compound 3: 1-hexyl-3-methylimidazolium hexafluorophosphate, C10H19F6N2P
Compound 4: 1-butyl-3-methylimidazolium trifluoromethanesulfonate, C9H15F3N2O3S
Compound 5: 1-butyl-1-methylpyrrolidinium bis[(trifluoromethyl)sulfonyl]imide, C11H20F6N2O4S2

System: 1-hexyl-3-methylimidazolium tetrafluoroborate; phases: Liquid
Fixed: Pressure, kPa = 101.325
Property: Thermal conductivity, W/m/K (Liquid); method: Hot wire method
Temperature, K	Thermal conductivity, W/m/K	uncertainty
293	.158	.005
303	.157	.005
313	.156	.005
323	.155	.005
333	.153	.005
343	.152	.005
353	.151	.005

System: 1-n-butyl-3-methylimidazolium hexafluorophosphate; phases: Liquid
Fixed: Pressure, kPa = 101.325
Property: Molar heat capacity at constant pressure, J/K/mol (Liquid); method: Small sample (50 mg) DSC
Temperature, K	Molar heat capacity at constant pressure, J/K/mol	uncertainty
308.16	367.26	
313.16	367.64	
318.16	370.39	
323.16	371.89	
328.22	373.73	
333.22	375.92	
338.19	377.15	
343.18	380.16	
348.25	382.69	
353.18	384.8	
358.25	386.99	
363.18	389.18	
368.17	390	
373.21	390.04	
378.2	392.18	
383.17	393.64	
388.2	395.28	
393.17	396.49	
398.2	397.93	
403.2	400.74	
408.16	403.88	
413.19	403.49	
418.19	404.98	
423.22	406.62	

System: 1-n-butyl-3-methylimidazolium hexafluorophosphate; phases: Liquid
Fixed: Pressure, kPa = 101.325
Property: Thermal conductivity, W/m/K (Liquid); method: Hot wire method
Temperature, K	Thermal conductivity, W/m/K	uncertainty
293	.145	.005
303	.145	.005
313	.145	.005
323	.144	.005
333	.143	.005
343	.143	.005
353	.143	.005

System: 1-hexyl-3-methylimidazolium hexafluorophosphate; phases: Liquid
Fixed: Pressure, kPa = 101.325
Property: Thermal conductivity, W/m/K (Liquid); method: Hot wire method
Temperature, K	Thermal conductivity, W/m/K	uncertainty
293	.142	.005
303	.141	.005
313	.141	.005
323	.139	.005
333	.139	.005
343	.138	.005
353	.138	.005

System: 1-butyl-3-methylimidazolium trifluoromethanesulfonate; phases: Liquid
Fixed: Pressure, kPa = 101.325
Property: Molar heat capacity at constant pressure, J/K/mol (Liquid); method: Small sample (50 mg) DSC
Temperature, K	Molar heat capacity at constant pressure, J/K/mol	uncertainty
308.16	410.64	
313.16	413.48	
318.16	417.74	
323.16	422.01	
328.22	423.43	
333.22	426.27	
338.19	429.11	
343.18	433.37	
348.25	436.22	
353.18	439.06	
358.25	441.9	
363.18	443.32	
368.17	444.74	
373.21	447.58	
378.2	450.43	
383.17	454.69	
388.2	457.53	
393.17	460.37	
398.2	463.21	
403.2	468.9	
408.16	470.32	
413.19	471.74	
418.19	473.16	
423.22	474.58	

System: 1-butyl-3-methylimidazolium trifluoromethanesulfonate; phases: Liquid
Fixed: Pressure, kPa = 101.325
Property: Thermal conductivity, W/m/K (Liquid); method: Hot wire method
Temperature, K	Thermal conductivity, W/m/K	uncertainty
293	.142	.005
303	.141	.005
313	.14	.005
323	.139	.005
333	.139	.005
343	.138	.005
353	.138	.005

System: 1-butyl-1-methylpyrrolidinium bis[(trifluoromethyl)sulfonyl]imide; phases: Liquid
Fixed: Pressure, kPa = 101.325
Property: Thermal conductivity, W/m/K (Liquid); method: Hot wire method
Temperature, K	Thermal conductivity, W/m/K	uncertainty
293	.118	.005
303	.118	.005
313	.118	.005
323	.117	.005
333	.117	.005
