Measured thermophysical data. Solubility of SO2 in Caprolactam Tetrabutyl Ammonium Bromide Ionic Liquids
Source: J. Chem. Eng. Data, 2010, 10.1021/je900565e
Compound 1: 6-aminohexanoic acid, .epsilon.-lactam, C6H11NO
Compound 2: tetrabutylammonium bromide, C16H36BrN
Compound 3: sulfur dioxide, O2S

System: 6-aminohexanoic acid, .epsilon.-lactam + tetrabutylammonium bromide + sulfur dioxide; phases: Liquid, Gas
Fixed: Pressure, kPa = 101
Property: Amount ratio of solute to solvent of sulfur dioxide (Liquid); method: Mass Balance
Solvent: Amount ratio of component to other component of binary solvent of 6-aminohexanoic acid, .epsilon.-lactam	Temperature, K	Amount ratio of solute to solvent of sulfur dioxide	uncertainty
1	298.2	6.8	.204
1	318.2	6.12	.1836
1	338.2	5.35	.1605
1	358.2	4.63	.1389
1	378.2	4.08	.1224
1	398.2	3.67	.1101
1	303.2	6.61	.1983
1	323.2	5.96	.1788
1	343.2	5.1	.153
1	363.2	4.49	.1347
1	383.2	3.97	.1191
1	403.2	3.51	.1053
1	308.2	6.48	.1944
1	328.2	5.67	.1701
1	348.2	4.95	.1485
1	368.2	4.34	.1302
1	388.2	3.9	.117
1	313.2	6.31	.1893
1	333.2	5.52	.1656
1	353.2	4.81	.1443
1	373.2	4.2	.126
1	393.2	3.78	.1134
2	298.2	6.54	.1962
2	318.2	5.5	.165
2	343.2	4.54	.1362
2	368.2	3.97	.1191
2	388.2	3.46	.1038
2	303.2	6.11	.1833
2	323.2	5.38	.1614
2	348.2	4.44	.1332
2	373.2	3.77	.1131
2	393.2	3.35	.1005
2	308.2	5.88	.1764
2	333.2	5.05	.1515
2	353.2	4.23	.1269
2	378.2	3.7	.111
2	398.2	3.17	.0951
2	313.2	5.62	.1686
2	338.2	4.7	.141
2	363.2	4.02	.1206
2	383.2	3.55	.1065
2	403.2	3.06	.0918
3	303.2	5.92	.1776
3	323.2	5.08	.1524
3	343.2	4.3	.129
3	368.2	3.4	.102
3	393.2	2.86	.0858
3	413.2	2.54	.0762
3	308.2	5.77	.1731
3	328.2	4.87	.1461
3	353.2	3.92	.1176
3	373.2	3.3	.099
3	398.2	2.78	.0834
3	418.2	2.43	.0729
3	313.2	5.56	.1668
3	333.2	4.68	.1404
3	358.2	3.71	.1113
3	383.2	3.06	.0918
3	403.2	2.69	.0807
3	318.2	5.35	.1605
3	338.2	4.47	.1341
3	363.2	3.54	.1062
3	388.2	2.92	.0876
3	408.2	2.64	.0792
4	303.2	5.71	.1713
4	323.2	4.82	.1446
4	343.2	4	.12
4	363.2	3.29	.0987
4	383.2	2.71	.0813
4	308.2	5.59	.1677
4	328.2	4.57	.1371
4	348.2	3.76	.1128
4	368.2	3.1	.093
4	388.2	2.63	.0789
4	313.2	5.33	.1599
4	333.2	4.37	.1311
4	353.2	3.61	.1083
4	373.2	2.95	.0885
4	393.2	2.54	.0762
4	318.2	5.1	.153
4	338.2	4.13	.1239
4	358.2	3.42	.1026
4	378.2	2.83	.0849
4	413.2	2.25	.0675
5	308.2	5.51	.1653
5	328.2	4.57	.1371
5	348.2	3.77	.1131
5	368.2	3.28	.0984
5	388.2	2.6	.078
5	408.2	2.32	.0696
5	313.2	5.33	.1599
5	333.2	4.36	.1308
5	353.2	3.67	.1101
5	373.2	2.89	.0867
5	393.2	2.5	.075
5	413.2	2.1	.063
5	318.2	5.14	.1542
5	338.2	4.35	.1305
5	358.2	3.64	.1092
5	378.2	2.84	.0852
5	398.2	2.42	.0726
5	418.2	2.01	.0603
5	323.2	4.75	.1425
5	343.2	3.87	.1161
5	363.2	3.27	.0981
5	383.2	2.84	.0852
5	403.2	2.32	.0696
5	423.2	1.99	.0597
6	333.2	4.05	.1215
6	353.2	3.33	.0999
6	373.2	2.53	.0759
6	393.2	1.94	.0582
6	413.2	1.75	.0525
6	338.2	3.89	.1167
6	358.2	3.08	.0924
6	378.2	2.4	.072
6	398.2	1.98	.0594
6	418.2	1.69	.0507
6	343.2	3.82	.1146
6	363.2	2.89	.0867
6	383.2	2.38	.0714
6	403.2	1.91	.0573
6	423.2	1.6	.048
6	348.2	3.4	.102
6	368.2	2.7	.081
6	388.2	2.17	.0651
6	408.2	1.85	.0555
7	338.2	3.79	.1137
7	358.2	2.95	.0885
7	378.2	2.36	.0708
7	398.2	1.89	.0567
7	418.2	1.61	.0483
7	343.2	3.6	.108
7	363.2	2.75	.0825
7	383.2	2.31	.0693
7	403.2	1.83	.0549
7	348.2	3.54	.1062
7	368.2	2.65	.0795
7	388.2	2.1	.063
7	408.2	1.75	.0525
7	353.2	3.16	.0948
7	373.2	2.51	.0753
7	393.2	2.01	.0603
7	413.2	1.69	.0507
9	343.2	3.42	.1026
9	363.2	3.01	.0903
9	383.2	2.3	.069
9	403.2	1.87	.0561
9	348.2	3.38	.1014
9	368.2	2.97	.0891
9	388.2	2.2	.066
9	408.2	1.8	.054
9	353.2	3.34	.1002
9	373.2	2.64	.0792
9	393.2	2.07	.0621
9	413.2	1.7	.051
9	358.2	3.2	.096
9	378.2	2.47	.0741
9	398.2	2.03	.0609
