Measured thermophysical data. Heat Capacity and Standard Thermodynamic Functions of a Fullerene Complex, ((CH3)3Si)12C60, over the Range from T ? 0 K to T = 350 K
Source: J. Chem. Eng. Data, 2010, 10.1021/je900489g
Compound 1: dodecahydrododecakis(trimethylsilyl)-[5,6]fullerene-C60-Ih, C96H108Si12, purity 99.98%

System: dodecahydrododecakis(trimethylsilyl)-[5,6]fullerene-C60-Ih; phases: Crystal
Fixed: Pressure, kPa = 101.325
Property: Molar heat capacity at constant pressure, J/K/mol (Crystal); method: Vacuum adiabatic calorimetry
Temperature, K	Molar heat capacity at constant pressure, J/K/mol	uncertainty
5	3.2	2
10	23.9	2
15	60.7	2
20	94.49	.5
30	155.5	.5
40	224.5	.2
50	284.6	.2
60	340.5	.2
80	457.9	.2
90	506.5	.2
100	556.5	.2
110	613.6	.2
120	665.5	.2
130	717.4	.2
140	770.5	.2
150	824.8	.2
160	880	.2
170	935.8	.2
180	992.4	.2
190	1050	.2
200	1109	.2
210	1169	.2
220	1231	.2
230	1295	.2
240	1360	.2
250	1426	.2
260	1492	.2
270	1556	.2
280	1617	.2
290	1676	.2
298.15	1722	.2
300	1732	.2
310	1786	.2
320	1839	.2
330	1892	.2
340	1947	.2
350	2004	.2

System: dodecahydrododecakis(trimethylsilyl)-[5,6]fullerene-C60-Ih; phases: Crystal
Fixed: Pressure, kPa = 101.325
Property: Molar enthalpy, kJ/mol (Crystal); method: Vacuum adiabatic calorimetry
Temperature, K	Molar enthalpy, kJ/mol	uncertainty
5	.004	.000008
10	.0627	.0001254
15	.2737	.0005474
20	.6619	.0013238
30	1.908	.003816
40	3.908	.007816
50	6.364	.012728
60	9.488	.018976
80	17.49	.03498
90	22.32	.04464
100	27.64	.05528
110	33.5	.067
120	39.89	.07978
130	46.81	.09362
140	54.24	.10848
150	62.22	.12444
160	70.74	.14148
170	79.82	.15964
180	89.46	.17892
190	99.67	.19934
200	110.5	.221
210	121.8	.2436
220	133.8	.2676
230	146.5	.293
240	159.8	.3196
250	173.7	.3474
260	188.3	.3766
270	203.5	.407
280	219.4	.4388
290	235.9	.4718
298.15	249.7	.4994
300	252.9	.5058
310	270.5	.541
320	288.6	.5772
330	307.3	.6146
340	326.5	.653
350	346.2	.6924

System: dodecahydrododecakis(trimethylsilyl)-[5,6]fullerene-C60-Ih; phases: Crystal
Fixed: Pressure, kPa = 101.325
Property: Molar entropy, J/K/mol (Crystal); method: Vacuum adiabatic calorimetry
Temperature, K	Molar entropy, J/K/mol	uncertainty
5	1.07	
10	8.34	
15	25	
20	47.06	
30	96.79	
40	151	
50	207.8	
60	264.6	
80	378.9	
90	435.7	
100	491.6	
110	547.4	
120	603.1	
130	658.4	
140	713.5	
150	768.5	
160	823.5	
170	878.5	
180	933.6	
190	988.8	
200	1044	
210	1100	
220	1155	
230	1212	
240	1268	
250	1325	
260	1382	
270	1440	
280	1497	
290	1555	
298.15	1602	
300	1613	
310	1671	
320	1728	
330	1786	
340	1843	
350	1900	

System: dodecahydrododecakis(trimethylsilyl)-[5,6]fullerene-C60-Ih; phases: Crystal
Fixed: Pressure, kPa = 101.325
Property: Molar heat capacity at constant pressure, J/K/mol (Crystal); method: Vacuum adiabatic calorimetry
Temperature, K	Molar heat capacity at constant pressure, J/K/mol	uncertainty
6.48	6.34	2
6.71	7.2	2
6.93	8.2	2
7.05	8.5	2
7.13	8.94	2
7.27	9.51	2
7.39	10.1	2
7.47	10.5	2
7.55	10.8	2
7.65	11.2	2
7.74	11.7	2
7.84	12.1	2
7.94	12.8	2
8.04	13.1	2
8.15	13.7	2
8.19	13.8	2
8.34	14.6	2
8.38	14.8	2
8.47	15.3	2
8.59	15.8	2
8.71	16.7	2
8.85	17.1	2
9.02	18.1	2
9.21	19.2	2
9.41	20.3	2
9.64	21.7	2
9.9	23.2	2
10.17	25.3	2
10.48	27.2	2
10.81	29.2	2
11.18	32.3	2
11.59	35.5	2
12.07	39.1	2
13.2	47.3	2
14.69	59.28	2
16.23	68.7	.5
17.84	80	.5
19.52	91.3	.5
22.36	108.7	.5
25.09	125.7	.5
27.72	142.6	.5
30.36	159.1	.5
32.95	175.8	.5
35.35	193.6	.5
38.09	212.5	.5
41.17	232.1	.2
43.22	245	.2
45.77	259.6	.2
48.32	274.9	.2
50.86	290.4	.2
53.61	305.1	.2
55.93	318.2	.2
58.47	331.1	.2
61.02	346.1	.2
63.19	359	.2
66.18	376.1	.2
68.69	392.4	.2
71.63	412	.2
73.74	425	.2
76.27	437.9	.2
78.79	450.3	.2
81.32	464.2	.2
83.85	477.4	.2
84.07	477.8	.2
85.53	483.2	.2
86.36	490	.2
87.2	492.5	.2
88.88	502.9	.2
90.56	509.7	.2
91.4	514.4	.2
93.92	524.9	.2
97.33	543.6	.2
100.43	558.5	.2
103.54	578.2	.2
106.65	594.3	.2
109.77	613.7	.2
112.87	629.8	.2
115.97	644.2	.2
119.08	662.1	.2
122.17	675.5	.2
125.26	691.7	.2
128.35	707.9	.2
131.43	726.1	.2
134.51	740.2	.2
137.58	756.7	.2
140.74	774.3	.2
143.81	791.4	.2
146.88	810	.2
149.94	826	.2
152.98	844	.2
156.03	858.6	.2
159.08	875.3	.2
162.13	894	.2
165.16	907.2	.2
168.19	922.2	.2
171.21	939.6	.2
174.23	957.7	.2
177.25	976.4	.2
192.31	1065	.2
195.3	1080	.2
198.82	1103	.2
202.33	1121	.2
205.3	1144	.2
208.28	1159	.2
211.24	1180	.2
214.21	1192	.2
217.17	1213	.2
220.12	1233	.2
223.07	1254	.2
226.01	1271	.2
228.96	1289	.2
231.89	1308	.2
234.82	1327	.2
237.74	1345	.2
240.66	1364	.2
243.58	1380	.2
247.3	1405	.2
250	1426	.2
252.89	1442	.2
256.3	1468	.2
258.66	1484	.2
261.53	1499	.2
264.4	1518	.2
267.26	1539	.2
270.1	1561	.2
272.95	1575	.2
275.78	1594	.2
289.68	1676	.2
292.45	1690	.2
294.9	1703	.2
297.95	1720	.2
300.67	1737	.2
303.37	1752	.2
306.01	1766	.2
308.63	1781	.2
311.22	1793	.2
313.77	1805	.2
316.26	1817	.2
318.73	1829	.2
321.17	1842	.2
323.53	1855	.2
325.89	1869	.2
327.8	1880	.2
330.08	1893	.2
332.31	1908	.2
334.54	1918	.2
336.78	1931	.2
339.23	1944	.2
341.66	1957	.2
344	1970	.2
346.34	1983	.2
348.79	1995	.2
