Measured thermophysical data. Thermophysical Properties of 1-Propyronitrile-3-alkylimidazolium Bromide Ionic Liquids at Temperatures from (293.15 to 353.15) K
Source: J. Chem. Eng. Data, 2010, 10.1021/je901050v
Compound 1: 1-propyronitrile-3-butylimidazolium bromide, C10H16N3Br
Compound 2: 1-propyronitrile-3-hexylimidazolium bromide, C12H20N3Br
Compound 3: 1-propyronitrile-3-octylimidazolium bromide, C14H24N3Br
Compound 4: 1-propyronitrile-3-decylimidazolium bromide, C16H28N3Br

System: 1-propyronitrile-3-butylimidazolium bromide; phases: Liquid
Fixed: Pressure, kPa = 101.325
Property: Mass density, kg/m3 (Liquid); method: Vibrating tube method
Temperature, K	Mass density, kg/m3	uncertainty
293.15	1308.5	.5
298.15	1304.7	.5
303.15	1301.1	.5
308.15	1297.7	.5
313.15	1294.3	.5
318.15	1291	.5
323.15	1287.6	.5
328.15	1284.4	.5
333.15	1281.2	.5
338.15	1277.9	.5
343.15	1274.7	.5
348.15	1271.4	.5
353.15	1268.2	.5

System: 1-propyronitrile-3-butylimidazolium bromide; phases: Liquid
Fixed: Pressure, kPa = 101.325
Property: Viscosity, Pa*s (Liquid); method: Concentric cylinders viscometry
Temperature, K	Viscosity, Pa*s	uncertainty
298.15	19.103	.0668605
303.15	11.304	.039564
308.15	7.0584	.0247044
313.15	4.5021	.01575735
318.15	2.953	.0103355
323.15	1.9897	.00696395
328.15	1.3775	.00482125
333.15	.9756	.0034146
338.15	.7058	.0024703
343.15	.5205	.00182175
348.15	.3907	.00136745
353.15	.2981	.00104335

System: 1-propyronitrile-3-butylimidazolium bromide; phases: Liquid
Fixed: Pressure, kPa = 101.325
Property: Refractive index (Na D-line) (Liquid); method: Standard Abbe refractometry
Temperature, K	Refractive index (Na D-line)	uncertainty
298.15	1.5454	.00004
303.15	1.54454	.00004
308.15	1.54346	.00004
313.15	1.54229	.00004
318.15	1.54111	.00004
323.15	1.53992	.00004
328.15	1.53869	.00004
333.15	1.53748	.00004

System: 1-propyronitrile-3-hexylimidazolium bromide; phases: Liquid
Fixed: Pressure, kPa = 101.325
Property: Mass density, kg/m3 (Liquid); method: Vibrating tube method
Temperature, K	Mass density, kg/m3	uncertainty
293.15	1232.4	.5
298.15	1229	.5
303.15	1225.6	.5
308.15	1222.3	.5
313.15	1219	.5
318.15	1215.7	.5
323.15	1212.4	.5
328.15	1209.1	.5
333.15	1205.8	.5
338.15	1202.5	.5
343.15	1199.2	.5
348.15	1195.9	.5
353.15	1192.7	.5

System: 1-propyronitrile-3-hexylimidazolium bromide; phases: Liquid
Fixed: Pressure, kPa = 101.325
Property: Viscosity, Pa*s (Liquid); method: Concentric cylinders viscometry
Temperature, K	Viscosity, Pa*s	uncertainty
303.15	15.893	.0556255
308.15	9.0298	.0316043
313.15	5.6104	.0196364
318.15	3.6021	.01260735
323.15	2.3799	.00832965
328.15	1.6182	.0056637
333.15	1.1284	.0039494
338.15	.8051	.00281785
343.15	.6396	.0022386
348.15	.4657	.00162995
353.15	.3593	.00125755

System: 1-propyronitrile-3-hexylimidazolium bromide; phases: Liquid
Fixed: Pressure, kPa = 101.325
Property: Refractive index (Na D-line) (Liquid); method: Standard Abbe refractometry
Temperature, K	Refractive index (Na D-line)	uncertainty
298.15	1.52872	.00004
303.15	1.52823	.00004
308.15	1.52719	.00004
313.15	1.526	.00004
318.15	1.52479	.00004
323.15	1.52354	.00004
328.15	1.52229	.00004
333.15	1.52117	.00004

System: 1-propyronitrile-3-octylimidazolium bromide; phases: Liquid
Fixed: Pressure, kPa = 101.325
Property: Mass density, kg/m3 (Liquid); method: Vibrating tube method
Temperature, K	Mass density, kg/m3	uncertainty
293.15	1180.1	.5
298.15	1176.6	.5
303.15	1173.2	.5
308.15	1169.8	.5
313.15	1166.4	.5
318.15	1163	.5
323.15	1159.6	.5
328.15	1156.2	.5
333.15	1152.9	.5
338.15	1149.5	.5
343.15	1146.1	.5
348.15	1142.8	.5
353.15	1139.6	.5

System: 1-propyronitrile-3-octylimidazolium bromide; phases: Liquid
Fixed: Pressure, kPa = 101.325
Property: Viscosity, Pa*s (Liquid); method: Concentric cylinders viscometry
Temperature, K	Viscosity, Pa*s	uncertainty
308.15	19.6203	.06867105
313.15	13.044	.045654
318.15	8.3027	.02905945
323.15	5.1361	.01797635
328.15	3.2918	.0115213
333.15	2.1604	.0075614
338.15	1.4598	.0051093
343.15	1.0196	.0035686
348.15	.7279	.00254765
353.15	.5305	.00185675

System: 1-propyronitrile-3-octylimidazolium bromide; phases: Liquid
Fixed: Pressure, kPa = 101.325
Property: Refractive index (Na D-line) (Liquid); method: Standard Abbe refractometry
Temperature, K	Refractive index (Na D-line)	uncertainty
298.15	1.51473	.00004
303.15	1.51362	.00004
308.15	1.51266	.00004
313.15	1.51149	.00004
318.15	1.51024	.00004
323.15	1.50891	.00004
328.15	1.50757	.00004
333.15	1.50604	.00004

System: 1-propyronitrile-3-decylimidazolium bromide; phases: Liquid
Fixed: Pressure, kPa = 101.325
Property: Mass density, kg/m3 (Liquid); method: Vibrating tube method
Temperature, K	Mass density, kg/m3	uncertainty
308.15	1134.2	.5
313.15	1129.5	.5
318.15	1125.6	.5
323.15	1121.2	.5
328.15	1118.2	.5
333.15	1115	.5
338.15	1111.7	.5
343.15	1108.5	.5
348.15	1105.2	.5
353.15	1101.9	.5

System: 1-propyronitrile-3-decylimidazolium bromide; phases: Liquid
Fixed: Pressure, kPa = 101.325
Property: Viscosity, Pa*s (Liquid); method: Concentric cylinders viscometry
Temperature, K	Viscosity, Pa*s	uncertainty
313.15	16.7023	.05845805
318.15	10.3145	.03610075
323.15	6.8134	.0238469
328.15	4.5736	.0160076
333.15	3.0164	.0105574
338.15	2.0512	.0071792
343.15	1.4266	.0049931
348.15	1.0146	.0035511
353.15	.737	.0025795

System: 1-propyronitrile-3-decylimidazolium bromide; phases: Liquid
Fixed: Pressure, kPa = 101.325
Property: Refractive index (Na D-line) (Liquid); method: Standard Abbe refractometry
Temperature, K	Refractive index (Na D-line)	uncertainty
308.15	1.50786	.00004
313.15	1.50696	.00004
318.15	1.50606	.00004
323.15	1.50502	.00004
328.15	1.50388	.00004
333.15	1.50279	.00004
