Measured thermophysical data. Solubility of Solid Ferrocene in Pressurized Hot Water
Source: J. Chem. Eng. Data, 2010, 10.1021/je901028h
Compound 1: iron, bis(.eta.5-2,4-cyclopentadien-1-yl)-, C10H10Fe
Compound 2: water, H2O

System: iron, bis(.eta.5-2,4-cyclopentadien-1-yl)- + water; phases: Liquid, Crystal
Property: Mole fraction of iron, bis(.eta.5-2,4-cyclopentadien-1-yl)- (Liquid); method: Chromatography
Temperature, K	Pressure, kPa	Mole fraction of iron, bis(.eta.5-2,4-cyclopentadien-1-yl)-	uncertainty
313.2	5200	.00000117	.0000001404
333.2	5100	.00000267	.0000003204
353.2	5100	.00000669	.0000008028
373.2	5100	.0000162	.000001944
393.2	5000	.0000388	.000004656
413.2	5100	.0000967	.000011604
433.2	6400	.000227	.00002724
