Measured thermophysical data. Isobaric Thermal Expansivity for Ionic Liquids with a Common Cation as a Function of Temperature and Pressure
Source: J. Chem. Eng. Data, 2010, 10.1021/je900407u
Compound 1: 1-butyl-3-methylimidazolium bis[(trifluoromethyl)sulfonyl]imide, C10H15F6N3O4S2, purity 99%
Compound 2: 1H-imidazolium, 1-butyl-3-methyl-, (OC-6-11)-hexafluoroantimonate(1-), C8H15F6N2SB, purity 99%
Compound 3: 1-butyl-3-methylimidazolium trifluoromethanesulfonate, C9H15F3N2O3S, purity 99%
Compound 4: 1-butyl-3-methylimidazolium tetrafluoroborate, C8H15BF4N2, purity 99%
Compound 5: 1-butyl-3-methylimidazolium methylsulfate, C9H18N2O4S, purity 99%

System: 1-butyl-3-methylimidazolium bis[(trifluoromethyl)sulfonyl]imide; phases: Liquid
Property: Isobaric coefficient of expansion, 1/K (Liquid); method: Micro DSCII
Temperature, K	Pressure, kPa	Isobaric coefficient of expansion, 1/K	uncertainty
278.15	5000	.0006716	.000013432
278.15	10000	.00066121	.0000132242
278.15	15000	.00065148	.0000130296
278.15	20000	.0006433	.000012866
278.15	25000	.0006323	.000012646
278.15	30000	.00062658	.0000125316
278.15	35000	.00061831	.0000123662
278.15	40000	.00061197	.0000122394
278.15	45000	.00060206	.0000120412
278.15	50000	.000594	.00001188
288.15	5000	.00066474	.0000132948
288.15	10000	.00065612	.0000131224
288.15	15000	.00064636	.0000129272
288.15	20000	.00063839	.0000127678
288.15	25000	.00063197	.0000126394
288.15	30000	.00062225	.000012445
288.15	35000	.00061507	.0000123014
288.15	40000	.00060579	.0000121158
288.15	45000	.00059896	.0000119792
288.15	50000	.00059377	.0000118754
298.15	5000	.00066158	.0000132316
298.15	10000	.00065289	.0000130578
298.15	15000	.00064237	.0000128474
298.15	20000	.00063297	.0000126594
298.15	25000	.00062599	.0000125198
298.15	30000	.00061604	.0000123208
298.15	35000	.00060736	.0000121472
298.15	40000	.00059878	.0000119756
298.15	45000	.00059247	.0000118494
298.15	50000	.0005861	.000011722
308.15	5000	.00065709	.0000131418
308.15	10000	.00064721	.0000129442
308.15	15000	.00063621	.0000127242
308.15	20000	.0006274	.000012548
308.15	25000	.00061717	.0000123434
308.15	30000	.00061	.0000122
308.15	35000	.00060218	.0000120436
308.15	40000	.0005946	.000011892
308.15	45000	.00058566	.0000117132
308.15	50000	.0005784	.000011568
318.15	5000	.00065007	.0000130014
318.15	10000	.00064595	.000012919
318.15	15000	.00063427	.0000126854
318.15	20000	.00062259	.0000124518
318.15	25000	.00061419	.0000122838
318.15	30000	.00060512	.0000121024
318.15	35000	.00059732	.0000119464
318.15	40000	.00058844	.0000117688
318.15	45000	.00058052	.0000116104
318.15	50000	.00057265	.000011453
328.15	5000	.00066483	.0000132966
328.15	10000	.00064938	.0000129876
328.15	15000	.00063648	.0000127296
328.15	20000	.0006251	.000012502
328.15	25000	.00061353	.0000122706
328.15	30000	.00060337	.0000120674
328.15	35000	.00059493	.0000118986
328.15	40000	.0005818	.000011636
328.15	45000	.0005776	.000011552
328.15	50000	.00056929	.0000113858
338.15	5000	.00064593	.0000129186
338.15	10000	.00063481	.0000126962
338.15	15000	.00062545	.000012509
338.15	20000	.00061455	.000012291
338.15	25000	.00060455	.000012091
338.15	30000	.00059706	.0000119412
338.15	35000	.00058703	.0000117406
338.15	40000	.00057961	.0000115922
338.15	45000	.00057343	.0000114686
338.15	50000	.00056615	.000011323
348.15	5000	.00065279	.0000130558
348.15	10000	.00063889	.0000127778
348.15	15000	.00062318	.0000124636
348.15	20000	.00061312	.0000122624
348.15	25000	.00060411	.0000120822
348.15	30000	.00059501	.0000119002
348.15	35000	.00058636	.0000117272
348.15	40000	.00057764	.0000115528
348.15	45000	.00056904	.0000113808
348.15	50000	.0005634	.000011268

System: 1H-imidazolium, 1-butyl-3-methyl-, (OC-6-11)-hexafluoroantimonate(1-); phases: Liquid
Property: Isobaric coefficient of expansion, 1/K (Liquid); method: Micro DSCII
Temperature, K	Pressure, kPa	Isobaric coefficient of expansion, 1/K	uncertainty
278.15	5000	.00063626	.0000127252
278.15	10000	.00062739	.0000125478
278.15	15000	.00061888	.0000123776
278.15	20000	.00061391	.0000122782
278.15	25000	.00060693	.0000121386
278.15	30000	.00060006	.0000120012
278.15	35000	.00059322	.0000118644
278.15	40000	.00058942	.0000117884
278.15	45000	.00058154	.0000116308
278.15	50000	.00057539	.0000115078
288.15	5000	.00063016	.0000126032
288.15	10000	.00062143	.0000124286
288.15	15000	.00061423	.0000122846
288.15	20000	.00060867	.0000121734
288.15	25000	.00060288	.0000120576
288.15	30000	.00059635	.000011927
288.15	35000	.00058918	.0000117836
288.15	40000	.00058176	.0000116352
288.15	45000	.00057527	.0000115054
288.15	50000	.0005729	.000011458
298.15	5000	.00062412	.0000124824
298.15	10000	.00061914	.0000123828
298.15	15000	.00060944	.0000121888
298.15	20000	.0006023	.000012046
298.15	25000	.00059695	.000011939
298.15	30000	.00058835	.000011767
298.15	35000	.00058128	.0000116256
298.15	40000	.00057628	.0000115256
298.15	45000	.00057119	.0000114238
298.15	50000	.00056591	.0000113182
308.15	5000	.00061977	.0000123954
308.15	10000	.00061005	.000012201
308.15	15000	.00060371	.0000120742
308.15	20000	.00059554	.0000119108
308.15	25000	.0005888	.000011776
308.15	30000	.00058337	.0000116674
308.15	35000	.00057551	.0000115102
308.15	40000	.00057061	.0000114122
308.15	45000	.00056319	.0000112638
308.15	50000	.00055773	.0000111546
318.15	5000	.00061218	.0000122436
318.15	10000	.00060862	.0000121724
318.15	15000	.00059881	.0000119762
318.15	20000	.00059106	.0000118212
318.15	25000	.00058425	.000011685
318.15	30000	.00057692	.0000115384
318.15	35000	.00057022	.0000114044
318.15	40000	.00056394	.0000112788
318.15	45000	.0005572	.000011144
318.15	50000	.00054982	.0000109964
328.15	5000	.0006093	.000012186
328.15	10000	.00060059	.0000120118
328.15	15000	.00059535	.000011907
328.15	20000	.00058909	.0000117818
328.15	25000	.00058017	.0000116034
328.15	30000	.00057347	.0000114694
328.15	35000	.00056641	.0000113282
328.15	40000	.0005586	.000011172
328.15	45000	.00055299	.0000110598
328.15	50000	.00054736	.0000109472
338.15	5000	.0006074	.000012148
338.15	10000	.00059928	.0000119856
338.15	15000	.00059262	.0000118524
338.15	20000	.00058457	.0000116914
338.15	25000	.00057492	.0000114984
338.15	30000	.00056876	.0000113752
338.15	35000	.00056258	.0000112516
338.15	40000	.00055596	.0000111192
338.15	45000	.00054926	.0000109852
338.15	50000	.00054507	.0000109014
348.15	5000	.00060246	.0000120492
348.15	10000	.0005966	.000011932
348.15	15000	.00058826	.0000117652
348.15	20000	.00057907	.0000115814
348.15	25000	.00057407	.0000114814
348.15	30000	.0005668	.000011336
348.15	35000	.00056215	.000011243
348.15	40000	.00055462	.0000110924
348.15	45000	.00054856	.0000109712
348.15	50000	.00054193	.0000108386

System: 1-butyl-3-methylimidazolium trifluoromethanesulfonate; phases: Liquid
Property: Isobaric coefficient of expansion, 1/K (Liquid); method: Micro DSCII
Temperature, K	Pressure, kPa	Isobaric coefficient of expansion, 1/K	uncertainty
278.15	5000	.00062118	.0000124236
278.15	10000	.00061222	.0000122444
278.15	15000	.00060337	.0000120674
278.15	20000	.00059912	.0000119824
278.15	25000	.00058987	.0000117974
278.15	30000	.0005854	.000011708
278.15	35000	.00057864	.0000115728
278.15	40000	.00057463	.0000114926
278.15	45000	.0005657	.000011314
278.15	50000	.00056081	.0000112162
288.15	5000	.00061662	.0000123324
288.15	10000	.00060701	.0000121402
288.15	15000	.00059876	.0000119752
288.15	20000	.00059275	.000011855
288.15	25000	.00058827	.0000117654
288.15	30000	.00057986	.0000115972
288.15	35000	.00057429	.0000114858
288.15	40000	.00056593	.0000113186
288.15	45000	.00056103	.0000112206
288.15	50000	.0005576	.000011152
298.15	5000	.00060983	.0000121966
298.15	10000	.00060399	.0000120798
298.15	15000	.00059491	.0000118982
298.15	20000	.00058783	.0000117566
298.15	25000	.00058134	.0000116268
298.15	30000	.00057368	.0000114736
298.15	35000	.00056596	.0000113192
298.15	40000	.00055859	.0000111718
298.15	45000	.00055389	.0000110778
298.15	50000	.0005488	.000010976
308.15	5000	.00060593	.0000121186
308.15	10000	.00059725	.000011945
308.15	15000	.00058659	.0000117318
308.15	20000	.00058125	.000011625
308.15	25000	.00057418	.0000114836
308.15	30000	.00056807	.0000113614
308.15	35000	.00056217	.0000112434
308.15	40000	.00055596	.0000111192
308.15	45000	.0005475	.00001095
308.15	50000	.00054268	.0000108536
318.15	5000	.00059971	.0000119942
318.15	10000	.00059462	.0000118924
318.15	15000	.00058453	.0000116906
318.15	20000	.00057917	.0000115834
318.15	25000	.0005705	.00001141
318.15	30000	.00056408	.0000112816
318.15	35000	.00055693	.0000111386
318.15	40000	.00055054	.0000110108
318.15	45000	.00054381	.0000108762
318.15	50000	.00053855	.000010771
328.15	5000	.00059565	.000011913
328.15	10000	.00058621	.0000117242
328.15	15000	.00058101	.0000116202
328.15	20000	.000574	.00001148
328.15	25000	.00056474	.0000112948
328.15	30000	.00055931	.0000111862
328.15	35000	.00055177	.0000110354
328.15	40000	.00054417	.0000108834
328.15	45000	.00053795	.000010759
328.15	50000	.00053435	.000010687
338.15	5000	.00059393	.0000118786
338.15	10000	.00058501	.0000117002
338.15	15000	.00057783	.0000115566
338.15	20000	.00057137	.0000114274
338.15	25000	.00056161	.0000112322
338.15	30000	.00055619	.0000111238
338.15	35000	.00054806	.0000109612
338.15	40000	.00054247	.0000108494
338.15	45000	.00053675	.000010735
338.15	50000	.00053244	.0000106488
348.15	5000	.00059069	.0000118138
348.15	10000	.00058311	.0000116622
348.15	15000	.0005743	.000011486
348.15	20000	.00056809	.0000113618
348.15	25000	.00055927	.0000111854
348.15	30000	.00055239	.0000110478
348.15	35000	.00054744	.0000109488
348.15	40000	.00053999	.0000107998
348.15	45000	.00053492	.0000106984
348.15	50000	.00053015	.000010603

System: 1-butyl-3-methylimidazolium tetrafluoroborate; phases: Liquid
Property: Isobaric coefficient of expansion, 1/K (Liquid); method: Micro DSCII
Temperature, K	Pressure, kPa	Isobaric coefficient of expansion, 1/K	uncertainty
278.15	5000	.00060514	.0000121028
278.15	10000	.00059972	.0000119944
278.15	15000	.00059249	.0000118498
278.15	20000	.00058606	.0000117212
278.15	25000	.00058101	.0000116202
278.15	30000	.00057534	.0000115068
278.15	35000	.00057126	.0000114252
278.15	40000	.00056434	.0000112868
278.15	45000	.0005588	.000011176
278.15	50000	.00055323	.0000110646
288.15	5000	.00059844	.0000119688
288.15	10000	.00059209	.0000118418
288.15	15000	.00058717	.0000117434
288.15	20000	.00058177	.0000116354
288.15	25000	.00057693	.0000115386
288.15	30000	.00057046	.0000114092
288.15	35000	.00056582	.0000113164
288.15	40000	.00055735	.000011147
288.15	45000	.00055485	.000011097
288.15	50000	.00055345	.000011069
298.15	5000	.00059371	.0000118742
298.15	10000	.00058988	.0000117976
298.15	15000	.00058102	.0000116204
298.15	20000	.00057498	.0000114996
298.15	25000	.00057078	.0000114156
298.15	30000	.00056324	.0000112648
298.15	35000	.00055777	.0000111554
298.15	40000	.00055156	.0000110312
298.15	45000	.00054732	.0000109464
298.15	50000	.00054486	.0000108972
308.15	5000	.00058757	.0000117514
308.15	10000	.00057982	.0000115964
308.15	15000	.00057475	.000011495
308.15	20000	.00056924	.0000113848
308.15	25000	.00056093	.0000112186
308.15	30000	.00055688	.0000111376
308.15	35000	.00055014	.0000110028
308.15	40000	.00054674	.0000109348
308.15	45000	.00054187	.0000108374
308.15	50000	.00053534	.0000107068
318.15	5000	.00058009	.0000116018
318.15	10000	.00057722	.0000115444
318.15	15000	.00056969	.0000113938
318.15	20000	.00056147	.0000112294
318.15	25000	.00055757	.0000111514
318.15	30000	.00055232	.0000110464
318.15	35000	.00054734	.0000109468
318.15	40000	.0005429	.000010858
318.15	45000	.00053585	.000010717
318.15	50000	.00053245	.000010649
328.15	5000	.0005756	.000011512
328.15	10000	.00056973	.0000113946
328.15	15000	.00056289	.0000112578
328.15	20000	.00055903	.0000111806
328.15	25000	.00055061	.0000110122
328.15	30000	.00054421	.0000108842
328.15	35000	.00054055	.000010811
328.15	40000	.00053432	.0000106864
328.15	45000	.0005282	.000010564
328.15	50000	.00052298	.0000104596
338.15	5000	.00057137	.0000114274
338.15	10000	.00056613	.0000113226
338.15	15000	.00056149	.0000112298
338.15	20000	.00055246	.0000110492
338.15	25000	.00054684	.0000109368
338.15	30000	.00054277	.0000108554
338.15	35000	.00053556	.0000107112
338.15	40000	.00053112	.0000106224
338.15	45000	.00052593	.0000105186
338.15	50000	.00052226	.0000104452
348.15	5000	.00056929	.0000113858
348.15	10000	.00056626	.0000113252
348.15	15000	.00055727	.0000111454
348.15	20000	.00055162	.0000110324
348.15	25000	.00054487	.0000108974
348.15	30000	.00053857	.0000107714
348.15	35000	.00053527	.0000107054
348.15	40000	.00052818	.0000105636
348.15	45000	.00052357	.0000104714
348.15	50000	.00051957	.0000103914

System: 1-butyl-3-methylimidazolium methylsulfate; phases: Liquid
Property: Isobaric coefficient of expansion, 1/K (Liquid); method: Micro DSCII
Temperature, K	Pressure, kPa	Isobaric coefficient of expansion, 1/K	uncertainty
278.15	5000	.00056321	.0000112642
278.15	10000	.00055605	.000011121
278.15	15000	.0005504	.000011008
278.15	20000	.00054516	.0000109032
278.15	25000	.00053982	.0000107964
278.15	30000	.00053534	.0000107068
278.15	35000	.00053051	.0000106102
278.15	40000	.00052685	.000010537
278.15	45000	.00052117	.0000104234
278.15	50000	.00051562	.0000103124
288.15	5000	.00055667	.0000111334
288.15	10000	.00054993	.0000109986
288.15	15000	.00054321	.0000108642
288.15	20000	.00053939	.0000107878
288.15	25000	.00053669	.0000107338
288.15	30000	.00053038	.0000106076
288.15	35000	.00052687	.0000105374
288.15	40000	.00052045	.000010409
288.15	45000	.00051441	.0000102882
288.15	50000	.00051306	.0000102612
298.15	5000	.00054913	.0000109826
298.15	10000	.000547	.00001094
298.15	15000	.00053891	.0000107782
298.15	20000	.00053321	.0000106642
298.15	25000	.00052948	.0000105896
298.15	30000	.0005243	.000010486
298.15	35000	.00051787	.0000103574
298.15	40000	.00051296	.0000102592
298.15	45000	.00050972	.0000101944
298.15	50000	.00050689	.0000101378
308.15	5000	.00054352	.0000108704
308.15	10000	.00053827	.0000107654
308.15	15000	.00053271	.0000106542
308.15	20000	.00052725	.000010545
308.15	25000	.00052159	.0000104318
308.15	30000	.00051719	.0000103438
308.15	35000	.00051239	.0000102478
308.15	40000	.00050868	.0000101736
308.15	45000	.00050372	.0000100744
308.15	50000	.00050037	.0000100074
318.15	5000	.00053789	.0000107578
318.15	10000	.00053421	.0000106842
318.15	15000	.00052985	.000010597
318.15	20000	.00052192	.0000104384
318.15	25000	.00051719	.0000103438
318.15	30000	.00051264	.0000102528
318.15	35000	.00050833	.0000101666
318.15	40000	.0005036	.000010072
318.15	45000	.00049863	.0000099726
318.15	50000	.00049379	.0000098758
328.15	5000	.00053337	.0000106674
328.15	10000	.0005292	.000010584
328.15	15000	.0005244	.000010488
328.15	20000	.00051921	.0000103842
328.15	25000	.00051225	.000010245
328.15	30000	.00050798	.0000101596
328.15	35000	.00050319	.0000100638
328.15	40000	.00049778	.0000099556
328.15	45000	.00049341	.0000098682
328.15	50000	.00048888	.0000097776
338.15	5000	.0005303	.000010606
338.15	10000	.0005249	.000010498
338.15	15000	.00052134	.0000104268
338.15	20000	.00051396	.0000102792
338.15	25000	.00050826	.0000101652
338.15	30000	.00050581	.0000101162
338.15	35000	.00049865	.000009973
338.15	40000	.00049554	.0000099108
338.15	45000	.00049104	.0000098208
338.15	50000	.00048908	.0000097816
348.15	5000	.00052725	.000010545
348.15	10000	.00052427	.0000104854
348.15	15000	.00051691	.0000103382
348.15	20000	.00051185	.000010237
348.15	25000	.00050635	.000010127
348.15	30000	.00050176	.0000100352
348.15	35000	.00049906	.0000099812
348.15	40000	.00049367	.0000098734
348.15	45000	.00048962	.0000097924
348.15	50000	.00048633	.0000097266
