Measured thermophysical data. Study of Ether-, Alcohol-, or Cyano-Functionalized Ionic Liquids Using Inverse Gas Chromatography
Source: J. Chem. Eng. Data, 2010, 10.1021/je900838a
Compound 1: 1-(2-hydroxyethyl)-3-methylimidazolium bis[(trifluoromethyl)sulfonyl]imide, C8H11F6N3O5S2
Compound 2: 3-(2-methoxyethyl)-1-methylimidazolium 1,1,1-trifluoro-N-[(trifluoromethyl)sulfonyl]methanesulfonamide, C9H13N3O5F6S2
Compound 3: 1,3-dimethoxyimidazolium 1,1,1-trifluoro-N-[(trifluoromethyl)sulfonyl]methanesulfonamide, C7H9N3O6F6S2
Compound 4: 3-(3-cyanopropyl)-3-methylimidazolium cyanocyanamide, C10H12N6
Compound 5: n-hexane, C6H14
Compound 6: 3-methylpentane, C6H14
Compound 7: heptane, C7H16
Compound 8: pentane, 2,2,4-trimethyl-, C8H18
Compound 9: octane, C8H18
Compound 10: nonane, C9H20
Compound 11: decane, C10H22
Compound 12: n-undecane, C11H24
Compound 13: dodecane, C12H26
Compound 14: tridecane, C13H28
Compound 15: tetradecane, C14H30
Compound 16: methylcyclopentane, C6H12
Compound 17: cyclohexane, C6H12
Compound 18: methylcyclohexane, C7H14
Compound 19: cycloheptane, C7H14
Compound 20: benzene, C6H6
Compound 21: toluene, C7H8
Compound 22: ethylbenzene, C8H10
Compound 23: 1,3-dimethylbenzene, C8H10
Compound 24: 1,4-dimethylbenzene, C8H10
Compound 25: 1,2-dimethylbenzene, C8H10
Compound 26: 1-hexene, C6H12
Compound 27: 1-hexyne, C6H10
Compound 28: 1-heptyne, C7H12
Compound 29: ethyl methyl ketone, C4H8O
Compound 30: propyl methyl ketone, C5H10O
Compound 31: 3-pentanone, C5H10O
Compound 32: dioxane, C4H8O2
Compound 33: methanol, CH4O
Compound 34: ethanol, C2H6O
Compound 35: propan-1-ol, C3H8O
Compound 36: 2-propanol, C3H8O
Compound 37: isobutanol, C4H10O
Compound 38: butan-1-ol, C4H10O
Compound 39: ethanol, trifluoro-, C2H3F3O
Compound 40: ethane, 1,1'-oxybis-, C4H10O
Compound 41: isopropyl ether, C6H14O
Compound 42: chloroform, CHCl3
Compound 43: methylene chloride, CH2Cl2
Compound 44: carbon tetrachloride, CCl4
Compound 45: methylnitrile, C2H3N
Compound 46: nitromethane, CH3NO2
Compound 47: 1-nitropropane, C3H7NO2
Compound 48: triethylamine, C6H15N
Compound 49: azine, C5H5N
Compound 50: thiophene, C4H4S
Compound 51: methanal, CH2O
Compound 52: n-propionaldehyde, C3H6O
Compound 53: 1-propanecarbaldehyde, C4H8O
Compound 54: ethyl ethanoate, C4H8O2
Compound 55: acetic acid, butyl ester, C6H12O2
Compound 56: tetramethylene oxide, C4H8O

System: n-hexane + 1-(2-hydroxyethyl)-3-methylimidazolium bis[(trifluoromethyl)sulfonyl]imide; phases: Liquid, Gas
Fixed: Mole fraction of n-hexane = 0
Property: Activity coefficient of n-hexane (Liquid); method: Chromatography
Temperature, K	Activity coefficient of n-hexane	uncertainty
322.55	43.64	1.3092
332.55	41.84	1.2552
342.85	28.39	.8517

System: 3-methylpentane + 1-(2-hydroxyethyl)-3-methylimidazolium bis[(trifluoromethyl)sulfonyl]imide; phases: Liquid, Gas
Fixed: Mole fraction of 3-methylpentane = 0
Property: Activity coefficient of 3-methylpentane (Liquid); method: Chromatography
Temperature, K	Activity coefficient of 3-methylpentane	uncertainty
322.55	42.9	1.287
332.55	34.82	1.0446
342.85	26.02	.7806

System: heptane + 1-(2-hydroxyethyl)-3-methylimidazolium bis[(trifluoromethyl)sulfonyl]imide; phases: Liquid, Gas
Fixed: Mole fraction of heptane = 0
Property: Activity coefficient of heptane (Liquid); method: Chromatography
Temperature, K	Activity coefficient of heptane	uncertainty
322.55	72.81	2.1843
332.55	67.53	2.0259
342.85	51.88	1.5564

System: pentane, 2,2,4-trimethyl- + 1-(2-hydroxyethyl)-3-methylimidazolium bis[(trifluoromethyl)sulfonyl]imide; phases: Liquid, Gas
Fixed: Mole fraction of pentane, 2,2,4-trimethyl- = 0
Property: Activity coefficient of pentane, 2,2,4-trimethyl- (Liquid); method: Chromatography
Temperature, K	Activity coefficient of pentane, 2,2,4-trimethyl-	uncertainty
322.55	68.97	2.0691
332.55	62.1	1.863
342.85	52.64	1.5792

System: octane + 1-(2-hydroxyethyl)-3-methylimidazolium bis[(trifluoromethyl)sulfonyl]imide; phases: Liquid, Gas
Fixed: Mole fraction of octane = 0
Property: Activity coefficient of octane (Liquid); method: Chromatography
Temperature, K	Activity coefficient of octane	uncertainty
322.55	119.15	3.5745
332.55	104.43	3.1329
342.85	89.72	2.6916

System: nonane + 1-(2-hydroxyethyl)-3-methylimidazolium bis[(trifluoromethyl)sulfonyl]imide; phases: Liquid, Gas
Fixed: Mole fraction of nonane = 0
Property: Activity coefficient of nonane (Liquid); method: Chromatography
Temperature, K	Activity coefficient of nonane	uncertainty
322.55	212.44	6.3732
332.55	181.74	5.4522
342.85	150.66	4.5198

System: decane + 1-(2-hydroxyethyl)-3-methylimidazolium bis[(trifluoromethyl)sulfonyl]imide; phases: Liquid, Gas
Fixed: Mole fraction of decane = 0
Property: Activity coefficient of decane (Liquid); method: Chromatography
Temperature, K	Activity coefficient of decane	uncertainty
322.55	307.11	9.2133
332.55	265.95	7.9785
342.85	231.18	6.9354

System: n-undecane + 1-(2-hydroxyethyl)-3-methylimidazolium bis[(trifluoromethyl)sulfonyl]imide; phases: Liquid, Gas
Fixed: Mole fraction of n-undecane = 0
Property: Activity coefficient of n-undecane (Liquid); method: Chromatography
Temperature, K	Activity coefficient of n-undecane	uncertainty
322.55	484.07	14.5221
332.55	416.68	12.5004
342.85	357.52	10.7256

System: dodecane + 1-(2-hydroxyethyl)-3-methylimidazolium bis[(trifluoromethyl)sulfonyl]imide; phases: Liquid, Gas
Fixed: Mole fraction of dodecane = 0
Property: Activity coefficient of dodecane (Liquid); method: Chromatography
Temperature, K	Activity coefficient of dodecane	uncertainty
322.55	710.18	21.3054
332.55	618.42	18.5526
342.85	538.67	16.1601

System: tridecane + 1-(2-hydroxyethyl)-3-methylimidazolium bis[(trifluoromethyl)sulfonyl]imide; phases: Liquid, Gas
Fixed: Mole fraction of tridecane = 0
Property: Activity coefficient of tridecane (Liquid); method: Chromatography
Temperature, K	Activity coefficient of tridecane	uncertainty
322.55	1083.93	32.5179
332.55	939.03	28.1709
342.85	806.66	24.1998

System: tetradecane + 1-(2-hydroxyethyl)-3-methylimidazolium bis[(trifluoromethyl)sulfonyl]imide; phases: Liquid, Gas
Fixed: Mole fraction of tetradecane = 0
Property: Activity coefficient of tetradecane (Liquid); method: Chromatography
Temperature, K	Activity coefficient of tetradecane	uncertainty
322.55	1553.98	46.6194
332.55	1355.7	40.671
342.85	1151.62	34.5486

System: methylcyclopentane + 1-(2-hydroxyethyl)-3-methylimidazolium bis[(trifluoromethyl)sulfonyl]imide; phases: Liquid, Gas
Fixed: Mole fraction of methylcyclopentane = 0
Property: Activity coefficient of methylcyclopentane (Liquid); method: Chromatography
Temperature, K	Activity coefficient of methylcyclopentane	uncertainty
322.55	25.49	.7647
332.55	22.71	.6813
342.85	21.87	.6561

System: cyclohexane + 1-(2-hydroxyethyl)-3-methylimidazolium bis[(trifluoromethyl)sulfonyl]imide; phases: Liquid, Gas
Fixed: Mole fraction of cyclohexane = 0
Property: Activity coefficient of cyclohexane (Liquid); method: Chromatography
Temperature, K	Activity coefficient of cyclohexane	uncertainty
322.55	25.1	.753
332.55	22.89	.6867
342.85	21.24	.6372

System: methylcyclohexane + 1-(2-hydroxyethyl)-3-methylimidazolium bis[(trifluoromethyl)sulfonyl]imide; phases: Liquid, Gas
Fixed: Mole fraction of methylcyclohexane = 0
Property: Activity coefficient of methylcyclohexane (Liquid); method: Chromatography
Temperature, K	Activity coefficient of methylcyclohexane	uncertainty
322.55	38.95	1.1685
332.55	33.95	1.0185
342.85	30.85	.9255

System: cycloheptane + 1-(2-hydroxyethyl)-3-methylimidazolium bis[(trifluoromethyl)sulfonyl]imide; phases: Liquid, Gas
Fixed: Mole fraction of cycloheptane = 0
Property: Activity coefficient of cycloheptane (Liquid); method: Chromatography
Temperature, K	Activity coefficient of cycloheptane	uncertainty
322.55	39.01	1.1703
332.55	34.36	1.0308
342.85	30.47	.9141

System: benzene + 1-(2-hydroxyethyl)-3-methylimidazolium bis[(trifluoromethyl)sulfonyl]imide; phases: Liquid, Gas
Fixed: Mole fraction of benzene = 0
Property: Activity coefficient of benzene (Liquid); method: Chromatography
Temperature, K	Activity coefficient of benzene	uncertainty
322.55	2.12	.0636
332.55	2.08	.0624
342.85	2.05	.0615

System: toluene + 1-(2-hydroxyethyl)-3-methylimidazolium bis[(trifluoromethyl)sulfonyl]imide; phases: Liquid, Gas
Fixed: Mole fraction of toluene = 0
Property: Activity coefficient of toluene (Liquid); method: Chromatography
Temperature, K	Activity coefficient of toluene	uncertainty
322.55	3.36	.1008
332.55	3.28	.0984
342.85	3.25	.0975

System: ethylbenzene + 1-(2-hydroxyethyl)-3-methylimidazolium bis[(trifluoromethyl)sulfonyl]imide; phases: Liquid, Gas
Fixed: Mole fraction of ethylbenzene = 0
Property: Activity coefficient of ethylbenzene (Liquid); method: Chromatography
Temperature, K	Activity coefficient of ethylbenzene	uncertainty
322.55	5.62	.1686
332.55	5.48	.1644
342.85	5.37	.1611

System: 1,3-dimethylbenzene + 1-(2-hydroxyethyl)-3-methylimidazolium bis[(trifluoromethyl)sulfonyl]imide; phases: Liquid, Gas
Fixed: Mole fraction of 1,3-dimethylbenzene = 0
Property: Activity coefficient of 1,3-dimethylbenzene (Liquid); method: Chromatography
Temperature, K	Activity coefficient of 1,3-dimethylbenzene	uncertainty
322.55	5.61	.1683
332.55	5.44	.1632
342.85	5.34	.1602

System: 1,4-dimethylbenzene + 1-(2-hydroxyethyl)-3-methylimidazolium bis[(trifluoromethyl)sulfonyl]imide; phases: Liquid, Gas
Fixed: Mole fraction of 1,4-dimethylbenzene = 0
Property: Activity coefficient of 1,4-dimethylbenzene (Liquid); method: Chromatography
Temperature, K	Activity coefficient of 1,4-dimethylbenzene	uncertainty
322.55	5.57	.1671
332.55	5.44	.1632
342.85	5.29	.1587

System: 1,2-dimethylbenzene + 1-(2-hydroxyethyl)-3-methylimidazolium bis[(trifluoromethyl)sulfonyl]imide; phases: Liquid, Gas
Fixed: Mole fraction of 1,2-dimethylbenzene = 0
Property: Activity coefficient of 1,2-dimethylbenzene (Liquid); method: Chromatography
Temperature, K	Activity coefficient of 1,2-dimethylbenzene	uncertainty
322.55	4.83	.1449
332.55	4.78	.1434
342.85	4.72	.1416

System: 1-hexene + 1-(2-hydroxyethyl)-3-methylimidazolium bis[(trifluoromethyl)sulfonyl]imide; phases: Liquid, Gas
Fixed: Mole fraction of 1-hexene = 0
Property: Activity coefficient of 1-hexene (Liquid); method: Chromatography
Temperature, K	Activity coefficient of 1-hexene	uncertainty
322.55	21.43	.6429
332.55	19.61	.5883
342.85	18.95	.5685

System: 1-hexyne + 1-(2-hydroxyethyl)-3-methylimidazolium bis[(trifluoromethyl)sulfonyl]imide; phases: Liquid, Gas
Fixed: Mole fraction of 1-hexyne = 0
Property: Activity coefficient of 1-hexyne (Liquid); method: Chromatography
Temperature, K	Activity coefficient of 1-hexyne	uncertainty
322.55	7.54	.2262
332.55	7.12	.2136
342.85	6.83	.2049

System: 1-heptyne + 1-(2-hydroxyethyl)-3-methylimidazolium bis[(trifluoromethyl)sulfonyl]imide; phases: Liquid, Gas
Fixed: Mole fraction of 1-heptyne = 0
Property: Activity coefficient of 1-heptyne (Liquid); method: Chromatography
Temperature, K	Activity coefficient of 1-heptyne	uncertainty
322.55	12.18	.3654
332.55	11.66	.3498
342.85	10.96	.3288

System: ethyl methyl ketone + 1-(2-hydroxyethyl)-3-methylimidazolium bis[(trifluoromethyl)sulfonyl]imide; phases: Liquid, Gas
Fixed: Mole fraction of ethyl methyl ketone = 0
Property: Activity coefficient of ethyl methyl ketone (Liquid); method: Chromatography
Temperature, K	Activity coefficient of ethyl methyl ketone	uncertainty
322.55	.57	.0171
332.55	.54	.0162
342.85	.51	.0153

System: propyl methyl ketone + 1-(2-hydroxyethyl)-3-methylimidazolium bis[(trifluoromethyl)sulfonyl]imide; phases: Liquid, Gas
Fixed: Mole fraction of propyl methyl ketone = 0
Property: Activity coefficient of propyl methyl ketone (Liquid); method: Chromatography
Temperature, K	Activity coefficient of propyl methyl ketone	uncertainty
322.55	1	.03
332.55	1.04	.0312
342.85	1.05	.0315

System: 3-pentanone + 1-(2-hydroxyethyl)-3-methylimidazolium bis[(trifluoromethyl)sulfonyl]imide; phases: Liquid, Gas
Fixed: Mole fraction of 3-pentanone = 0
Property: Activity coefficient of 3-pentanone (Liquid); method: Chromatography
Temperature, K	Activity coefficient of 3-pentanone	uncertainty
322.55	.99	.0297
332.55	1.03	.0309
342.85	1.06	.0318

System: dioxane + 1-(2-hydroxyethyl)-3-methylimidazolium bis[(trifluoromethyl)sulfonyl]imide; phases: Liquid, Gas
Fixed: Mole fraction of dioxane = 0
Property: Activity coefficient of dioxane (Liquid); method: Chromatography
Temperature, K	Activity coefficient of dioxane	uncertainty
322.55	.59	.0177
332.55	.62	.0186
342.85	.63	.0189

System: methanol + 1-(2-hydroxyethyl)-3-methylimidazolium bis[(trifluoromethyl)sulfonyl]imide; phases: Liquid, Gas
Fixed: Mole fraction of methanol = 0
Property: Activity coefficient of methanol (Liquid); method: Chromatography
Temperature, K	Activity coefficient of methanol	uncertainty
322.55	.89	.0267
332.55	.85	.0255
342.85	.8	.024

System: ethanol + 1-(2-hydroxyethyl)-3-methylimidazolium bis[(trifluoromethyl)sulfonyl]imide; phases: Liquid, Gas
Fixed: Mole fraction of ethanol = 0
Property: Activity coefficient of ethanol (Liquid); method: Chromatography
Temperature, K	Activity coefficient of ethanol	uncertainty
322.55	1.23	.0369
332.55	1.21	.0363
342.85	1.13	.0339

System: propan-1-ol + 1-(2-hydroxyethyl)-3-methylimidazolium bis[(trifluoromethyl)sulfonyl]imide; phases: Liquid, Gas
Fixed: Mole fraction of propan-1-ol = 0
Property: Activity coefficient of propan-1-ol (Liquid); method: Chromatography
Temperature, K	Activity coefficient of propan-1-ol	uncertainty
322.55	1.72	.0516
332.55	2.53	.0759
342.85	2.53	.0759

System: 2-propanol + 1-(2-hydroxyethyl)-3-methylimidazolium bis[(trifluoromethyl)sulfonyl]imide; phases: Liquid, Gas
Fixed: Mole fraction of 2-propanol = 0
Property: Activity coefficient of 2-propanol (Liquid); method: Chromatography
Temperature, K	Activity coefficient of 2-propanol	uncertainty
322.55	1.46	.0438
332.55	1.4	.042
342.85	1.33	.0399

System: isobutanol + 1-(2-hydroxyethyl)-3-methylimidazolium bis[(trifluoromethyl)sulfonyl]imide; phases: Liquid, Gas
Fixed: Mole fraction of isobutanol = 0
Property: Activity coefficient of isobutanol (Liquid); method: Chromatography
Temperature, K	Activity coefficient of isobutanol	uncertainty
322.55	2.38	.0714
332.55	2.21	.0663
342.85	2.06	.0618

System: butan-1-ol + 1-(2-hydroxyethyl)-3-methylimidazolium bis[(trifluoromethyl)sulfonyl]imide; phases: Liquid, Gas
Fixed: Mole fraction of butan-1-ol = 0
Property: Activity coefficient of butan-1-ol (Liquid); method: Chromatography
Temperature, K	Activity coefficient of butan-1-ol	uncertainty
322.55	2.49	.0747
332.55	2.36	.0708
342.85	2.16	.0648

System: ethanol, trifluoro- + 1-(2-hydroxyethyl)-3-methylimidazolium bis[(trifluoromethyl)sulfonyl]imide; phases: Liquid, Gas
Fixed: Mole fraction of ethanol, trifluoro- = 0
Property: Activity coefficient of ethanol, trifluoro- (Liquid); method: Chromatography
Temperature, K	Activity coefficient of ethanol, trifluoro-	uncertainty
322.55	.54	.0162
332.55	.54	.0162
342.85	.56	.0168

System: ethane, 1,1'-oxybis- + 1-(2-hydroxyethyl)-3-methylimidazolium bis[(trifluoromethyl)sulfonyl]imide; phases: Liquid, Gas
Fixed: Mole fraction of ethane, 1,1'-oxybis- = 0
Property: Activity coefficient of ethane, 1,1'-oxybis- (Liquid); method: Chromatography
Temperature, K	Activity coefficient of ethane, 1,1'-oxybis-	uncertainty
322.55	2.86	.0858
332.55	2.81	.0843
342.85	2.91	.0873

System: isopropyl ether + 1-(2-hydroxyethyl)-3-methylimidazolium bis[(trifluoromethyl)sulfonyl]imide; phases: Liquid, Gas
Fixed: Mole fraction of isopropyl ether = 0
Property: Activity coefficient of isopropyl ether (Liquid); method: Chromatography
Temperature, K	Activity coefficient of isopropyl ether	uncertainty
322.55	7.13	.2139
332.55	7.13	.2139
342.85	7.3	.219

System: chloroform + 1-(2-hydroxyethyl)-3-methylimidazolium bis[(trifluoromethyl)sulfonyl]imide; phases: Liquid, Gas
Fixed: Mole fraction of chloroform = 0
Property: Activity coefficient of chloroform (Liquid); method: Chromatography
Temperature, K	Activity coefficient of chloroform	uncertainty
322.55	1.89	.0567
332.55	1.91	.0573
342.85	1.86	.0558

System: methylene chloride + 1-(2-hydroxyethyl)-3-methylimidazolium bis[(trifluoromethyl)sulfonyl]imide; phases: Liquid, Gas
Fixed: Mole fraction of methylene chloride = 0
Property: Activity coefficient of methylene chloride (Liquid); method: Chromatography
Temperature, K	Activity coefficient of methylene chloride	uncertainty
322.55	1.21	.0363
332.55	1.25	.0375
342.85	1.25	.0375

System: carbon tetrachloride + 1-(2-hydroxyethyl)-3-methylimidazolium bis[(trifluoromethyl)sulfonyl]imide; phases: Liquid, Gas
Fixed: Mole fraction of carbon tetrachloride = 0
Property: Activity coefficient of carbon tetrachloride (Liquid); method: Chromatography
Temperature, K	Activity coefficient of carbon tetrachloride	uncertainty
322.55	6.61	.1983
332.55	6.41	.1923
342.85	5.82	.1746

System: methylnitrile + 1-(2-hydroxyethyl)-3-methylimidazolium bis[(trifluoromethyl)sulfonyl]imide; phases: Liquid, Gas
Fixed: Mole fraction of methylnitrile = 0
Property: Activity coefficient of methylnitrile (Liquid); method: Chromatography
Temperature, K	Activity coefficient of methylnitrile	uncertainty
322.55	.48	.0144
332.55	.48	.0144
342.85	.48	.0144

System: nitromethane + 1-(2-hydroxyethyl)-3-methylimidazolium bis[(trifluoromethyl)sulfonyl]imide; phases: Liquid, Gas
Fixed: Mole fraction of nitromethane = 0
Property: Activity coefficient of nitromethane (Liquid); method: Chromatography
Temperature, K	Activity coefficient of nitromethane	uncertainty
322.55	.64	.0192
332.55	.64	.0192
342.85	.64	.0192

System: 1-nitropropane + 1-(2-hydroxyethyl)-3-methylimidazolium bis[(trifluoromethyl)sulfonyl]imide; phases: Liquid, Gas
Fixed: Mole fraction of 1-nitropropane = 0
Property: Activity coefficient of 1-nitropropane (Liquid); method: Chromatography
Temperature, K	Activity coefficient of 1-nitropropane	uncertainty
322.55	1.14	.0342
332.55	1.13	.0339
342.85	1.12	.0336

System: triethylamine + 1-(2-hydroxyethyl)-3-methylimidazolium bis[(trifluoromethyl)sulfonyl]imide; phases: Liquid, Gas
Fixed: Mole fraction of triethylamine = 0
Property: Activity coefficient of triethylamine (Liquid); method: Chromatography
Temperature, K	Activity coefficient of triethylamine	uncertainty
322.55	4.86	.1458
332.55	4.53	.1359
342.85	4.28	.1284

System: azine + 1-(2-hydroxyethyl)-3-methylimidazolium bis[(trifluoromethyl)sulfonyl]imide; phases: Liquid, Gas
Fixed: Mole fraction of azine = 0
Property: Activity coefficient of azine (Liquid); method: Chromatography
Temperature, K	Activity coefficient of azine	uncertainty
322.55	.28	.0084
332.55	.62	.0186
342.85	1.44	.0432

System: thiophene + 1-(2-hydroxyethyl)-3-methylimidazolium bis[(trifluoromethyl)sulfonyl]imide; phases: Liquid, Gas
Fixed: Mole fraction of thiophene = 0
Property: Activity coefficient of thiophene (Liquid); method: Chromatography
Temperature, K	Activity coefficient of thiophene	uncertainty
322.55	1.77	.0531
332.55	1.77	.0531
342.85	1.71	.0513

System: methanal + 1-(2-hydroxyethyl)-3-methylimidazolium bis[(trifluoromethyl)sulfonyl]imide; phases: Liquid, Gas
Fixed: Mole fraction of methanal = 0
Property: Activity coefficient of methanal (Liquid); method: Chromatography
Temperature, K	Activity coefficient of methanal	uncertainty
322.55	.14	.0042
332.55	.16	.0048
342.85	.26	.0078

System: n-propionaldehyde + 1-(2-hydroxyethyl)-3-methylimidazolium bis[(trifluoromethyl)sulfonyl]imide; phases: Liquid, Gas
Fixed: Mole fraction of n-propionaldehyde = 0
Property: Activity coefficient of n-propionaldehyde (Liquid); method: Chromatography
Temperature, K	Activity coefficient of n-propionaldehyde	uncertainty
322.55	.72	.0216
332.55	.72	.0216
342.85	.71	.0213

System: 1-propanecarbaldehyde + 1-(2-hydroxyethyl)-3-methylimidazolium bis[(trifluoromethyl)sulfonyl]imide; phases: Liquid, Gas
Fixed: Mole fraction of 1-propanecarbaldehyde = 0
Property: Activity coefficient of 1-propanecarbaldehyde (Liquid); method: Chromatography
Temperature, K	Activity coefficient of 1-propanecarbaldehyde	uncertainty
322.55	1.11	.0333
332.55	1.11	.0333
342.85	1.11	.0333

System: n-hexane + 3-(2-methoxyethyl)-1-methylimidazolium 1,1,1-trifluoro-N-[(trifluoromethyl)sulfonyl]methanesulfonamide; phases: Liquid, Gas
Fixed: Mole fraction of n-hexane = 0
Property: Activity coefficient of n-hexane (Liquid); method: Chromatography
Temperature, K	Activity coefficient of n-hexane	uncertainty
332.65	18.3	.549
342.75	16.34	.4902
353.15	15.32	.4596

System: 3-methylpentane + 3-(2-methoxyethyl)-1-methylimidazolium 1,1,1-trifluoro-N-[(trifluoromethyl)sulfonyl]methanesulfonamide; phases: Liquid, Gas
Fixed: Mole fraction of 3-methylpentane = 0
Property: Activity coefficient of 3-methylpentane (Liquid); method: Chromatography
Temperature, K	Activity coefficient of 3-methylpentane	uncertainty
332.65	15.8	.474
342.75	14.62	.4386
353.15	13.37	.4011

System: heptane + 3-(2-methoxyethyl)-1-methylimidazolium 1,1,1-trifluoro-N-[(trifluoromethyl)sulfonyl]methanesulfonamide; phases: Liquid, Gas
Fixed: Mole fraction of heptane = 0
Property: Activity coefficient of heptane (Liquid); method: Chromatography
Temperature, K	Activity coefficient of heptane	uncertainty
332.65	28.38	.8514
342.75	26.18	.7854
353.15	23.02	.6906

System: pentane, 2,2,4-trimethyl- + 3-(2-methoxyethyl)-1-methylimidazolium 1,1,1-trifluoro-N-[(trifluoromethyl)sulfonyl]methanesulfonamide; phases: Liquid, Gas
Fixed: Mole fraction of pentane, 2,2,4-trimethyl- = 0
Property: Activity coefficient of pentane, 2,2,4-trimethyl- (Liquid); method: Chromatography
Temperature, K	Activity coefficient of pentane, 2,2,4-trimethyl-	uncertainty
332.65	27.4	.822
342.75	24.91	.7473
353.15	22.94	.6882

System: octane + 3-(2-methoxyethyl)-1-methylimidazolium 1,1,1-trifluoro-N-[(trifluoromethyl)sulfonyl]methanesulfonamide; phases: Liquid, Gas
Fixed: Mole fraction of octane = 0
Property: Activity coefficient of octane (Liquid); method: Chromatography
Temperature, K	Activity coefficient of octane	uncertainty
332.65	43.63	1.3089
342.75	38.91	1.1673
353.15	34.67	1.0401

System: nonane + 3-(2-methoxyethyl)-1-methylimidazolium 1,1,1-trifluoro-N-[(trifluoromethyl)sulfonyl]methanesulfonamide; phases: Liquid, Gas
Fixed: Mole fraction of nonane = 0
Property: Activity coefficient of nonane (Liquid); method: Chromatography
Temperature, K	Activity coefficient of nonane	uncertainty
332.65	72.21	2.1663
342.75	62.69	1.8807
353.15	54.95	1.6485

System: decane + 3-(2-methoxyethyl)-1-methylimidazolium 1,1,1-trifluoro-N-[(trifluoromethyl)sulfonyl]methanesulfonamide; phases: Liquid, Gas
Fixed: Mole fraction of decane = 0
Property: Activity coefficient of decane (Liquid); method: Chromatography
Temperature, K	Activity coefficient of decane	uncertainty
332.65	100.09	3.0027
342.75	86.65	2.5995
353.15	75.78	2.2734

System: n-undecane + 3-(2-methoxyethyl)-1-methylimidazolium 1,1,1-trifluoro-N-[(trifluoromethyl)sulfonyl]methanesulfonamide; phases: Liquid, Gas
Fixed: Mole fraction of n-undecane = 0
Property: Activity coefficient of n-undecane (Liquid); method: Chromatography
Temperature, K	Activity coefficient of n-undecane	uncertainty
332.65	150.07	4.5021
342.75	128.36	3.8508
353.15	109.41	3.2823

System: dodecane + 3-(2-methoxyethyl)-1-methylimidazolium 1,1,1-trifluoro-N-[(trifluoromethyl)sulfonyl]methanesulfonamide; phases: Liquid, Gas
Fixed: Mole fraction of dodecane = 0
Property: Activity coefficient of dodecane (Liquid); method: Chromatography
Temperature, K	Activity coefficient of dodecane	uncertainty
332.65	218	6.54
342.75	186.21	5.5863
353.15	157.15	4.7145

System: tridecane + 3-(2-methoxyethyl)-1-methylimidazolium 1,1,1-trifluoro-N-[(trifluoromethyl)sulfonyl]methanesulfonamide; phases: Liquid, Gas
Fixed: Mole fraction of tridecane = 0
Property: Activity coefficient of tridecane (Liquid); method: Chromatography
Temperature, K	Activity coefficient of tridecane	uncertainty
342.75	275.09	8.2527
353.15	229.14	6.8742

System: tetradecane + 3-(2-methoxyethyl)-1-methylimidazolium 1,1,1-trifluoro-N-[(trifluoromethyl)sulfonyl]methanesulfonamide; phases: Liquid, Gas
Fixed: Mole fraction of tetradecane = 0
Property: Activity coefficient of tetradecane (Liquid); method: Chromatography
Temperature, K	Activity coefficient of tetradecane	uncertainty
342.75	391.5	11.745
353.15	325.31	9.7593

System: methylcyclopentane + 3-(2-methoxyethyl)-1-methylimidazolium 1,1,1-trifluoro-N-[(trifluoromethyl)sulfonyl]methanesulfonamide; phases: Liquid, Gas
Fixed: Mole fraction of methylcyclopentane = 0
Property: Activity coefficient of methylcyclopentane (Liquid); method: Chromatography
Temperature, K	Activity coefficient of methylcyclopentane	uncertainty
332.65	11.02	.3306
342.75	10.24	.3072
353.15	7.85	.2355

System: cyclohexane + 3-(2-methoxyethyl)-1-methylimidazolium 1,1,1-trifluoro-N-[(trifluoromethyl)sulfonyl]methanesulfonamide; phases: Liquid, Gas
Fixed: Mole fraction of cyclohexane = 0
Property: Activity coefficient of cyclohexane (Liquid); method: Chromatography
Temperature, K	Activity coefficient of cyclohexane	uncertainty
332.65	11	.33
342.75	10.06	.3018
353.15	9.36	.2808

System: methylcyclohexane + 3-(2-methoxyethyl)-1-methylimidazolium 1,1,1-trifluoro-N-[(trifluoromethyl)sulfonyl]methanesulfonamide; phases: Liquid, Gas
Fixed: Mole fraction of methylcyclohexane = 0
Property: Activity coefficient of methylcyclohexane (Liquid); method: Chromatography
Temperature, K	Activity coefficient of methylcyclohexane	uncertainty
332.65	15.77	.4731
342.75	14.37	.4311
353.15	13.15	.3945

System: cycloheptane + 3-(2-methoxyethyl)-1-methylimidazolium 1,1,1-trifluoro-N-[(trifluoromethyl)sulfonyl]methanesulfonamide; phases: Liquid, Gas
Fixed: Mole fraction of cycloheptane = 0
Property: Activity coefficient of cycloheptane (Liquid); method: Chromatography
Temperature, K	Activity coefficient of cycloheptane	uncertainty
332.65	15.62	.4686
342.75	14.24	.4272
353.15	13.07	.3921

System: benzene + 3-(2-methoxyethyl)-1-methylimidazolium 1,1,1-trifluoro-N-[(trifluoromethyl)sulfonyl]methanesulfonamide; phases: Liquid, Gas
Fixed: Mole fraction of benzene = 0
Property: Activity coefficient of benzene (Liquid); method: Chromatography
Temperature, K	Activity coefficient of benzene	uncertainty
332.65	1.18	.0354
342.75	1.19	.0357
353.15	1.16	.0348

System: toluene + 3-(2-methoxyethyl)-1-methylimidazolium 1,1,1-trifluoro-N-[(trifluoromethyl)sulfonyl]methanesulfonamide; phases: Liquid, Gas
Fixed: Mole fraction of toluene = 0
Property: Activity coefficient of toluene (Liquid); method: Chromatography
Temperature, K	Activity coefficient of toluene	uncertainty
332.65	1.76	.0528
342.75	1.78	.0534
353.15	1.77	.0531

System: ethylbenzene + 3-(2-methoxyethyl)-1-methylimidazolium 1,1,1-trifluoro-N-[(trifluoromethyl)sulfonyl]methanesulfonamide; phases: Liquid, Gas
Fixed: Mole fraction of ethylbenzene = 0
Property: Activity coefficient of ethylbenzene (Liquid); method: Chromatography
Temperature, K	Activity coefficient of ethylbenzene	uncertainty
332.65	2.74	.0822
342.75	2.74	.0822
353.15	2.69	.0807

System: 1,3-dimethylbenzene + 3-(2-methoxyethyl)-1-methylimidazolium 1,1,1-trifluoro-N-[(trifluoromethyl)sulfonyl]methanesulfonamide; phases: Liquid, Gas
Fixed: Mole fraction of 1,3-dimethylbenzene = 0
Property: Activity coefficient of 1,3-dimethylbenzene (Liquid); method: Chromatography
Temperature, K	Activity coefficient of 1,3-dimethylbenzene	uncertainty
332.65	2.75	.0825
342.75	2.75	.0825
353.15	2.73	.0819

System: 1,4-dimethylbenzene + 3-(2-methoxyethyl)-1-methylimidazolium 1,1,1-trifluoro-N-[(trifluoromethyl)sulfonyl]methanesulfonamide; phases: Liquid, Gas
Fixed: Mole fraction of 1,4-dimethylbenzene = 0
Property: Activity coefficient of 1,4-dimethylbenzene (Liquid); method: Chromatography
Temperature, K	Activity coefficient of 1,4-dimethylbenzene	uncertainty
332.65	2.74	.0822
342.75	2.72	.0816
353.15	2.65	.0795

System: 1,2-dimethylbenzene + 3-(2-methoxyethyl)-1-methylimidazolium 1,1,1-trifluoro-N-[(trifluoromethyl)sulfonyl]methanesulfonamide; phases: Liquid, Gas
Fixed: Mole fraction of 1,2-dimethylbenzene = 0
Property: Activity coefficient of 1,2-dimethylbenzene (Liquid); method: Chromatography
Temperature, K	Activity coefficient of 1,2-dimethylbenzene	uncertainty
332.65	2.44	.0732
342.75	2.45	.0735
353.15	2.45	.0735

System: 1-hexene + 3-(2-methoxyethyl)-1-methylimidazolium 1,1,1-trifluoro-N-[(trifluoromethyl)sulfonyl]methanesulfonamide; phases: Liquid, Gas
Fixed: Mole fraction of 1-hexene = 0
Property: Activity coefficient of 1-hexene (Liquid); method: Chromatography
Temperature, K	Activity coefficient of 1-hexene	uncertainty
332.65	9.76	.2928
342.75	9.17	.2751
353.15	8.75	.2625

System: 1-hexyne + 3-(2-methoxyethyl)-1-methylimidazolium 1,1,1-trifluoro-N-[(trifluoromethyl)sulfonyl]methanesulfonamide; phases: Liquid, Gas
Fixed: Mole fraction of 1-hexyne = 0
Property: Activity coefficient of 1-hexyne (Liquid); method: Chromatography
Temperature, K	Activity coefficient of 1-hexyne	uncertainty
332.65	3.51	.1053
342.75	3.45	.1035
353.15	3.36	.1008

System: 1-heptyne + 3-(2-methoxyethyl)-1-methylimidazolium 1,1,1-trifluoro-N-[(trifluoromethyl)sulfonyl]methanesulfonamide; phases: Liquid, Gas
Fixed: Mole fraction of 1-heptyne = 0
Property: Activity coefficient of 1-heptyne (Liquid); method: Chromatography
Temperature, K	Activity coefficient of 1-heptyne	uncertainty
332.65	5.33	.1599
342.75	5.1	.153
353.15	5.03	.1509

System: ethyl methyl ketone + 3-(2-methoxyethyl)-1-methylimidazolium 1,1,1-trifluoro-N-[(trifluoromethyl)sulfonyl]methanesulfonamide; phases: Liquid, Gas
Fixed: Mole fraction of ethyl methyl ketone = 0
Property: Activity coefficient of ethyl methyl ketone (Liquid); method: Chromatography
Temperature, K	Activity coefficient of ethyl methyl ketone	uncertainty
332.65	.49	.0147
342.75	.45	.0135
353.15	.42	.0126

System: propyl methyl ketone + 3-(2-methoxyethyl)-1-methylimidazolium 1,1,1-trifluoro-N-[(trifluoromethyl)sulfonyl]methanesulfonamide; phases: Liquid, Gas
Fixed: Mole fraction of propyl methyl ketone = 0
Property: Activity coefficient of propyl methyl ketone (Liquid); method: Chromatography
Temperature, K	Activity coefficient of propyl methyl ketone	uncertainty
332.65	.86	.0258
342.75	.86	.0258
353.15	.87	.0261

System: 3-pentanone + 3-(2-methoxyethyl)-1-methylimidazolium 1,1,1-trifluoro-N-[(trifluoromethyl)sulfonyl]methanesulfonamide; phases: Liquid, Gas
Fixed: Mole fraction of 3-pentanone = 0
Property: Activity coefficient of 3-pentanone (Liquid); method: Chromatography
Temperature, K	Activity coefficient of 3-pentanone	uncertainty
332.65	.83	.0249
342.75	.85	.0255
353.15	.86	.0258

System: dioxane + 3-(2-methoxyethyl)-1-methylimidazolium 1,1,1-trifluoro-N-[(trifluoromethyl)sulfonyl]methanesulfonamide; phases: Liquid, Gas
Fixed: Mole fraction of dioxane = 0
Property: Activity coefficient of dioxane (Liquid); method: Chromatography
Temperature, K	Activity coefficient of dioxane	uncertainty
332.65	.6	.018
342.75	.61	.0183
353.15	.62	.0186

System: methanol + 3-(2-methoxyethyl)-1-methylimidazolium 1,1,1-trifluoro-N-[(trifluoromethyl)sulfonyl]methanesulfonamide; phases: Liquid, Gas
Fixed: Mole fraction of methanol = 0
Property: Activity coefficient of methanol (Liquid); method: Chromatography
Temperature, K	Activity coefficient of methanol	uncertainty
332.65	1.05	.0315
342.75	.97	.0291
353.15	.84	.0252

System: ethanol + 3-(2-methoxyethyl)-1-methylimidazolium 1,1,1-trifluoro-N-[(trifluoromethyl)sulfonyl]methanesulfonamide; phases: Liquid, Gas
Fixed: Mole fraction of ethanol = 0
Property: Activity coefficient of ethanol (Liquid); method: Chromatography
Temperature, K	Activity coefficient of ethanol	uncertainty
332.65	1.43	.0429
342.75	1.32	.0396
353.15	1.22	.0366

System: propan-1-ol + 3-(2-methoxyethyl)-1-methylimidazolium 1,1,1-trifluoro-N-[(trifluoromethyl)sulfonyl]methanesulfonamide; phases: Liquid, Gas
Fixed: Mole fraction of propan-1-ol = 0
Property: Activity coefficient of propan-1-ol (Liquid); method: Chromatography
Temperature, K	Activity coefficient of propan-1-ol	uncertainty
332.65	1.79	.0537
342.75	1.62	.0486
353.15	1.46	.0438

System: 2-propanol + 3-(2-methoxyethyl)-1-methylimidazolium 1,1,1-trifluoro-N-[(trifluoromethyl)sulfonyl]methanesulfonamide; phases: Liquid, Gas
Fixed: Mole fraction of 2-propanol = 0
Property: Activity coefficient of 2-propanol (Liquid); method: Chromatography
Temperature, K	Activity coefficient of 2-propanol	uncertainty
332.65	1.64	.0492
342.75	1.51	.0453
353.15	1.38	.0414

System: isobutanol + 3-(2-methoxyethyl)-1-methylimidazolium 1,1,1-trifluoro-N-[(trifluoromethyl)sulfonyl]methanesulfonamide; phases: Liquid, Gas
Fixed: Mole fraction of isobutanol = 0
Property: Activity coefficient of isobutanol (Liquid); method: Chromatography
Temperature, K	Activity coefficient of isobutanol	uncertainty
332.65	2.18	.0654
342.75	1.99	.0597
353.15	1.79	.0537

System: butan-1-ol + 3-(2-methoxyethyl)-1-methylimidazolium 1,1,1-trifluoro-N-[(trifluoromethyl)sulfonyl]methanesulfonamide; phases: Liquid, Gas
Fixed: Mole fraction of butan-1-ol = 0
Property: Activity coefficient of butan-1-ol (Liquid); method: Chromatography
Temperature, K	Activity coefficient of butan-1-ol	uncertainty
332.65	2.34	.0702
342.75	2.11	.0633
353.15	1.9	.057

System: ethanol, trifluoro- + 3-(2-methoxyethyl)-1-methylimidazolium 1,1,1-trifluoro-N-[(trifluoromethyl)sulfonyl]methanesulfonamide; phases: Liquid, Gas
Fixed: Mole fraction of ethanol, trifluoro- = 0
Property: Activity coefficient of ethanol, trifluoro- (Liquid); method: Chromatography
Temperature, K	Activity coefficient of ethanol, trifluoro-	uncertainty
332.65	.38	.0114
342.75	.37	.0111
353.15	.35	.0105

System: ethane, 1,1'-oxybis- + 3-(2-methoxyethyl)-1-methylimidazolium 1,1,1-trifluoro-N-[(trifluoromethyl)sulfonyl]methanesulfonamide; phases: Liquid, Gas
Fixed: Mole fraction of ethane, 1,1'-oxybis- = 0
Property: Activity coefficient of ethane, 1,1'-oxybis- (Liquid); method: Chromatography
Temperature, K	Activity coefficient of ethane, 1,1'-oxybis-	uncertainty
332.65	2.41	.0723
342.75	2.31	.0693
353.15	2.35	.0705

System: isopropyl ether + 3-(2-methoxyethyl)-1-methylimidazolium 1,1,1-trifluoro-N-[(trifluoromethyl)sulfonyl]methanesulfonamide; phases: Liquid, Gas
Fixed: Mole fraction of isopropyl ether = 0
Property: Activity coefficient of isopropyl ether (Liquid); method: Chromatography
Temperature, K	Activity coefficient of isopropyl ether	uncertainty
332.65	5.78	.1734
342.75	5.7	.171
353.15	5.41	.1623

System: chloroform + 3-(2-methoxyethyl)-1-methylimidazolium 1,1,1-trifluoro-N-[(trifluoromethyl)sulfonyl]methanesulfonamide; phases: Liquid, Gas
Fixed: Mole fraction of chloroform = 0
Property: Activity coefficient of chloroform (Liquid); method: Chromatography
Temperature, K	Activity coefficient of chloroform	uncertainty
332.65	.98	.0294
342.75	1.01	.0303
353.15	1.02	.0306

System: methylene chloride + 3-(2-methoxyethyl)-1-methylimidazolium 1,1,1-trifluoro-N-[(trifluoromethyl)sulfonyl]methanesulfonamide; phases: Liquid, Gas
Fixed: Mole fraction of methylene chloride = 0
Property: Activity coefficient of methylene chloride (Liquid); method: Chromatography
Temperature, K	Activity coefficient of methylene chloride	uncertainty
332.65	.72	.0216
342.75	.75	.0225
353.15	.76	.0228

System: carbon tetrachloride + 3-(2-methoxyethyl)-1-methylimidazolium 1,1,1-trifluoro-N-[(trifluoromethyl)sulfonyl]methanesulfonamide; phases: Liquid, Gas
Fixed: Mole fraction of carbon tetrachloride = 0
Property: Activity coefficient of carbon tetrachloride (Liquid); method: Chromatography
Temperature, K	Activity coefficient of carbon tetrachloride	uncertainty
332.65	3.03	.0909
342.75	2.99	.0897
353.15	2.92	.0876

System: methylnitrile + 3-(2-methoxyethyl)-1-methylimidazolium 1,1,1-trifluoro-N-[(trifluoromethyl)sulfonyl]methanesulfonamide; phases: Liquid, Gas
Fixed: Mole fraction of methylnitrile = 0
Property: Activity coefficient of methylnitrile (Liquid); method: Chromatography
Temperature, K	Activity coefficient of methylnitrile	uncertainty
332.65	.44	.0132
342.75	.44	.0132
353.15	.44	.0132

System: nitromethane + 3-(2-methoxyethyl)-1-methylimidazolium 1,1,1-trifluoro-N-[(trifluoromethyl)sulfonyl]methanesulfonamide; phases: Liquid, Gas
Fixed: Mole fraction of nitromethane = 0
Property: Activity coefficient of nitromethane (Liquid); method: Chromatography
Temperature, K	Activity coefficient of nitromethane	uncertainty
332.65	.49	.0147
342.75	.49	.0147
353.15	.48	.0144

System: 1-nitropropane + 3-(2-methoxyethyl)-1-methylimidazolium 1,1,1-trifluoro-N-[(trifluoromethyl)sulfonyl]methanesulfonamide; phases: Liquid, Gas
Fixed: Mole fraction of 1-nitropropane = 0
Property: Activity coefficient of 1-nitropropane (Liquid); method: Chromatography
Temperature, K	Activity coefficient of 1-nitropropane	uncertainty
332.65	.75	.0225
342.75	.75	.0225
353.15	.74	.0222

System: azine + 3-(2-methoxyethyl)-1-methylimidazolium 1,1,1-trifluoro-N-[(trifluoromethyl)sulfonyl]methanesulfonamide; phases: Liquid, Gas
Fixed: Mole fraction of azine = 0
Property: Activity coefficient of azine (Liquid); method: Chromatography
Temperature, K	Activity coefficient of azine	uncertainty
332.65	.58	.0174
342.75	.58	.0174
353.15	.59	.0177

System: thiophene + 3-(2-methoxyethyl)-1-methylimidazolium 1,1,1-trifluoro-N-[(trifluoromethyl)sulfonyl]methanesulfonamide; phases: Liquid, Gas
Fixed: Mole fraction of thiophene = 0
Property: Activity coefficient of thiophene (Liquid); method: Chromatography
Temperature, K	Activity coefficient of thiophene	uncertainty
332.65	1.01	.0303
342.75	1.02	.0306
353.15	1.01	.0303

System: methanal + 3-(2-methoxyethyl)-1-methylimidazolium 1,1,1-trifluoro-N-[(trifluoromethyl)sulfonyl]methanesulfonamide; phases: Liquid, Gas
Fixed: Mole fraction of methanal = 0
Property: Activity coefficient of methanal (Liquid); method: Chromatography
Temperature, K	Activity coefficient of methanal	uncertainty
332.65	.07	.0021
342.75	.08	.0024
353.15	.09	.0027

System: n-propionaldehyde + 3-(2-methoxyethyl)-1-methylimidazolium 1,1,1-trifluoro-N-[(trifluoromethyl)sulfonyl]methanesulfonamide; phases: Liquid, Gas
Fixed: Mole fraction of n-propionaldehyde = 0
Property: Activity coefficient of n-propionaldehyde (Liquid); method: Chromatography
Temperature, K	Activity coefficient of n-propionaldehyde	uncertainty
332.65	.31	.0093
342.75	.32	.0096
353.15	.28	.0084

System: triethylamine + 3-(2-methoxyethyl)-1-methylimidazolium 1,1,1-trifluoro-N-[(trifluoromethyl)sulfonyl]methanesulfonamide; phases: Liquid, Gas
Fixed: Mole fraction of triethylamine = 0
Property: Activity coefficient of triethylamine (Liquid); method: Chromatography
Temperature, K	Activity coefficient of triethylamine	uncertainty
332.65	9.31	.2793
342.75	8.73	.2619
353.15	6.89	.2067

System: 1-propanecarbaldehyde + 3-(2-methoxyethyl)-1-methylimidazolium 1,1,1-trifluoro-N-[(trifluoromethyl)sulfonyl]methanesulfonamide; phases: Liquid, Gas
Fixed: Mole fraction of 1-propanecarbaldehyde = 0
Property: Activity coefficient of 1-propanecarbaldehyde (Liquid); method: Chromatography
Temperature, K	Activity coefficient of 1-propanecarbaldehyde	uncertainty
332.65	.28	.0084
342.75	.31	.0093
353.15	.33	.0099

System: n-hexane + 1,3-dimethoxyimidazolium 1,1,1-trifluoro-N-[(trifluoromethyl)sulfonyl]methanesulfonamide; phases: Liquid, Gas
Fixed: Mole fraction of n-hexane = 0
Property: Activity coefficient of n-hexane (Liquid); method: Chromatography
Temperature, K	Activity coefficient of n-hexane	uncertainty
312.45	44.89	1.3467
323.15	44.58	1.3374
332.7	36.03	1.0809

System: 3-methylpentane + 1,3-dimethoxyimidazolium 1,1,1-trifluoro-N-[(trifluoromethyl)sulfonyl]methanesulfonamide; phases: Liquid, Gas
Fixed: Mole fraction of 3-methylpentane = 0
Property: Activity coefficient of 3-methylpentane (Liquid); method: Chromatography
Temperature, K	Activity coefficient of 3-methylpentane	uncertainty
312.45	36.05	1.0815
323.15	35.2	1.056
332.7	28.73	.8619

System: heptane + 1,3-dimethoxyimidazolium 1,1,1-trifluoro-N-[(trifluoromethyl)sulfonyl]methanesulfonamide; phases: Liquid, Gas
Fixed: Mole fraction of heptane = 0
Property: Activity coefficient of heptane (Liquid); method: Chromatography
Temperature, K	Activity coefficient of heptane	uncertainty
312.45	76.55	2.2965
323.15	72.38	2.1714
332.7	27.48	.8244

System: pentane, 2,2,4-trimethyl- + 1,3-dimethoxyimidazolium 1,1,1-trifluoro-N-[(trifluoromethyl)sulfonyl]methanesulfonamide; phases: Liquid, Gas
Fixed: Mole fraction of pentane, 2,2,4-trimethyl- = 0
Property: Activity coefficient of pentane, 2,2,4-trimethyl- (Liquid); method: Chromatography
Temperature, K	Activity coefficient of pentane, 2,2,4-trimethyl-	uncertainty
312.45	71.22	2.1366
323.15	69.04	2.0712
332.7	52.53	1.5759

System: octane + 1,3-dimethoxyimidazolium 1,1,1-trifluoro-N-[(trifluoromethyl)sulfonyl]methanesulfonamide; phases: Liquid, Gas
Fixed: Mole fraction of octane = 0
Property: Activity coefficient of octane (Liquid); method: Chromatography
Temperature, K	Activity coefficient of octane	uncertainty
312.45	127.18	3.8154
323.15	116.58	3.4974
332.7	94.12	2.8236

System: nonane + 1,3-dimethoxyimidazolium 1,1,1-trifluoro-N-[(trifluoromethyl)sulfonyl]methanesulfonamide; phases: Liquid, Gas
Fixed: Mole fraction of nonane = 0
Property: Activity coefficient of nonane (Liquid); method: Chromatography
Temperature, K	Activity coefficient of nonane	uncertainty
312.45	231.38	6.9414
323.15	211.27	6.3381
332.7	162.07	4.8621

System: decane + 1,3-dimethoxyimidazolium 1,1,1-trifluoro-N-[(trifluoromethyl)sulfonyl]methanesulfonamide; phases: Liquid, Gas
Fixed: Mole fraction of decane = 0
Property: Activity coefficient of decane (Liquid); method: Chromatography
Temperature, K	Activity coefficient of decane	uncertainty
312.45	339.55	10.1865
323.15	305.42	9.1626
332.7	238.18	7.1454

System: n-undecane + 1,3-dimethoxyimidazolium 1,1,1-trifluoro-N-[(trifluoromethyl)sulfonyl]methanesulfonamide; phases: Liquid, Gas
Fixed: Mole fraction of n-undecane = 0
Property: Activity coefficient of n-undecane (Liquid); method: Chromatography
Temperature, K	Activity coefficient of n-undecane	uncertainty
312.45	551.18	16.5354
323.15	482.89	14.4867
332.7	392.25	11.7675

System: dodecane + 1,3-dimethoxyimidazolium 1,1,1-trifluoro-N-[(trifluoromethyl)sulfonyl]methanesulfonamide; phases: Liquid, Gas
Fixed: Mole fraction of dodecane = 0
Property: Activity coefficient of dodecane (Liquid); method: Chromatography
Temperature, K	Activity coefficient of dodecane	uncertainty
312.45	770.62	23.1186
323.15	717.33	21.5199
332.7	599	17.97

System: tridecane + 1,3-dimethoxyimidazolium 1,1,1-trifluoro-N-[(trifluoromethyl)sulfonyl]methanesulfonamide; phases: Liquid, Gas
Fixed: Mole fraction of tridecane = 0
Property: Activity coefficient of tridecane (Liquid); method: Chromatography
Temperature, K	Activity coefficient of tridecane	uncertainty
312.45	1259	37.77
323.15	1216.13	36.4839
332.7	935.58	28.0674

System: tetradecane + 1,3-dimethoxyimidazolium 1,1,1-trifluoro-N-[(trifluoromethyl)sulfonyl]methanesulfonamide; phases: Liquid, Gas
Fixed: Mole fraction of tetradecane = 0
Property: Activity coefficient of tetradecane (Liquid); method: Chromatography
Temperature, K	Activity coefficient of tetradecane	uncertainty
312.45	1913	57.39
323.15	1646.5	49.395
332.7	1368.38	41.0514

System: methylcyclopentane + 1,3-dimethoxyimidazolium 1,1,1-trifluoro-N-[(trifluoromethyl)sulfonyl]methanesulfonamide; phases: Liquid, Gas
Fixed: Mole fraction of methylcyclopentane = 0
Property: Activity coefficient of methylcyclopentane (Liquid); method: Chromatography
Temperature, K	Activity coefficient of methylcyclopentane	uncertainty
312.45	25.42	.7626
323.15	22.49	.6747
332.7	18.88	.5664

System: cyclohexane + 1,3-dimethoxyimidazolium 1,1,1-trifluoro-N-[(trifluoromethyl)sulfonyl]methanesulfonamide; phases: Liquid, Gas
Fixed: Mole fraction of cyclohexane = 0
Property: Activity coefficient of cyclohexane (Liquid); method: Chromatography
Temperature, K	Activity coefficient of cyclohexane	uncertainty
312.45	25.84	.7752
323.15	22.74	.6822
332.7	19.38	.5814

System: methylcyclohexane + 1,3-dimethoxyimidazolium 1,1,1-trifluoro-N-[(trifluoromethyl)sulfonyl]methanesulfonamide; phases: Liquid, Gas
Fixed: Mole fraction of methylcyclohexane = 0
Property: Activity coefficient of methylcyclohexane (Liquid); method: Chromatography
Temperature, K	Activity coefficient of methylcyclohexane	uncertainty
312.45	39.76	1.1928
323.15	34.25	1.0275
332.7	30.31	.9093

System: cycloheptane + 1,3-dimethoxyimidazolium 1,1,1-trifluoro-N-[(trifluoromethyl)sulfonyl]methanesulfonamide; phases: Liquid, Gas
Fixed: Mole fraction of cycloheptane = 0
Property: Activity coefficient of cycloheptane (Liquid); method: Chromatography
Temperature, K	Activity coefficient of cycloheptane	uncertainty
312.45	55.35	1.6605
323.15	73.23	2.1969
332.7	92.28	2.7684

System: benzene + 1,3-dimethoxyimidazolium 1,1,1-trifluoro-N-[(trifluoromethyl)sulfonyl]methanesulfonamide; phases: Liquid, Gas
Fixed: Mole fraction of benzene = 0
Property: Activity coefficient of benzene (Liquid); method: Chromatography
Temperature, K	Activity coefficient of benzene	uncertainty
312.45	2.16	.0648
323.15	2.09	.0627
332.7	2.03	.0609

System: toluene + 1,3-dimethoxyimidazolium 1,1,1-trifluoro-N-[(trifluoromethyl)sulfonyl]methanesulfonamide; phases: Liquid, Gas
Fixed: Mole fraction of toluene = 0
Property: Activity coefficient of toluene (Liquid); method: Chromatography
Temperature, K	Activity coefficient of toluene	uncertainty
312.45	3.33	.0999
323.15	3.15	.0945
332.7	3.1	.093

System: ethylbenzene + 1,3-dimethoxyimidazolium 1,1,1-trifluoro-N-[(trifluoromethyl)sulfonyl]methanesulfonamide; phases: Liquid, Gas
Fixed: Mole fraction of ethylbenzene = 0
Property: Activity coefficient of ethylbenzene (Liquid); method: Chromatography
Temperature, K	Activity coefficient of ethylbenzene	uncertainty
312.45	5.62	.1686
323.15	5.24	.1572
332.7	5.21	.1563

System: 1,3-dimethylbenzene + 1,3-dimethoxyimidazolium 1,1,1-trifluoro-N-[(trifluoromethyl)sulfonyl]methanesulfonamide; phases: Liquid, Gas
Fixed: Mole fraction of 1,3-dimethylbenzene = 0
Property: Activity coefficient of 1,3-dimethylbenzene (Liquid); method: Chromatography
Temperature, K	Activity coefficient of 1,3-dimethylbenzene	uncertainty
312.45	5.37	.1611
323.15	4.99	.1497
332.7	4.88	.1464

System: 1,4-dimethylbenzene + 1,3-dimethoxyimidazolium 1,1,1-trifluoro-N-[(trifluoromethyl)sulfonyl]methanesulfonamide; phases: Liquid, Gas
Fixed: Mole fraction of 1,4-dimethylbenzene = 0
Property: Activity coefficient of 1,4-dimethylbenzene (Liquid); method: Chromatography
Temperature, K	Activity coefficient of 1,4-dimethylbenzene	uncertainty
312.45	5.38	.1614
323.15	4.99	.1497
332.7	4.88	.1464

System: 1,2-dimethylbenzene + 1,3-dimethoxyimidazolium 1,1,1-trifluoro-N-[(trifluoromethyl)sulfonyl]methanesulfonamide; phases: Liquid, Gas
Fixed: Mole fraction of 1,2-dimethylbenzene = 0
Property: Activity coefficient of 1,2-dimethylbenzene (Liquid); method: Chromatography
Temperature, K	Activity coefficient of 1,2-dimethylbenzene	uncertainty
312.45	4.77	.1431
323.15	4.4	.132
332.7	4.31	.1293

System: 1-hexene + 1,3-dimethoxyimidazolium 1,1,1-trifluoro-N-[(trifluoromethyl)sulfonyl]methanesulfonamide; phases: Liquid, Gas
Fixed: Mole fraction of 1-hexene = 0
Property: Activity coefficient of 1-hexene (Liquid); method: Chromatography
Temperature, K	Activity coefficient of 1-hexene	uncertainty
312.45	21.35	.6405
323.15	19.37	.5811
332.7	17.7	.531

System: 1-hexyne + 1,3-dimethoxyimidazolium 1,1,1-trifluoro-N-[(trifluoromethyl)sulfonyl]methanesulfonamide; phases: Liquid, Gas
Fixed: Mole fraction of 1-hexyne = 0
Property: Activity coefficient of 1-hexyne (Liquid); method: Chromatography
Temperature, K	Activity coefficient of 1-hexyne	uncertainty
312.45	6.71	.2013
323.15	6.34	.1902
332.7	6.12	.1836

System: 1-heptyne + 1,3-dimethoxyimidazolium 1,1,1-trifluoro-N-[(trifluoromethyl)sulfonyl]methanesulfonamide; phases: Liquid, Gas
Fixed: Mole fraction of 1-heptyne = 0
Property: Activity coefficient of 1-heptyne (Liquid); method: Chromatography
Temperature, K	Activity coefficient of 1-heptyne	uncertainty
312.45	10.86	.3258
323.15	10.18	.3054
332.7	9.79	.2937

System: ethyl methyl ketone + 1,3-dimethoxyimidazolium 1,1,1-trifluoro-N-[(trifluoromethyl)sulfonyl]methanesulfonamide; phases: Liquid, Gas
Fixed: Mole fraction of ethyl methyl ketone = 0
Property: Activity coefficient of ethyl methyl ketone (Liquid); method: Chromatography
Temperature, K	Activity coefficient of ethyl methyl ketone	uncertainty
312.45	.54	.0162
323.15	.51	.0153
332.7	.49	.0147

System: propyl methyl ketone + 1,3-dimethoxyimidazolium 1,1,1-trifluoro-N-[(trifluoromethyl)sulfonyl]methanesulfonamide; phases: Liquid, Gas
Fixed: Mole fraction of propyl methyl ketone = 0
Property: Activity coefficient of propyl methyl ketone (Liquid); method: Chromatography
Temperature, K	Activity coefficient of propyl methyl ketone	uncertainty
312.45	.85	.0255
323.15	.9	.027
332.7	.94	.0282

System: 3-pentanone + 1,3-dimethoxyimidazolium 1,1,1-trifluoro-N-[(trifluoromethyl)sulfonyl]methanesulfonamide; phases: Liquid, Gas
Fixed: Mole fraction of 3-pentanone = 0
Property: Activity coefficient of 3-pentanone (Liquid); method: Chromatography
Temperature, K	Activity coefficient of 3-pentanone	uncertainty
312.45	.88	.0264
323.15	.88	.0264
332.7	.94	.0282

System: dioxane + 1,3-dimethoxyimidazolium 1,1,1-trifluoro-N-[(trifluoromethyl)sulfonyl]methanesulfonamide; phases: Liquid, Gas
Fixed: Mole fraction of dioxane = 0
Property: Activity coefficient of dioxane (Liquid); method: Chromatography
Temperature, K	Activity coefficient of dioxane	uncertainty
312.45	.45	.0135
323.15	.51	.0153
332.7	.54	.0162

System: methanol + 1,3-dimethoxyimidazolium 1,1,1-trifluoro-N-[(trifluoromethyl)sulfonyl]methanesulfonamide; phases: Liquid, Gas
Fixed: Mole fraction of methanol = 0
Property: Activity coefficient of methanol (Liquid); method: Chromatography
Temperature, K	Activity coefficient of methanol	uncertainty
312.45	1.1	.033
323.15	1.06	.0318
332.7	.99	.0297

System: ethanol + 1,3-dimethoxyimidazolium 1,1,1-trifluoro-N-[(trifluoromethyl)sulfonyl]methanesulfonamide; phases: Liquid, Gas
Fixed: Mole fraction of ethanol = 0
Property: Activity coefficient of ethanol (Liquid); method: Chromatography
Temperature, K	Activity coefficient of ethanol	uncertainty
312.45	1.65	.0495
323.15	1.53	.0459
332.7	1.43	.0429

System: propan-1-ol + 1,3-dimethoxyimidazolium 1,1,1-trifluoro-N-[(trifluoromethyl)sulfonyl]methanesulfonamide; phases: Liquid, Gas
Fixed: Mole fraction of propan-1-ol = 0
Property: Activity coefficient of propan-1-ol (Liquid); method: Chromatography
Temperature, K	Activity coefficient of propan-1-ol	uncertainty
312.45	2.47	.0741
323.15	2.15	.0645
332.7	2.02	.0606

System: 2-propanol + 1,3-dimethoxyimidazolium 1,1,1-trifluoro-N-[(trifluoromethyl)sulfonyl]methanesulfonamide; phases: Liquid, Gas
Fixed: Mole fraction of 2-propanol = 0
Property: Activity coefficient of 2-propanol (Liquid); method: Chromatography
Temperature, K	Activity coefficient of 2-propanol	uncertainty
312.45	1.98	.0594
323.15	1.88	.0564
332.7	1.74	.0522

System: isobutanol + 1,3-dimethoxyimidazolium 1,1,1-trifluoro-N-[(trifluoromethyl)sulfonyl]methanesulfonamide; phases: Liquid, Gas
Fixed: Mole fraction of isobutanol = 0
Property: Activity coefficient of isobutanol (Liquid); method: Chromatography
Temperature, K	Activity coefficient of isobutanol	uncertainty
312.45	3.41	.1023
323.15	2.86	.0858
332.7	2.66	.0798

System: butan-1-ol + 1,3-dimethoxyimidazolium 1,1,1-trifluoro-N-[(trifluoromethyl)sulfonyl]methanesulfonamide; phases: Liquid, Gas
Fixed: Mole fraction of butan-1-ol = 0
Property: Activity coefficient of butan-1-ol (Liquid); method: Chromatography
Temperature, K	Activity coefficient of butan-1-ol	uncertainty
312.45	3.65	.1095
323.15	3.15	.0945
332.7	2.85	.0855

System: ethanol, trifluoro- + 1,3-dimethoxyimidazolium 1,1,1-trifluoro-N-[(trifluoromethyl)sulfonyl]methanesulfonamide; phases: Liquid, Gas
Fixed: Mole fraction of ethanol, trifluoro- = 0
Property: Activity coefficient of ethanol, trifluoro- (Liquid); method: Chromatography
Temperature, K	Activity coefficient of ethanol, trifluoro-	uncertainty
312.45	.57	.0171
323.15	.53	.0159
332.7	.52	.0156

System: ethane, 1,1'-oxybis- + 1,3-dimethoxyimidazolium 1,1,1-trifluoro-N-[(trifluoromethyl)sulfonyl]methanesulfonamide; phases: Liquid, Gas
Fixed: Mole fraction of ethane, 1,1'-oxybis- = 0
Property: Activity coefficient of ethane, 1,1'-oxybis- (Liquid); method: Chromatography
Temperature, K	Activity coefficient of ethane, 1,1'-oxybis-	uncertainty
312.45	2.74	.0822
323.15	2.77	.0831
332.7	2.78	.0834

System: isopropyl ether + 1,3-dimethoxyimidazolium 1,1,1-trifluoro-N-[(trifluoromethyl)sulfonyl]methanesulfonamide; phases: Liquid, Gas
Fixed: Mole fraction of isopropyl ether = 0
Property: Activity coefficient of isopropyl ether (Liquid); method: Chromatography
Temperature, K	Activity coefficient of isopropyl ether	uncertainty
312.45	7.45	.2235
323.15	7.28	.2184
332.7	7.31	.2193

System: chloroform + 1,3-dimethoxyimidazolium 1,1,1-trifluoro-N-[(trifluoromethyl)sulfonyl]methanesulfonamide; phases: Liquid, Gas
Fixed: Mole fraction of chloroform = 0
Property: Activity coefficient of chloroform (Liquid); method: Chromatography
Temperature, K	Activity coefficient of chloroform	uncertainty
312.45	1.7	.051
323.15	1.66	.0498
332.7	1.66	.0498

System: methylene chloride + 1,3-dimethoxyimidazolium 1,1,1-trifluoro-N-[(trifluoromethyl)sulfonyl]methanesulfonamide; phases: Liquid, Gas
Fixed: Mole fraction of methylene chloride = 0
Property: Activity coefficient of methylene chloride (Liquid); method: Chromatography
Temperature, K	Activity coefficient of methylene chloride	uncertainty
312.45	1.01	.0303
323.15	1.04	.0312
332.7	1.06	.0318

System: carbon tetrachloride + 1,3-dimethoxyimidazolium 1,1,1-trifluoro-N-[(trifluoromethyl)sulfonyl]methanesulfonamide; phases: Liquid, Gas
Fixed: Mole fraction of carbon tetrachloride = 0
Property: Activity coefficient of carbon tetrachloride (Liquid); method: Chromatography
Temperature, K	Activity coefficient of carbon tetrachloride	uncertainty
312.45	6.03	.1809
323.15	5.67	.1701
332.7	4.94	.1482

System: methylnitrile + 1,3-dimethoxyimidazolium 1,1,1-trifluoro-N-[(trifluoromethyl)sulfonyl]methanesulfonamide; phases: Liquid, Gas
Fixed: Mole fraction of methylnitrile = 0
Property: Activity coefficient of methylnitrile (Liquid); method: Chromatography
Temperature, K	Activity coefficient of methylnitrile	uncertainty
312.45	.42	.0126
323.15	.41	.0123
332.7	.42	.0126

System: nitromethane + 1,3-dimethoxyimidazolium 1,1,1-trifluoro-N-[(trifluoromethyl)sulfonyl]methanesulfonamide; phases: Liquid, Gas
Fixed: Mole fraction of nitromethane = 0
Property: Activity coefficient of nitromethane (Liquid); method: Chromatography
Temperature, K	Activity coefficient of nitromethane	uncertainty
312.45	.55	.0165
323.15	.52	.0156
332.7	.53	.0159

System: 1-nitropropane + 1,3-dimethoxyimidazolium 1,1,1-trifluoro-N-[(trifluoromethyl)sulfonyl]methanesulfonamide; phases: Liquid, Gas
Fixed: Mole fraction of 1-nitropropane = 0
Property: Activity coefficient of 1-nitropropane (Liquid); method: Chromatography
Temperature, K	Activity coefficient of 1-nitropropane	uncertainty
312.45	.91	.0273
323.15	.91	.0273
332.7	.91	.0273

System: triethylamine + 1,3-dimethoxyimidazolium 1,1,1-trifluoro-N-[(trifluoromethyl)sulfonyl]methanesulfonamide; phases: Liquid, Gas
Fixed: Mole fraction of triethylamine = 0
Property: Activity coefficient of triethylamine (Liquid); method: Chromatography
Temperature, K	Activity coefficient of triethylamine	uncertainty
312.45	4.36	.1308
323.15	4.36	.1308
332.7	4.37	.1311

System: azine + 1,3-dimethoxyimidazolium 1,1,1-trifluoro-N-[(trifluoromethyl)sulfonyl]methanesulfonamide; phases: Liquid, Gas
Fixed: Mole fraction of azine = 0
Property: Activity coefficient of azine (Liquid); method: Chromatography
Temperature, K	Activity coefficient of azine	uncertainty
312.45	.73	.0219
323.15	.62	.0186
332.7	.5	.015

System: thiophene + 1,3-dimethoxyimidazolium 1,1,1-trifluoro-N-[(trifluoromethyl)sulfonyl]methanesulfonamide; phases: Liquid, Gas
Fixed: Mole fraction of thiophene = 0
Property: Activity coefficient of thiophene (Liquid); method: Chromatography
Temperature, K	Activity coefficient of thiophene	uncertainty
312.45	1.83	.0549
323.15	1.8	.054
332.7	1.76	.0528

System: methanal + 1,3-dimethoxyimidazolium 1,1,1-trifluoro-N-[(trifluoromethyl)sulfonyl]methanesulfonamide; phases: Liquid, Gas
Fixed: Mole fraction of methanal = 0
Property: Activity coefficient of methanal (Liquid); method: Chromatography
Temperature, K	Activity coefficient of methanal	uncertainty
312.45	.11	.0033
323.15	.11	.0033
332.7	.12	.0036

System: n-propionaldehyde + 1,3-dimethoxyimidazolium 1,1,1-trifluoro-N-[(trifluoromethyl)sulfonyl]methanesulfonamide; phases: Liquid, Gas
Fixed: Mole fraction of n-propionaldehyde = 0
Property: Activity coefficient of n-propionaldehyde (Liquid); method: Chromatography
Temperature, K	Activity coefficient of n-propionaldehyde	uncertainty
312.45	.58	.0174
323.15	.55	.0165
332.7	.51	.0153

System: 1-propanecarbaldehyde + 1,3-dimethoxyimidazolium 1,1,1-trifluoro-N-[(trifluoromethyl)sulfonyl]methanesulfonamide; phases: Liquid, Gas
Fixed: Mole fraction of 1-propanecarbaldehyde = 0
Property: Activity coefficient of 1-propanecarbaldehyde (Liquid); method: Chromatography
Temperature, K	Activity coefficient of 1-propanecarbaldehyde	uncertainty
312.45	.94	.0282
323.15	.87	.0261
332.7	.82	.0246

System: n-hexane + 3-(3-cyanopropyl)-3-methylimidazolium cyanocyanamide; phases: Liquid, Gas
Fixed: Mole fraction of n-hexane = 0
Property: Activity coefficient of n-hexane (Liquid); method: Chromatography
Temperature, K	Activity coefficient of n-hexane	uncertainty
312.75	255.25	7.6575
322.55	240.87	7.2261
332.55	144.86	4.3458

System: 3-methylpentane + 3-(3-cyanopropyl)-3-methylimidazolium cyanocyanamide; phases: Liquid, Gas
Fixed: Mole fraction of 3-methylpentane = 0
Property: Activity coefficient of 3-methylpentane (Liquid); method: Chromatography
Temperature, K	Activity coefficient of 3-methylpentane	uncertainty
312.75	204.65	6.1395
322.55	181.9	5.457
332.55	133.13	3.9939

System: heptane + 3-(3-cyanopropyl)-3-methylimidazolium cyanocyanamide; phases: Liquid, Gas
Fixed: Mole fraction of heptane = 0
Property: Activity coefficient of heptane (Liquid); method: Chromatography
Temperature, K	Activity coefficient of heptane	uncertainty
312.75	590.88	17.7264
322.55	429.27	12.8781
332.55	286.94	8.6082

System: pentane, 2,2,4-trimethyl- + 3-(3-cyanopropyl)-3-methylimidazolium cyanocyanamide; phases: Liquid, Gas
Fixed: Mole fraction of pentane, 2,2,4-trimethyl- = 0
Property: Activity coefficient of pentane, 2,2,4-trimethyl- (Liquid); method: Chromatography
Temperature, K	Activity coefficient of pentane, 2,2,4-trimethyl-	uncertainty
312.75	529.55	15.8865
322.55	443.97	13.3191
332.55	294.38	8.8314

System: octane + 3-(3-cyanopropyl)-3-methylimidazolium cyanocyanamide; phases: Liquid, Gas
Fixed: Mole fraction of octane = 0
Property: Activity coefficient of octane (Liquid); method: Chromatography
Temperature, K	Activity coefficient of octane	uncertainty
312.75	736.63	22.0989
322.55	639.12	19.1736
332.55	501.59	15.0477

System: nonane + 3-(3-cyanopropyl)-3-methylimidazolium cyanocyanamide; phases: Liquid, Gas
Fixed: Mole fraction of nonane = 0
Property: Activity coefficient of nonane (Liquid); method: Chromatography
Temperature, K	Activity coefficient of nonane	uncertainty
312.75	1220.93	36.6279
322.55	1088.08	32.6424
332.55	938.87	28.1661

System: decane + 3-(3-cyanopropyl)-3-methylimidazolium cyanocyanamide; phases: Liquid, Gas
Fixed: Mole fraction of decane = 0
Property: Activity coefficient of decane (Liquid); method: Chromatography
Temperature, K	Activity coefficient of decane	uncertainty
312.75	1634.74	49.0422
322.55	1444.55	43.3365
332.55	1376.77	41.3031

System: dodecane + 3-(3-cyanopropyl)-3-methylimidazolium cyanocyanamide; phases: Liquid, Gas
Fixed: Mole fraction of dodecane = 0
Property: Activity coefficient of dodecane (Liquid); method: Chromatography
Temperature, K	Activity coefficient of dodecane	uncertainty
312.75	2847.35	85.4205
322.55	2571.19	77.1357
332.55	2518.27	75.5481

System: tridecane + 3-(3-cyanopropyl)-3-methylimidazolium cyanocyanamide; phases: Liquid, Gas
Fixed: Mole fraction of tridecane = 0
Property: Activity coefficient of tridecane (Liquid); method: Chromatography
Temperature, K	Activity coefficient of tridecane	uncertainty
312.75	3601.89	108.0567
322.55	3275.51	98.2653
332.55	3241.91	97.2573

System: methylcyclopentane + 3-(3-cyanopropyl)-3-methylimidazolium cyanocyanamide; phases: Liquid, Gas
Fixed: Mole fraction of methylcyclopentane = 0
Property: Activity coefficient of methylcyclopentane (Liquid); method: Chromatography
Temperature, K	Activity coefficient of methylcyclopentane	uncertainty
312.75	110.72	3.3216
322.55	94.77	2.8431
332.55	83.97	2.5191

System: cyclohexane + 3-(3-cyanopropyl)-3-methylimidazolium cyanocyanamide; phases: Liquid, Gas
Fixed: Mole fraction of cyclohexane = 0
Property: Activity coefficient of cyclohexane (Liquid); method: Chromatography
Temperature, K	Activity coefficient of cyclohexane	uncertainty
312.75	100.7	3.021
322.55	86.4	2.592
332.55	73.46	2.2038

System: methylcyclohexane + 3-(3-cyanopropyl)-3-methylimidazolium cyanocyanamide; phases: Liquid, Gas
Fixed: Mole fraction of methylcyclohexane = 0
Property: Activity coefficient of methylcyclohexane (Liquid); method: Chromatography
Temperature, K	Activity coefficient of methylcyclohexane	uncertainty
312.75	177.87	5.3361
322.55	151.09	4.5327
332.55	133.57	4.0071

System: cycloheptane + 3-(3-cyanopropyl)-3-methylimidazolium cyanocyanamide; phases: Liquid, Gas
Fixed: Mole fraction of cycloheptane = 0
Property: Activity coefficient of cycloheptane (Liquid); method: Chromatography
Temperature, K	Activity coefficient of cycloheptane	uncertainty
312.75	146.05	4.3815
322.55	128.03	3.8409
332.55	113.7	3.411

System: benzene + 3-(3-cyanopropyl)-3-methylimidazolium cyanocyanamide; phases: Liquid, Gas
Fixed: Mole fraction of benzene = 0
Property: Activity coefficient of benzene (Liquid); method: Chromatography
Temperature, K	Activity coefficient of benzene	uncertainty
312.75	4.56	.1368
322.55	4.48	.1344
332.55	4.42	.1326

System: toluene + 3-(3-cyanopropyl)-3-methylimidazolium cyanocyanamide; phases: Liquid, Gas
Fixed: Mole fraction of toluene = 0
Property: Activity coefficient of toluene (Liquid); method: Chromatography
Temperature, K	Activity coefficient of toluene	uncertainty
312.75	8.12	.2436
322.55	8	.24
332.55	7.87	.2361

System: ethylbenzene + 3-(3-cyanopropyl)-3-methylimidazolium cyanocyanamide; phases: Liquid, Gas
Fixed: Mole fraction of ethylbenzene = 0
Property: Activity coefficient of ethylbenzene (Liquid); method: Chromatography
Temperature, K	Activity coefficient of ethylbenzene	uncertainty
312.75	15.84	.4752
322.55	15.61	.4683
332.55	15.37	.4611

System: 1,3-dimethylbenzene + 3-(3-cyanopropyl)-3-methylimidazolium cyanocyanamide; phases: Liquid, Gas
Fixed: Mole fraction of 1,3-dimethylbenzene = 0
Property: Activity coefficient of 1,3-dimethylbenzene (Liquid); method: Chromatography
Temperature, K	Activity coefficient of 1,3-dimethylbenzene	uncertainty
312.75	15.63	.4689
322.55	15.27	.4581
332.55	14.86	.4458

System: 1,4-dimethylbenzene + 3-(3-cyanopropyl)-3-methylimidazolium cyanocyanamide; phases: Liquid, Gas
Fixed: Mole fraction of 1,4-dimethylbenzene = 0
Property: Activity coefficient of 1,4-dimethylbenzene (Liquid); method: Chromatography
Temperature, K	Activity coefficient of 1,4-dimethylbenzene	uncertainty
312.75	14.5	.435
322.55	14.31	.4293
332.55	14.05	.4215

System: 1,2-dimethylbenzene + 3-(3-cyanopropyl)-3-methylimidazolium cyanocyanamide; phases: Liquid, Gas
Fixed: Mole fraction of 1,2-dimethylbenzene = 0
Property: Activity coefficient of 1,2-dimethylbenzene (Liquid); method: Chromatography
Temperature, K	Activity coefficient of 1,2-dimethylbenzene	uncertainty
312.75	11.85	.3555
322.55	11.69	.3507
332.55	11.57	.3471

System: 1-hexene + 3-(3-cyanopropyl)-3-methylimidazolium cyanocyanamide; phases: Liquid, Gas
Fixed: Mole fraction of 1-hexene = 0
Property: Activity coefficient of 1-hexene (Liquid); method: Chromatography
Temperature, K	Activity coefficient of 1-hexene	uncertainty
312.75	91.46	2.7438
322.55	80.09	2.4027
332.55	75.32	2.2596

System: 1-hexyne + 3-(3-cyanopropyl)-3-methylimidazolium cyanocyanamide; phases: Liquid, Gas
Fixed: Mole fraction of 1-hexyne = 0
Property: Activity coefficient of 1-hexyne (Liquid); method: Chromatography
Temperature, K	Activity coefficient of 1-hexyne	uncertainty
312.75	18.31	.5493
322.55	17.45	.5235
332.55	16.77	.5031

System: 1-heptyne + 3-(3-cyanopropyl)-3-methylimidazolium cyanocyanamide; phases: Liquid, Gas
Fixed: Mole fraction of 1-heptyne = 0
Property: Activity coefficient of 1-heptyne (Liquid); method: Chromatography
Temperature, K	Activity coefficient of 1-heptyne	uncertainty
312.75	33.99	1.0197
322.55	32.55	.9765
332.55	31.52	.9456

System: ethyl methyl ketone + 3-(3-cyanopropyl)-3-methylimidazolium cyanocyanamide; phases: Liquid, Gas
Fixed: Mole fraction of ethyl methyl ketone = 0
Property: Activity coefficient of ethyl methyl ketone (Liquid); method: Chromatography
Temperature, K	Activity coefficient of ethyl methyl ketone	uncertainty
312.75	2.56	.0768
322.55	2.43	.0729
332.55	2.21	.0663

System: propyl methyl ketone + 3-(3-cyanopropyl)-3-methylimidazolium cyanocyanamide; phases: Liquid, Gas
Fixed: Mole fraction of propyl methyl ketone = 0
Property: Activity coefficient of propyl methyl ketone (Liquid); method: Chromatography
Temperature, K	Activity coefficient of propyl methyl ketone	uncertainty
312.75	5.02	.1506
322.55	5.06	.1518
332.55	5.02	.1506

System: 3-pentanone + 3-(3-cyanopropyl)-3-methylimidazolium cyanocyanamide; phases: Liquid, Gas
Fixed: Mole fraction of 3-pentanone = 0
Property: Activity coefficient of 3-pentanone (Liquid); method: Chromatography
Temperature, K	Activity coefficient of 3-pentanone	uncertainty
312.75	4.77	.1431
322.55	4.83	.1449
332.55	4.82	.1446

System: dioxane + 3-(3-cyanopropyl)-3-methylimidazolium cyanocyanamide; phases: Liquid, Gas
Fixed: Mole fraction of dioxane = 0
Property: Activity coefficient of dioxane (Liquid); method: Chromatography
Temperature, K	Activity coefficient of dioxane	uncertainty
312.75	1.56	.0468
322.55	1.59	.0477
332.55	1.62	.0486

System: methanol + 3-(3-cyanopropyl)-3-methylimidazolium cyanocyanamide; phases: Liquid, Gas
Fixed: Mole fraction of methanol = 0
Property: Activity coefficient of methanol (Liquid); method: Chromatography
Temperature, K	Activity coefficient of methanol	uncertainty
312.75	.59	.0177
322.55	.59	.0177
332.55	.58	.0174

System: ethanol + 3-(3-cyanopropyl)-3-methylimidazolium cyanocyanamide; phases: Liquid, Gas
Fixed: Mole fraction of ethanol = 0
Property: Activity coefficient of ethanol (Liquid); method: Chromatography
Temperature, K	Activity coefficient of ethanol	uncertainty
312.75	1.18	.0354
322.55	1.23	.0369
332.55	1.11	.0333

System: propan-1-ol + 3-(3-cyanopropyl)-3-methylimidazolium cyanocyanamide; phases: Liquid, Gas
Fixed: Mole fraction of propan-1-ol = 0
Property: Activity coefficient of propan-1-ol (Liquid); method: Chromatography
Temperature, K	Activity coefficient of propan-1-ol	uncertainty
312.75	1.67	.0501
322.55	1.92	.0576
332.55	1.53	.0459

System: 2-propanol + 3-(3-cyanopropyl)-3-methylimidazolium cyanocyanamide; phases: Liquid, Gas
Fixed: Mole fraction of 2-propanol = 0
Property: Activity coefficient of 2-propanol (Liquid); method: Chromatography
Temperature, K	Activity coefficient of 2-propanol	uncertainty
312.75	2.27	.0681
322.55	2.13	.0639
332.55	2.02	.0606

System: isobutanol + 3-(3-cyanopropyl)-3-methylimidazolium cyanocyanamide; phases: Liquid, Gas
Fixed: Mole fraction of isobutanol = 0
Property: Activity coefficient of isobutanol (Liquid); method: Chromatography
Temperature, K	Activity coefficient of isobutanol	uncertainty
312.75	3.23	.0969
322.55	2.99	.0897
332.55	2.82	.0846

System: butan-1-ol + 3-(3-cyanopropyl)-3-methylimidazolium cyanocyanamide; phases: Liquid, Gas
Fixed: Mole fraction of butan-1-ol = 0
Property: Activity coefficient of butan-1-ol (Liquid); method: Chromatography
Temperature, K	Activity coefficient of butan-1-ol	uncertainty
312.75	2.89	.0867
322.55	3.19	.0957
332.55	2.46	.0738

System: ethanol, trifluoro- + 3-(3-cyanopropyl)-3-methylimidazolium cyanocyanamide; phases: Liquid, Gas
Fixed: Mole fraction of ethanol, trifluoro- = 0
Property: Activity coefficient of ethanol, trifluoro- (Liquid); method: Chromatography
Temperature, K	Activity coefficient of ethanol, trifluoro-	uncertainty
312.75	.19	.0057
322.55	.21	.0063
332.55	.2	.006

System: ethane, 1,1'-oxybis- + 3-(3-cyanopropyl)-3-methylimidazolium cyanocyanamide; phases: Liquid, Gas
Fixed: Mole fraction of ethane, 1,1'-oxybis- = 0
Property: Activity coefficient of ethane, 1,1'-oxybis- (Liquid); method: Chromatography
Temperature, K	Activity coefficient of ethane, 1,1'-oxybis-	uncertainty
312.75	16.94	.5082
322.55	15.93	.4779
332.55	15.16	.4548

System: isopropyl ether + 3-(3-cyanopropyl)-3-methylimidazolium cyanocyanamide; phases: Liquid, Gas
Fixed: Mole fraction of isopropyl ether = 0
Property: Activity coefficient of isopropyl ether (Liquid); method: Chromatography
Temperature, K	Activity coefficient of isopropyl ether	uncertainty
312.75	68.77	2.0631
322.55	62.51	1.8753
332.55	58.26	1.7478

System: chloroform + 3-(3-cyanopropyl)-3-methylimidazolium cyanocyanamide; phases: Liquid, Gas
Fixed: Mole fraction of chloroform = 0
Property: Activity coefficient of chloroform (Liquid); method: Chromatography
Temperature, K	Activity coefficient of chloroform	uncertainty
312.75	1.41	.0423
322.55	1.48	.0444
332.55	1.57	.0471

System: methylene chloride + 3-(3-cyanopropyl)-3-methylimidazolium cyanocyanamide; phases: Liquid, Gas
Fixed: Mole fraction of methylene chloride = 0
Property: Activity coefficient of methylene chloride (Liquid); method: Chromatography
Temperature, K	Activity coefficient of methylene chloride	uncertainty
312.75	.94	.0282
322.55	1.02	.0306
332.55	1.11	.0333

System: carbon tetrachloride + 3-(3-cyanopropyl)-3-methylimidazolium cyanocyanamide; phases: Liquid, Gas
Fixed: Mole fraction of carbon tetrachloride = 0
Property: Activity coefficient of carbon tetrachloride (Liquid); method: Chromatography
Temperature, K	Activity coefficient of carbon tetrachloride	uncertainty
312.75	10.16	.3048
322.55	10.15	.3045
332.55	10.12	.3036

System: methylnitrile + 3-(3-cyanopropyl)-3-methylimidazolium cyanocyanamide; phases: Liquid, Gas
Fixed: Mole fraction of methylnitrile = 0
Property: Activity coefficient of methylnitrile (Liquid); method: Chromatography
Temperature, K	Activity coefficient of methylnitrile	uncertainty
312.75	.94	.0282
322.55	.94	.0282
332.55	.96	.0288

System: nitromethane + 3-(3-cyanopropyl)-3-methylimidazolium cyanocyanamide; phases: Liquid, Gas
Fixed: Mole fraction of nitromethane = 0
Property: Activity coefficient of nitromethane (Liquid); method: Chromatography
Temperature, K	Activity coefficient of nitromethane	uncertainty
312.75	.78	.0234
322.55	.78	.0234
332.55	.8	.024

System: 1-nitropropane + 3-(3-cyanopropyl)-3-methylimidazolium cyanocyanamide; phases: Liquid, Gas
Fixed: Mole fraction of 1-nitropropane = 0
Property: Activity coefficient of 1-nitropropane (Liquid); method: Chromatography
Temperature, K	Activity coefficient of 1-nitropropane	uncertainty
312.75	2.37	.0711
322.55	2.3	.069
332.55	2.3	.069

System: azine + 3-(3-cyanopropyl)-3-methylimidazolium cyanocyanamide; phases: Liquid, Gas
Fixed: Mole fraction of azine = 0
Property: Activity coefficient of azine (Liquid); method: Chromatography
Temperature, K	Activity coefficient of azine	uncertainty
312.75	1.53	.0459
322.55	1.55	.0465
332.55	1.58	.0474

System: thiophene + 3-(3-cyanopropyl)-3-methylimidazolium cyanocyanamide; phases: Liquid, Gas
Fixed: Mole fraction of thiophene = 0
Property: Activity coefficient of thiophene (Liquid); method: Chromatography
Temperature, K	Activity coefficient of thiophene	uncertainty
312.75	2.44	.0732
322.55	2.43	.0729
332.55	2.48	.0744

System: methanal + 3-(3-cyanopropyl)-3-methylimidazolium cyanocyanamide; phases: Liquid, Gas
Fixed: Mole fraction of methanal = 0
Property: Activity coefficient of methanal (Liquid); method: Chromatography
Temperature, K	Activity coefficient of methanal	uncertainty
312.75	.2	.006
322.55	.43	.0129
332.55	.52	.0156

System: n-propionaldehyde + 3-(3-cyanopropyl)-3-methylimidazolium cyanocyanamide; phases: Liquid, Gas
Fixed: Mole fraction of n-propionaldehyde = 0
Property: Activity coefficient of n-propionaldehyde (Liquid); method: Chromatography
Temperature, K	Activity coefficient of n-propionaldehyde	uncertainty
312.75	1.4	.042
322.55	1.94	.0582
332.55	1.89	.0567

System: 1-propanecarbaldehyde + 3-(3-cyanopropyl)-3-methylimidazolium cyanocyanamide; phases: Liquid, Gas
Fixed: Mole fraction of 1-propanecarbaldehyde = 0
Property: Activity coefficient of 1-propanecarbaldehyde (Liquid); method: Chromatography
Temperature, K	Activity coefficient of 1-propanecarbaldehyde	uncertainty
312.75	3.52	.1056
322.55	3.51	.1053
332.55	3.49	.1047

System: ethyl ethanoate + 3-(2-methoxyethyl)-1-methylimidazolium 1,1,1-trifluoro-N-[(trifluoromethyl)sulfonyl]methanesulfonamide; phases: Liquid, Gas
Fixed: Mole fraction of ethyl ethanoate = 0
Property: Activity coefficient of ethyl ethanoate (Liquid); method: Chromatography
Temperature, K	Activity coefficient of ethyl ethanoate	uncertainty
332.65	.91	.0273
342.75	.92	.0276
353.15	.93	.0279

System: acetic acid, butyl ester + 3-(2-methoxyethyl)-1-methylimidazolium 1,1,1-trifluoro-N-[(trifluoromethyl)sulfonyl]methanesulfonamide; phases: Liquid, Gas
Fixed: Mole fraction of acetic acid, butyl ester = 0
Property: Activity coefficient of acetic acid, butyl ester (Liquid); method: Chromatography
Temperature, K	Activity coefficient of acetic acid, butyl ester	uncertainty
332.65	1.78	.0534
342.75	1.79	.0537
353.15	1.78	.0534

System: tetramethylene oxide + 3-(2-methoxyethyl)-1-methylimidazolium 1,1,1-trifluoro-N-[(trifluoromethyl)sulfonyl]methanesulfonamide; phases: Liquid, Gas
Fixed: Mole fraction of tetramethylene oxide = 0
Property: Activity coefficient of tetramethylene oxide (Liquid); method: Chromatography
Temperature, K	Activity coefficient of tetramethylene oxide	uncertainty
332.65	.79	.0237
342.75	.8	.024
353.15	.79	.0237

System: n-undecane + 3-(3-cyanopropyl)-3-methylimidazolium cyanocyanamide; phases: Liquid, Gas
Fixed: Mole fraction of n-undecane = 0
Property: Activity coefficient of n-undecane (Liquid); method: Chromatography
Temperature, K	Activity coefficient of n-undecane	uncertainty
312.75	2289.91	68.6973
322.55	2038.96	61.1688
332.55	1919.43	57.5829
