Measured thermophysical data. Temperature Dependence of Solubility of Individual Light Fullerenes and Industrial Fullerene Mixture in 1-Chloronaphthalene and 1-Bromonaphthalene
Source: J. Chem. Eng. Data, 2010, 10.1021/je900814w
Compound 1: fullerene carbon 70, C70
Compound 2: follene-60, C60
Compound 3: xylene, C8H10
Compound 4: 1-chloronaphthalene, C10H7Cl
Compound 5: 1-bromonaphthalene, C10H7Br

System: 1-chloronaphthalene + follene-60; phases: Liquid, Crystal
Fixed: Pressure, kPa = 101
Property: Mass density, kg/m3 (Liquid); method: Pycnometric method
Temperature, K	Mass density, kg/m3	uncertainty
283.15	1320	13.2
293.15	1270	12.7
303.15	1210	12.1
313.15	1170	11.7
323.15	1170	11.7
333.15	1160	11.6

System: 1-chloronaphthalene + follene-60; phases: Liquid, Crystal
Fixed: Pressure, kPa = 101
Property: Amount concentration (molarity), mol/dm3 of follene-60 (Liquid); method: Spectrophotometry
Temperature, K	Amount concentration (molarity), mol/dm3 of follene-60	uncertainty
283.15	.03614	.001807
293.15	.0278	.00139
303.15	.02641	.0013205
313.15	.0278	.00139
323.15	.03336	.001668
333.15	.04865	.0024325

System: 1-bromonaphthalene + follene-60; phases: Liquid, Crystal
Fixed: Pressure, kPa = 101
Property: Mass density, kg/m3 (Liquid); method: Pycnometric method
Temperature, K	Mass density, kg/m3	uncertainty
283.15	1530	15.3
293.15	1510	15.1
303.15	1490	14.9
313.15	1450	14.5
323.15	1460	14.6
333.15	1470	14.7

System: 1-bromonaphthalene + follene-60; phases: Liquid, Crystal
Fixed: Pressure, kPa = 101
Property: Amount concentration (molarity), mol/dm3 of follene-60 (Liquid); method: Spectrophotometry
Temperature, K	Amount concentration (molarity), mol/dm3 of follene-60	uncertainty
283.15	.03892	.001946
293.15	.03475	.0017375
303.15	.03753	.0018765
313.15	.0417	.002085
323.15	.05004	.002502
333.15	.05699	.0028495

System: 1-chloronaphthalene + fullerene carbon 70; phases: Liquid, Crystal
Fixed: Pressure, kPa = 101
Property: Mass density, kg/m3 (Liquid); method: Pycnometric method
Temperature, K	Mass density, kg/m3	uncertainty
283.15	1370	13.7
293.15	1340	13.4
303.15	1270	12.7
313.15	1250	12.5
323.15	1210	12.1
333.15	1300	13

System: 1-chloronaphthalene + fullerene carbon 70; phases: Liquid, Crystal
Fixed: Pressure, kPa = 101
Property: Amount concentration (molarity), mol/dm3 of fullerene carbon 70 (Liquid); method: Spectrophotometry
Temperature, K	Amount concentration (molarity), mol/dm3 of fullerene carbon 70	uncertainty
283.15	.32725	.0163625
293.15	.31297	.0156485
303.15	.41055	.0205275
313.15	.47838	.023919
323.15	.64498	.032249
333.15	.82705	.0413525

System: 1-bromonaphthalene + fullerene carbon 70; phases: Liquid, Crystal
Fixed: Pressure, kPa = 101
Property: Mass density, kg/m3 (Liquid); method: Pycnometric method
Temperature, K	Mass density, kg/m3	uncertainty
283.15	1610	16.1
293.15	1580	15.8
303.15	1550	15.5
313.15	1530	15.3
323.15	1520	15.2
333.15	1510	15.1

System: 1-bromonaphthalene + fullerene carbon 70; phases: Liquid, Crystal
Fixed: Pressure, kPa = 101
Property: Amount concentration (molarity), mol/dm3 of fullerene carbon 70 (Liquid); method: Spectrophotometry
Temperature, K	Amount concentration (molarity), mol/dm3 of fullerene carbon 70	uncertainty
283.15	.35105	.0175525
293.15	.33201	.0166005
303.15	.35581	.0177905
313.15	.41174	.020587
323.15	.4522	.02261
333.15	.46291	.0231455
