Measured thermophysical data. Thermal Conductivity Measurement of Polyglycol Alkyl Ethers at Temperatures from (303.15 to 393.15) K
Source: J. Chem. Eng. Data, 2010, 10.1021/je900641w
Compound 1: benzene, C6H6
Compound 2: 1,2-dimethoxyethane, C4H10O2
Compound 3: 2,5,8-trioxanonane, C6H14O3
Compound 4: triglyme, C8H18O4
Compound 5: dimethoxytetraglycol, C10H22O5
Compound 6: dipropylene glycol dimethyl ether, C8H18O3

System: benzene; phases: Liquid
Property: Thermal conductivity, W/m/K (Liquid); method: Coaxial cylinder method
Temperature, K	Pressure, kPa	Thermal conductivity, W/m/K	uncertainty
302.75	1000	.1409	.0012681
332.54	1000	.1304	.0011736
362.39	1000	.1194	.0010746
392.16	1000	.1098	.0009882

System: 1,2-dimethoxyethane; phases: Liquid
Property: Thermal conductivity, W/m/K (Liquid); method: Coaxial cylinder method
Temperature, K	Pressure, kPa	Thermal conductivity, W/m/K	uncertainty
302.75	1000	.1605	.00321
332.54	1000	.1452	.002904
362.39	1000	.1317	.002634
392.16	1000	.1183	.002366

System: 2,5,8-trioxanonane; phases: Liquid
Property: Thermal conductivity, W/m/K (Liquid); method: Coaxial cylinder method
Temperature, K	Pressure, kPa	Thermal conductivity, W/m/K	uncertainty
302.75	1000	.1461	.002922
332.54	1000	.1324	.002648
362.39	1000	.1205	.00241
392.16	1000	.1076	.002152

System: triglyme; phases: Liquid
Property: Thermal conductivity, W/m/K (Liquid); method: Coaxial cylinder method
Temperature, K	Pressure, kPa	Thermal conductivity, W/m/K	uncertainty
302.75	1000	.1433	.002866
332.54	1000	.137	.00274
362.39	1000	.1303	.002606
392.16	1000	.1227	.002454

System: dimethoxytetraglycol; phases: Liquid
Property: Thermal conductivity, W/m/K (Liquid); method: Coaxial cylinder method
Temperature, K	Pressure, kPa	Thermal conductivity, W/m/K	uncertainty
302.75	1000	.1469	.002938
332.54	1000	.1407	.002814
362.39	1000	.1345	.00269
392.16	1000	.1274	.002548

System: dipropylene glycol dimethyl ether; phases: Liquid
Property: Thermal conductivity, W/m/K (Liquid); method: Coaxial cylinder method
Temperature, K	Pressure, kPa	Thermal conductivity, W/m/K	uncertainty
302.75	1000	.1242	.002484
332.54	1000	.1169	.002338
362.39	1000	.1085	.00217
392.16	1000	.099	.00198
