Measured thermophysical data. Solubility of 1,1'-(Butane-1,4-diyl)-bis(3-methyl-1H-imidazolium-1-yl) Dihexafluorophosphate in Water, Acetophenone, Cyclohexanone, Acetylacetone, and 2-Butanone
Source: J. Chem. Eng. Data, 2010, 10.1021/je900826p
Compound 1: water, H2O
Compound 2: acetophenone, C8H8O, purity 99.5%
Compound 3: cyclohexanone, C6H10O, purity 99.5%
Compound 4: pentan-2,4-dione, C5H8O2, purity 99.5%
Compound 5: ethyl methyl ketone, C4H8O, purity 99.5%
Compound 6: 1,1'-( butane-1,4-diyl)-bis(3-methyl-1H-imidazolium-1-yl) dihexafluorophosphate, C12H20N4F12P2, purity 99%

System: 1,1'-( butane-1,4-diyl)-bis(3-methyl-1H-imidazolium-1-yl) dihexafluorophosphate; phases: Crystal, Liquid, Air at 1 atmosphere
Property: Normal melting temperature, K (Crystal); method: Visual observation
Normal melting temperature, K	uncertainty
391.65	

System: water + 1,1'-( butane-1,4-diyl)-bis(3-methyl-1H-imidazolium-1-yl) dihexafluorophosphate; phases: Liquid, Crystal
Fixed: Pressure, kPa = 101
Property: Mole fraction of 1,1'-( butane-1,4-diyl)-bis(3-methyl-1H-imidazolium-1-yl) dihexafluorophosphate (Liquid); method: laser monitoring observation technique
Temperature, K	Mole fraction of 1,1'-( butane-1,4-diyl)-bis(3-methyl-1H-imidazolium-1-yl) dihexafluorophosphate	uncertainty
283.15	.000095	.0000019
288.45	.000124	.00000248
293.15	.000156	.00000312
298.15	.000203	.00000406
303.65	.000274	.00000548
308.15	.000348	.00000696
313.15	.000456	.00000912
318.35	.000608	.00001216
323.15	.00079	.0000158
328.15	.001051	.00002102
333.15	.001377	.00002754

System: acetophenone + 1,1'-( butane-1,4-diyl)-bis(3-methyl-1H-imidazolium-1-yl) dihexafluorophosphate; phases: Liquid, Crystal
Fixed: Pressure, kPa = 101
Property: Mole fraction of 1,1'-( butane-1,4-diyl)-bis(3-methyl-1H-imidazolium-1-yl) dihexafluorophosphate (Liquid); method: laser monitoring observation technique
Temperature, K	Mole fraction of 1,1'-( butane-1,4-diyl)-bis(3-methyl-1H-imidazolium-1-yl) dihexafluorophosphate	uncertainty
283.15	.000119	.00000238
288.35	.000277	.00000554
293.15	.000556	.00001112
299.65	.001269	.00002538
303.65	.001982	.00003964
307.35	.002855	.0000571
313.15	.004716	.00009432
318.15	.006771	.00013542
323.15	.009193	.00018386
328.15	.011723	.00023446
332.15	.013681	.00027362

System: cyclohexanone + 1,1'-( butane-1,4-diyl)-bis(3-methyl-1H-imidazolium-1-yl) dihexafluorophosphate; phases: Liquid, Crystal
Fixed: Pressure, kPa = 101
Property: Mole fraction of 1,1'-( butane-1,4-diyl)-bis(3-methyl-1H-imidazolium-1-yl) dihexafluorophosphate (Liquid); method: laser monitoring observation technique
Temperature, K	Mole fraction of 1,1'-( butane-1,4-diyl)-bis(3-methyl-1H-imidazolium-1-yl) dihexafluorophosphate	uncertainty
283.15	.000563	.00001126
288.15	.0009	.000018
293.15	.001385	.0000277
298.35	.002059	.00004118
302.15	.002712	.00005424
308.65	.004098	.00008196
313.15	.005288	.00010576
318.25	.006883	.00013766
323.15	.008571	.00017142
328.15	.010494	.00020988
333.15	.012428	.00024856

System: pentan-2,4-dione + 1,1'-( butane-1,4-diyl)-bis(3-methyl-1H-imidazolium-1-yl) dihexafluorophosphate; phases: Liquid, Crystal
Fixed: Pressure, kPa = 101
Property: Mole fraction of 1,1'-( butane-1,4-diyl)-bis(3-methyl-1H-imidazolium-1-yl) dihexafluorophosphate (Liquid); method: laser monitoring observation technique
Temperature, K	Mole fraction of 1,1'-( butane-1,4-diyl)-bis(3-methyl-1H-imidazolium-1-yl) dihexafluorophosphate	uncertainty
283.15	.002525	.0000505
288.15	.002602	.00005204
293.15	.002949	.00005898
297.45	.003519	.00007038
302.65	.004728	.00009456
309.15	.007681	.00015362
314.15	.012064	.00024128
320.15	.022718	.00045436
325.15	.040891	.00081782
330.15	.078392	.00156784

System: ethyl methyl ketone + 1,1'-( butane-1,4-diyl)-bis(3-methyl-1H-imidazolium-1-yl) dihexafluorophosphate; phases: Liquid, Crystal
Fixed: Pressure, kPa = 101
Property: Mole fraction of 1,1'-( butane-1,4-diyl)-bis(3-methyl-1H-imidazolium-1-yl) dihexafluorophosphate (Liquid); method: laser monitoring observation technique
Temperature, K	Mole fraction of 1,1'-( butane-1,4-diyl)-bis(3-methyl-1H-imidazolium-1-yl) dihexafluorophosphate	uncertainty
283.15	.008379	.00016758
288.15	.009361	.00018722
294.15	.011357	.00022714
299.15	.013972	.00027944
304.15	.01778	.0003556
309.15	.023484	.00046968
315.15	.034853	.00069706
320.15	.049612	.00099224
325.15	.072793	.00145586
