Measured thermophysical data. Partition Coefficients of Organic Compounds in New Imidazolium and Tetralkylammonium Based Ionic Liquids Using Inverse Gas Chromatography
Source: J. Chem. Eng. Data, 2010, 10.1021/je9003178
Compound 1: 1-ethyl-3-methylimidazolium dicyanamide, C8H11N5
Compound 2: hexyltrimethylammonium bis[(trifluoromethyl)sulfonyl]imide, C11H22F6N2O4S2
Compound 3: hexane, C6H14
Compound 4: 3-methylpentane, C6H14
Compound 5: heptane, C7H16
Compound 6: 2,2,4-trimethylpentane, C8H18
Compound 7: octane, C8H18
Compound 8: nonane, C9H20
Compound 9: decane, C10H22
Compound 10: undecane, C11H24
Compound 11: dodecane, C12H26
Compound 12: tridecane, C13H28
Compound 13: tetradecane, C14H30
Compound 14: methylcyclopentane, C6H12
Compound 15: cyclohexane, C6H12
Compound 16: methylcyclohexane, C7H14
Compound 17: cycloheptane, C7H14
Compound 18: benzene, C6H6
Compound 19: toluene, C7H8
Compound 20: ethylbenzene, C8H10
Compound 21: 1,3-dimethylbenzene, C8H10
Compound 22: 1,4-dimethylbenzene, C8H10
Compound 23: 1,2-dimethylbenzene, C8H10
Compound 24: 1-hexene, C6H12
Compound 25: 1-hexyne, C6H10
Compound 26: 1-heptyne, C7H12
Compound 27: butanone, C4H8O
Compound 28: 2-pentanone, C5H10O
Compound 29: 3-pentanone, C5H10O
Compound 30: 1,4-dioxane, C4H8O2
Compound 31: methanol, CH4O
Compound 32: ethanol, C2H6O
Compound 33: 1-propanol, C3H8O
Compound 34: 2-propanol, C3H8O
Compound 35: 2-methyl-1-propanol, C4H10O
Compound 36: 1-butanol, C4H10O
Compound 37: ethanol, trifluoro-, C2H3F3O
Compound 38: diethyl ether, C4H10O
Compound 39: isopropyl ether, C6H14O
Compound 40: chloroform, CHCl3
Compound 41: dichloromethane, CH2Cl2
Compound 42: carbon tetrachloride, CCl4
Compound 43: acetonitrile, C2H3N
Compound 44: nitromethane, CH3NO2
Compound 45: 1-nitropropane, C3H7NO2
Compound 46: triethylamine, C6H15N
Compound 47: pyridine, C5H5N
Compound 48: thiophene, C4H4S
Compound 49: methanal, CH2O
Compound 50: propanal, C3H6O
Compound 51: butanal, C4H8O
Compound 52: ethyl ethanoate, C4H8O2
Compound 53: tetrahydrofuran, C4H8O

System: hexane + 1-ethyl-3-methylimidazolium dicyanamide; phases: Liquid, Gas
Fixed: Mole fraction of hexane = 0
Property: Activity coefficient of hexane (Liquid); method: Chromatography
Temperature, K	Activity coefficient of hexane	uncertainty
322.65	111.41	
332.85	99.57	
343.15	89.5	

System: 3-methylpentane + 1-ethyl-3-methylimidazolium dicyanamide; phases: Liquid, Gas
Fixed: Mole fraction of 3-methylpentane = 0
Property: Activity coefficient of 3-methylpentane (Liquid); method: Chromatography
Temperature, K	Activity coefficient of 3-methylpentane	uncertainty
322.65	93.69	
332.85	87.16	
343.15	81.38	

System: heptane + 1-ethyl-3-methylimidazolium dicyanamide; phases: Liquid, Gas
Fixed: Mole fraction of heptane = 0
Property: Activity coefficient of heptane (Liquid); method: Chromatography
Temperature, K	Activity coefficient of heptane	uncertainty
322.65	183.33	
332.85	159.25	
343.15	139.32	

System: 2,2,4-trimethylpentane + 1-ethyl-3-methylimidazolium dicyanamide; phases: Liquid, Gas
Fixed: Mole fraction of 2,2,4-trimethylpentane = 0
Property: Activity coefficient of 2,2,4-trimethylpentane (Liquid); method: Chromatography
Temperature, K	Activity coefficient of 2,2,4-trimethylpentane	uncertainty
322.65	201.73	
332.85	180.03	
343.15	161.59	

System: octane + 1-ethyl-3-methylimidazolium dicyanamide; phases: Liquid, Gas
Fixed: Mole fraction of octane = 0
Property: Activity coefficient of octane (Liquid); method: Chromatography
Temperature, K	Activity coefficient of octane	uncertainty
322.65	289.7	
332.85	259.84	
343.15	234.35	

System: nonane + 1-ethyl-3-methylimidazolium dicyanamide; phases: Liquid, Gas
Fixed: Mole fraction of nonane = 0
Property: Activity coefficient of nonane (Liquid); method: Chromatography
Temperature, K	Activity coefficient of nonane	uncertainty
322.65	498.48	
332.85	445.71	
343.15	400.79	

System: decane + 1-ethyl-3-methylimidazolium dicyanamide; phases: Liquid, Gas
Fixed: Mole fraction of decane = 0
Property: Activity coefficient of decane (Liquid); method: Chromatography
Temperature, K	Activity coefficient of decane	uncertainty
322.65	698.76	
332.85	626.81	
343.15	565.36	

System: undecane + 1-ethyl-3-methylimidazolium dicyanamide; phases: Liquid, Gas
Fixed: Mole fraction of undecane = 0
Property: Activity coefficient of undecane (Liquid); method: Chromatography
Temperature, K	Activity coefficient of undecane	uncertainty
322.65	1033.57	
332.85	925.88	
343.15	834.03	

System: dodecane + 1-ethyl-3-methylimidazolium dicyanamide; phases: Liquid, Gas
Fixed: Mole fraction of dodecane = 0
Property: Activity coefficient of dodecane (Liquid); method: Chromatography
Temperature, K	Activity coefficient of dodecane	uncertainty
322.65	1410.6	
332.85	1287.57	
343.15	1180.7	

System: tridecane + 1-ethyl-3-methylimidazolium dicyanamide; phases: Liquid, Gas
Fixed: Mole fraction of tridecane = 0
Property: Activity coefficient of tridecane (Liquid); method: Chromatography
Temperature, K	Activity coefficient of tridecane	uncertainty
322.65	1942.69	
332.85	1784.4	
343.15	1646.07	

System: tetradecane + 1-ethyl-3-methylimidazolium dicyanamide; phases: Liquid, Gas
Fixed: Mole fraction of tetradecane = 0
Property: Activity coefficient of tetradecane (Liquid); method: Chromatography
Temperature, K	Activity coefficient of tetradecane	uncertainty
322.65	2497.08	
332.85	2332.38	
343.15	2186.06	

System: methylcyclopentane + 1-ethyl-3-methylimidazolium dicyanamide; phases: Liquid, Gas
Fixed: Mole fraction of methylcyclopentane = 0
Property: Activity coefficient of methylcyclopentane (Liquid); method: Chromatography
Temperature, K	Activity coefficient of methylcyclopentane	uncertainty
322.65	50.31	
332.85	46.54	
343.15	43.23	

System: cyclohexane + 1-ethyl-3-methylimidazolium dicyanamide; phases: Liquid, Gas
Fixed: Mole fraction of cyclohexane = 0
Property: Activity coefficient of cyclohexane (Liquid); method: Chromatography
Temperature, K	Activity coefficient of cyclohexane	uncertainty
322.65	46.01	
332.85	42.1	
343.15	38.7	

System: methylcyclohexane + 1-ethyl-3-methylimidazolium dicyanamide; phases: Liquid, Gas
Fixed: Mole fraction of methylcyclohexane = 0
Property: Activity coefficient of methylcyclohexane (Liquid); method: Chromatography
Temperature, K	Activity coefficient of methylcyclohexane	uncertainty
322.65	73.88	
332.85	67.12	
343.15	61.27	

System: cycloheptane + 1-ethyl-3-methylimidazolium dicyanamide; phases: Liquid, Gas
Fixed: Mole fraction of cycloheptane = 0
Property: Activity coefficient of cycloheptane (Liquid); method: Chromatography
Temperature, K	Activity coefficient of cycloheptane	uncertainty
322.65	127.53	
332.85	169.25	
343.15	221.44	

System: benzene + 1-ethyl-3-methylimidazolium dicyanamide; phases: Liquid, Gas
Fixed: Mole fraction of benzene = 0
Property: Activity coefficient of benzene (Liquid); method: Chromatography
Temperature, K	Activity coefficient of benzene	uncertainty
322.65	2.57	
332.85	2.56	
343.15	2.56	

System: toluene + 1-ethyl-3-methylimidazolium dicyanamide; phases: Liquid, Gas
Fixed: Mole fraction of toluene = 0
Property: Activity coefficient of toluene (Liquid); method: Chromatography
Temperature, K	Activity coefficient of toluene	uncertainty
322.65	4.22	
332.85	4.21	
343.15	4.21	

System: ethylbenzene + 1-ethyl-3-methylimidazolium dicyanamide; phases: Liquid, Gas
Fixed: Mole fraction of ethylbenzene = 0
Property: Activity coefficient of ethylbenzene (Liquid); method: Chromatography
Temperature, K	Activity coefficient of ethylbenzene	uncertainty
322.65	7.43	
332.85	7.38	
343.15	7.29	

System: 1,3-dimethylbenzene + 1-ethyl-3-methylimidazolium dicyanamide; phases: Liquid, Gas
Fixed: Mole fraction of 1,3-dimethylbenzene = 0
Property: Activity coefficient of 1,3-dimethylbenzene (Liquid); method: Chromatography
Temperature, K	Activity coefficient of 1,3-dimethylbenzene	uncertainty
322.65	7.4	
332.85	8.39	
343.15	7.27	

System: 1,4-dimethylbenzene + 1-ethyl-3-methylimidazolium dicyanamide; phases: Liquid, Gas
Fixed: Mole fraction of 1,4-dimethylbenzene = 0
Property: Activity coefficient of 1,4-dimethylbenzene (Liquid); method: Chromatography
Temperature, K	Activity coefficient of 1,4-dimethylbenzene	uncertainty
322.65	6.93	
332.85	7.05	
343.15	6.79	

System: 1,2-dimethylbenzene + 1-ethyl-3-methylimidazolium dicyanamide; phases: Liquid, Gas
Fixed: Mole fraction of 1,2-dimethylbenzene = 0
Property: Activity coefficient of 1,2-dimethylbenzene (Liquid); method: Chromatography
Temperature, K	Activity coefficient of 1,2-dimethylbenzene	uncertainty
322.65	5.86	
332.85	5.8	
343.15	5.75	

System: 1-hexene + 1-ethyl-3-methylimidazolium dicyanamide; phases: Liquid, Gas
Fixed: Mole fraction of 1-hexene = 0
Property: Activity coefficient of 1-hexene (Liquid); method: Chromatography
Temperature, K	Activity coefficient of 1-hexene	uncertainty
322.65	43.62	
332.85	41.65	
343.15	39.86	

System: 1-hexyne + 1-ethyl-3-methylimidazolium dicyanamide; phases: Liquid, Gas
Fixed: Mole fraction of 1-hexyne = 0
Property: Activity coefficient of 1-hexyne (Liquid); method: Chromatography
Temperature, K	Activity coefficient of 1-hexyne	uncertainty
322.65	8.7	
332.85	8.47	
343.15	8.44	

System: 1-heptyne + 1-ethyl-3-methylimidazolium dicyanamide; phases: Liquid, Gas
Fixed: Mole fraction of 1-heptyne = 0
Property: Activity coefficient of 1-heptyne (Liquid); method: Chromatography
Temperature, K	Activity coefficient of 1-heptyne	uncertainty
322.65	14.54	
332.85	14.3	
343.15	14.07	

System: butanone + 1-ethyl-3-methylimidazolium dicyanamide; phases: Liquid, Gas
Fixed: Mole fraction of butanone = 0
Property: Activity coefficient of butanone (Liquid); method: Chromatography
Temperature, K	Activity coefficient of butanone	uncertainty
322.65	1.59	
332.85	1.46	
343.15	1.33	

System: 2-pentanone + 1-ethyl-3-methylimidazolium dicyanamide; phases: Liquid, Gas
Fixed: Mole fraction of 2-pentanone = 0
Property: Activity coefficient of 2-pentanone (Liquid); method: Chromatography
Temperature, K	Activity coefficient of 2-pentanone	uncertainty
322.65	2.92	
332.85	2.93	
343.15	2.9	

System: 3-pentanone + 1-ethyl-3-methylimidazolium dicyanamide; phases: Liquid, Gas
Fixed: Mole fraction of 3-pentanone = 0
Property: Activity coefficient of 3-pentanone (Liquid); method: Chromatography
Temperature, K	Activity coefficient of 3-pentanone	uncertainty
322.65	2.81	
332.85	2.84	
343.15	2.84	

System: 1,4-dioxane + 1-ethyl-3-methylimidazolium dicyanamide; phases: Liquid, Gas
Fixed: Mole fraction of 1,4-dioxane = 0
Property: Activity coefficient of 1,4-dioxane (Liquid); method: Chromatography
Temperature, K	Activity coefficient of 1,4-dioxane	uncertainty
322.65	.89	
332.85	1.24	
343.15	1.25	

System: methanol + 1-ethyl-3-methylimidazolium dicyanamide; phases: Liquid, Gas
Fixed: Mole fraction of methanol = 0
Property: Activity coefficient of methanol (Liquid); method: Chromatography
Temperature, K	Activity coefficient of methanol	uncertainty
322.65	.44	
332.85	.42	
343.15	.41	

System: ethanol + 1-ethyl-3-methylimidazolium dicyanamide; phases: Liquid, Gas
Fixed: Mole fraction of ethanol = 0
Property: Activity coefficient of ethanol (Liquid); method: Chromatography
Temperature, K	Activity coefficient of ethanol	uncertainty
322.65	.78	
332.85	.74	
343.15	.75	

System: 1-propanol + 1-ethyl-3-methylimidazolium dicyanamide; phases: Liquid, Gas
Fixed: Mole fraction of 1-propanol = 0
Property: Activity coefficient of 1-propanol (Liquid); method: Chromatography
Temperature, K	Activity coefficient of 1-propanol	uncertainty
322.65	1.07	
332.85	1.01	
343.15	.97	

System: 2-propanol + 1-ethyl-3-methylimidazolium dicyanamide; phases: Liquid, Gas
Fixed: Mole fraction of 2-propanol = 0
Property: Activity coefficient of 2-propanol (Liquid); method: Chromatography
Temperature, K	Activity coefficient of 2-propanol	uncertainty
322.65	1.2	
332.85	1.14	
343.15	1.09	

System: 2-methyl-1-propanol + 1-ethyl-3-methylimidazolium dicyanamide; phases: Liquid, Gas
Fixed: Mole fraction of 2-methyl-1-propanol = 0
Property: Activity coefficient of 2-methyl-1-propanol (Liquid); method: Chromatography
Temperature, K	Activity coefficient of 2-methyl-1-propanol	uncertainty
322.65	1.48	
332.85	1.4	
343.15	1.33	

System: 1-butanol + 1-ethyl-3-methylimidazolium dicyanamide; phases: Liquid, Gas
Fixed: Mole fraction of 1-butanol = 0
Property: Activity coefficient of 1-butanol (Liquid); method: Chromatography
Temperature, K	Activity coefficient of 1-butanol	uncertainty
322.65	1.59	
332.85	1.47	
343.15	1.4	

System: ethanol, trifluoro- + 1-ethyl-3-methylimidazolium dicyanamide; phases: Liquid, Gas
Fixed: Mole fraction of ethanol, trifluoro- = 0
Property: Activity coefficient of ethanol, trifluoro- (Liquid); method: Chromatography
Temperature, K	Activity coefficient of ethanol, trifluoro-	uncertainty
322.65	.1	
332.85	.11	
343.15	.11	

System: diethyl ether + 1-ethyl-3-methylimidazolium dicyanamide; phases: Liquid, Gas
Fixed: Mole fraction of diethyl ether = 0
Property: Activity coefficient of diethyl ether (Liquid); method: Chromatography
Temperature, K	Activity coefficient of diethyl ether	uncertainty
322.65	9.88	
332.85	9.71	
343.15	9.56	

System: isopropyl ether + 1-ethyl-3-methylimidazolium dicyanamide; phases: Liquid, Gas
Fixed: Mole fraction of isopropyl ether = 0
Property: Activity coefficient of isopropyl ether (Liquid); method: Chromatography
Temperature, K	Activity coefficient of isopropyl ether	uncertainty
322.65	32.11	
332.85	32.26	
343.15	32.41	

System: chloroform + 1-ethyl-3-methylimidazolium dicyanamide; phases: Liquid, Gas
Fixed: Mole fraction of chloroform = 0
Property: Activity coefficient of chloroform (Liquid); method: Chromatography
Temperature, K	Activity coefficient of chloroform	uncertainty
322.65	.76	
332.85	.81	
343.15	.86	

System: dichloromethane + 1-ethyl-3-methylimidazolium dicyanamide; phases: Liquid, Gas
Fixed: Mole fraction of dichloromethane = 0
Property: Activity coefficient of dichloromethane (Liquid); method: Chromatography
Temperature, K	Activity coefficient of dichloromethane	uncertainty
322.65	.67	
332.85	.73	
343.15	.78	

System: carbon tetrachloride + 1-ethyl-3-methylimidazolium dicyanamide; phases: Liquid, Gas
Fixed: Mole fraction of carbon tetrachloride = 0
Property: Activity coefficient of carbon tetrachloride (Liquid); method: Chromatography
Temperature, K	Activity coefficient of carbon tetrachloride	uncertainty
322.65	4.49	
332.85	4.61	
343.15	4.71	

System: acetonitrile + 1-ethyl-3-methylimidazolium dicyanamide; phases: Liquid, Gas
Fixed: Mole fraction of acetonitrile = 0
Property: Activity coefficient of acetonitrile (Liquid); method: Chromatography
Temperature, K	Activity coefficient of acetonitrile	uncertainty
322.65	.8	
332.85	.79	
343.15	.79	

System: nitromethane + 1-ethyl-3-methylimidazolium dicyanamide; phases: Liquid, Gas
Fixed: Mole fraction of nitromethane = 0
Property: Activity coefficient of nitromethane (Liquid); method: Chromatography
Temperature, K	Activity coefficient of nitromethane	uncertainty
322.65	.66	
332.85	.64	
343.15	.63	

System: 1-nitropropane + 1-ethyl-3-methylimidazolium dicyanamide; phases: Liquid, Gas
Fixed: Mole fraction of 1-nitropropane = 0
Property: Activity coefficient of 1-nitropropane (Liquid); method: Chromatography
Temperature, K	Activity coefficient of 1-nitropropane	uncertainty
322.65	1.51	
332.85	1.5	
343.15	1.49	

System: triethylamine + 1-ethyl-3-methylimidazolium dicyanamide; phases: Liquid, Gas
Fixed: Mole fraction of triethylamine = 0
Property: Activity coefficient of triethylamine (Liquid); method: Chromatography
Temperature, K	Activity coefficient of triethylamine	uncertainty
322.65	9.09	
332.85	35.75	
343.15	131.24	

System: pyridine + 1-ethyl-3-methylimidazolium dicyanamide; phases: Liquid, Gas
Fixed: Mole fraction of pyridine = 0
Property: Activity coefficient of pyridine (Liquid); method: Chromatography
Temperature, K	Activity coefficient of pyridine	uncertainty
322.65	.4	
332.85	1.05	
343.15	1.07	

System: thiophene + 1-ethyl-3-methylimidazolium dicyanamide; phases: Liquid, Gas
Fixed: Mole fraction of thiophene = 0
Property: Activity coefficient of thiophene (Liquid); method: Chromatography
Temperature, K	Activity coefficient of thiophene	uncertainty
322.65	1.6	
332.85	1.51	
343.15	1.53	

System: methanal + 1-ethyl-3-methylimidazolium dicyanamide; phases: Liquid, Gas
Fixed: Mole fraction of methanal = 0
Property: Activity coefficient of methanal (Liquid); method: Chromatography
Temperature, K	Activity coefficient of methanal	uncertainty
322.65	.32	
332.85	.35	
343.15	.37	

System: propanal + 1-ethyl-3-methylimidazolium dicyanamide; phases: Liquid, Gas
Fixed: Mole fraction of propanal = 0
Property: Activity coefficient of propanal (Liquid); method: Chromatography
Temperature, K	Activity coefficient of propanal	uncertainty
322.65	1.4	
332.85	1.39	
343.15	1.37	

System: butanal + 1-ethyl-3-methylimidazolium dicyanamide; phases: Liquid, Gas
Fixed: Mole fraction of butanal = 0
Property: Activity coefficient of butanal (Liquid); method: Chromatography
Temperature, K	Activity coefficient of butanal	uncertainty
322.65	2.23	
332.85	2.22	
343.15	2.21	

System: hexane + hexyltrimethylammonium bis[(trifluoromethyl)sulfonyl]imide; phases: Liquid, Gas
Fixed: Mole fraction of hexane = 0
Property: Activity coefficient of hexane (Liquid); method: Chromatography
Temperature, K	Activity coefficient of hexane	uncertainty
322.65	9.807	
343.85	9.019	
352.65	8.854	

System: 3-methylpentane + hexyltrimethylammonium bis[(trifluoromethyl)sulfonyl]imide; phases: Liquid, Gas
Fixed: Mole fraction of 3-methylpentane = 0
Property: Activity coefficient of 3-methylpentane (Liquid); method: Chromatography
Temperature, K	Activity coefficient of 3-methylpentane	uncertainty
322.65	8.651	
343.85	8.086	
352.65	7.884	

System: heptane + hexyltrimethylammonium bis[(trifluoromethyl)sulfonyl]imide; phases: Liquid, Gas
Fixed: Mole fraction of heptane = 0
Property: Activity coefficient of heptane (Liquid); method: Chromatography
Temperature, K	Activity coefficient of heptane	uncertainty
322.65	13.536	
343.85	12.301	
352.65	11.919	

System: 2,2,4-trimethylpentane + hexyltrimethylammonium bis[(trifluoromethyl)sulfonyl]imide; phases: Liquid, Gas
Fixed: Mole fraction of 2,2,4-trimethylpentane = 0
Property: Activity coefficient of 2,2,4-trimethylpentane (Liquid); method: Chromatography
Temperature, K	Activity coefficient of 2,2,4-trimethylpentane	uncertainty
322.65	13.076	
343.85	12.076	
352.65	11.819	

System: octane + hexyltrimethylammonium bis[(trifluoromethyl)sulfonyl]imide; phases: Liquid, Gas
Fixed: Mole fraction of octane = 0
Property: Activity coefficient of octane (Liquid); method: Chromatography
Temperature, K	Activity coefficient of octane	uncertainty
322.65	18.991	
343.85	16.78	
352.65	16.223	

System: nonane + hexyltrimethylammonium bis[(trifluoromethyl)sulfonyl]imide; phases: Liquid, Gas
Fixed: Mole fraction of nonane = 0
Property: Activity coefficient of nonane (Liquid); method: Chromatography
Temperature, K	Activity coefficient of nonane	uncertainty
322.65	28.87	
343.85	24.588	
352.65	23.439	

System: decane + hexyltrimethylammonium bis[(trifluoromethyl)sulfonyl]imide; phases: Liquid, Gas
Fixed: Mole fraction of decane = 0
Property: Activity coefficient of decane (Liquid); method: Chromatography
Temperature, K	Activity coefficient of decane	uncertainty
322.65	36.808	
343.85	30.984	
352.65	29.566	

System: undecane + hexyltrimethylammonium bis[(trifluoromethyl)sulfonyl]imide; phases: Liquid, Gas
Fixed: Mole fraction of undecane = 0
Property: Activity coefficient of undecane (Liquid); method: Chromatography
Temperature, K	Activity coefficient of undecane	uncertainty
322.65	51.179	
343.85	41.955	
352.65	39.731	

System: dodecane + hexyltrimethylammonium bis[(trifluoromethyl)sulfonyl]imide; phases: Liquid, Gas
Fixed: Mole fraction of dodecane = 0
Property: Activity coefficient of dodecane (Liquid); method: Chromatography
Temperature, K	Activity coefficient of dodecane	uncertainty
322.65	68.149	
343.85	55.84	
352.65	52.893	

System: tridecane + hexyltrimethylammonium bis[(trifluoromethyl)sulfonyl]imide; phases: Liquid, Gas
Fixed: Mole fraction of tridecane = 0
Property: Activity coefficient of tridecane (Liquid); method: Chromatography
Temperature, K	Activity coefficient of tridecane	uncertainty
322.65	100.476	
343.85	76.23	
352.65	71.459	

System: tetradecane + hexyltrimethylammonium bis[(trifluoromethyl)sulfonyl]imide; phases: Liquid, Gas
Fixed: Mole fraction of tetradecane = 0
Property: Activity coefficient of tetradecane (Liquid); method: Chromatography
Temperature, K	Activity coefficient of tetradecane	uncertainty
322.65	158.777	
343.85	101.162	
352.65	84.7	

System: methylcyclopentane + hexyltrimethylammonium bis[(trifluoromethyl)sulfonyl]imide; phases: Liquid, Gas
Fixed: Mole fraction of methylcyclopentane = 0
Property: Activity coefficient of methylcyclopentane (Liquid); method: Chromatography
Temperature, K	Activity coefficient of methylcyclopentane	uncertainty
322.65	6.611	
343.85	5.956	
352.65	5.828	

System: cyclohexane + hexyltrimethylammonium bis[(trifluoromethyl)sulfonyl]imide; phases: Liquid, Gas
Fixed: Mole fraction of cyclohexane = 0
Property: Activity coefficient of cyclohexane (Liquid); method: Chromatography
Temperature, K	Activity coefficient of cyclohexane	uncertainty
322.65	6.597	
343.85	5.904	
352.65	5.735	

System: methylcyclohexane + hexyltrimethylammonium bis[(trifluoromethyl)sulfonyl]imide; phases: Liquid, Gas
Fixed: Mole fraction of methylcyclohexane = 0
Property: Activity coefficient of methylcyclohexane (Liquid); method: Chromatography
Temperature, K	Activity coefficient of methylcyclohexane	uncertainty
322.65	8.674	
343.85	7.778	
352.65	7.54	

System: cycloheptane + hexyltrimethylammonium bis[(trifluoromethyl)sulfonyl]imide; phases: Liquid, Gas
Fixed: Mole fraction of cycloheptane = 0
Property: Activity coefficient of cycloheptane (Liquid); method: Chromatography
Temperature, K	Activity coefficient of cycloheptane	uncertainty
322.65	14.34	
343.85	33.345	
352.65	43.435	

System: benzene + hexyltrimethylammonium bis[(trifluoromethyl)sulfonyl]imide; phases: Liquid, Gas
Fixed: Mole fraction of benzene = 0
Property: Activity coefficient of benzene (Liquid); method: Chromatography
Temperature, K	Activity coefficient of benzene	uncertainty
322.65	.99	
343.85	.993	
352.65	1.019	

System: toluene + hexyltrimethylammonium bis[(trifluoromethyl)sulfonyl]imide; phases: Liquid, Gas
Fixed: Mole fraction of toluene = 0
Property: Activity coefficient of toluene (Liquid); method: Chromatography
Temperature, K	Activity coefficient of toluene	uncertainty
322.65	1.309	
343.85	1.33	
352.65	1.379	

System: ethylbenzene + hexyltrimethylammonium bis[(trifluoromethyl)sulfonyl]imide; phases: Liquid, Gas
Fixed: Mole fraction of ethylbenzene = 0
Property: Activity coefficient of ethylbenzene (Liquid); method: Chromatography
Temperature, K	Activity coefficient of ethylbenzene	uncertainty
322.65	1.835	
343.85	1.91	
352.65	1.967	

System: 1,3-dimethylbenzene + hexyltrimethylammonium bis[(trifluoromethyl)sulfonyl]imide; phases: Liquid, Gas
Fixed: Mole fraction of 1,3-dimethylbenzene = 0
Property: Activity coefficient of 1,3-dimethylbenzene (Liquid); method: Chromatography
Temperature, K	Activity coefficient of 1,3-dimethylbenzene	uncertainty
322.65	1.803	
343.85	1.822	
352.65	1.894	

System: 1,4-dimethylbenzene + hexyltrimethylammonium bis[(trifluoromethyl)sulfonyl]imide; phases: Liquid, Gas
Fixed: Mole fraction of 1,4-dimethylbenzene = 0
Property: Activity coefficient of 1,4-dimethylbenzene (Liquid); method: Chromatography
Temperature, K	Activity coefficient of 1,4-dimethylbenzene	uncertainty
322.65	1.824	
343.85	1.825	
352.65	1.865	

System: 1,2-dimethylbenzene + hexyltrimethylammonium bis[(trifluoromethyl)sulfonyl]imide; phases: Liquid, Gas
Fixed: Mole fraction of 1,2-dimethylbenzene = 0
Property: Activity coefficient of 1,2-dimethylbenzene (Liquid); method: Chromatography
Temperature, K	Activity coefficient of 1,2-dimethylbenzene	uncertainty
322.65	1.656	
343.85	1.687	
352.65	1.765	

System: 1-hexene + hexyltrimethylammonium bis[(trifluoromethyl)sulfonyl]imide; phases: Liquid, Gas
Fixed: Mole fraction of 1-hexene = 0
Property: Activity coefficient of 1-hexene (Liquid); method: Chromatography
Temperature, K	Activity coefficient of 1-hexene	uncertainty
322.65	5.805	
343.85	5.555	
352.65	5.585	

System: 1-hexyne + hexyltrimethylammonium bis[(trifluoromethyl)sulfonyl]imide; phases: Liquid, Gas
Fixed: Mole fraction of 1-hexyne = 0
Property: Activity coefficient of 1-hexyne (Liquid); method: Chromatography
Temperature, K	Activity coefficient of 1-hexyne	uncertainty
322.65	2.623	
343.85	2.558	
352.65	2.581	

System: 1-heptyne + hexyltrimethylammonium bis[(trifluoromethyl)sulfonyl]imide; phases: Liquid, Gas
Fixed: Mole fraction of 1-heptyne = 0
Property: Activity coefficient of 1-heptyne (Liquid); method: Chromatography
Temperature, K	Activity coefficient of 1-heptyne	uncertainty
322.65	3.567	
343.85	3.495	
352.65	3.541	

System: butanone + hexyltrimethylammonium bis[(trifluoromethyl)sulfonyl]imide; phases: Liquid, Gas
Fixed: Mole fraction of butanone = 0
Property: Activity coefficient of butanone (Liquid); method: Chromatography
Temperature, K	Activity coefficient of butanone	uncertainty
322.65	.422	
343.85	.365	
352.65	.354	

System: 2-pentanone + hexyltrimethylammonium bis[(trifluoromethyl)sulfonyl]imide; phases: Liquid, Gas
Fixed: Mole fraction of 2-pentanone = 0
Property: Activity coefficient of 2-pentanone (Liquid); method: Chromatography
Temperature, K	Activity coefficient of 2-pentanone	uncertainty
322.65	.612	
343.85	.638	
352.65	.663	

System: 3-pentanone + hexyltrimethylammonium bis[(trifluoromethyl)sulfonyl]imide; phases: Liquid, Gas
Fixed: Mole fraction of 3-pentanone = 0
Property: Activity coefficient of 3-pentanone (Liquid); method: Chromatography
Temperature, K	Activity coefficient of 3-pentanone	uncertainty
322.65	.563	
343.85	.601	
352.65	.637	

System: 1,4-dioxane + hexyltrimethylammonium bis[(trifluoromethyl)sulfonyl]imide; phases: Liquid, Gas
Fixed: Mole fraction of 1,4-dioxane = 0
Property: Activity coefficient of 1,4-dioxane (Liquid); method: Chromatography
Temperature, K	Activity coefficient of 1,4-dioxane	uncertainty
322.65	.655	
343.85	.661	
352.65	.68	

System: methanol + hexyltrimethylammonium bis[(trifluoromethyl)sulfonyl]imide; phases: Liquid, Gas
Fixed: Mole fraction of methanol = 0
Property: Activity coefficient of methanol (Liquid); method: Chromatography
Temperature, K	Activity coefficient of methanol	uncertainty
322.65	1.161	
343.85	.971	
352.65	.956	

System: ethanol + hexyltrimethylammonium bis[(trifluoromethyl)sulfonyl]imide; phases: Liquid, Gas
Fixed: Mole fraction of ethanol = 0
Property: Activity coefficient of ethanol (Liquid); method: Chromatography
Temperature, K	Activity coefficient of ethanol	uncertainty
322.65	2.406	
343.85	1.281	
352.65	1.214	

System: 1-propanol + hexyltrimethylammonium bis[(trifluoromethyl)sulfonyl]imide; phases: Liquid, Gas
Fixed: Mole fraction of 1-propanol = 0
Property: Activity coefficient of 1-propanol (Liquid); method: Chromatography
Temperature, K	Activity coefficient of 1-propanol	uncertainty
322.65	1.827	
343.85	1.506	
352.65	1.411	

System: 2-propanol + hexyltrimethylammonium bis[(trifluoromethyl)sulfonyl]imide; phases: Liquid, Gas
Fixed: Mole fraction of 2-propanol = 0
Property: Activity coefficient of 2-propanol (Liquid); method: Chromatography
Temperature, K	Activity coefficient of 2-propanol	uncertainty
322.65	1.685	
343.85	1.394	
352.65	1.326	

System: 2-methyl-1-propanol + hexyltrimethylammonium bis[(trifluoromethyl)sulfonyl]imide; phases: Liquid, Gas
Fixed: Mole fraction of 2-methyl-1-propanol = 0
Property: Activity coefficient of 2-methyl-1-propanol (Liquid); method: Chromatography
Temperature, K	Activity coefficient of 2-methyl-1-propanol	uncertainty
322.65	2.095	
343.85	1.711	
352.65	1.628	

System: 1-butanol + hexyltrimethylammonium bis[(trifluoromethyl)sulfonyl]imide; phases: Liquid, Gas
Fixed: Mole fraction of 1-butanol = 0
Property: Activity coefficient of 1-butanol (Liquid); method: Chromatography
Temperature, K	Activity coefficient of 1-butanol	uncertainty
322.65	2.253	
343.85	1.834	
352.65	1.739	

System: ethanol, trifluoro- + hexyltrimethylammonium bis[(trifluoromethyl)sulfonyl]imide; phases: Liquid, Gas
Fixed: Mole fraction of ethanol, trifluoro- = 0
Property: Activity coefficient of ethanol, trifluoro- (Liquid); method: Chromatography
Temperature, K	Activity coefficient of ethanol, trifluoro-	uncertainty
322.65	.157	
343.85	.402	
352.65	.393	

System: diethyl ether + hexyltrimethylammonium bis[(trifluoromethyl)sulfonyl]imide; phases: Liquid, Gas
Fixed: Mole fraction of diethyl ether = 0
Property: Activity coefficient of diethyl ether (Liquid); method: Chromatography
Temperature, K	Activity coefficient of diethyl ether	uncertainty
322.65	1.517	
343.85	1.909	
352.65	1.937	

System: isopropyl ether + hexyltrimethylammonium bis[(trifluoromethyl)sulfonyl]imide; phases: Liquid, Gas
Fixed: Mole fraction of isopropyl ether = 0
Property: Activity coefficient of isopropyl ether (Liquid); method: Chromatography
Temperature, K	Activity coefficient of isopropyl ether	uncertainty
322.65	3.201	
343.85	4.025	
352.65	4.115	

System: chloroform + hexyltrimethylammonium bis[(trifluoromethyl)sulfonyl]imide; phases: Liquid, Gas
Fixed: Mole fraction of chloroform = 0
Property: Activity coefficient of chloroform (Liquid); method: Chromatography
Temperature, K	Activity coefficient of chloroform	uncertainty
322.65	.89	
343.85	.929	
352.65	.966	

System: dichloromethane + hexyltrimethylammonium bis[(trifluoromethyl)sulfonyl]imide; phases: Liquid, Gas
Fixed: Mole fraction of dichloromethane = 0
Property: Activity coefficient of dichloromethane (Liquid); method: Chromatography
Temperature, K	Activity coefficient of dichloromethane	uncertainty
322.65	.678	
343.85	.728	
352.65	.759	

System: carbon tetrachloride + hexyltrimethylammonium bis[(trifluoromethyl)sulfonyl]imide; phases: Liquid, Gas
Fixed: Mole fraction of carbon tetrachloride = 0
Property: Activity coefficient of carbon tetrachloride (Liquid); method: Chromatography
Temperature, K	Activity coefficient of carbon tetrachloride	uncertainty
322.65	2.424	
343.85	2.388	
352.65	2.419	

System: acetonitrile + hexyltrimethylammonium bis[(trifluoromethyl)sulfonyl]imide; phases: Liquid, Gas
Fixed: Mole fraction of acetonitrile = 0
Property: Activity coefficient of acetonitrile (Liquid); method: Chromatography
Temperature, K	Activity coefficient of acetonitrile	uncertainty
322.65	.486	
343.85	.46	
352.65	.465	

System: nitromethane + hexyltrimethylammonium bis[(trifluoromethyl)sulfonyl]imide; phases: Liquid, Gas
Fixed: Mole fraction of nitromethane = 0
Property: Activity coefficient of nitromethane (Liquid); method: Chromatography
Temperature, K	Activity coefficient of nitromethane	uncertainty
322.65	.975	
343.85	.567	
352.65	.568	

System: 1-nitropropane + hexyltrimethylammonium bis[(trifluoromethyl)sulfonyl]imide; phases: Liquid, Gas
Fixed: Mole fraction of 1-nitropropane = 0
Property: Activity coefficient of 1-nitropropane (Liquid); method: Chromatography
Temperature, K	Activity coefficient of 1-nitropropane	uncertainty
322.65	.699	
343.85	.681	
352.65	.695	

System: triethylamine + hexyltrimethylammonium bis[(trifluoromethyl)sulfonyl]imide; phases: Liquid, Gas
Fixed: Mole fraction of triethylamine = 0
Property: Activity coefficient of triethylamine (Liquid); method: Chromatography
Temperature, K	Activity coefficient of triethylamine	uncertainty
322.65	4.534	
343.85	4.827	
352.65	5.043	

System: pyridine + hexyltrimethylammonium bis[(trifluoromethyl)sulfonyl]imide; phases: Liquid, Gas
Fixed: Mole fraction of pyridine = 0
Property: Activity coefficient of pyridine (Liquid); method: Chromatography
Temperature, K	Activity coefficient of pyridine	uncertainty
322.65	.336	
343.85	.589	
352.65	.607	

System: thiophene + hexyltrimethylammonium bis[(trifluoromethyl)sulfonyl]imide; phases: Liquid, Gas
Fixed: Mole fraction of thiophene = 0
Property: Activity coefficient of thiophene (Liquid); method: Chromatography
Temperature, K	Activity coefficient of thiophene	uncertainty
322.65	.921	
343.85	.92	
352.65	.941	

System: methanal + hexyltrimethylammonium bis[(trifluoromethyl)sulfonyl]imide; phases: Liquid, Gas
Fixed: Mole fraction of methanal = 0
Property: Activity coefficient of methanal (Liquid); method: Chromatography
Temperature, K	Activity coefficient of methanal	uncertainty
322.65	.228	
343.85	.272	
352.65	.311	

System: propanal + hexyltrimethylammonium bis[(trifluoromethyl)sulfonyl]imide; phases: Liquid, Gas
Fixed: Mole fraction of propanal = 0
Property: Activity coefficient of propanal (Liquid); method: Chromatography
Temperature, K	Activity coefficient of propanal	uncertainty
322.65	.508	
343.85	.502	
352.65	.505	

System: butanal + hexyltrimethylammonium bis[(trifluoromethyl)sulfonyl]imide; phases: Liquid, Gas
Fixed: Mole fraction of butanal = 0
Property: Activity coefficient of butanal (Liquid); method: Chromatography
Temperature, K	Activity coefficient of butanal	uncertainty
322.65	.657	
343.85	.661	
352.65	.677	

System: ethyl ethanoate + hexyltrimethylammonium bis[(trifluoromethyl)sulfonyl]imide; phases: Liquid, Gas
Fixed: Mole fraction of ethyl ethanoate = 0
Property: Activity coefficient of ethyl ethanoate (Liquid); method: Chromatography
Temperature, K	Activity coefficient of ethyl ethanoate	uncertainty
322.65	.72	
343.85	.748	
352.65	.776	

System: tetrahydrofuran + hexyltrimethylammonium bis[(trifluoromethyl)sulfonyl]imide; phases: Liquid, Gas
Fixed: Mole fraction of tetrahydrofuran = 0
Property: Activity coefficient of tetrahydrofuran (Liquid); method: Chromatography
Temperature, K	Activity coefficient of tetrahydrofuran	uncertainty
322.65	.686	
343.85	.754	
352.65	.808	
