Measured thermophysical data. Effect of Water on the Viscosities and Densities of 1-Butyl-3-methylimidazolium Dicyanamide and 1-Butyl-3-methylimidazolium Tricyanomethane at Atmospheric Pressure
Source: J. Chem. Eng. Data, 2010, 10.1021/je900632q
Compound 1: 1-butyl-3-methylimidazolium dicyanamide, C10H15N5, purity 99%
Compound 2: 1-butyl-3-methylimidazolium tricyanomethane, C12H15N5, purity 98%
Compound 3: water, H2O, purity 99.99%

System: 1-butyl-3-methylimidazolium dicyanamide; phases: Liquid
Property: Mass density, kg/m3 (Liquid); method: Vibrating tube method
Temperature, K	Pressure, kPa	Mass density, kg/m3	uncertainty
278.15	101.325	1075.8	.5
283.15	101.325	1072.6	.5
288.15	101.325	1069.4	.5
293.15	101.325	1066.2	.5
298.15	101.325	1063.1	.5
303.15	101.325	1059.9	.5
308.15	101.325	1056.8	.5
313.15	101.325	1053.7	.5
318.15	101.325	1050.6	.5
323.15	101.325	1047.5	.5
328.15	101.325	1044.4	.5
333.15	101.325	1041.3	.5
338.15	101.325	1038.2	.5
343.15	101.325	1035.1	.5
348.15	101.325	1032.1	.5
353.15	101.325	1029	.5
358.15	101.325	1025.8	.5
363.15	101.325	1022.7	.5

System: 1-butyl-3-methylimidazolium dicyanamide; phases: Liquid
Property: Viscosity, Pa*s (Liquid); method: Concentric cylinders viscometry
Temperature, K	Pressure, kPa	Viscosity, Pa*s	uncertainty
278.15	101.325	.082066	.000287231
283.15	101.325	.062537	.0002188795
288.15	101.325	.048929	.0001712515
293.15	101.325	.03914	.00013699
298.15	101.325	.031802	.000111307
303.15	101.325	.026286	.000092001
308.15	101.325	.021788	.000076258
313.15	101.325	.018495	.0000647325
318.15	101.325	.015883	.0000555905
323.15	101.325	.013777	.0000482195
328.15	101.325	.012062	.000042217
333.15	101.325	.010653	.0000372855
338.15	101.325	.0094752	.0000331632
343.15	101.325	.0084846	.0000296961
348.15	101.325	.0076425	.00002674875
353.15	101.325	.0069228	.0000242298
358.15	101.325	.0063043	.00002206505
363.15	101.325	.00577	.000020195

System: 1-butyl-3-methylimidazolium tricyanomethane; phases: Liquid
Property: Mass density, kg/m3 (Liquid); method: Vibrating tube method
Temperature, K	Pressure, kPa	Mass density, kg/m3	uncertainty
278.15	101.325	1060.8	.5
283.15	101.325	1057.4	.5
288.15	101.325	1054	.5
293.15	101.325	1050.6	.5
298.15	101.325	1047.3	.5
303.15	101.325	1044	.5
308.15	101.325	1040.6	.5
313.15	101.325	1037.3	.5
318.15	101.325	1034	.5
323.15	101.325	1030.7	.5
328.15	101.325	1027.5	.5
333.15	101.325	1024.2	.5
338.15	101.325	1020.9	.5
343.15	101.325	1017.7	.5
348.15	101.325	1014.4	.5
353.15	101.325	1011.2	.5
358.15	101.325	1008	.5
363.15	101.325	1004.6	.5

System: 1-butyl-3-methylimidazolium tricyanomethane; phases: Liquid
Property: Viscosity, Pa*s (Liquid); method: Concentric cylinders viscometry
Temperature, K	Pressure, kPa	Viscosity, Pa*s	uncertainty
278.15	101.325	.076637	.0002682295
283.15	101.325	.056944	.000199304
288.15	101.325	.04355	.000152425
293.15	101.325	.034129	.0001194515
298.15	101.325	.027318	.000095613
303.15	101.325	.022263	.0000779205
308.15	101.325	.018449	.0000645715
313.15	101.325	.015512	.000054292
318.15	101.325	.01321	.000046235
323.15	101.325	.011381	.0000398335
328.15	101.325	.0099083	.00003467905
333.15	101.325	.0087048	.0000304668
338.15	101.325	.0077117	.00002699095
343.15	101.325	.0068811	.00002408385
348.15	101.325	.006181	.0000216335
353.15	101.325	.0055892	.0000195622
358.15	101.325	.0050804	.0000177814
363.15	101.325	.0046415	.00001624525

System: water + 1-butyl-3-methylimidazolium dicyanamide; phases: Liquid
Fixed: Pressure, kPa = 101
Property: Mass density, kg/m3 (Liquid); method: Vibrating tube method
Temperature, K	Mole fraction of water	Mass density, kg/m3	uncertainty
278.15	0	1075.8	.5
278.15	.059	1075.3	.5
278.15	.1963	1074.3	.5
278.15	.2736	1072.8	.5
278.15	.35	1071.1	.5
278.15	.3974	1069.4	.5
278.15	.4831	1066.2	.5
288.15	0	1069.4	.5
288.15	.059	1068.9	.5
288.15	.1963	1067.8	.5
288.15	.2736	1066.4	.5
288.15	.35	1064.6	.5
288.15	.3974	1062.9	.5
288.15	.4831	1059.6	.5
298.15	0	1063.1	.5
298.15	.059	1062.5	.5
298.15	.1963	1061.4	.5
298.15	.2736	1059.9	.5
298.15	.35	1059.1	.5
298.15	.3974	1056.3	.5
298.15	.4831	1052.9	.5
308.15	0	1056.8	.5
308.15	.059	1056.2	.5
308.15	.1963	1055	.5
308.15	.2736	1053.6	.5
308.15	.35	1051.6	.5
308.15	.3974	1049.8	.5
308.15	.4831	1046.2	.5
318.15	0	1050.6	.5
318.15	.059	1050.1	.5
318.15	.1963	1048.7	.5
318.15	.2736	1047.3	.5
318.15	.35	1045.2	.5
318.15	.3974	1043.3	.5
318.15	.4831	1039.6	.5
328.15	0	1044.4	.5
328.15	.059	1043.9	.5
328.15	.1963	1042.4	.5
328.15	.2736	1041	.5
328.15	.35	1038.8	.5
328.15	.3974	1036.9	.5
328.15	.4831	1033	.5
338.15	0	1038.2	.5
338.15	.059	1037.7	.5
338.15	.1963	1036.2	.5
338.15	.2736	1034.7	.5
338.15	.35	1032.4	.5
338.15	.3974	1030.5	.5
338.15	.4831	1026.4	.5
348.15	0	1032.1	.5
348.15	.059	1031.5	.5
348.15	.1963	1030	.5
348.15	.2736	1028.5	.5
348.15	.35	1026.1	.5
348.15	.3974	1024.1	.5
348.15	.4831	1019.8	.5
358.15	0	1025.8	.5
358.15	.059	1025.3	.5
358.15	.1963	1023.8	.5
358.15	.2736	1022.3	.5
358.15	.35	1019.8	.5
358.15	.3974	1017.7	.5
358.15	.4831	1013.2	.5

System: water + 1-butyl-3-methylimidazolium dicyanamide; phases: Liquid
Fixed: Pressure, kPa = 101
Property: Viscosity, Pa*s (Liquid); method: Concentric cylinders viscometry
Temperature, K	Mole fraction of water	Viscosity, Pa*s	uncertainty
278.15	0	.082066	.000287231
278.15	.059	.074203	.0002597105
278.15	.1963	.058696	.000205436
278.15	.2736	.04894	.00017129
278.15	.35	.037598	.000131593
278.15	.3974	.031981	.0001119335
278.15	.4831	.023225	.0000812875
288.15	0	.048929	.0001712515
288.15	.059	.044995	.0001574825
288.15	.1963	.036447	.0001275645
288.15	.2736	.030873	.0001080555
288.15	.35	.024281	.0000849835
288.15	.3974	.020877	.0000730695
288.15	.4831	.015375	.0000538125
298.15	0	.031802	.000111307
298.15	.059	.029554	.000103439
298.15	.1963	.024399	.0000853965
298.15	.2736	.020945	.0000733075
298.15	.35	.016749	.0000586215
298.15	.3974	.014521	.0000508235
298.15	.4831	.010797	.0000377895
308.15	0	.021788	.000076258
308.15	.059	.020604	.000072114
308.15	.1963	.017288	.000060508
308.15	.2736	.014996	.000052486
308.15	.35	.01216	.00004256
308.15	.3974	.010611	.0000371385
308.15	.4831	.0079511	.00002782885
318.15	0	.015883	.0000555905
318.15	.059	.015088	.000052808
318.15	.1963	.012824	.000044884
318.15	.2736	.011216	.000039256
318.15	.35	.0091985	.00003219475
318.15	.3974	.0080724	.0000282534
318.15	.4831	.0060723	.00002125305
328.15	0	.012062	.000042217
328.15	.059	.011493	.0000402255
328.15	.1963	.0098847	.00003459645
328.15	.2736	.0087018	.0000304563
328.15	.35	.0072021	.00002520735
328.15	.3974	.0063457	.00002220995
328.15	.4831	.0047921	.00001677235
338.15	0	.0094752	.0000331632
338.15	.059	.0090473	.00003166555
338.15	.1963	.0078522	.0000274827
338.15	.2736	.0069498	.0000243243
338.15	.35	.0057983	.00002029405
338.15	.3974	.0051257	.00001793995
338.15	.4831	.0038838	.0000135933
348.15	0	.0076425	.00002674875
348.15	.059	.0073143	.00002560005
348.15	.1963	.0063968	.0000223888
348.15	.2736	.0056875	.00001990625
348.15	.35	.004777	.0000167195
348.15	.3974	.004237	.0000148295
348.15	.4831	.0032227	.00001127945
358.15	0	.0063043	.00002206505
358.15	.059	.0060482	.0000211687
358.15	.1963	.005322	.000018627
358.15	.2736	.0047483	.00001661905
358.15	.35	.0040073	.00001402555
358.15	.3974	.0035773	.00001252055
358.15	.4831	.0027111	.00000948885

System: water + 1-butyl-3-methylimidazolium tricyanomethane; phases: Liquid
Fixed: Pressure, kPa = 101
Property: Mass density, kg/m3 (Liquid); method: Vibrating tube method
Temperature, K	Mole fraction of water	Mass density, kg/m3	uncertainty
278.15	0	1060.8	.5
278.15	.0458	1060.2	.5
278.15	.1008	1059.8	.5
278.15	.175	1059.1	.5
278.15	.2116	1058.6	.5
278.15	.2885	1057.4	.5
278.15	.4273	1056.1	.5
278.15	.5034	1054.8	.5
278.15	.5607	1054.2	.5
288.15	0	1054	.5
288.15	.0458	1053.2	.5
288.15	.1008	1052.8	.5
288.15	.175	1052.1	.5
288.15	.2116	1051.5	.5
288.15	.2885	1050.4	.5
288.15	.4273	1048.9	.5
288.15	.5034	1047.6	.5
288.15	.5607	1046.9	.5
298.15	0	1047.3	.5
298.15	.0458	1046.4	.5
298.15	.1008	1045.8	.5
298.15	.175	1045.1	.5
298.15	.2116	1044.5	.5
298.15	.2885	1043.4	.5
298.15	.4273	1041.7	.5
298.15	.5034	1040.4	.5
298.15	.5607	1039.6	.5
308.15	0	1040.6	.5
308.15	.0458	1039.5	.5
308.15	.1008	1039	.5
308.15	.175	1038	.5
308.15	.2116	1037.6	.5
308.15	.2885	1036.4	.5
308.15	.4273	1034.7	.5
308.15	.5034	1033.2	.5
308.15	.5607	1032.4	.5
318.15	0	1034	.5
318.15	.0458	1032.8	.5
318.15	.1008	1032.1	.5
318.15	.175	1031.3	.5
318.15	.2116	1030.8	.5
318.15	.2885	1029.6	.5
318.15	.4273	1027.7	.5
318.15	.5034	1026.1	.5
318.15	.5607	1025.2	.5
328.15	0	1027.5	.5
328.15	.0458	1026.1	.5
328.15	.1008	1025.4	.5
328.15	.175	1024.5	.5
328.15	.2116	1024	.5
328.15	.2885	1022.8	.5
328.15	.4273	1020.8	.5
328.15	.5034	1019	.5
328.15	.5607	1018	.5
338.15	0	1020.9	.5
338.15	.0458	1019.4	.5
338.15	.1008	1018.7	.5
338.15	.175	1017.8	.5
338.15	.2116	1017.2	.5
338.15	.2885	1016.1	.5
338.15	.4273	1013.9	.5
338.15	.5034	1012	.5
338.15	.5607	1010.9	.5
348.15	0	1014.4	.5
348.15	.0458	1012.9	.5
348.15	.1008	1012.1	.5
348.15	.175	1011.2	.5
348.15	.2116	1010.6	.5
348.15	.2885	1009.4	.5
348.15	.4273	1007.1	.5
348.15	.5034	1005.1	.5
348.15	.5607	1003.9	.5
358.15	0	1008	.5
358.15	.0458	1006.4	.5
358.15	.1008	1005.6	.5
358.15	.175	1004.7	.5
358.15	.2116	1004	.5
358.15	.2885	1002.8	.5
358.15	.4273	1000.3	.5
358.15	.5034	998.4	.5
358.15	.5607	997.1	.5

System: water + 1-butyl-3-methylimidazolium tricyanomethane; phases: Liquid
Fixed: Pressure, kPa = 101
Property: Viscosity, Pa*s (Liquid); method: Concentric cylinders viscometry
Temperature, K	Mole fraction of water	Viscosity, Pa*s	uncertainty
278.15	0	.076637	.0002682295
278.15	.0458	.067845	.0002374575
278.15	.1008	.053191	.0001861685
278.15	.175	.047795	.0001672825
278.15	.2116	.044295	.0001550325
278.15	.2885	.037679	.0001318765
278.15	.4273	.0289	.00010115
278.15	.5034	.025052	.000087682
278.15	.5607	.021785	.0000762475
288.15	0	.04355	.000152425
288.15	.0458	.039303	.0001375605
288.15	.1008	.031743	.0001111005
288.15	.175	.028846	.000100961
288.15	.2116	.026978	.000094423
288.15	.2885	.023277	.0000814695
288.15	.4273	.018235	.0000638225
288.15	.5034	.01599	.000055965
288.15	.5607	.014026	.000049091
298.15	0	.027318	.000095613
298.15	.0458	.025053	.0000876855
298.15	.1008	.020803	.0000728105
298.15	.175	.019027	.0000665945
298.15	.2116	.017898	.000062643
298.15	.2885	.015616	.000054656
298.15	.4273	.01243	.000043505
298.15	.5034	.010999	.0000384965
298.15	.5607	.009713	.0000339955
308.15	0	.018449	.0000645715
308.15	.0458	.01719	.000060165
308.15	.1008	.014542	.000050897
308.15	.175	.013375	.0000468125
308.15	.2116	.01267	.000044345
308.15	.2885	.011153	.0000390355
308.15	.4273	.00899	.000031465
308.15	.5034	.008013	.0000280455
308.15	.5607	.007104	.000024864
318.15	0	.01321	.000046235
318.15	.0458	.012476	.000043666
318.15	.1008	.01068	.00003738
318.15	.175	.009889	.0000346115
318.15	.2116	.009432	.000033012
318.15	.2885	.008361	.0000292635
318.15	.4273	.00681	.000023835
318.15	.5034	.006106	.000021371
318.15	.5607	.005428	.000018998
328.15	0	.0099083	.00003467905
328.15	.0458	.009463	.0000331205
328.15	.1008	.008176	.000028616
328.15	.175	.007615	.0000266525
328.15	.2116	.007303	.0000255605
328.15	.2885	.006514	.000022799
328.15	.4273	.005351	.0000187285
328.15	.5034	.00482	.00001687
328.15	.5607	.004295	.0000150325
338.15	0	.0077117	.00002699095
338.15	.0458	.007433	.0000260155
338.15	.1008	.006473	.0000226555
338.15	.175	.006056	.000021196
338.15	.2116	.005835	.0000204225
338.15	.2885	.005232	.000018312
338.15	.4273	.004329	.0000151515
338.15	.5034	.003916	.000013706
338.15	.5607	.003496	.000012236
348.15	0	.006181	.0000216335
348.15	.0458	.006006	.000021021
348.15	.1008	.005261	.0000184135
348.15	.175	.004944	.000017304
348.15	.2116	.004783	.0000167405
348.15	.2885	.004309	.0000150815
348.15	.4273	.003586	.000012551
348.15	.5034	.003273	.0000114555
348.15	.5607	.002912	.000010192
358.15	0	.0050804	.0000177814
358.15	.0458	.004966	.000017381
358.15	.1008	.004375	.0000153125
358.15	.175	.004125	.0000144375
358.15	.2116	.004001	.0000140035
358.15	.2885	.003618	.000012663
358.15	.4273	.003028	.000010598
358.15	.5034	.002748	.000009618
358.15	.5607	.002472	.000008652
