Measured thermophysical data. Solubility of Calix[4]resorcinarene in Water from (278.15 to 308.15) K
Source: J. Chem. Eng. Data, 2010, 10.1021/je9005097
Compound 1: 2,8,14,20-tetramethyl-4,6,10,12,16,18,22,24-octahidroxyresorci[4]arene, calix[4]resorcinarene, C28H24O8
Compound 2: water, H2O

System: 2,8,14,20-tetramethyl-4,6,10,12,16,18,22,24-octahidroxyresorci[4]arene, calix[4]resorcinarene; phases: Crystal, Liquid, Air at 1 atmosphere
Property: Normal melting temperature, K (Crystal); method: DSC/DTA
Normal melting temperature, K	uncertainty
578.6	

System: 2,8,14,20-tetramethyl-4,6,10,12,16,18,22,24-octahidroxyresorci[4]arene, calix[4]resorcinarene; phases: Crystal, Liquid, Air at 1 atmosphere
Property: Molar enthalpy of transition or fusion, kJ/mol (Crystal); method: DSC/DTA
Molar enthalpy of transition or fusion, kJ/mol	uncertainty
38.2	

System: water + 2,8,14,20-tetramethyl-4,6,10,12,16,18,22,24-octahidroxyresorci[4]arene, calix[4]resorcinarene; phases: Liquid, Crystal
Fixed: Pressure, kPa = 101
Property: Mole fraction of 2,8,14,20-tetramethyl-4,6,10,12,16,18,22,24-octahidroxyresorci[4]arene, calix[4]resorcinarene (Liquid); method: DSC
Temperature, K	Mole fraction of 2,8,14,20-tetramethyl-4,6,10,12,16,18,22,24-octahidroxyresorci[4]arene, calix[4]resorcinarene	uncertainty
278.15	.00000322	
283.15	.00000429	
288.15	.00000486	
293.15	.00000626	
298.15	.00000659	
303.15	.00000716	
308.15	.00000768	
