Measured thermophysical data. Temperature-Dependent Density and Viscosity of the Ionic Liquids 1-Alkyl-3-methylimidazolium Iodides: Experiment and Molecular Dynamics Simulation
Source: J. Chem. Eng. Data, 2010, 10.1021/je901092b
Compound 1: 1-butyl-3-methylimidazolium iodide, C8H15IN2
Compound 2: 1-hexyl-3-methylimidazolium iodide, C10H19IN2
Compound 3: 1-methyl-3-octylimidazolium iodide, C12H23IN2

System: 1-butyl-3-methylimidazolium iodide; phases: Liquid
Fixed: Pressure, kPa = 101.325
Property: Mass density, kg/m3 (Liquid); method: Pycnometric method
Temperature, K	Mass density, kg/m3	uncertainty
299.15	1434	10
304.15	1432	10
308.15	1430	10
313.15	1426	10
318.15	1422	10
323.15	1418	10
328.15	1414	10
333.15	1406	10
338.15	1400	10
343.15	1398	10
348.15	1396	10
353.15	1394	10
358.15	1392	10
363.15	1388	10
368.15	1386	10
373.15	1382	10
378.15	1376	10
383.15	1370	10
388.15	1360	10

System: 1-butyl-3-methylimidazolium iodide; phases: Liquid
Fixed: Pressure, kPa = 101.325
Property: Viscosity, Pa*s (Liquid); method: Capillary tube (Ostwald; Ubbelohde) method
Temperature, K	Viscosity, Pa*s	uncertainty
299.15	.59368	
304.15	.44264	
308.15	.33695	
313.15	.22798	
318.15	.17386	
323.15	.13423	
328.15	.10534	
333.15	.08151	
338.15	.06585	
343.15	.05343	
348.15	.04468	
353.15	.03652	
358.15	.0304	
363.15	.02611	
368.15	.0225	
373.15	.02043	
378.15	.0181	
383.15	.01522	
388.15	.01311	

System: 1-hexyl-3-methylimidazolium iodide; phases: Liquid
Fixed: Pressure, kPa = 101.325
Property: Mass density, kg/m3 (Liquid); method: Pycnometric method
Temperature, K	Mass density, kg/m3	uncertainty
305.15	1326	10
309.15	1324	10
314.15	1322	10
318.15	1320	10
323.15	1318	10
328.15	1316	10
333.15	1314	10
338.15	1312	10
343.15	1310	10
348.15	1308	10
353.15	1306	10
359.15	1304	10
363.15	1302	10
373.15	1298	10
378.15	1296	10
383.15	1294	10
388.15	1292	10

System: 1-hexyl-3-methylimidazolium iodide; phases: Liquid
Fixed: Pressure, kPa = 101.325
Property: Viscosity, Pa*s (Liquid); method: Capillary tube (Ostwald; Ubbelohde) method
Temperature, K	Viscosity, Pa*s	uncertainty
305.15	.80979	
309.15	.60007	
314.15	.43298	
318.15	.33425	
323.15	.24555	
328.15	.19014	
333.15	.14647	
338.15	.11613	
343.15	.08804	
348.15	.07385	
353.15	.06063	
359.15	.04847	
363.15	.04223	
373.15	.03045	
378.15	.02662	
383.15	.02319	
388.15	.0203	

System: 1-methyl-3-octylimidazolium iodide; phases: Liquid
Fixed: Pressure, kPa = 101.325
Property: Mass density, kg/m3 (Liquid); method: Pycnometric method
Temperature, K	Mass density, kg/m3	uncertainty
300.15	1258	10
303.15	1254	10
308.15	1250	10
313.15	1246	10
319.15	1242	10
323.15	1240	10
328.15	1234	10
333.15	1230	10
338.15	1228	10
343.15	1224	10
348.15	1218	10
353.15	1212	10
358.15	1210	10
363.15	1206	10
368.15	1204	10
373.15	1200	10
378.15	1196	10

System: 1-methyl-3-octylimidazolium iodide; phases: Liquid
Fixed: Pressure, kPa = 101.325
Property: Viscosity, Pa*s (Liquid); method: Capillary tube (Ostwald; Ubbelohde) method
Temperature, K	Viscosity, Pa*s	uncertainty
300.15	1.30626	
303.15	.98111	
308.15	.72671	
313.15	.5243	
319.15	.40437	
323.15	.29666	
328.15	.22909	
333.15	.17435	
338.15	.13853	
343.15	.10481	
348.15	.08902	
353.15	.07317	
358.15	.05841	
363.15	.0496	
368.15	.04321	
373.15	.03557	
378.15	.03143	
