Measured thermophysical data. Activity Coefficients at Infinite Dilution of Organic Solutes in 1-Ethyl-3-methylimidazolium Tris(pentafluoroethyl)trifluorophosphate [EMIM][FAP] Using Gas-Liquid Chromatography
Source: J. Chem. Eng. Data, 2010, 10.1021/je9008443
Compound 1: 1-ethyl-3-methylimidazolium tris(pentafluoroethyl)trifluorophosphate, C12H11F18N2P, purity 99.9%
Compound 2: pentane, C5H12
Compound 3: n-hexane, C6H14
Compound 4: heptane, C7H16
Compound 5: octane, C8H18
Compound 6: nonane, C9H20
Compound 7: cyclohexane, C6H12
Compound 8: methylcyclohexane, C7H14
Compound 9: 1-hexene, C6H12
Compound 10: 1-octene, C8H16
Compound 11: 1-decene, C10H20
Compound 12: 1-pentyne, C5H8
Compound 13: 1-hexyne, C6H10
Compound 14: 1-heptyne, C7H12
Compound 15: 1-octyne, C8H14
Compound 16: benzene, C6H6
Compound 17: toluene, C7H8
Compound 18: ethylbenzene, C8H10
Compound 19: 1,2-dimethylbenzene, C8H10
Compound 20: 1,3-dimethylbenzene, C8H10
Compound 21: 1,4-dimethylbenzene, C8H10
Compound 22: methanol, CH4O
Compound 23: ethanol, C2H6O
Compound 24: propan-1-ol, C3H8O

System: pentane + 1-ethyl-3-methylimidazolium tris(pentafluoroethyl)trifluorophosphate; phases: Liquid
Fixed: Pressure, kPa = 101
Fixed: Mole fraction of pentane = 0
Property: Activity coefficient of pentane (Liquid); method: Chromatography
Temperature, K	Activity coefficient of pentane	uncertainty
313.1	4.44	.1776
322.9	3.59	.1436
333.6	2.87	.1148
343.5	2.36	.0944
353.5	2.01	.0804

System: n-hexane + 1-ethyl-3-methylimidazolium tris(pentafluoroethyl)trifluorophosphate; phases: Liquid
Fixed: Pressure, kPa = 101
Fixed: Mole fraction of n-hexane = 0
Property: Activity coefficient of n-hexane (Liquid); method: Chromatography
Temperature, K	Activity coefficient of n-hexane	uncertainty
313.1	10.14	.4056
322.9	8.15	.326
333.6	6.47	.2588
343.5	5.24	.2096
353.5	4.38	.1752

System: heptane + 1-ethyl-3-methylimidazolium tris(pentafluoroethyl)trifluorophosphate; phases: Liquid
Fixed: Pressure, kPa = 101
Fixed: Mole fraction of heptane = 0
Property: Activity coefficient of heptane (Liquid); method: Chromatography
Temperature, K	Activity coefficient of heptane	uncertainty
313.1	19.72	.7888
322.9	16.27	.6508
333.6	13	.52
343.5	10.61	.4244
353.5	8.75	.35

System: octane + 1-ethyl-3-methylimidazolium tris(pentafluoroethyl)trifluorophosphate; phases: Liquid
Fixed: Pressure, kPa = 101
Fixed: Mole fraction of octane = 0
Property: Activity coefficient of octane (Liquid); method: Chromatography
Temperature, K	Activity coefficient of octane	uncertainty
313.1	33.3	1.332
322.9	28.33	1.1332
333.6	23.35	.934
343.5	19.47	.7788
353.5	16.14	.6456

System: nonane + 1-ethyl-3-methylimidazolium tris(pentafluoroethyl)trifluorophosphate; phases: Liquid
Fixed: Pressure, kPa = 101
Fixed: Mole fraction of nonane = 0
Property: Activity coefficient of nonane (Liquid); method: Chromatography
Temperature, K	Activity coefficient of nonane	uncertainty
313.1	49.35	1.974
322.9	42.85	1.714
333.6	36.04	1.4416
343.5	31.8	1.272
353.5	27.02	1.0808

System: cyclohexane + 1-ethyl-3-methylimidazolium tris(pentafluoroethyl)trifluorophosphate; phases: Liquid
Fixed: Pressure, kPa = 101
Fixed: Mole fraction of cyclohexane = 0
Property: Activity coefficient of cyclohexane (Liquid); method: Chromatography
Temperature, K	Activity coefficient of cyclohexane	uncertainty
313.1	9.47	.3788
322.9	7.98	.3192
333.6	6.58	.2632
343.5	5.52	.2208
353.5	4.71	.1884

System: methylcyclohexane + 1-ethyl-3-methylimidazolium tris(pentafluoroethyl)trifluorophosphate; phases: Liquid
Fixed: Pressure, kPa = 101
Fixed: Mole fraction of methylcyclohexane = 0
Property: Activity coefficient of methylcyclohexane (Liquid); method: Chromatography
Temperature, K	Activity coefficient of methylcyclohexane	uncertainty
313.1	13.71	.5484
322.9	11.75	.47
333.6	9.91	.3964
343.5	8.4	.336
353.5	7.21	.2884

System: 1-hexene + 1-ethyl-3-methylimidazolium tris(pentafluoroethyl)trifluorophosphate; phases: Liquid
Fixed: Pressure, kPa = 101
Fixed: Mole fraction of 1-hexene = 0
Property: Activity coefficient of 1-hexene (Liquid); method: Chromatography
Temperature, K	Activity coefficient of 1-hexene	uncertainty
312.8	6.66	.2664
323.6	5.49	.2196
333.5	4.64	.1856
343.6	3.93	.1572
353.5	3.34	.1336

System: 1-octene + 1-ethyl-3-methylimidazolium tris(pentafluoroethyl)trifluorophosphate; phases: Liquid
Fixed: Pressure, kPa = 101
Fixed: Mole fraction of 1-octene = 0
Property: Activity coefficient of 1-octene (Liquid); method: Chromatography
Temperature, K	Activity coefficient of 1-octene	uncertainty
312.8	18.84	.7536
323.6	16.39	.6556
333.5	14.76	.5904
343.6	12.89	.5156
353.5	11.11	.4444

System: 1-decene + 1-ethyl-3-methylimidazolium tris(pentafluoroethyl)trifluorophosphate; phases: Liquid
Fixed: Pressure, kPa = 101
Fixed: Mole fraction of 1-decene = 0
Property: Activity coefficient of 1-decene (Liquid); method: Chromatography
Temperature, K	Activity coefficient of 1-decene	uncertainty
312.8	37.62	1.5048
323.6	34.74	1.3896
333.5	32.4	1.296
343.6	29.46	1.1784
353.5	26.71	1.0684

System: 1-pentyne + 1-ethyl-3-methylimidazolium tris(pentafluoroethyl)trifluorophosphate; phases: Liquid
Fixed: Pressure, kPa = 101
Fixed: Mole fraction of 1-pentyne = 0
Property: Activity coefficient of 1-pentyne (Liquid); method: Chromatography
Temperature, K	Activity coefficient of 1-pentyne	uncertainty
313.6	2.46	.0984
322.7	2.26	.0904
333.5	1.99	.0796
343.4	1.82	.0728
353.3	1.67	.0668

System: 1-hexyne + 1-ethyl-3-methylimidazolium tris(pentafluoroethyl)trifluorophosphate; phases: Liquid
Fixed: Pressure, kPa = 101
Fixed: Mole fraction of 1-hexyne = 0
Property: Activity coefficient of 1-hexyne (Liquid); method: Chromatography
Temperature, K	Activity coefficient of 1-hexyne	uncertainty
313.6	4.18	.1672
322.7	3.87	.1548
333.5	3.52	.1408
343.4	3.26	.1304
353.3	2.94	.1176

System: 1-heptyne + 1-ethyl-3-methylimidazolium tris(pentafluoroethyl)trifluorophosphate; phases: Liquid
Fixed: Pressure, kPa = 101
Fixed: Mole fraction of 1-heptyne = 0
Property: Activity coefficient of 1-heptyne (Liquid); method: Chromatography
Temperature, K	Activity coefficient of 1-heptyne	uncertainty
313.6	6.46	.2584
322.7	6.11	.2444
333.5	5.67	.2268
343.4	5.29	.2116
353.3	4.82	.1928

System: 1-octyne + 1-ethyl-3-methylimidazolium tris(pentafluoroethyl)trifluorophosphate; phases: Liquid
Fixed: Pressure, kPa = 101
Fixed: Mole fraction of 1-octyne = 0
Property: Activity coefficient of 1-octyne (Liquid); method: Chromatography
Temperature, K	Activity coefficient of 1-octyne	uncertainty
313.6	9.53	.3812
322.7	9.12	.3648
333.5	8.65	.346
343.4	8.08	.3232
353.3	7.52	.3008

System: benzene + 1-ethyl-3-methylimidazolium tris(pentafluoroethyl)trifluorophosphate; phases: Liquid
Fixed: Pressure, kPa = 101
Fixed: Mole fraction of benzene = 0
Property: Activity coefficient of benzene (Liquid); method: Chromatography
Temperature, K	Activity coefficient of benzene	uncertainty
313.1	1.06	.0424
322.9	1.09	.0436
333.1	1.15	.046
343.5	1.11	.0444
353.3	1.1	.044
363.9	1.09	.0436

System: toluene + 1-ethyl-3-methylimidazolium tris(pentafluoroethyl)trifluorophosphate; phases: Liquid
Fixed: Pressure, kPa = 101
Fixed: Mole fraction of toluene = 0
Property: Activity coefficient of toluene (Liquid); method: Chromatography
Temperature, K	Activity coefficient of toluene	uncertainty
313.1	1.54	.0616
322.9	1.59	.0636
333.1	1.69	.0676
343.5	1.66	.0664
353.3	1.66	.0664
363.9	1.66	.0664

System: ethylbenzene + 1-ethyl-3-methylimidazolium tris(pentafluoroethyl)trifluorophosphate; phases: Liquid
Fixed: Pressure, kPa = 101
Fixed: Mole fraction of ethylbenzene = 0
Property: Activity coefficient of ethylbenzene (Liquid); method: Chromatography
Temperature, K	Activity coefficient of ethylbenzene	uncertainty
313.1	2.4	.096
322.9	2.48	.0992
333.1	2.63	.1052
343.5	2.55	.102
353.3	2.54	.1016
363.9	2.51	.1004

System: 1,2-dimethylbenzene + 1-ethyl-3-methylimidazolium tris(pentafluoroethyl)trifluorophosphate; phases: Liquid
Fixed: Pressure, kPa = 101
Fixed: Mole fraction of 1,2-dimethylbenzene = 0
Property: Activity coefficient of 1,2-dimethylbenzene (Liquid); method: Chromatography
Temperature, K	Activity coefficient of 1,2-dimethylbenzene	uncertainty
313.1	2.14	.0856
322.9	2.2	.088
333.1	2.35	.094
343.5	2.3	.092
353.3	2.3	.092
363.9	2.29	.0916

System: 1,3-dimethylbenzene + 1-ethyl-3-methylimidazolium tris(pentafluoroethyl)trifluorophosphate; phases: Liquid
Fixed: Pressure, kPa = 101
Fixed: Mole fraction of 1,3-dimethylbenzene = 0
Property: Activity coefficient of 1,3-dimethylbenzene (Liquid); method: Chromatography
Temperature, K	Activity coefficient of 1,3-dimethylbenzene	uncertainty
313.1	2.29	.0916
322.9	2.37	.0948
333.1	2.53	.1012
343.5	2.47	.0988
353.3	2.47	.0988
363.9	2.46	.0984

System: 1,4-dimethylbenzene + 1-ethyl-3-methylimidazolium tris(pentafluoroethyl)trifluorophosphate; phases: Liquid
Fixed: Pressure, kPa = 101
Fixed: Mole fraction of 1,4-dimethylbenzene = 0
Property: Activity coefficient of 1,4-dimethylbenzene (Liquid); method: Chromatography
Temperature, K	Activity coefficient of 1,4-dimethylbenzene	uncertainty
313.1	2.37	.0948
322.9	2.44	.0976
333.1	2.6	.104
343.5	2.55	.102
353.3	2.54	.1016
363.9	2.53	.1012

System: methanol + 1-ethyl-3-methylimidazolium tris(pentafluoroethyl)trifluorophosphate; phases: Liquid
Fixed: Pressure, kPa = 101
Fixed: Mole fraction of methanol = 0
Property: Activity coefficient of methanol (Liquid); method: Chromatography
Temperature, K	Activity coefficient of methanol	uncertainty
313.6	2.65	.106
322.7	2.29	.0916
333.5	2.02	.0808
343.4	1.73	.0692
353.3	1.51	.0604

System: ethanol + 1-ethyl-3-methylimidazolium tris(pentafluoroethyl)trifluorophosphate; phases: Liquid
Fixed: Pressure, kPa = 101
Fixed: Mole fraction of ethanol = 0
Property: Activity coefficient of ethanol (Liquid); method: Chromatography
Temperature, K	Activity coefficient of ethanol	uncertainty
313.6	3.29	.1316
322.7	2.86	.1144
333.5	2.44	.0976
343.4	2.17	.0868
353.3	1.88	.0752

System: propan-1-ol + 1-ethyl-3-methylimidazolium tris(pentafluoroethyl)trifluorophosphate; phases: Liquid
Fixed: Pressure, kPa = 101
Fixed: Mole fraction of propan-1-ol = 0
Property: Activity coefficient of propan-1-ol (Liquid); method: Chromatography
Temperature, K	Activity coefficient of propan-1-ol	uncertainty
313.6	4.46	.1784
322.7	3.87	.1548
333.5	3.35	.134
343.4	2.92	.1168
353.3	2.59	.1036
