Measured thermophysical data. Article  Isobaric Heat Capacities of the Ionic Liquids [Cnmim][Tf2N] (n = 6, 8) from (323 to 573) K at 10 MPa
Source: J. Chem. Eng. Data, 2010, 10.1021/je900676b
Compound 1: 1-hexyl-3-methylimidazolium bis[(trifluoromethyl)sulfonyl]imide, C12H19F6N3O4S2
Compound 2: 1-octyl-3-methylimidazolium bis[(trifluoromethyl)sulfonyl]imide, C14H23F6N3O4S2

System: 1-hexyl-3-methylimidazolium bis[(trifluoromethyl)sulfonyl]imide; phases: Liquid
Property: Heat capacity at constant pressure per volume, J/K/m3 (Liquid); method: Tian-Calvet differential microcalorimeter
Pressure, kPa	Temperature, K	Heat capacity at constant pressure per volume, J/K/m3	uncertainty
10000	325.02	1953000	
10000	337.38	1966000	
10000	349.75	1972000	
10000	362.12	1982000	
10000	374.48	1989000	
10000	386.84	2004000	
10000	399.19	2009000	
10000	411.56	2021000	
10000	423.91	2034000	
10000	436.27	2038000	
10000	448.63	2053000	
10000	460.99	2050000	
10000	473.35	2051000	
10000	485.72	2055000	
10000	498.09	2067000	
10000	510.46	2066000	
10000	522.84	2081000	
10000	535.2	2079000	
10000	547.56	2096000	
10000	554.94	2121000	

System: 1-octyl-3-methylimidazolium bis[(trifluoromethyl)sulfonyl]imide; phases: Liquid
Property: Heat capacity at constant pressure per volume, J/K/m3 (Liquid); method: Tian-Calvet differential microcalorimeter
Pressure, kPa	Temperature, K	Heat capacity at constant pressure per volume, J/K/m3	uncertainty
10000	325	1950000	
10000	337.36	1964000	
10000	349.71	1973000	
10000	362.07	1984000	
10000	374.43	1993000	
10000	386.8	2004000	
10000	399.16	2012000	
10000	411.52	2018000	
10000	423.88	2029000	
10000	436.25	2036000	
10000	448.61	2049000	
10000	460.97	2049000	
10000	473.33	2053000	
10000	485.69	2056000	
10000	498.06	2068000	
10000	510.42	2069000	
10000	522.79	2084000	
10000	535.15	2082000	
10000	547.51	2099000	
10000	554.94	2098000	
