Measured thermophysical data. Physicochemical Property Estimation of an Ionic Liquid Based on Glutamic Acid-BMIGlu
Source: J. Chem. Eng. Data, 2010, 10.1021/je900865y
Compound 1: glutamic acid 1-butyl-3-methylimidazolium glutamine salt, C13H23N3O4
Compound 2: water, H2O
Compound 3: 1-butyl-3-methylimidazolium chloride, C8H15ClN2

System: glutamic acid 1-butyl-3-methylimidazolium glutamine salt; phases: Glass, Liquid, Air at 1 atmosphere
Property: Triple point temperature, K (Glass); method: DSC/DTA
Triple point temperature, K	uncertainty
239.65	

System: glutamic acid 1-butyl-3-methylimidazolium glutamine salt; phases: Liquid
Property: Mass density, kg/m3 (Liquid); method: Buoyancy - hydrostatic balance with magnetic suspension - one sinker
Temperature, K	Pressure, kPa	Mass density, kg/m3	uncertainty
308.15	101	1192.4	.2
313.15	101	1189.4	.2
318.15	101	1186.3	.2
323.15	101	1184.1	.2
328.15	101	1181.9	.2
333.15	101	1179.4	.2
338.15	101	1177	.2
343.15	101	1175.2	.2

System: glutamic acid 1-butyl-3-methylimidazolium glutamine salt; phases: Liquid, Air at 1 atmosphere
Property: Surface tension liquid-gas, N/m (Liquid); method: Maximal bubble pressure
Temperature, K	Surface tension liquid-gas, N/m	uncertainty
308.15	.0493	.0001
313.15	.048	.0001
318.15	.0462	.0001
323.15	.0445	.0001
328.15	.0425	.0001
333.15	.0402	.0001
338.15	.0386	.0001
343.15	.0371	.0001

System: 1-butyl-3-methylimidazolium chloride; phases: Crystal, Liquid, Air at 1 atmosphere
Property: Normal melting temperature, K (Crystal); method: Visual observation
Normal melting temperature, K	uncertainty
340.15	1

System: water + glutamic acid 1-butyl-3-methylimidazolium glutamine salt; phases: Liquid
Fixed: Pressure, kPa = 101
Property: Mass density, kg/m3 (Liquid); method: Buoyancy - hydrostatic balance with magnetic suspension - one sinker
Temperature, K	Mole fraction of water	Mass density, kg/m3	uncertainty
318.15	.00025	1186.2	.2
323.15	.00025	1184.1	.2
328.15	.00025	1181.9	.2
333.15	.00025	1179.4	.2
338.15	.00025	1177	.2
343.15	.00025	1175.2	.2
323.15	.001	1183.2	.2
328.15	.001	1181	.2
333.15	.001	1178.4	.2
338.15	.001	1176.1	.2
318.15	.001	1185.3	.2
343.15	.001	1174.4	.2
318.15	.0024	1183.8	.2
323.15	.0024	1181.6	.2
328.15	.0024	1179.5	.2
333.15	.0024	1177.3	.2
338.15	.0024	1175	.2
343.15	.0024	1173.3	.2
318.15	.0036	1182.3	.2
328.15	.0036	1178.4	.2
333.15	.0036	1176	.2
338.15	.0036	1173.9	.2
323.15	.0036	1180.2	.2
343.15	.0036	1172.6	.2
323.15	.0078	1176.3	.2
328.15	.0078	1174.8	.2
318.15	.0078	1178.2	.2
333.15	.0078	1172.3	.2
308.15	.0078	1183.8	.2
338.15	.0078	1170.8	.2
313.15	.0078	1181.2	.2
343.15	.0078	1169.5	.2
308.15	.0105	1181.1	.2
323.15	.0105	1174	.2
333.15	.0105	1170.2	.2
318.15	.0105	1175.5	.2
328.15	.0105	1172.1	.2
338.15	.0105	1168.4	.2
343.15	.0105	1167.6	.2
313.15	.0105	1178.6	.2
333.15	.01063	1170	.2
313.15	.01063	1178.2	.2
308.15	.01063	1180.8	.2
323.15	.01063	1173.5	.2
338.15	.01063	1168	.2
328.15	.01063	1171.9	.2
318.15	.01063	1175.1	.2
343.15	.01063	1166.9	.2
333.15	.01196	1169.1	.2
338.15	.01196	1167.1	.2
313.15	.01196	1176.7	.2
318.15	.01196	1174.1	.2
308.15	.01196	1179.2	.2
328.15	.01196	1171.2	.2
323.15	.01196	1172.3	.2
343.15	.01196	1165.8	.2
323.15	.01326	1171.2	.2
338.15	.01326	1166	.2
318.15	.01326	1172.6	.2
308.15	.01326	1177.9	.2
333.15	.01326	1167.4	.2
313.15	.01326	1175.6	.2
343.15	.01326	1165	.2
328.15	.01326	1169.8	.2

System: water + glutamic acid 1-butyl-3-methylimidazolium glutamine salt; phases: Liquid, Air at 1 atmosphere
Property: Surface tension liquid-gas, N/m (Liquid); method: Maximal bubble pressure
Temperature, K	Mole fraction of water	Surface tension liquid-gas, N/m	uncertainty
318.15	.0028	.0479	.0001
323.15	.0028	.0461	.0001
328.15	.0028	.0441	.0001
333.15	.0028	.0418	.0001
308.15	.0028	.0511	.0001
338.15	.0028	.0402	.0001
313.15	.0028	.0497	.0001
343.15	.0028	.0387	.0001
323.15	.0069	.0482	.0001
328.15	.0069	.0462	.0001
308.15	.0069	.0535	.0001
333.15	.0069	.0441	.0001
318.15	.0069	.05	.0001
338.15	.0069	.0426	.0001
343.15	.0069	.0412	.0001
313.15	.0069	.0519	.0001
308.15	.0078	.0544	.0001
328.15	.0078	.0469	.0001
333.15	.0078	.0449	.0001
313.15	.0078	.0524	.0001
323.15	.0078	.0491	.0001
338.15	.0078	.0432	.0001
318.15	.0078	.0507	.0001
343.15	.0078	.0419	.0001
333.15	.01105	.0467	.0001
328.15	.01105	.0487	.0001
323.15	.01105	.0507	.0001
338.15	.01105	.0448	.0001
313.15	.01105	.0542	.0001
318.15	.01105	.0524	.0001
343.15	.01105	.0437	.0001
308.15	.01105	.0562	.0001
338.15	.01426	.0469	.0001
328.15	.01426	.0504	.0001
333.15	.01426	.0484	.0001
323.15	.01426	.0525	.0001
318.15	.01426	.0544	.0001
308.15	.01426	.0583	.0001
343.15	.01426	.0455	.0001
313.15	.01426	.0563	.0001
