Measured thermophysical data. Activity Coefficients at Infinite Dilution Measurements for Organic Solutes and Water in the Ionic Liquid 1-Hexyl-3-methylimidazolium Thiocyanate
Source: J. Chem. Eng. Data, 2010, 10.1021/je900890u
Compound 1: 1-hexyl-3-methylimidazolium thiocyanate, C11H19N3S
Compound 2: heptane, C7H16
Compound 3: octane, C8H18
Compound 4: nonane, C9H20
Compound 5: decane, C10H22
Compound 6: cyclopentane, C5H10
Compound 7: cyclohexane, C6H12
Compound 8: cycloheptane, C7H14
Compound 9: cyclooctane, C8H16
Compound 10: 1-pentene, C5H10
Compound 11: 1-hexene, C6H12
Compound 12: 1-heptene, C7H14
Compound 13: 1-octene, C8H16
Compound 14: 1-pentyne, C5H8
Compound 15: 1-hexyne, C6H10
Compound 16: 1-heptyne, C7H12
Compound 17: 1-octyne, C8H14
Compound 18: benzene, C6H6
Compound 19: toluene, C7H8
Compound 20: ethylbenzene, C8H10
Compound 21: 1,2-dimethylbenzene, C8H10
Compound 22: 1,3-dimethylbenzene, C8H10
Compound 23: 1,4-dimethylbenzene, C8H10
Compound 24: methanol, CH4O
Compound 25: ethanol, C2H6O
Compound 26: propan-1-ol, C3H8O
Compound 27: butan-1-ol, C4H10O
Compound 28: water, H2O
Compound 29: thiophene, C4H4S
Compound 30: tetramethylene oxide, C4H8O
Compound 31: methyl tert-butyl ether, C5H12O
Compound 32: ethane, 1,1'-oxybis-, C4H10O
Compound 33: dipropyl ether, C6H14O
Compound 34: dibutyl ether, C8H18O
Compound 35: propanone, C3H6O

System: heptane + 1-hexyl-3-methylimidazolium thiocyanate; phases: Liquid
Fixed: Pressure, kPa = 101
Fixed: Mole fraction of heptane = 0
Property: Activity coefficient of heptane (Liquid); method: Chromatography
Temperature, K	Activity coefficient of heptane	uncertainty
298.15	81.4	2.442
308.15	76.7	2.301
318.15	72.1	2.163
328.15	68.3	2.049
338.15	64.5	1.935
348.15	61.7	1.851
358.15	58.6	1.758
368.15	56	1.68

System: octane + 1-hexyl-3-methylimidazolium thiocyanate; phases: Liquid
Fixed: Pressure, kPa = 101
Fixed: Mole fraction of octane = 0
Property: Activity coefficient of octane (Liquid); method: Chromatography
Temperature, K	Activity coefficient of octane	uncertainty
298.15	95.7	2.871
308.15	90.2	2.706
318.15	85.7	2.571
328.15	81.6	2.448
338.15	77.8	2.334
348.15	74.6	2.238
358.15	71.6	2.148
368.15	68.7	2.061

System: nonane + 1-hexyl-3-methylimidazolium thiocyanate; phases: Liquid
Fixed: Pressure, kPa = 101
Fixed: Mole fraction of nonane = 0
Property: Activity coefficient of nonane (Liquid); method: Chromatography
Temperature, K	Activity coefficient of nonane	uncertainty
298.15	120	3.6
308.15	113	3.39
318.15	108	3.24
328.15	103	3.09
338.15	98	2.94
348.15	93.9	2.817
358.15	90.2	2.706
368.15	87.1	2.613

System: decane + 1-hexyl-3-methylimidazolium thiocyanate; phases: Liquid
Fixed: Pressure, kPa = 101
Fixed: Mole fraction of decane = 0
Property: Activity coefficient of decane (Liquid); method: Chromatography
Temperature, K	Activity coefficient of decane	uncertainty
298.15	162	4.86
308.15	152	4.56
318.15	144	4.32
328.15	136	4.08
338.15	130	3.9
348.15	125	3.75
358.15	120	3.6
368.15	115	3.45

System: cyclopentane + 1-hexyl-3-methylimidazolium thiocyanate; phases: Liquid
Fixed: Pressure, kPa = 101
Fixed: Mole fraction of cyclopentane = 0
Property: Activity coefficient of cyclopentane (Liquid); method: Chromatography
Temperature, K	Activity coefficient of cyclopentane	uncertainty
298.15	23.2	.696
308.15	21.4	.642
318.15	19.8	.594
328.15	18.5	.555
338.15	17.3	.519
348.15	16.3	.489
358.15	15.4	.462
368.15	14.5	.435

System: cyclohexane + 1-hexyl-3-methylimidazolium thiocyanate; phases: Liquid
Fixed: Pressure, kPa = 101
Fixed: Mole fraction of cyclohexane = 0
Property: Activity coefficient of cyclohexane (Liquid); method: Chromatography
Temperature, K	Activity coefficient of cyclohexane	uncertainty
298.15	28.2	.846
308.15	26	.78
318.15	24.2	.726
328.15	22.7	.681
338.15	21.3	.639
348.15	20	.6
358.15	18.9	.567
368.15	17.9	.537

System: cycloheptane + 1-hexyl-3-methylimidazolium thiocyanate; phases: Liquid
Fixed: Pressure, kPa = 101
Fixed: Mole fraction of cycloheptane = 0
Property: Activity coefficient of cycloheptane (Liquid); method: Chromatography
Temperature, K	Activity coefficient of cycloheptane	uncertainty
298.15	25.8	.774
308.15	24.5	.735
318.15	23.3	.699
328.15	22.2	.666
338.15	21.3	.639
348.15	20.3	.609
358.15	19.6	.588
368.15	18.8	.564

System: cyclooctane + 1-hexyl-3-methylimidazolium thiocyanate; phases: Liquid
Fixed: Pressure, kPa = 101
Fixed: Mole fraction of cyclooctane = 0
Property: Activity coefficient of cyclooctane (Liquid); method: Chromatography
Temperature, K	Activity coefficient of cyclooctane	uncertainty
298.15	30.1	.903
308.15	28.6	.858
318.15	27.2	.816
328.15	26	.78
338.15	24.8	.744
348.15	23.8	.714
358.15	22.8	.684
368.15	22	.66

System: 1-pentene + 1-hexyl-3-methylimidazolium thiocyanate; phases: Liquid
Fixed: Pressure, kPa = 101
Fixed: Mole fraction of 1-pentene = 0
Property: Activity coefficient of 1-pentene (Liquid); method: Chromatography
Temperature, K	Activity coefficient of 1-pentene	uncertainty
298.15	28	.84
308.15	26.1	.783
318.15	24.6	.738
328.15	23.1	.693
338.15	21.9	.657
348.15	20.8	.624
358.15	19.8	.594
368.15	18.9	.567

System: 1-hexene + 1-hexyl-3-methylimidazolium thiocyanate; phases: Liquid
Fixed: Pressure, kPa = 101
Fixed: Mole fraction of 1-hexene = 0
Property: Activity coefficient of 1-hexene (Liquid); method: Chromatography
Temperature, K	Activity coefficient of 1-hexene	uncertainty
298.15	28.7	.861
308.15	27.4	.822
318.15	26.2	.786
328.15	25.3	.759
338.15	24.4	.732
348.15	23.5	.705
358.15	22.7	.681
368.15	22.1	.663

System: 1-heptene + 1-hexyl-3-methylimidazolium thiocyanate; phases: Liquid
Fixed: Pressure, kPa = 101
Fixed: Mole fraction of 1-heptene = 0
Property: Activity coefficient of 1-heptene (Liquid); method: Chromatography
Temperature, K	Activity coefficient of 1-heptene	uncertainty
298.15	34.2	1.026
308.15	33	.99
318.15	32.1	.963
328.15	31.2	.936
338.15	30.3	.909
348.15	29.6	.888
358.15	29	.87
368.15	28.3	.849

System: 1-octene + 1-hexyl-3-methylimidazolium thiocyanate; phases: Liquid
Fixed: Pressure, kPa = 101
Fixed: Mole fraction of 1-octene = 0
Property: Activity coefficient of 1-octene (Liquid); method: Chromatography
Temperature, K	Activity coefficient of 1-octene	uncertainty
298.15	42.1	1.263
308.15	41	1.23
318.15	39.9	1.197
328.15	39	1.17
338.15	38.1	1.143
348.15	37.3	1.119
358.15	36.5	1.095
368.15	35.7	1.071

System: 1-pentyne + 1-hexyl-3-methylimidazolium thiocyanate; phases: Liquid
Fixed: Pressure, kPa = 101
Fixed: Mole fraction of 1-pentyne = 0
Property: Activity coefficient of 1-pentyne (Liquid); method: Chromatography
Temperature, K	Activity coefficient of 1-pentyne	uncertainty
298.15	4.04	.1212
308.15	4.14	.1242
318.15	4.24	.1272
328.15	4.34	.1302
338.15	4.43	.1329
348.15	4.52	.1356
358.15	4.6	.138
368.15	4.7	.141

System: 1-hexyne + 1-hexyl-3-methylimidazolium thiocyanate; phases: Liquid
Fixed: Pressure, kPa = 101
Fixed: Mole fraction of 1-hexyne = 0
Property: Activity coefficient of 1-hexyne (Liquid); method: Chromatography
Temperature, K	Activity coefficient of 1-hexyne	uncertainty
298.15	4.97	.1491
308.15	5.14	.1542
318.15	5.3	.159
328.15	5.47	.1641
338.15	5.61	.1683
348.15	5.76	.1728
358.15	5.91	.1773
368.15	6.04	.1812

System: 1-heptyne + 1-hexyl-3-methylimidazolium thiocyanate; phases: Liquid
Fixed: Pressure, kPa = 101
Fixed: Mole fraction of 1-heptyne = 0
Property: Activity coefficient of 1-heptyne (Liquid); method: Chromatography
Temperature, K	Activity coefficient of 1-heptyne	uncertainty
298.15	6.69	.2007
308.15	6.93	.2079
318.15	7.14	.2142
328.15	7.33	.2199
338.15	7.55	.2265
348.15	7.74	.2322
358.15	7.94	.2382
368.15	8.11	.2433

System: 1-octyne + 1-hexyl-3-methylimidazolium thiocyanate; phases: Liquid
Fixed: Pressure, kPa = 101
Fixed: Mole fraction of 1-octyne = 0
Property: Activity coefficient of 1-octyne (Liquid); method: Chromatography
Temperature, K	Activity coefficient of 1-octyne	uncertainty
298.15	9.15	.2745
308.15	9.38	.2814
318.15	9.65	.2895
328.15	9.89	.2967
338.15	10.1	.303
348.15	10.3	.309
358.15	10.6	.318
368.15	10.8	.324

System: benzene + 1-hexyl-3-methylimidazolium thiocyanate; phases: Liquid
Fixed: Pressure, kPa = 101
Fixed: Mole fraction of benzene = 0
Property: Activity coefficient of benzene (Liquid); method: Chromatography
Temperature, K	Activity coefficient of benzene	uncertainty
298.15	1.91	.0573
308.15	1.95	.0585
318.15	1.99	.0597
328.15	2.02	.0606
338.15	2.05	.0615
348.15	2.08	.0624
358.15	2.11	.0633
368.15	2.14	.0642

System: toluene + 1-hexyl-3-methylimidazolium thiocyanate; phases: Liquid
Fixed: Pressure, kPa = 101
Fixed: Mole fraction of toluene = 0
Property: Activity coefficient of toluene (Liquid); method: Chromatography
Temperature, K	Activity coefficient of toluene	uncertainty
298.15	2.79	.0837
308.15	2.85	.0855
318.15	2.91	.0873
328.15	2.97	.0891
338.15	3.03	.0909
348.15	3.08	.0924
358.15	3.14	.0942
368.15	3.18	.0954

System: ethylbenzene + 1-hexyl-3-methylimidazolium thiocyanate; phases: Liquid
Fixed: Pressure, kPa = 101
Fixed: Mole fraction of ethylbenzene = 0
Property: Activity coefficient of ethylbenzene (Liquid); method: Chromatography
Temperature, K	Activity coefficient of ethylbenzene	uncertainty
308.15	4.39	.1317
318.15	4.45	.1335
328.15	4.5	.135
338.15	4.56	.1368
348.15	4.61	.1383
358.15	4.66	.1398
368.15	4.7	.141

System: 1,2-dimethylbenzene + 1-hexyl-3-methylimidazolium thiocyanate; phases: Liquid
Fixed: Pressure, kPa = 101
Fixed: Mole fraction of 1,2-dimethylbenzene = 0
Property: Activity coefficient of 1,2-dimethylbenzene (Liquid); method: Chromatography
Temperature, K	Activity coefficient of 1,2-dimethylbenzene	uncertainty
308.15	3.6	.108
318.15	3.68	.1104
328.15	3.75	.1125
338.15	3.83	.1149
348.15	3.89	.1167
358.15	3.96	.1188
368.15	4.03	.1209

System: 1,3-dimethylbenzene + 1-hexyl-3-methylimidazolium thiocyanate; phases: Liquid
Fixed: Pressure, kPa = 101
Fixed: Mole fraction of 1,3-dimethylbenzene = 0
Property: Activity coefficient of 1,3-dimethylbenzene (Liquid); method: Chromatography
Temperature, K	Activity coefficient of 1,3-dimethylbenzene	uncertainty
308.15	4.44	.1332
318.15	4.51	.1353
328.15	4.58	.1374
338.15	4.65	.1395
348.15	4.72	.1416
358.15	4.77	.1431
368.15	4.83	.1449

System: 1,4-dimethylbenzene + 1-hexyl-3-methylimidazolium thiocyanate; phases: Liquid
Fixed: Pressure, kPa = 101
Fixed: Mole fraction of 1,4-dimethylbenzene = 0
Property: Activity coefficient of 1,4-dimethylbenzene (Liquid); method: Chromatography
Temperature, K	Activity coefficient of 1,4-dimethylbenzene	uncertainty
308.15	4.26	.1278
318.15	4.34	.1302
328.15	4.42	.1326
338.15	4.51	.1353
348.15	4.58	.1374
358.15	4.65	.1395
368.15	4.72	.1416

System: methanol + 1-hexyl-3-methylimidazolium thiocyanate; phases: Liquid
Fixed: Pressure, kPa = 101
Fixed: Mole fraction of methanol = 0
Property: Activity coefficient of methanol (Liquid); method: Chromatography
Temperature, K	Activity coefficient of methanol	uncertainty
298.15	.532	.01596
308.15	.522	.01566
318.15	.514	.01542
328.15	.505	.01515
338.15	.497	.01491
348.15	.49	.0147
358.15	.483	.01449
368.15	.477	.01431

System: ethanol + 1-hexyl-3-methylimidazolium thiocyanate; phases: Liquid
Fixed: Pressure, kPa = 101
Fixed: Mole fraction of ethanol = 0
Property: Activity coefficient of ethanol (Liquid); method: Chromatography
Temperature, K	Activity coefficient of ethanol	uncertainty
298.15	.844	.02532
308.15	.819	.02457
318.15	.799	.02397
328.15	.778	.02334
338.15	.76	.0228
348.15	.742	.02226
358.15	.726	.02178
368.15	.712	.02136

System: propan-1-ol + 1-hexyl-3-methylimidazolium thiocyanate; phases: Liquid
Fixed: Pressure, kPa = 101
Fixed: Mole fraction of propan-1-ol = 0
Property: Activity coefficient of propan-1-ol (Liquid); method: Chromatography
Temperature, K	Activity coefficient of propan-1-ol	uncertainty
328.15	.927	.02781
338.15	.906	.02718
348.15	.889	.02667
358.15	.872	.02616
368.15	.857	.02571

System: butan-1-ol + 1-hexyl-3-methylimidazolium thiocyanate; phases: Liquid
Fixed: Pressure, kPa = 101
Fixed: Mole fraction of butan-1-ol = 0
Property: Activity coefficient of butan-1-ol (Liquid); method: Chromatography
Temperature, K	Activity coefficient of butan-1-ol	uncertainty
328.15	1.16	.0348
338.15	1.13	.0339
348.15	1.11	.0333
358.15	1.09	.0327
368.15	1.07	.0321

System: water + 1-hexyl-3-methylimidazolium thiocyanate; phases: Liquid
Fixed: Pressure, kPa = 101
Fixed: Mole fraction of water = 0
Property: Activity coefficient of water (Liquid); method: Chromatography
Temperature, K	Activity coefficient of water	uncertainty
328.15	.564	.01692
338.15	.557	.01671
348.15	.549	.01647
358.15	.542	.01626
368.15	.536	.01608

System: thiophene + 1-hexyl-3-methylimidazolium thiocyanate; phases: Liquid
Fixed: Pressure, kPa = 101
Fixed: Mole fraction of thiophene = 0
Property: Activity coefficient of thiophene (Liquid); method: Chromatography
Temperature, K	Activity coefficient of thiophene	uncertainty
298.15	1.24	.0372
308.15	1.28	.0384
318.15	1.31	.0393
328.15	1.34	.0402
338.15	1.37	.0411
348.15	1.4	.042
358.15	1.43	.0429
368.15	1.45	.0435

System: tetramethylene oxide + 1-hexyl-3-methylimidazolium thiocyanate; phases: Liquid
Fixed: Pressure, kPa = 101
Fixed: Mole fraction of tetramethylene oxide = 0
Property: Activity coefficient of tetramethylene oxide (Liquid); method: Chromatography
Temperature, K	Activity coefficient of tetramethylene oxide	uncertainty
298.15	1.6	.048
308.15	1.63	.0489
318.15	1.65	.0495
328.15	1.68	.0504
338.15	1.7	.051
348.15	1.73	.0519
358.15	1.75	.0525
368.15	1.77	.0531

System: methyl tert-butyl ether + 1-hexyl-3-methylimidazolium thiocyanate; phases: Liquid
Fixed: Pressure, kPa = 101
Fixed: Mole fraction of methyl tert-butyl ether = 0
Property: Activity coefficient of methyl tert-butyl ether (Liquid); method: Chromatography
Temperature, K	Activity coefficient of methyl tert-butyl ether	uncertainty
298.15	8.78	.2634
308.15	8.78	.2634
318.15	8.75	.2625
328.15	8.73	.2619
338.15	8.72	.2616
348.15	8.72	.2616
358.15	8.72	.2616
368.15	8.71	.2613

System: ethane, 1,1'-oxybis- + 1-hexyl-3-methylimidazolium thiocyanate; phases: Liquid
Fixed: Pressure, kPa = 101
Fixed: Mole fraction of ethane, 1,1'-oxybis- = 0
Property: Activity coefficient of ethane, 1,1'-oxybis- (Liquid); method: Chromatography
Temperature, K	Activity coefficient of ethane, 1,1'-oxybis-	uncertainty
298.15	8.67	.2601
308.15	8.54	.2562
318.15	8.39	.2517
328.15	8.29	.2487
338.15	8.17	.2451
348.15	8.08	.2424
358.15	7.98	.2394
368.15	7.89	.2367

System: dipropyl ether + 1-hexyl-3-methylimidazolium thiocyanate; phases: Liquid
Fixed: Pressure, kPa = 101
Fixed: Mole fraction of dipropyl ether = 0
Property: Activity coefficient of dipropyl ether (Liquid); method: Chromatography
Temperature, K	Activity coefficient of dipropyl ether	uncertainty
298.15	18.9	.567
308.15	18.5	.555
318.15	18.2	.546
328.15	17.9	.537
338.15	17.6	.528
348.15	17.3	.519
358.15	17.1	.513
368.15	16.8	.504

System: dibutyl ether + 1-hexyl-3-methylimidazolium thiocyanate; phases: Liquid
Fixed: Pressure, kPa = 101
Fixed: Mole fraction of dibutyl ether = 0
Property: Activity coefficient of dibutyl ether (Liquid); method: Chromatography
Temperature, K	Activity coefficient of dibutyl ether	uncertainty
298.15	33.9	1.017
308.15	32.9	.987
318.15	32.1	.963
328.15	31.3	.939
338.15	30.6	.918
348.15	29.9	.897
358.15	29.3	.879
368.15	28.7	.861

System: propanone + 1-hexyl-3-methylimidazolium thiocyanate; phases: Liquid
Fixed: Pressure, kPa = 101
Fixed: Mole fraction of propanone = 0
Property: Activity coefficient of propanone (Liquid); method: Chromatography
Temperature, K	Activity coefficient of propanone	uncertainty
298.15	1.25	.0375
308.15	1.26	.0378
318.15	1.27	.0381
328.15	1.28	.0384
338.15	1.29	.0387
348.15	1.3	.039
358.15	1.31	.0393
368.15	1.31	.0393
