Measured thermophysical data. Solubility Temperature Dependence and Data Correlation of Carbon Dioxide in Pentaerythritol Tetra-2-methylbutyrate
Source: J. Chem. Eng. Data, 2009, 10.1021/je900201t
Compound 1: butanoic acid, 2-methyl-, 2,2-bis[(2-methyl-1-oxobutoxy)methyl]-1,3-propanediyl ester, C25H44O8, purity 98%
Compound 2: carbon dioxide, CO2, purity 99.95%

System: butanoic acid, 2-methyl-, 2,2-bis[(2-methyl-1-oxobutoxy)methyl]-1,3-propanediyl ester; phases: Liquid
Property: Mass density, kg/m3 (Liquid); method: Pycnometric method
Temperature, K	Pressure, kPa	Mass density, kg/m3	uncertainty
283.15	100	1023.2	

System: carbon dioxide + butanoic acid, 2-methyl-, 2,2-bis[(2-methyl-1-oxobutoxy)methyl]-1,3-propanediyl ester; phases: Liquid, Gas
Property: Mole fraction of carbon dioxide (Liquid); method: Gravimetric
Temperature, K	Pressure, kPa	Mole fraction of carbon dioxide	uncertainty
243.15	1053	.8133	
243.15	1139	.8448	
243.15	1219	.8785	
243.15	1270	.8995	
243.15	1323	.9263	
243.15	1360	.9491	
243.15	1386	.9682	
253.15	1096	.7054	
253.15	1223	.7474	
253.15	1366	.7909	
253.15	1502	.826	
253.15	1634	.8652	
253.15	1717	.8898	
253.15	1812	.9208	
253.15	1870	.9467	
253.15	1910	.9674	
263.15	962	.5628	
263.15	1320	.6704	
263.15	1499	.7154	
263.15	1702	.7611	
263.15	1888	.8016	
263.15	2105	.8462	
263.15	2242	.8753	
263.15	2402	.9126	
263.15	2506	.9429	
263.15	2565	.9662	
273.15	609	.3547	
273.15	966	.4857	
273.15	1103	.525	
273.15	1520	.6302	
273.15	1756	.6796	
273.15	1852	.6989	
273.15	2018	.7283	
273.15	2274	.7716	
273.15	2589	.8207	
273.15	2805	.8548	
273.15	3088	.8995	
273.15	3274	.9371	
273.15	3369	.9646	
283.15	185	.1137	
283.15	496	.2587	
283.15	897	.3996	
283.15	1394	.5308	
283.15	1605	.5755	
283.15	2040	.6539	
283.15	2700	.7489	
283.15	3350	.8259	
283.15	3940	.8934	
283.15	4360	.9658	
303.15	273	.1094	
303.15	670	.2387	
303.15	1021	.3308	
303.15	1533	.4378	
303.15	2024	.5204	
303.15	3057	.6511	
303.15	3793	.72	
303.15	5124	.8189	
303.15	6217	.8874	
303.15	6897	.9386	
323.15	307	.0927	
323.15	757	.2058	
323.15	1157	.2886	
323.15	1747	.3884	
323.15	2321	.4667	
323.15	3554	.5947	
323.15	4461	.6619	
323.15	6222	.7631	
323.15	7899	.8368	
323.15	9401	.8879	
343.15	338	.0812	
343.15	836	.1821	
343.15	1281	.2569	
343.15	1941	.3494	
343.15	2587	.4247	
343.15	4000	.5537	
343.15	5064	.6234	
343.15	7197	.7297	
343.15	9376	.8092	
