Measured thermophysical data. Solubility of Delphinidin in Water and Various Organic Solvents between (298.15 and 343.15) K
Source: J. Chem. Eng. Data, 2010, 10.1021/je900851k
Compound 1: delphinidin [CAS name: 1-benzopyrylium, 3,5,7-trihydroxy-2-(3,4,5-trihydroxyphenyl)- ], C15H11O7
Compound 2: water, H2O
Compound 3: ethanol, C2H6O
Compound 4: methanol, CH4O
Compound 5: propanone, C3H6O

System: water + delphinidin [CAS name: 1-benzopyrylium, 3,5,7-trihydroxy-2-(3,4,5-trihydroxyphenyl)- ]; phases: Liquid, Crystal
Fixed: Pressure, kPa = 101
Property: Mole fraction of delphinidin [CAS name: 1-benzopyrylium, 3,5,7-trihydroxy-2-(3,4,5-trihydroxyphenyl)- ] (Liquid); method: spectrophotometric method
Temperature, K	Mole fraction of delphinidin [CAS name: 1-benzopyrylium, 3,5,7-trihydroxy-2-(3,4,5-trihydroxyphenyl)- ]	uncertainty
298	.0000005353	.000000010706
303	.0000006387	.000000012774
308	.0000006977	.000000013954
313	.0000007866	.000000015732
318	.0000008685	.00000001737
323	.0000010205	.00000002041
328	.0000011135	.00000002227
333	.0000012355	.00000002471
338	.0000014754	.000000029508
343	.0000016371	.000000032742

System: methanol + delphinidin [CAS name: 1-benzopyrylium, 3,5,7-trihydroxy-2-(3,4,5-trihydroxyphenyl)- ]; phases: Liquid, Crystal
Fixed: Pressure, kPa = 101
Property: Mole fraction of delphinidin [CAS name: 1-benzopyrylium, 3,5,7-trihydroxy-2-(3,4,5-trihydroxyphenyl)- ] (Liquid); method: spectrophotometric method
Temperature, K	Mole fraction of delphinidin [CAS name: 1-benzopyrylium, 3,5,7-trihydroxy-2-(3,4,5-trihydroxyphenyl)- ]	uncertainty
298	.0000005861	.000000011722
303	.0000006624	.000000013248
308	.0000007712	.000000015424
313	.0000008769	.000000017538
318	.0000009708	.000000019416
323	.0000010543	.000000021086
328	.0000012589	.000000025178
333	.0000014033	.000000028066
338	.0000015262	.000000030524
343	.0000016864	.000000033728

System: ethanol + delphinidin [CAS name: 1-benzopyrylium, 3,5,7-trihydroxy-2-(3,4,5-trihydroxyphenyl)- ]; phases: Liquid, Crystal
Fixed: Pressure, kPa = 101
Property: Mole fraction of delphinidin [CAS name: 1-benzopyrylium, 3,5,7-trihydroxy-2-(3,4,5-trihydroxyphenyl)- ] (Liquid); method: spectrophotometric method
Temperature, K	Mole fraction of delphinidin [CAS name: 1-benzopyrylium, 3,5,7-trihydroxy-2-(3,4,5-trihydroxyphenyl)- ]	uncertainty
298	.0000000573	.000000001146
303	.0000000613	.000000001226
308	.0000000704	.000000001408
313	.000000077	.00000000154
318	.0000000859	.000000001718
323	.000000098	.00000000196
328	.0000001058	.000000002116
333	.0000001231	.000000002462
338	.0000001369	.000000002738
343	.0000001559	.000000003118

System: propanone + delphinidin [CAS name: 1-benzopyrylium, 3,5,7-trihydroxy-2-(3,4,5-trihydroxyphenyl)- ]; phases: Liquid, Crystal
Fixed: Pressure, kPa = 101
Property: Mole fraction of delphinidin [CAS name: 1-benzopyrylium, 3,5,7-trihydroxy-2-(3,4,5-trihydroxyphenyl)- ] (Liquid); method: spectrophotometric method
Temperature, K	Mole fraction of delphinidin [CAS name: 1-benzopyrylium, 3,5,7-trihydroxy-2-(3,4,5-trihydroxyphenyl)- ]	uncertainty
298	.000000000055	.0000000000011
303	.000000000066	.00000000000132
308	.000000000071	.00000000000142
313	.000000000077	.00000000000154
318	.000000000087	.00000000000174
323	.000000000098	.00000000000196
328	.000000000106	.00000000000212
333	.000000000124	.00000000000248
338	.000000000135	.0000000000027
343	.000000000157	.00000000000314
