Measured thermophysical data. Micelle Formation of Long-Chain Imidazolium Ionic Liquids in Aqueous Solution Measured by Isothermal Titration Microcalorimetry
Source: J. Chem. Eng. Data, 2010, 10.1021/je900290w
Compound 1: 1-methyl-3-tetradecylimidazolium bromide, C18H35BrN2
Compound 2: 1-hexadecyl-3-methylimidazolium bromide, C20H39BrN2
Compound 3: 1-dodecyl-3-methylimidazolium bromide, C16H31BrN2
Compound 4: water, H2O

System: water + 1-methyl-3-tetradecylimidazolium bromide; phases: Liquid, Air at 1 atmosphere
Property: Surface tension liquid-gas, N/m (Liquid); method: Ring tensiometer
Amount concentration (molarity), mol/dm3 of 1-methyl-3-tetradecylimidazolium bromide	Temperature, K	Surface tension liquid-gas, N/m	uncertainty
.0001	278.15	.06479	.0002
.0005	278.15	.06121	.0002
.0015	278.15	.05682	.0002
.005	278.15	.04533	.0002
.01	278.15	.03764	.0002
.02	278.15	.03772	.0002
.03	278.15	.03773	.0002
.04	278.15	.03753	.0002
.05	278.15	.03759	.0002
.0001	288.15	.06293	.0002
.0005	288.15	.06086	.0002
.0015	288.15	.05668	.0002
.005	288.15	.04427	.0002
.01	288.15	.03752	.0002
.02	288.15	.03763	.0002
.03	288.15	.03741	.0002
.04	288.15	.03777	.0002
.05	288.15	.03761	.0002
.0001	298.15	.06221	.0002
.0005	298.15	.05984	.0002
.0015	298.15	.05519	.0002
.005	298.15	.04381	.0002
.01	298.15	.03745	.0002
.02	298.15	.03741	.0002
.03	298.15	.03715	.0002
.04	298.15	.03723	.0002
.05	298.15	.03726	.0002
.0001	308.15	.06048	.0002
.0005	308.15	.05862	.0002
.0015	308.15	.05518	.0002
.005	308.15	.04447	.0002
.01	308.15	.03718	.0002
.02	308.15	.03755	.0002
.03	308.15	.03738	.0002
.04	308.15	.03742	.0002
.05	308.15	.03723	.0002
.0001	318.15	.05884	.0002
.0005	318.15	.05656	.0002
.0015	318.15	.05388	.0002
.005	318.15	.04389	.0002
.01	318.15	.03692	.0002
.02	318.15	.03712	.0002
.03	318.15	.03747	.0002
.04	318.15	.0373	.0002
.05	318.15	.03706	.0002
.0001	328.15	.05761	.0002
.0005	328.15	.05507	.0002
.0015	328.15	.05063	.0002
.005	328.15	.04236	.0002
.01	328.15	.03764	.0002
.02	328.15	.03703	.0002
.03	328.15	.03716	.0002
.04	328.15	.03706	.0002
.05	328.15	.03709	.0002

System: water + 1-hexadecyl-3-methylimidazolium bromide; phases: Liquid, Air at 1 atmosphere
Property: Surface tension liquid-gas, N/m (Liquid); method: Ring tensiometer
Amount concentration (molarity), mol/dm3 of 1-hexadecyl-3-methylimidazolium bromide	Temperature, K	Surface tension liquid-gas, N/m	uncertainty
.00005	278.15	.06469	.0002
.0001	278.15	.06407	.0002
.0003	278.15	.06172	.0002
.0005	278.15	.05517	.0002
.001	278.15	.05032	.0002
.002	278.15	.04128	.0002
.004	278.15	.03844	.0002
.006	278.15	.03868	.0002
.008	278.15	.03888	.0002
.01	278.15	.03888	.0002
.00005	288.15	.06269	.0002
.0001	288.15	.06207	.0002
.0003	288.15	.05972	.0002
.0005	288.15	.05317	.0002
.001	288.15	.04832	.0002
.002	288.15	.04028	.0002
.004	288.15	.03794	.0002
.006	288.15	.03818	.0002
.008	288.15	.03838	.0002
.01	288.15	.03838	.0002
.00005	298.15	.06126	.0002
.0001	298.15	.06088	.0002
.0003	298.15	.0571	.0002
.0005	298.15	.05279	.0002
.001	298.15	.04737	.0002
.002	298.15	.03948	.0002
.004	298.15	.03781	.0002
.006	298.15	.03773	.0002
.008	298.15	.03757	.0002
.01	298.15	.03757	.0002
.00005	308.15	.0595	.0002
.0001	308.15	.05859	.0002
.0003	308.15	.05493	.0002
.0005	308.15	.05151	.0002
.001	308.15	.04526	.0002
.002	308.15	.03915	.0002
.004	308.15	.03781	.0002
.006	308.15	.03751	.0002
.008	308.15	.03767	.0002
.01	308.15	.0376	.0002
.00005	318.15	.05716	.0002
.0001	318.15	.05592	.0002
.0003	318.15	.0529	.0002
.0005	318.15	.04956	.0002
.001	318.15	.04388	.0002
.002	318.15	.03915	.0002
.004	318.15	.03712	.0002
.006	318.15	.03713	.0002
.008	318.15	.03712	.0002
.01	318.15	.03713	.0002
.00005	328.15	.05416	.0002
.0001	328.15	.0527	.0002
.0003	328.15	.05017	.0002
.0005	328.15	.04639	.0002
.001	328.15	.04275	.0002
.002	328.15	.03828	.0002
.004	328.15	.0362	.0002
.006	328.15	.03632	.0002
.008	328.15	.03658	.0002
.01	328.15	.03645	.0002

System: water + 1-dodecyl-3-methylimidazolium bromide; phases: Liquid, Air at 1 atmosphere
Property: Surface tension liquid-gas, N/m (Liquid); method: Ring tensiometer
Amount concentration (molarity), mol/dm3 of 1-dodecyl-3-methylimidazolium bromide	Temperature, K	Surface tension liquid-gas, N/m	uncertainty
.000005	278.15	.06916	.0002
.00002	278.15	.06391	.0002
.0001	278.15	.05617	.0002
.0002	278.15	.0509	.0002
.0003	278.15	.04666	.0002
.0004	278.15	.04278	.0002
.0005	278.15	.03925	.0002
.0008	278.15	.03825	.0002
.0011	278.15	.03838	.0002
.002	278.15	.03811	.0002
.004	278.15	.03761	.0002
.000005	288.15	.06626	.0002
.00002	288.15	.06184	.0002
.0001	288.15	.05262	.0002
.0002	288.15	.04863	.0002
.0003	288.15	.04395	.0002
.0004	288.15	.04132	.0002
.0005	288.15	.03745	.0002
.0008	288.15	.03754	.0002
.0011	288.15	.0374	.0002
.002	288.15	.03787	.0002
.004	288.15	.03733	.0002
.000005	298.15	.06393	.0002
.00002	298.15	.06	.0002
.0001	298.15	.05114	.0002
.0002	298.15	.04677	.0002
.0003	298.15	.04338	.0002
.0004	298.15	.03938	.0002
.0005	298.15	.03726	.0002
.0008	298.15	.03737	.0002
.0011	298.15	.03709	.0002
.002	298.15	.03719	.0002
.004	298.15	.03721	.0002
.000005	308.15	.06153	.0002
.00002	308.15	.05848	.0002
.0001	308.15	.04946	.0002
.0002	308.15	.04539	.0002
.0003	308.15	.04117	.0002
.0004	308.15	.03802	.0002
.0005	308.15	.03621	.0002
.0008	308.15	.03614	.0002
.0011	308.15	.03628	.0002
.002	308.15	.03697	.0002
.004	308.15	.03637	.0002
.000005	318.15	.0585	.0002
.00002	318.15	.05453	.0002
.0001	318.15	.04736	.0002
.0002	318.15	.0427	.0002
.0003	318.15	.03984	.0002
.0004	318.15	.03793	.0002
.0005	318.15	.03675	.0002
.0008	318.15	.03611	.0002
.0011	318.15	.03618	.0002
.002	318.15	.03612	.0002
.004	318.15	.03604	.0002
.000005	328.15	.05505	.0002
.00002	328.15	.05185	.0002
.0001	328.15	.04542	.0002
.0002	328.15	.04213	.0002
.0003	328.15	.03944	.0002
.0004	328.15	.038	.0002
.0005	328.15	.03707	.0002
.0008	328.15	.0362	.0002
.0011	328.15	.03625	.0002
.002	328.15	.03615	.0002
.004	328.15	.03598	.0002
