Measured thermophysical data. Experimental determination of the high temperature heat capacity of a natural xenotime-(Y) solid solution and synthetic DyPO4 and ErPO4 endmembers
Source: Thermochim. Acta, 2016, 10.1016/j.tca.2016.01.016
Compound 1: dysprosium(III) phosphate, DyO4P
Compound 2: erbium phosphate, ErO4P

System: dysprosium(III) phosphate; phases: Crystal
Fixed: Pressure, kPa = 101.325
Property: Molar heat capacity at constant pressure, J/K/mol (Crystal); method: Small sample (50 mg) scanning calorimetry
Temperature, K	Molar heat capacity at constant pressure, J/K/mol	uncertainty
348.15	117.5	
353.15	119.1	
358.15	120.4	
363.15	121.5	
368.15	122.5	
373.15	123.3	
378.15	124.1	
383.15	124.9	
388.15	125.7	
393.15	126.4	
398.15	127.3	
403.15	128.1	
408.15	128.9	
413.15	129.6	
418.15	130.4	
423.15	131	
428.15	131.7	
433.15	132.3	
438.15	132.8	
443.15	133.4	
448.15	133.9	
453.15	134.5	
458.15	135	
463.15	135.5	
468.15	136.1	
473.15	136.6	
478.15	137	
483.15	137.4	
488.15	137.9	
493.15	138.3	
498.15	138.7	
503.15	139.1	
508.15	139.5	
513.15	139.9	
518.15	140.3	
523.15	140.7	
528.15	141	
533.15	141.3	
538.15	141.6	
543.15	142	
548.15	142.4	
553.15	142.7	
558.15	143	
563.15	143.4	
568.15	143.7	
573.15	143.9	
578.15	144.3	
583.15	144.6	
588.15	144.8	
593.15	145.1	
598.15	145.3	
603.15	145.6	
608.15	145.9	
613.15	146.1	
618.15	146.4	
623.15	146.7	
628.15	147	
633.15	147.3	
638.15	147.5	
643.15	147.8	
648.15	148	
653.15	148.2	
658.15	148.5	
663.15	148.8	
668.15	149.1	
673.15	149.3	
678.15	149.6	
683.15	149.9	
688.15	150.1	
693.15	150.4	
698.15	150.7	
703.15	150.9	
708.15	151.1	
713.15	151.4	
718.15	151.6	
723.15	151.8	
728.15	152	
733.15	152.1	
738.15	152.3	
743.15	152.5	
748.15	152.7	
753.15	152.9	
758.15	152.9	
763.15	153.1	
768.15	153.3	
773.15	153.4	
778.15	153.4	
783.15	153.6	
788.15	153.5	
793.15	153.7	
798.15	153.8	
803.15	154	
808.15	154.1	
813.15	154.2	
818.15	154.3	
823.15	154.4	
828.15	154.5	
833.15	154.5	
838.15	154.6	
843.15	154.8	
848.15	154.9	
853.15	154.9	
858.15	155	
863.15	155.1	
868.15	155.2	

System: dysprosium(III) phosphate; phases: Crystal
Fixed: Pressure, kPa = 101.325
Property: Molar heat capacity at constant pressure, J/K/mol (Crystal); method: Small sample (50 mg) scanning calorimetry
Temperature, K	Molar heat capacity at constant pressure, J/K/mol	uncertainty
348.15	118.3	
353.15	119.4	
358.15	120.4	
363.15	121.3	
368.15	122.3	
373.15	123.2	
378.15	124.1	
383.15	124.9	
388.15	125.7	
393.15	126.5	
398.15	127.3	
403.15	128	
408.15	128.7	
413.15	129.4	
418.15	130.1	
423.15	130.8	
428.15	131.4	
433.15	132	
438.15	132.6	
443.15	133.2	
448.15	133.8	
453.15	134.3	
458.15	134.9	
463.15	135.4	
468.15	135.9	
473.15	136.4	
478.15	136.9	
483.15	137.4	
488.15	137.8	
493.15	138.3	
498.15	138.7	
503.15	139.1	
508.15	139.5	
513.15	140	
518.15	140.3	
523.15	140.7	
528.15	141.1	
533.15	141.5	
538.15	141.9	
543.15	142.2	
548.15	142.6	
553.15	142.9	
558.15	143.2	
563.15	143.6	
568.15	143.9	
573.15	144.2	
578.15	144.5	
583.15	144.8	
588.15	145.1	
593.15	145.4	
598.15	145.7	
603.15	145.9	
608.15	146.2	
613.15	146.5	
618.15	146.8	
623.15	147	
628.15	147.3	
633.15	147.5	
638.15	147.8	
643.15	148	
648.15	148.2	
653.15	148.5	
658.15	148.7	
663.15	148.9	
668.15	149.1	
673.15	149.3	
678.15	149.6	
683.15	149.8	
688.15	150	
693.15	150.2	
698.15	150.4	
703.15	150.6	
708.15	150.8	
713.15	151	
718.15	151.1	
723.15	151.3	
728.15	151.5	
733.15	151.7	
738.15	151.9	
743.15	152	
748.15	152.2	
753.15	152.4	
758.15	152.5	
763.15	152.7	
768.15	152.9	
773.15	153	
778.15	153.2	
783.15	153.3	
788.15	153.5	
793.15	153.6	
798.15	153.8	
803.15	153.9	
808.15	154.1	
813.15	154.2	
818.15	154.4	
823.15	154.5	
828.15	154.6	
833.15	154.8	
838.15	154.9	
843.15	155	
848.15	155.2	
853.15	155.3	
858.15	155.4	
863.15	155.6	
868.15	155.7	

System: erbium phosphate; phases: Crystal
Fixed: Pressure, kPa = 101.325
Property: Molar heat capacity at constant pressure, J/K/mol (Crystal); method: Small sample (50 mg) scanning calorimetry
Temperature, K	Molar heat capacity at constant pressure, J/K/mol	uncertainty
348.15	113.7	
353.15	114.5	
358.15	115.2	
363.15	115.9	
368.15	116.4	
373.15	116.8	
378.15	117.4	
383.15	118.1	
388.15	119.1	
393.15	119.9	
398.15	120.7	
403.15	121.5	
408.15	122.2	
413.15	122.9	
418.15	123.5	
423.15	124	
428.15	124.5	
433.15	125	
438.15	125.4	
443.15	125.9	
448.15	126.4	
453.15	126.9	
458.15	127.4	
463.15	127.8	
468.15	128.2	
473.15	128.7	
478.15	129.1	
483.15	129.5	
488.15	129.9	
493.15	130.3	
498.15	130.7	
503.15	131.1	
508.15	131.5	
513.15	132	
518.15	132.4	
523.15	132.8	
528.15	133.2	
533.15	133.6	
538.15	134	
543.15	134.5	
548.15	134.8	
553.15	135.1	
558.15	135.4	
563.15	135.8	
568.15	136.1	
573.15	136.3	
578.15	136.6	
583.15	136.9	
588.15	137.2	
593.15	137.5	
598.15	137.8	
603.15	138	
608.15	138.3	
613.15	138.6	
618.15	138.8	
623.15	139	
628.15	139.3	
633.15	139.6	
638.15	139.8	
643.15	140.1	
648.15	140.3	
653.15	140.6	
658.15	140.9	
663.15	141.2	
668.15	141.4	
673.15	141.6	
678.15	141.8	
683.15	142.1	
688.15	142.3	
693.15	142.6	
698.15	142.9	
703.15	143.1	
708.15	143.5	
713.15	143.7	
718.15	143.9	
723.15	144.2	
728.15	144.4	
733.15	144.6	
738.15	144.8	
743.15	145	
748.15	145.2	
753.15	145.5	
758.15	145.8	
763.15	146.1	
768.15	146.3	
773.15	146.5	
778.15	146.8	
783.15	147	
788.15	147.2	
793.15	147.5	
798.15	147.8	
803.15	148	
808.15	148.2	
813.15	148.5	
818.15	148.7	
823.15	148.9	
828.15	149.1	
833.15	149.3	
838.15	149.5	
843.15	149.7	
848.15	149.9	
853.15	150.2	
858.15	150.3	
863.15	150.5	
868.15	150.8	

System: erbium phosphate; phases: Crystal
Fixed: Pressure, kPa = 101.325
Property: Molar heat capacity at constant pressure, J/K/mol (Crystal); method: Small sample (50 mg) scanning calorimetry
Temperature, K	Molar heat capacity at constant pressure, J/K/mol	uncertainty
348.15	113.8	
353.15	114.6	
358.15	115.3	
363.15	116.1	
368.15	116.8	
373.15	117.4	
378.15	118.1	
383.15	118.8	
388.15	119.4	
393.15	120	
398.15	120.6	
403.15	121.2	
408.15	121.8	
413.15	122.4	
418.15	123	
423.15	123.5	
428.15	124.1	
433.15	124.6	
438.15	125.1	
443.15	125.6	
448.15	126.1	
453.15	126.6	
458.15	127.1	
463.15	127.6	
468.15	128	
473.15	128.5	
478.15	129	
483.15	129.4	
488.15	129.8	
493.15	130.3	
498.15	130.7	
503.15	131.1	
508.15	131.5	
513.15	131.9	
518.15	132.3	
523.15	132.7	
528.15	133.1	
533.15	133.4	
538.15	133.8	
543.15	134.2	
548.15	134.5	
553.15	134.9	
558.15	135.2	
563.15	135.6	
568.15	135.9	
573.15	136.2	
578.15	136.6	
583.15	136.9	
588.15	137.2	
593.15	137.5	
598.15	137.8	
603.15	138.1	
608.15	138.4	
613.15	138.7	
618.15	139	
623.15	139.3	
628.15	139.6	
633.15	139.9	
638.15	140.2	
643.15	140.4	
648.15	140.7	
653.15	141	
658.15	141.3	
663.15	141.5	
668.15	141.8	
673.15	142	
678.15	142.3	
683.15	142.5	
688.15	142.8	
693.15	143	
698.15	143.3	
703.15	143.5	
708.15	143.8	
713.15	144	
718.15	144.2	
723.15	144.4	
728.15	144.7	
733.15	144.9	
738.15	145.1	
743.15	145.3	
748.15	145.6	
753.15	145.8	
758.15	146	
763.15	146.2	
768.15	146.4	
773.15	146.6	
778.15	146.8	
783.15	147	
788.15	147.2	
793.15	147.4	
798.15	147.6	
803.15	147.8	
808.15	148	
813.15	148.2	
818.15	148.4	
823.15	148.5	
828.15	148.7	
833.15	148.9	
838.15	149.1	
843.15	149.3	
848.15	149.5	
853.15	149.6	
858.15	149.8	
863.15	150	
868.15	150.1	
