Measured thermophysical data. Self-aggregation of ionic liquid 1-butyl-2,3-dimethylimidazolium tetrafluoroborate [C4mmim][BF4] in aqueous media: A conductometric, volumetric and spectroscopic study
Source: Thermochim. Acta, 2014, 10.1016/j.tca.2014.10.001
Compound 1: 1-butyl-2,3-dimethylimidazolium tetrafluoroborate, C9H17BF4N2, purity 99.8%
Compound 2: water, H2O

System: water + 1-butyl-2,3-dimethylimidazolium tetrafluoroborate; phases: Liquid
Fixed: Pressure, kPa = 100
Property: Mass density, kg/m3 (Liquid); method: Vibrating tube method
Temperature, K	Molality, mol/kg of 1-butyl-2,3-dimethylimidazolium tetrafluoroborate	Mass density, kg/m3	uncertainty
288.15	.0308	1000.293	.05
288.15	.04107	1000.685	.05
288.15	.05137	1001.076	.05
288.15	.06162	1001.464	.05
288.15	.08198	1002.229	.05
288.15	.10238	1002.988	.05
288.15	.12315	1003.737	.05
288.15	.14361	1004.467	.05
288.15	.16397	1005.189	.05
288.15	.18463	1005.912	.05
288.15	.20499	1006.617	.05
298.15	.0308	998.165	.05
298.15	.04107	998.537	.05
298.15	.05137	998.909	.05
298.15	.06162	999.277	.05
298.15	.08198	1000.003	.05
298.15	.10238	1000.719	.05
298.15	.12315	1001.426	.05
298.15	.14361	1002.114	.05
298.15	.16397	1002.792	.05
298.15	.18463	1003.473	.05
298.15	.20499	1004.134	.05
308.15	.0308	995.089	.05
308.15	.04107	995.443	.05
308.15	.05137	995.796	.05
308.15	.06162	996.146	.05
308.15	.08198	996.836	.05
308.15	.10238	997.517	.05
308.15	.12315	998.186	.05
308.15	.14361	998.836	.05
308.15	.16397	999.479	.05
308.15	.18463	1000.126	.05
308.15	.20499	1000.751	.05

System: water + 1-butyl-2,3-dimethylimidazolium tetrafluoroborate; phases: Liquid
Fixed: Pressure, kPa = 100
Fixed: Frequency, MHz = 3
Property: Speed of sound, m/s (Liquid); method: Sing-around technique in a fixed-path interferometer
Temperature, K	Molality, mol/kg of 1-butyl-2,3-dimethylimidazolium tetrafluoroborate	Speed of sound, m/s	uncertainty
288.15	.0308	1471.85	.5
288.15	.04107	1474.24	.5
288.15	.05137	1476.49	.5
288.15	.06162	1478.62	.5
288.15	.08198	1482.45	.5
288.15	.10238	1485.19	.5
288.15	.12315	1486.38	.5
288.15	.14361	1487.09	.5
288.15	.16397	1487.68	.5
288.15	.18463	1488.2	.5
288.15	.20499	1488.66	.5
298.15	.0308	1500.65	.5
298.15	.04107	1502.3	.5
298.15	.05137	1504.01	.5
298.15	.06162	1505.69	.5
298.15	.08198	1508.98	.5
298.15	.10238	1511.62	.5
298.15	.12315	1512.35	.5
298.15	.14361	1512.96	.5
298.15	.16397	1513.45	.5
298.15	.18463	1514.02	.5
298.15	.20499	1514.57	.5
308.15	.0308	1522.98	.5
308.15	.04107	1524.21	.5
308.15	.05137	1525.53	.5
308.15	.06162	1526.81	.5
308.15	.08198	1529.04	.5
308.15	.10238	1531.14	.5
308.15	.12315	1531.68	.5
308.15	.14361	1532.11	.5
308.15	.16397	1532.55	.5
308.15	.18463	1533.03	.5
308.15	.20499	1533.63	.5

System: water + 1-butyl-2,3-dimethylimidazolium tetrafluoroborate; phases: Liquid
Fixed: Pressure, kPa = 100
Property: Electrical conductivity, S/m (Liquid); method: Alternating current cell with electrodes
Temperature, K	Molality, mol/kg of 1-butyl-2,3-dimethylimidazolium tetrafluoroborate	Electrical conductivity, S/m	uncertainty
288.15	.2025	1.227	.04908
288.15	.1841	1.139	.04556
288.15	.1688	1.064	.04256
288.15	.1559	.9966	.039864
288.15	.1448	.9407	.037628
288.15	.1352	.8909	.035636
288.15	.1267	.8461	.033844
288.15	.1193	.8058	.032232
288.15	.1127	.7725	.0309
288.15	.1068	.7445	.02978
288.15	.1014	.7129	.028516
288.15	.0966	.6884	.027536
288.15	.0922	.6607	.026428
288.15	.0882	.6344	.025376
288.15	.0846	.6075	.0243
288.15	.0812	.5862	.023448
288.15	.0781	.564	.02256
288.15	.0752	.5422	.021688
288.15	.0725	.5262	.021048
288.15	.07	.5079	.020316
288.15	.0677	.4914	.019656
288.15	.0624	.457	.01828
288.15	.058	.4266	.017064
288.15	.0541	.3991	.015964
288.15	.0507	.3746	.014984
288.15	.0477	.355	.0142
288.15	.0451	.3362	.013448
288.15	.0427	.3193	.012772
288.15	.0406	.3031	.012124
288.15	.0386	.2881	.011524
288.15	.0369	.2759	.011036
288.15	.0353	.2651	.010604
288.15	.0338	.2555	.01022
288.15	.0324	.2449	.009796
288.15	.0312	.2361	.009444
288.15	.03	.2292	.009168
298.15	.2145	1.351	.05404
298.15	.1966	1.27	.0508
298.15	.1815	1.191	.04764
298.15	.1685	1.119	.04476
298.15	.1573	1.06	.0424
298.15	.1474	1.007	.04028
298.15	.1388	.9621	.038484
298.15	.1311	.9203	.036812
298.15	.1242	.8807	.035228
298.15	.1179	.847	.03388
298.15	.1123	.8155	.03262
298.15	.1072	.7873	.031492
298.15	.1026	.761	.03044
298.15	.0983	.7352	.029408
298.15	.0943	.7078	.028312
298.15	.0907	.6819	.027276
298.15	.0874	.6582	.026328
298.15	.0842	.6364	.025456
298.15	.0813	.6151	.024604
298.15	.0786	.5952	.023808
298.15	.0761	.5746	.022984
298.15	.0737	.5574	.022296
298.15	.0715	.5403	.021612
298.15	.0694	.5277	.021108
298.15	.0674	.5129	.020516
298.15	.0655	.4978	.019912
298.15	.0637	.4849	.019396
298.15	.0621	.472	.01888
298.15	.0605	.4619	.018476
298.15	.059	.4502	.018008
298.15	.0575	.4409	.017636
298.15	.0562	.4324	.017296
298.15	.0536	.4134	.016536
298.15	.0513	.3946	.015784
298.15	.0491	.3788	.015152
298.15	.0472	.3659	.014636
298.15	.0454	.3506	.014024
298.15	.0429	.3341	.013364
298.15	.0407	.3185	.01274
298.15	.0387	.3054	.012216
298.15	.0368	.2914	.011656
298.15	.0352	.2803	.011212
298.15	.0337	.2698	.010792
298.15	.0323	.2592	.010368
298.15	.031	.2488	.009952
298.15	.0306	.2467	.009868
308.15	.208	1.397	.05588
308.15	.1892	1.291	.05164
308.15	.1735	1.201	.04804
308.15	.1602	1.128	.04512
308.15	.1487	1.066	.04264
308.15	.1388	1.011	.04044
308.15	.1302	.9654	.038616
308.15	.1225	.9194	.036776
308.15	.1158	.8831	.035324
308.15	.1097	.8509	.034036
308.15	.1042	.8189	.032756
308.15	.0992	.7881	.031524
308.15	.0947	.7565	.03026
308.15	.0906	.727	.02908
308.15	.0869	.6982	.027928
308.15	.0834	.6728	.026912
308.15	.0802	.649	.02596
308.15	.0772	.624	.02496
308.15	.0745	.6026	.024104
308.15	.0719	.585	.0234
308.15	.0695	.5678	.022712
308.15	.0642	.5308	.021232
308.15	.0596	.4931	.019724
308.15	.0556	.4615	.01846
308.15	.0521	.4369	.017476
308.15	.049	.4151	.016604
308.15	.0463	.3962	.015848
308.15	.0439	.3782	.015128
308.15	.0417	.3589	.014356
308.15	.0397	.3437	.013748
308.15	.0379	.3314	.013256
308.15	.0362	.3203	.012812
308.15	.0347	.3047	.012188
308.15	.0333	.299	.01196
308.15	.032	.2875	.0115
308.15	.0309	.2777	.011108
