Measured thermophysical data. Thermodynamic properties of stoichiometric lithium cobaltite LiCoO2
Source: Thermochim. Acta, 2016, 10.1016/j.tca.2016.04.018
Compound 1: cobalt lithium oxide (LiCoO2), CoLiO2, purity 99%

System: cobalt lithium oxide (LiCoO2); phases: Crystal
Fixed: Pressure, kPa = 101.325
Property: Molar heat capacity at constant pressure, J/K/mol (Crystal); method: Relaxation calorimetry
Temperature, K	Molar heat capacity at constant pressure, J/K/mol	uncertainty
2.02	.00288	
3.03	.00848	
4.03	.0183	
5.02	.0306	
6.01	.0456	
7	.0627	
8.01	.0844	
9.01	.112	
10.07	.146	
11.03	.179	
12.03	.217	
13.04	.259	
14.06	.304	
15.09	.353	
16.13	.406	
17.16	.461	
18.18	.518	
19.2	.578	
20.22	.64	
22.27	.774	
24.32	.92	
26.35	1.08	
28.43	1.24	
30.47	1.43	
32.45	1.61	
34.49	1.81	
36.49	2.02	
38.52	2.25	
40.55	2.48	
42.57	2.73	
44.59	3	
46.62	3.27	
48.64	3.58	
50.65	3.89	
52.67	4.21	
54.68	4.55	
56.69	4.91	
58.72	5.28	
60.73	5.67	
65.51	6.74	
70.48	7.85	
75.51	9.07	
80.54	10.41	
85.59	11.88	
90.65	13.36	
95.68	14.84	
100.7	16.5	
105.8	18.05	
110.82	19.68	
115.91	21.31	
120.92	22.88	
126.02	24.58	
131.04	26.21	
136.03	27.88	
141.12	29.58	
146.16	31.21	
151.2	33.2	
156.24	34.65	
161.2	36.19	
166.28	38.08	
171.25	39.61	
176.35	40.85	
181.32	42.5	
186.43	43.99	
191.39	45.25	
196.45	46.64	
201.43	48.45	
206.39	49.83	
211.32	51.21	
216.28	52.44	
221.28	54.59	
226.14	55.8	
231.57	57.11	
236.66	58.47	
241.59	59.26	
246.71	60.63	
251.73	61.64	
256.65	62.44	

System: cobalt lithium oxide (LiCoO2); phases: Crystal
Fixed: Pressure, kPa = 101.325
Property: Molar heat capacity at constant pressure, J/K/mol (Crystal); method: Small sample (50 mg) scanning calorimetry
Temperature, K	Molar heat capacity at constant pressure, J/K/mol	uncertainty
261.5	64.45	
265	65.12	
270	66.02	
275	66.96	
280	67.9	
285	68.74	
290	69.57	
295	70.47	
300	71.27	
305	72.02	
310	72.75	
315	73.46	
320	74.14	
325	74.84	
330	75.54	
335	76.4	
340	76.99	
345	77.52	
350	78.12	
355	78.75	
358.1	79.11	

System: cobalt lithium oxide (LiCoO2); phases: Crystal
Fixed: Pressure, kPa = 101.325
Property: Molar enthalpy, kJ/mol (Crystal); method: Other
Temperature, K	Molar enthalpy, kJ/mol	uncertainty
573.75	21.84	
573.75	23.44	
623.55	27.28	
623.55	27.18	
673.25	32.62	
673.25	32.24	
723.15	36.98	
723.15	37	
772.95	41.64	
772.95	41.41	
822.95	46.93	
822.95	47.04	
872.85	50.41	
872.95	50.57	
923.13	56.69	
923.13	57.99	
972.75	65.08	
972.75	62.99	

System: cobalt lithium oxide (LiCoO2); phases: Crystal
Fixed: Pressure, kPa = 101.325
Property: Molar enthalpy, kJ/mol (Crystal); method: Other
Temperature, K	Molar enthalpy, kJ/mol	uncertainty
1023.05	70.12	
1023.05	69.14	
1073.05	72.8	
1073.05	72.81	
1122.85	80.33	
1122.85	81.43	

System: cobalt lithium oxide (LiCoO2); phases: Crystal
Fixed: Pressure, kPa = 101.325
Property: Molar enthalpy, kJ/mol (Crystal); method: Other
Temperature, K	Molar enthalpy, kJ/mol	uncertainty
1172.55	89.02	
1172.55	87.9	
1222.25	99.82	
1222.15	98.8	
1271.95	109.62	
1271.95	111.16	
