Measured thermophysical data. Phase equilibria in aqueous two-phase systems containing  [Bmim]BF4 and ammonium sulfate/sodium carbonate at different  temperatures: Experimental and correlation
Source: Thermochim. Acta, 2010, 10.1016/j.tca.2010.01.020
Compound 1: 1-butyl-3-methylimidazolium tetrafluoroborate, C8H15BF4N2
Compound 2: ammonium sulfate, H8N2O4S, purity 99%
Compound 3: water, H2O, purity 99%
Compound 4: sodium carbonate, CNa2O3, purity 99%
Compound 5: sodium dihydrogen phosphate anhydrous, H2NaO4P, purity 99%
Compound 6: disodium sulfite, Na2O3S, purity 99%

System: water + ammonium sulfate + 1-butyl-3-methylimidazolium tetrafluoroborate; phases: Liquid mixture 1, Liquid mixture 2
Fixed: Pressure, kPa = 101
Property: Mass fraction of ammonium sulfate (Liquid mixture 1); method: Titration method
Temperature, K	Mass fraction of 1-butyl-3-methylimidazolium tetrafluoroborate	Mass fraction of ammonium sulfate	uncertainty
298.15	.75	.003363	.0005
298.15	.5714	.01083	.0005
298.15	.4496	.0183	.0005
298.15	.3656	.02577	.0005
298.15	.3067	.03324	.0005
298.15	.2645	.04071	.0005
298.15	.2335	.04818	.0005
298.15	.21	.05565	.0005
298.15	.1917	.06312	.0005
298.15	.1769	.07059	.0005
298.15	.1646	.07806	.0005
298.15	.1541	.08553	.0005
298.15	.1448	.093	.0005
298.15	.1365	.1005	.0005
298.15	.1289	.1079	.0005
298.15	.122	.1154	.0005
298.15	.1155	.1229	.0005
298.15	.1094	.1304	.0005
298.15	.1038	.1378	.0005
298.15	.09844	.1453	.0005
298.15	.09339	.1528	.0005
298.15	.08863	.1602	.0005
298.15	.08412	.1677	.0005
298.15	.07985	.1752	.0005
298.15	.0758	.1826	.0005
298.15	.072	.1901	.0005
298.15	.06832	.1976	.0005
298.15	.06487	.2051	.0005
298.15	.06159	.2125	.0005
298.15	.05849	.22	.0005
298.15	.05553	.2275	.0005
298.15	.05274	.2349	.0005
298.15	.05008	.2424	.0005
298.15	.04756	.2499	.0005
298.15	.04517	.2573	.0005
298.15	.0429	.2648	.0005
298.15	.04075	.2723	.0005
298.15	.03871	.2798	.0005
298.15	.03677	.2872	.0005
298.15	.03493	.2947	.0005
298.15	.03319	.3022	.0005
298.15	.03153	.3096	.0005
298.15	.02996	.3171	.0005
298.15	.02847	.3246	.0005
298.15	.02706	.332	.0005
298.15	.02571	.3395	.0005
298.15	.02444	.347	.0005
298.15	.02323	.3545	.0005
298.15	.02209	.3619	.0005
298.15	.02099	.3694	.0005
298.15	.01996	.3769	.0005
298.15	.01898	.3843	.0005
298.15	.01805	.3918	.0005
298.15	.01717	.3993	.0005
298.15	.01633	.4067	.0005
298.15	.01554	.4142	.0005
298.15	.01479	.4217	.0005
298.15	.01407	.4292	.0005
298.15	.01339	.4366	.0005
298.15	.01275	.4441	.0005
308.15	.4405	.02818	.0005
308.15	.4187	.0315	.0005
308.15	.3912	.03361	.0005
308.15	.3739	.0359	.0005
308.15	.347	.04107	.0005
308.15	.3199	.04464	.0005
308.15	.2956	.0478	.0005
308.15	.2744	.0506	.0005
308.15	.2495	.05688	.0005
308.15	.2399	.05957	.0005
308.15	.2242	.06303	.0005
308.15	.2128	.06624	.0005
308.15	.1985	.07274	.0005
308.15	.1851	.07981	.0005
308.15	.1679	.08789	.0005
308.15	.1587	.09483	.0005
308.15	.1471	.1017	.0005
308.15	.1383	.1087	.0005
308.15	.117	.1294	.0005
308.15	.7203	.006035	.0005
308.15	.8082	.003934	.0005
308.15	.6811	.007398	.0005
308.15	.03342	.3866	.0005
308.15	.03748	.3059	.0005
308.15	.04607	.2683	.0005
308.15	.05385	.2516	.0005
308.15	.06633	.2251	.0005
308.15	.07009	.211	.0005
308.15	.08786	.1771	.0005
308.15	.0915	.169	.0005
308.15	.09901	.1596	.0005
308.15	.1049	.1508	.0005
308.15	.1078	.1466	.0005
308.15	.1112	.1424	.0005
308.15	.1185	.1345	.0005
308.15	.1243	.1277	.0005
308.15	.1291	.1243	.0005
308.15	.1366	.1164	.0005
308.15	.01672	.4425	.0005
308.15	.02184	.3971	.0005
308.15	.0268	.3657	.0005
308.15	.03058	.3413	.0005
308.15	.0332	.3214	.0005
308.15	.01682	.4818	.0005
308.15	.0236	.4309	.0005
308.15	.02535	.3775	.0005
308.15	.02749	.3567	.0005
308.15	.03102	.3412	.0005
308.15	.6143	.01389	.0005
308.15	.538	.01693	.0005
308.15	.4554	.02526	.0005
308.15	.403	.03049	.0005
308.15	.3473	.03688	.0005
308.15	.3061	.04195	.0005
318.15	.07393	.2109	.0005
318.15	.08426	.1882	.0005
318.15	.09319	.1708	.0005
318.15	.1053	.1559	.0005
318.15	.1124	.146	.0005
318.15	.1236	.1364	.0005
318.15	.1287	.1296	.0005
318.15	.152	.1152	.0005
318.15	.1631	.1069	.0005
318.15	.1773	.09956	.0005
318.15	.1917	.09238	.0005
318.15	.2087	.08425	.0005
318.15	.2236	.07817	.0005
318.15	.2411	.07276	.0005
318.15	.1614	.1052	.0005
318.15	.1985	.08859	.0005
318.15	.2223	.07779	.0005
318.15	.2634	.06725	.0005
318.15	.2955	.05906	.0005
318.15	.3365	.05131	.0005
318.15	.3667	.04627	.0005
318.15	.3963	.04157	.0005
318.15	.424	.03757	.0005
318.15	.4505	.03315	.0005
318.15	.4753	.02981	.0005
318.15	.4983	.02696	.0005
318.15	.5187	.02455	.0005
318.15	.5368	.02253	.0005
318.15	.5553	.02059	.0005
318.15	.5726	.01877	.0005
318.15	.59	.01701	.0005
318.15	.004007	.488	.0005
318.15	.007961	.4194	.0005
318.15	.01168	.3936	.0005
318.15	.01557	.3642	.0005
318.15	.01909	.3435	.0005
318.15	.01974	.3246	.0005
318.15	.02451	.316	.0005
318.15	.02898	.3039	.0005
318.15	.03436	.2862	.0005
318.15	.03863	.2706	.0005
318.15	.05882	.2324	.0005
318.15	.04771	.2456	.0005

System: water + ammonium sulfate + 1-butyl-3-methylimidazolium tetrafluoroborate; phases: Liquid mixture 2, Liquid mixture 1
Fixed: Pressure, kPa = 101
Property: Mass fraction of ammonium sulfate (Liquid mixture 2); method: Phase equilibration
Property: Mass fraction of 1-butyl-3-methylimidazolium tetrafluoroborate (Liquid mixture 1); method: Phase equilibration
Property: Mass fraction of ammonium sulfate (Liquid mixture 1); method: Phase equilibration
Temperature, K	Mass fraction of 1-butyl-3-methylimidazolium tetrafluoroborate	Mass fraction of ammonium sulfate	uncertainty	Mass fraction of 1-butyl-3-methylimidazolium tetrafluoroborate	uncertainty	Mass fraction of ammonium sulfate	uncertainty
298.15	.09844	.1453		.6122		.006029	
298.15	.1219	.1154		.5714		.01083	
298.15	.1404	.09619		.519		.01189	
308.15	.1057	.1497		.6334		.01203	
308.15	.1182	.1335		.538		.01694	
308.15	.1382	.1092		.4397		.02823	
308.15	.1587	.09843		.4185		.02953	
318.15	.1085	.1516		.5192		.02449	
318.15	.1235	.1366		.4753		.02981	
318.15	.1552	.1128		.3667		.04627	

System: sodium carbonate + water + 1-butyl-3-methylimidazolium tetrafluoroborate; phases: Liquid mixture 1, Liquid mixture 2
Fixed: Temperature, K = 298.15
Fixed: Pressure, kPa = 101.325
Property: Mass fraction of sodium carbonate (Liquid mixture 1); method: Titration method
Mass fraction of 1-butyl-3-methylimidazolium tetrafluoroborate	Mass fraction of sodium carbonate	uncertainty
.7964	.0022	.0005
.7755	.0025	.0005
.7587	.0028	.0005
.6937	.0034	.0005
.6761	.0039	.0005
.6591	.0041	.0005
.6263	.0044	.0005
.5229	.0073	.0005
.497	.0083	.0005
.406	.0101	.0005
.454	.0091	.0005
.4348	.0096	.0005
.37	.0136	.0005
.3281	.0151	.0005
.3127	.0166	.0005
.2858	.0187	.0005
.2712	.0192	.0005
.2708	.0202	.0005
.2695	.0208	.0005
.2601	.0218	.0005
.2538	.0237	.0005
.2536	.0217	.0005
.2479	.0229	.0005
.2438	.0242	.0005
.2406	.0239	.0005
.2349	.0234	.0005
.234	.0267	.0005
.226	.027	.0005
.2137	.0275	.0005
.2047	.0314	.0005
.1913	.0325	.0005
.1807	.0348	.0005
.1756	.0359	.0005
.1625	.0395	.0005
.1561	.0399	.0005
.1546	.0406	.0005
.1509	.042	.0005
.1368	.0473	.0005
.1385	.0476	.0005
.1272	.0512	.0005
.1235	.0556	.0005
.1174	.0564	.0005
.116	.0589	.0005
.1129	.059	.0005
.1075	.0644	.0005
.1029	.0683	.0005
.1028	.0697	.0005
.0987	.0717	.0005
.0961	.0736	.0005
.0939	.0755	.0005
.092	.0769	.0005
.0901	.078	.0005
.0847	.0804	.0005
.0814	.0862	.0005
.0773	.0883	.0005
.075	.0933	.0005
.0694	.0963	.0005
.0657	.0998	.0005
.0628	.1011	.0005
.0622	.1052	.0005
.0582	.1093	.0005
.0551	.1208	.0005
.0465	.126	.0005
.044	.1279	.0005
.0422	.133	.0005
.0406	.1348	.0005
.0394	.137	.0005
.0383	.1421	.0005
.0382	.1465	.0005
.0357	.1571	.0005
.0335	.1601	.0005
.0291	.1675	.0005
.0279	.1722	.0005
.0248	.1792	.0005
.1385	.0476	.0005
.1272	.0512	.0005

System: sodium dihydrogen phosphate anhydrous + water + 1-butyl-3-methylimidazolium tetrafluoroborate; phases: Liquid mixture 1, Liquid mixture 2
Fixed: Temperature, K = 298.15
Fixed: Pressure, kPa = 101.325
Property: Mass fraction of sodium dihydrogen phosphate anhydrous (Liquid mixture 1); method: Titration method
Mass fraction of 1-butyl-3-methylimidazolium tetrafluoroborate	Mass fraction of sodium dihydrogen phosphate anhydrous	uncertainty
.8477	.0057	.0005
.7648	.0058	.0005
.5696	.0084	.0005
.4849	.0148	.0005
.4723	.0163	.0005
.4507	.0181	.0005
.4302	.0198	.0005
.407	.0226	.0005
.4004	.0229	.0005
.3764	.0254	.0005
.3666	.0272	.0005
.3497	.028	.0005
.3481	.0286	.0005
.335	.0293	.0005
.3296	.0302	.0005
.3202	.0307	.0005
.3128	.0325	.0005
.2916	.0353	.0005
.2734	.0379	.0005
.2662	.0394	.0005
.2406	.0463	.0005
.2025	.0565	.0005
.1918	.0595	.0005
.1803	.0648	.0005
.1756	.0692	.0005
.1556	.0785	.0005
.1458	.0853	.0005
.1448	.0868	.0005
.1429	.0867	.0005
.1394	.0921	.0005
.1233	.1035	.0005
.1077	.1221	.0005
.1185	.116	.0005
.1039	.1306	.0005
.0947	.1443	.0005
.0878	.1562	.0005
.082	.1662	.0005
.0773	.1735	.0005

System: water + disodium sulfite + 1-butyl-3-methylimidazolium tetrafluoroborate; phases: Liquid mixture 1, Liquid mixture 2
Fixed: Temperature, K = 298.15
Fixed: Pressure, kPa = 101.325
Property: Mass fraction of water (Liquid mixture 1); method: Titration method
Mass fraction of 1-butyl-3-methylimidazolium tetrafluoroborate	Mass fraction of water	uncertainty
.7505	.0042	.0005
.663	.0058	.0005
.6018	.0069	.0005
.48	.0125	.0005
.4361	.0142	.0005
.3928	.0169	.0005
.3533	.0206	.0005
.3351	.0212	.0005
.2809	.0263	.0005
.263	.0287	.0005
.1745	.0545	.0005
.1517	.0647	.0005
.1382	.0715	.0005
.1257	.079	.0005
.1118	.0855	.0005
.0933	.0961	.0005
.0692	.131	.0005
.0395	.1891	.0005
.0243	.2299	.0005
