Measured thermophysical data. Dependence of enthalpies of dissolution of  A-alanyl- A-alanine on the composition of (water+  alcohol) mixtures at 298.15 K
Source: Thermochim. Acta, 2011, 10.1016/j.tca.2011.06.008
Compound 1: .beta.-alanine, N-.beta.-alanyl-, C6H12N2O3
Compound 2: water, H2O
Compound 3: methanol, CH4O
Compound 4: ethanol, C2H6O
Compound 5: propyl alcohol, C3H8O
Compound 6: propan-2-ol, C3H8O

System: methanol + .beta.-alanine, N-.beta.-alanyl- + water; phases: Liquid
Fixed: Temperature, K = 298.15
Fixed: Pressure, kPa = 101
Fixed: Molality, mol/kg of .beta.-alanine, N-.beta.-alanyl- = .01
Property: Molar enthalpy of solution, kJ/mol (Liquid); method: Isoperibol calorimetry
Solvent: Molality, mol/kg of methanol	Molar enthalpy of solution, kJ/mol	uncertainty
.96	6.62	.0331
2.12	8.04	.0402
3.38	9.36	.0468
4.787	10.29	.05145
6.291	11.64	.0582
7.972	12.28	.0614
9.903	12.98	.0649
12.066	13.17	.06585
14.431	13.55	.06775
17.379	13.17	.06585
24.268	12.75	.06375
33.786	11.47	.05735

System: ethanol + .beta.-alanine, N-.beta.-alanyl- + water; phases: Liquid
Fixed: Temperature, K = 298.15
Fixed: Pressure, kPa = 101
Fixed: Molality, mol/kg of .beta.-alanine, N-.beta.-alanyl- = .01
Property: Molar enthalpy of solution, kJ/mol (Liquid); method: Isoperibol calorimetry
Solvent: Molality, mol/kg of ethanol	Molar enthalpy of solution, kJ/mol	uncertainty
.721	6.76	.0338
1.452	8.32	.0416
2.368	9.76	.0488
3.437	10.89	.05445
4.512	12.06	.0603
5.435	13.61	.06805
7.616	15.37	.07685
9.011	16.36	.0818
12.268	17.24	.0862
17.247	17.79	.08895
24.089	17.07	.08535
34.344	16.43	.08215

System: propyl alcohol + .beta.-alanine, N-.beta.-alanyl- + water; phases: Liquid
Fixed: Temperature, K = 298.15
Fixed: Pressure, kPa = 101
Fixed: Molality, mol/kg of .beta.-alanine, N-.beta.-alanyl- = .01
Property: Molar enthalpy of solution, kJ/mol (Liquid); method: Isoperibol calorimetry
Solvent: Molality, mol/kg of propyl alcohol	Molar enthalpy of solution, kJ/mol	uncertainty
.733	6.8	.034
1.215	8.36	.0418
1.982	9.56	.0478
2.726	10.31	.05155
3.375	11.23	.05615
4.028	12.38	.0619
4.815	13.41	.06705
6.021	14.61	.07305
8.878	15.53	.07765
13.417	15.42	.0771
18.749	13.61	.06805
26.796	9.25	.04625

System: propan-2-ol + .beta.-alanine, N-.beta.-alanyl- + water; phases: Liquid
Fixed: Temperature, K = 298.15
Fixed: Pressure, kPa = 101
Fixed: Molality, mol/kg of .beta.-alanine, N-.beta.-alanyl- = .01
Property: Molar enthalpy of solution, kJ/mol (Liquid); method: Isoperibol calorimetry
Solvent: Molality, mol/kg of propan-2-ol	Molar enthalpy of solution, kJ/mol	uncertainty
.715	7.39	.03695
1.181	8.48	.0424
1.742	9.44	.0472
2.581	10.83	.05415
3.356	12.42	.0621
4.285	13.38	.0669
5.387	14.86	.0743
6.417	16.06	.0803
9.149	17.73	.08865
12.838	18.67	.09335
17.966	16.75	.08375
25.659	14.04	.0702

System: .beta.-alanine, N-.beta.-alanyl- + water; phases: Liquid
Property: Molar enthalpy of solution, kJ/mol (Liquid); method: Isoperibol calorimetry
Temperature, K	Pressure, kPa	Molality, mol/kg of .beta.-alanine, N-.beta.-alanyl-	Molar enthalpy of solution, kJ/mol	uncertainty
298.15	101.325	.01	5.67	.02835
