Measured thermophysical data. Excess volumes, Viscosities, and Excess Gibbs Energy of Activation for Viscous Flow, for binary  and ternary mixtures 1- propanol + N-N dimethylformamid + chloroform at different temperatures
Source: Thermochim. Acta, 2014, 10.1016/j.tca.2014.05.004
Compound 1: 1-propanol, C3H8O
Compound 2: N,N-dimethylformamide, C3H7NO
Compound 3: chloroform, CHCl3

System: 1-propanol; phases: Liquid
Fixed: Pressure, kPa = 101.325
Property: Mass density, kg/m3 (Liquid); method: Vibrating tube method
Temperature, K	Mass density, kg/m3	uncertainty
293.15	803.3	.1
303.15	795.1	.1
313.15	787	.1
323.15	778.7	.1

System: 1-propanol; phases: Liquid
Fixed: Pressure, kPa = 101.325
Property: Viscosity, Pa*s (Liquid); method: Capillary tube (Ostwald; Ubbelohde) method
Temperature, K	Viscosity, Pa*s	uncertainty
293.15	.0022083	.00022083
303.15	.0017481	.00017481
313.15	.0013979	.00013979
323.15	.0011314	.00011314

System: N,N-dimethylformamide; phases: Liquid
Fixed: Pressure, kPa = 101.325
Property: Mass density, kg/m3 (Liquid); method: Vibrating tube method
Temperature, K	Mass density, kg/m3	uncertainty
293.15	948.3	.1
303.15	938.7	.1
313.15	929.1	.1
323.15	919.9	.1

System: N,N-dimethylformamide; phases: Liquid
Fixed: Pressure, kPa = 101.325
Property: Viscosity, Pa*s (Liquid); method: Capillary tube (Ostwald; Ubbelohde) method
Temperature, K	Viscosity, Pa*s	uncertainty
293.15	.00092554	.000092554
303.15	.00082398	.000082398
313.15	.00074071	.000074071
323.15	.00067114	.000067114

System: chloroform; phases: Liquid
Fixed: Pressure, kPa = 101.325
Property: Mass density, kg/m3 (Liquid); method: Vibrating tube method
Temperature, K	Mass density, kg/m3	uncertainty
293.15	1488.7	.1
303.15	1469.69	.1
313.15	1450.39	.1
323.15	1429.89	.1

System: chloroform; phases: Liquid
Fixed: Pressure, kPa = 101.325
Property: Viscosity, Pa*s (Liquid); method: Capillary tube (Ostwald; Ubbelohde) method
Temperature, K	Viscosity, Pa*s	uncertainty
293.15	.00068159	.000068159
303.15	.00061822	.000061822
313.15	.00055562	.000055562
323.15	.0005183	.00005183

System: N,N-dimethylformamide + 1-propanol; phases: Liquid
Fixed: Pressure, kPa = 101
Property: Mass density, kg/m3 (Liquid); method: Vibrating tube method
Temperature, K	Mole fraction of 1-propanol	Mass density, kg/m3	uncertainty
293.15	.1007	934.5	.1
293.15	.2026	920.4	.1
293.15	.3548	898.8	.1
293.15	.5008	877.7	.1
293.15	.5982	863.5	.1
293.15	.6981	848.9	.1
293.15	.7989	833.9	.1
293.15	.8981	818.9	.1
303.15	.1007	925.2	.1
303.15	.2026	911	.1
303.15	.3548	889.6	.1
303.15	.5008	868.7	.1
303.15	.5982	854.6	.1
303.15	.6981	840.1	.1
303.15	.7989	825.3	.1
303.15	.8981	810.7	.1
313.15	.1007	915.7	.1
313.15	.2026	901.6	.1
313.15	.3548	880.3	.1
313.15	.5008	859.6	.1
313.15	.5981	845.6	.1
313.15	.6981	831.3	.1
313.15	.7989	816.6	.1
313.15	.8981	802.2	.1
323.15	.1007	906.3	.1
323.15	.2026	892.1	.1
323.15	.3548	870.9	.1
323.15	.5008	850.4	.1
323.15	.5982	836.6	.1
323.15	.6981	822.4	.1
323.15	.7989	807.9	.1
323.15	.8981	793.7	.1
293.15	.2518	914.1	.1
293.15	.5007	878.1	.1
293.15	.75	841.1	.1
303.15	.2518	904.2	.1
303.15	.5007	869.1	.1
303.15	.75	832.5	.1
313.15	.2518	895.4	.1
313.15	.5007	860	.1
313.15	.75	823.7	.1
323.15	.2518	885.4	.1
323.15	.5007	850.9	.1
323.15	.75	814.9	.1

System: N,N-dimethylformamide + 1-propanol; phases: Liquid
Fixed: Pressure, kPa = 101
Property: Viscosity, Pa*s (Liquid); method: Capillary tube (Ostwald; Ubbelohde) method
Temperature, K	Mole fraction of 1-propanol	Viscosity, Pa*s	uncertainty
293.15	.1007	.0009529	.00009529
293.15	.2026	.0009902	.00009902
293.15	.3548	.00103	.000103
293.15	.5008	.001127	.0001127
293.15	.5982	.001175	.0001175
293.15	.6981	.001315	.0001315
293.15	.7989	.001476	.0001476
293.15	.8981	.001734	.0001734
303.15	.1007	.0008538	.00008538
303.15	.2026	.0008826	.00008826
303.15	.3548	.0009064	.00009064
303.15	.5008	.000977	.0000977
303.15	.5982	.00101	.000101
303.15	.6981	.001112	.0001112
303.15	.7989	.001231	.0001231
303.15	.8981	.001412	.0001412
313.15	.1007	.0007741	.00007741
313.15	.2026	.0007929	.00007929
313.15	.3548	.0008052	.00008052
313.15	.5008	.0008569	.00008569
313.15	.5981	.0008728	.00008728
313.15	.6981	.0009521	.00009521
313.15	.7989	.001037	.0001037
313.15	.8981	.001164	.0001164
323.15	.1007	.0007068	.00007068
323.15	.2026	.0007215	.00007215
323.15	.3548	.0007257	.00007257
323.15	.5008	.0007593	.00007593
323.15	.5982	.0007643	.00007643
323.15	.6981	.0008239	.00008239
323.15	.7989	.0008829	.00008829
323.15	.8981	.0009688	.00009688
293.15	.2518	.00101	.000101
293.15	.5007	.001109	.0001109
293.15	.75	.001368	.0001368
303.15	.2518	.0008911	.00008911
303.15	.5007	.0009588	.00009588
303.15	.75	.001146	.0001146
313.15	.2518	.0007973	.00007973
313.15	.5007	.00084	.000084
313.15	.75	.0009688	.00009688
323.15	.2518	.0007241	.00007241
323.15	.5007	.0007422	.00007422
323.15	.75	.0008261	.00008261

System: chloroform + N,N-dimethylformamide; phases: Liquid
Fixed: Pressure, kPa = 101
Property: Mass density, kg/m3 (Liquid); method: Vibrating tube method
Temperature, K	Mole fraction of N,N-dimethylformamide	Mass density, kg/m3	uncertainty
293.15	.0512	1463.7	.1
293.15	.1011	1440.3	.1
293.15	.1954	1391.4	.1
293.15	.2975	1337.3	.1
293.15	.392	1287.1	.1
293.15	.5008	1226.2	.1
293.15	.5983	1172.3	.1
293.15	.6918	1120.2	.1
293.15	.7851	1068.5	.1
293.15	.8951	1007.1	.1
303.15	.0512	1445.4	.1
303.15	.1011	1422.8	.1
303.15	.19544	1375.1	.1
303.15	.2975	1322.2	.1
303.15	.392	1272.9	.1
303.15	.5008	1213.2	.1
303.15	.5983	1160	.1
303.15	.6918	1108.6	.1
303.15	.7851	1057.5	.1
303.15	.8952	997.1	.1
313.15	.0512	1426.9	.1
313.15	.1011	1405.1	.1
313.15	.1955	1358.3	.1
313.15	.2975	1306.9	.1
313.15	.392	1258.7	.1
313.15	.5008	1200	.1
313.15	.5983	1147.6	.1
313.15	.6918	1096.9	.1
313.15	.7851	1046.5	.1
313.15	.8951	986.8	.1
323.15	.0512	1408.5	.1
323.15	.1011	1386.8	.1
323.15	.1954	1341.7	.1
323.15	.2975	1291.5	.1
323.15	.392	1244.4	.1
323.15	.5008	1186.7	.1
323.15	.5983	1135.1	.1
323.15	.6918	1085.2	.1
323.15	.7851	1035.5	.1
323.15	.8951	976.6	.1

System: chloroform + N,N-dimethylformamide; phases: Liquid
Fixed: Pressure, kPa = 101
Property: Viscosity, Pa*s (Liquid); method: Capillary tube (Ostwald; Ubbelohde) method
Temperature, K	Mole fraction of N,N-dimethylformamide	Viscosity, Pa*s	uncertainty
293.15	.0512	.0007325	.00007325
293.15	.1011	.0007913	.00007913
293.15	.1954	.0009132	.00009132
293.15	.2975	.001025	.0001025
293.15	.392	.001095	.0001095
293.15	.5008	.001128	.0001128
293.15	.5983	.001123	.0001123
293.15	.6918	.001091	.0001091
293.15	.7851	.001051	.0001051
293.15	.8951	.0009944	.00009944
303.15	.0512	.0006616	.00006616
303.15	.1011	.0007089	.00007089
303.15	.19544	.0008102	.00008102
303.15	.2975	.000901	.0000901
303.15	.392	.0009598	.00009598
303.15	.5008	.0009894	.00009894
303.15	.5983	.0009851	.00009851
303.15	.6918	.0009617	.00009617
303.15	.7851	.0009294	.00009294
303.15	.8952	.0008835	.00008835
313.15	.0512	.0006031	.00006031
313.15	.1011	.000636	.0000636
313.15	.1955	.0007206	.00007206
313.15	.2975	.0007977	.00007977
313.15	.392	.0008479	.00008479
313.15	.5008	.0008735	.00008735
313.15	.5983	.0008753	.00008753
313.15	.6918	.0008556	.00008556
313.15	.7851	.0008306	.00008306
313.15	.8951	.0007921	.00007921
323.15	.0512	.0007803	.00007803
323.15	.1011	.0005823	.00005823
323.15	.1954	.0006447	.00006447
323.15	.2975	.0007077	.00007077
323.15	.392	.0007408	.00007408
323.15	.5008	.0007803	.00007803
323.15	.5983	.0007856	.00007856
323.15	.6918	.0007692	.00007692
323.15	.7851	.0007493	.00007493
323.15	.8951	.0007179	.00007179

System: chloroform + 1-propanol; phases: Liquid
Fixed: Pressure, kPa = 101
Property: Mass density, kg/m3 (Liquid); method: Vibrating tube method
Temperature, K	Mole fraction of 1-propanol	Mass density, kg/m3	uncertainty
293.15	.1045	1419.8	.1
293.15	.2064	1354	.1
293.15	.3054	1288.4	.1
293.15	.4027	1223.9	.1
293.15	.5075	1153.6	.1
293.15	.6005	1090.1	.1
293.15	.7045	1017.8	.1
293.15	.8005	950	.1
293.15	.8967	880.4	.1
303.15	.1045	1401.6	.1
303.15	.2064	1336.6	.1
303.15	.3054	1272.4	.1
303.15	.4027	1208.9	.1
303.15	.5075	1139.8	.1
303.15	.6005	1077.3	.1
303.15	.7045	1006.3	.1
303.15	.8005	939.7	.1
303.15	.8967	871.2	.1
313.15	.1045	1383.2	.1
313.15	.2064	1319.3	.1
313.15	.3054	1255.8	.1
313.15	.4027	1193.7	.1
313.15	.5075	1125.6	.1
313.15	.6005	1064.3	.1
313.15	.7045	994.6	.1
313.15	.8005	929.1	.1
313.15	.8967	861.9	.1
323.15	.1045	1364.6	.1
323.15	.2064	1301.7	.1
323.15	.3054	1239.2	.1
323.15	.4027	1178.1	.1
323.15	.5075	1111.4	.1
323.15	.6005	1051	.1
323.15	.7045	982.8	.1
323.15	.8005	918.4	.1
323.15	.8967	852.1	.1

System: chloroform + 1-propanol; phases: Liquid
Fixed: Pressure, kPa = 101
Property: Viscosity, Pa*s (Liquid); method: Capillary tube (Ostwald; Ubbelohde) method
Temperature, K	Mole fraction of 1-propanol	Viscosity, Pa*s	uncertainty
293.15	.1045	.0007119	.00007119
293.15	.2064	.00077105	.000077105
293.15	.3054	.00085236	.000085236
293.15	.4027	.00095819	.000095819
293.15	.5075	.0011052	.00011052
293.15	.6005	.001255	.0001255
293.15	.7045	.0015071	.00015071
293.15	.8005	.0017458	.00017458
293.15	.8967	.0019976	.00019976
303.15	.1045	.00064822	.000064822
303.15	.2064	.00068778	.000068778
303.15	.3054	.00075561	.000075561
303.15	.4027	.00083834	.000083834
303.15	.5075	.00094873	.000094873
303.15	.6005	.0010734	.00010734
303.15	.7045	.001242	.0001242
303.15	.8005	.0014076	.00014076
303.15	.8967	.0015838	.00015838
313.15	.1045	.00059007	.000059007
313.15	.2064	.00061921	.000061921
313.15	.3054	.00066749	.000066749
313.15	.4027	.00073289	.000073289
313.15	.5075	.00081434	.000081434
313.15	.6005	.00091629	.000091629
313.15	.7045	.0010432	.00010432
313.15	.8005	.0011587	.00011587
313.15	.8967	.0012783	.00012783
323.15	.1045	.0004791	.00004791
323.15	.2064	.000535	.0000535
323.15	.3054	.0005965	.00005965
323.15	.4027	.00064951	.000064951
323.15	.5075	.00071653	.000071653
323.15	.6005	.00079411	.000079411
323.15	.7045	.00088046	.000088046
323.15	.8005	.000965	.0000965
323.15	.8967	.0010471	.00010471

System: chloroform + N,N-dimethylformamide + 1-propanol; phases: Liquid
Fixed: Pressure, kPa = 101
Property: Viscosity, Pa*s (Liquid); method: Capillary tube (Ostwald; Ubbelohde) method
Temperature, K	Mole fraction of 1-propanol	Mole fraction of N,N-dimethylformamide	Viscosity, Pa*s	uncertainty
293.15	.2518	.7482	.00101	.000101
293.15	.2257	.6706	.001048	.0001048
293.15	.2014	.5983	.001104	.0001104
293.15	.1753	.5209	.001131	.0001131
293.15	.1512	.4491	.001153	.0001153
293.15	.1263	.3753	.001127	.0001127
293.15	.1017	.302	.001076	.0001076
293.15	.0758	.2252	.0009839	.00009839
293.15	.0512	.1522	.0008767	.00008767
293.15	.0257	.0763	.0007656	.00007656
293.15	.5007	.4993	.001109	.0001109
293.15	.4506	.4494	.001175	.0001175
293.15	.4009	.3998	.001212	.0001212
293.15	.3508	.3499	.001222	.0001222
293.15	.3452	.3443	.001215	.0001215
293.15	.3041	.3033	.001192	.0001192
293.15	.2488	.2482	.001127	.0001127
293.15	.2026	.202	.001053	.0001053
293.15	.1593	.1589	.0009689	.00009689
293.15	.1022	.1019	.000844	.0000844
293.15	.0522	.0521	.0007429	.00007429
293.15	.75	.25	.001368	.0001368
293.15	.6434	.2145	.001405	.0001405
293.15	.5732	.1911	.001384	.0001384
293.15	.449	.1497	.001254	.0001254
293.15	.3762	.1254	.00114	.000114
293.15	.3015	.1005	.001014	.0001014
293.15	.2267	.0756	.0009009	.00009009
293.15	.1504	.0501	.000799	.0000799
293.15	.0746	.0249	.0007263	.00007263
303.15	.2518	.7482	.0008911	.00008911
303.15	.2257	.6706	.0009352	.00009352
303.15	.2014	.5983	.0009832	.00009832
303.15	.1753	.5209	.001003	.0001003
303.15	.1512	.4491	.001021	.0001021
303.15	.1263	.3753	.0009936	.00009936
303.15	.1017	.302	.000953	.0000953
303.15	.0758	.2252	.0008774	.00008774
303.15	.0512	.1522	.0007883	.00007883
303.15	.0257	.0763	.0006948	.00006948
303.15	.5007	.4993	.0009588	.00009588
303.15	.4506	.4494	.001024	.0001024
303.15	.4009	.3998	.001061	.0001061
303.15	.3508	.3499	.00107	.000107
303.15	.3452	.3443	.00106	.000106
303.15	.3041	.3033	.001042	.0001042
303.15	.2488	.2482	.0009914	.00009914
303.15	.2026	.202	.0009295	.00009295
303.15	.1593	.1589	.0008617	.00008617
303.15	.1022	.1019	.0007605	.00007605
303.15	.75	.25	.001146	.0001146
303.15	.6434	.2145	.001191	.0001191
303.15	.5732	.1911	.001178	.0001178
303.15	.449	.1497	.00108	.000108
303.15	.3762	.1254	.0009897	.00009897
303.15	.3015	.1005	.0008911	.00008911
303.15	.2267	.0756	.0008013	.00008013
303.15	.1504	.0501	.0007238	.00007238
303.15	.0746	.0249	.0006625	.00006625
313.15	.2518	.7482	.0007973	.00007973
313.15	.2257	.6706	.0008399	.00008399
313.15	.2014	.5983	.0008799	.00008799
313.15	.1753	.5209	.0008936	.00008936
313.15	.1512	.4491	.0008984	.00008984
313.15	.1263	.3753	.0008782	.00008782
313.15	.1017	.302	.000844	.0000844
313.15	.0758	.2252	.0007816	.00007816
313.15	.0512	.1522	.0007091	.00007091
313.15	.0257	.0763	.0006326	.00006326
313.15	.5007	.4993	.00084	.000084
313.15	.4506	.4494	.0009034	.00009034
313.15	.4009	.3998	.0009333	.00009333
313.15	.3508	.3499	.0009422	.00009422
313.15	.3452	.3443	.0009319	.00009319
313.15	.3041	.3033	.0009139	.00009139
313.15	.2488	.2482	.0008694	.00008694
313.15	.2026	.202	.0008215	.00008215
313.15	.1593	.1589	.0007646	.00007646
313.15	.1022	.1019	.0006823	.00006823
313.15	.0515	.0513	.0006201	.00006201
313.15	.75	.25	.0009688	.00009688
313.15	.6434	.2145	.001014	.0001014
313.15	.5732	.1911	.001008	.0001008
313.15	.449	.1497	.0009297	.00009297
313.15	.3761	.1254	.0008602	.00008602
313.15	.3015	.1005	.0007791	.00007791
313.15	.2267	.0756	.0007066	.00007066
313.15	.1504	.0501	.0006459	.00006459
313.15	.0746	.0249	.0005999	.00005999
323.15	.2518	.7482	.0007241	.00007241
323.15	.2257	.6706	.0007478	.00007478
323.15	.2014	.5983	.0007941	.00007941
323.15	.1753	.5209	.000805	.0000805
323.15	.1512	.4491	.0008	.00008
323.15	.1263	.3753	.0007875	.00007875
323.15	.1017	.302	.0007547	.00007547
323.15	.0758	.2252	.0007033	.00007033
323.15	.0512	.1522	.0006483	.00006483
323.15	.0257	.0763	.0005835	.00005835
323.15	.5007	.4993	.0007422	.00007422
323.15	.4506	.4494	.0008052	.00008052
323.15	.4009	.3998	.0008311	.00008311
323.15	.3508	.3499	.0008374	.00008374
323.15	.3452	.3443	.0008238	.00008238
323.15	.3041	.3033	.0008076	.00008076
323.15	.2488	.2482	.0007744	.00007744
323.15	.2026	.202	.0007282	.00007282
323.15	.1593	.1589	.0006837	.00006837
323.15	.1022	.1019	.0006152	.00006152
323.15	.0515	.0513	.0005436	.00005436
323.15	.75	.25	.0008261	.00008261
323.15	.6434	.2145	.0008758	.00008758
323.15	.5732	.1911	.0008868	.00008868
323.15	.449	.1497	.0008141	.00008141
323.15	.3761	.1254	.0007347	.00007347
323.15	.3015	.1005	.0006939	.00006939
323.15	.2267	.0756	.0006366	.00006366
323.15	.1504	.0501	.0005558	.00005558
323.15	.0746	.0249	.0005076	.00005076

System: chloroform + N,N-dimethylformamide + 1-propanol; phases: Liquid
Fixed: Pressure, kPa = 101
Property: Mass density, kg/m3 (Liquid); method: Vibrating tube method
Temperature, K	Mole fraction of 1-propanol	Mole fraction of N,N-dimethylformamide	Mass density, kg/m3	uncertainty
293.15	.2518	.7482	914.1	.1
293.15	.2257	.6706	975.6	.1
293.15	.2014	.5983	1033.8	.1
293.15	.1753	.5209	1095.4	.1
293.15	.1512	.4491	1152.4	.1
293.15	.1263	.3753	1210.4	.1
293.15	.1017	.302	1267.4	.1
293.15	.0758	.2252	1325.8	.1
293.15	.0512	.1522	1380.4	.1
293.15	.0257	.0763	1434.9	.1
293.15	.5007	.4993	878.1	.1
293.15	.4506	.4494	942.6	.1
293.15	.4009	.3998	1006.2	.1
293.15	.3508	.3499	1069.8	.1
293.15	.3452	.3443	1076.9	.1
293.15	.3041	.3033	1128.4	.1
293.15	.2488	.2482	1197.2	.1
293.15	.2026	.202	1253.2	.1
293.15	.1593	.1589	1304.7	.1
293.15	.1022	.1019	1371.2	.1
293.15	.0522	.0521	1429.3	.1
293.15	.75	.25	841.1	.1
293.15	.6434	.2145	939	.1
293.15	.5732	.1911	1002.8	.1
293.15	.449	.1497	1113.3	.1
293.15	.3762	.1254	1176.8	.1
293.15	.3015	.1005	1241.1	.1
293.15	.2267	.0756	1302.6	.1
293.15	.1504	.0501	1365.6	.1
293.15	.0746	.0249	1427.7	.1
303.15	.2518	.7482	904.2	.1
303.15	.2257	.6706	965.5	.1
303.15	.2014	.5983	1023.1	.1
303.15	.1753	.5209	1083.9	.1
303.15	.1512	.4491	1140.1	.1
303.15	.1263	.3753	1197.2	.1
303.15	.1017	.302	1253.1	.1
303.15	.0758	.2252	1310.5	.1
303.15	.0512	.1522	1363.8	.1
303.15	.0257	.0763	1417	.1
303.15	.5007	.4993	869.1	.1
303.15	.4506	.4494	932.8	.1
303.15	.4009	.3998	995.9	.1
303.15	.3508	.3499	1058.4	.1
303.15	.3452	.3443	1065.4	.1
303.15	.3041	.3033	1116.1	.1
303.15	.2488	.2482	1183.8	.1
303.15	.2026	.202	1238.8	.1
303.15	.1593	.1589	1289.5	.1
303.15	.1022	.1019	1354.5	.1
303.15	.75	.25	832.5	.1
303.15	.6434	.2145	929.2	.1
303.15	.5732	.1911	992.3	.1
303.15	.449	.1497	1100.8	.1
303.15	.3762	.1254	1163.5	.1
303.15	.3015	.1005	1226.2	.1
303.15	.2267	.0756	1286.7	.1
303.15	.1504	.0501	1348.7	.1
303.15	.0746	.0249	1409.6	.1
313.15	.2518	.7482	895.4	.1
313.15	.2257	.6706	954.1	.1
313.15	.2014	.5983	1012.3	.1
313.15	.1753	.5209	1072.3	.1
313.15	.1512	.4491	1127.7	.1
313.15	.1263	.3753	1183.9	.1
313.15	.1017	.302	1238.8	.1
313.15	.0758	.2252	1295	.1
313.15	.0512	.1522	1347.1	.1
313.15	.0257	.0763	1399.2	.1
313.15	.5007	.4993	860	.1
313.15	.4506	.4494	923	.1
313.15	.4009	.3998	985.3	.1
313.15	.3508	.3499	1046.9	.1
313.15	.3452	.3443	1053.8	.1
313.15	.3041	.3033	1103.7	.1
313.15	.2488	.2482	1170.2	.1
313.15	.2026	.202	1224.1	.1
313.15	.1593	.1589	1273.6	.1
313.15	.1022	.1019	1337.7	.1
313.15	.0515	.0513	1393.9	.1
313.15	.75	.25	823.7	.1
313.15	.6434	.2145	919.2	.1
313.15	.5732	.1911	981.5	.1
313.15	.449	.1497	1088.2	.1
313.15	.3761	.1254	1149.8	.1
313.15	.3015	.1005	1211.1	.1
313.15	.2267	.0756	1270.8	.1
313.15	.1504	.0501	1331.6	.1
313.15	.0746	.0249	1391.3	.1
323.15	.2518	.7482	885.4	.1
323.15	.2257	.6706	943.9	.1
323.15	.2014	.5983	1001.4	.1
323.15	.1753	.5209	1060.6	.1
323.15	.1512	.4491	1113.5	.1
323.15	.1263	.3753	1170.5	.1
323.15	.1017	.302	1224.4	.1
323.15	.0758	.2252	1279.2	.1
323.15	.0512	.1522	1330.2	.1
323.15	.0257	.0763	1381.2	.1
323.15	.5007	.4993	850.9	.1
323.15	.4506	.4494	913.1	.1
323.15	.4009	.3998	974.5	.1
323.15	.3508	.3499	1035.2	.1
323.15	.3452	.3443	1042.1	.1
323.15	.3041	.3033	1091.2	.1
323.15	.2488	.2482	1156.5	.1
323.15	.2026	.202	1209.2	.1
323.15	.1593	.1589	1258	.1
323.15	.1022	.1019	1320.6	.1
323.15	.0515	.0513	1375.7	.1
323.15	.75	.25	814.9	.1
323.15	.6434	.2145	909	.1
323.15	.5732	.1911	970.2	.1
323.15	.449	.1497	1075.1	.1
323.15	.3761	.1254	1135.6	.1
323.15	.3015	.1005	1196.1	.1
323.15	.2267	.0756	1254.6	.1
323.15	.1504	.0501	1314.2	.1
323.15	.0746	.0249	1372.9	.1
