Measured thermophysical data. Vapor liquid equilibrium of fatty acid ethyl esters determined using DSC
Source: Thermochim. Acta, 2011, 10.1016/j.tca.2010.10.002
Compound 1: ethyl palmitate, C18H36O2
Compound 2: ethyl stearate, C20H40O2
Compound 3: ethyl (Z)-9-octadeceneoate, C20H38O2
Compound 4: (Z,Z)-9,12-octadecadienoic acid, ethyl ester, C20H36O2
Compound 5: myristic acid, methyl ester, C15H30O2
Compound 6: methyl hexadecanoate, C17H34O2

System: ethyl palmitate; phases: Liquid, Gas
Property: Vapor or sublimation pressure, kPa (Liquid); method: DSC
Temperature, K	Vapor or sublimation pressure, kPa	uncertainty
502.27	5.3329	
515.13	9.3326	

System: ethyl stearate; phases: Liquid, Gas
Property: Vapor or sublimation pressure, kPa (Liquid); method: DSC
Temperature, K	Vapor or sublimation pressure, kPa	uncertainty
520.56	5.3329	

System: ethyl (Z)-9-octadeceneoate; phases: Liquid, Gas
Property: Vapor or sublimation pressure, kPa (Liquid); method: DSC
Temperature, K	Vapor or sublimation pressure, kPa	uncertainty
514.61	5.3329	
536.83	9.3326	

System: (Z,Z)-9,12-octadecadienoic acid, ethyl ester; phases: Liquid, Gas
Property: Vapor or sublimation pressure, kPa (Liquid); method: DSC
Temperature, K	Vapor or sublimation pressure, kPa	uncertainty
537.69	9.3326	

System: myristic acid, methyl ester; phases: Liquid, Gas
Property: Vapor or sublimation pressure, kPa (Liquid); method: DSC
Temperature, K	Vapor or sublimation pressure, kPa	uncertainty
459.62	3.9997	

System: methyl hexadecanoate; phases: Liquid, Gas
Property: Vapor or sublimation pressure, kPa (Liquid); method: DSC
Temperature, K	Vapor or sublimation pressure, kPa	uncertainty
486.57	3.9997	

System: methyl hexadecanoate + myristic acid, methyl ester; phases: Liquid, Gas
Fixed: Pressure, kPa = 3.9997
Property: Boiling temperature at pressure P, K (Liquid); method: DSC
Mole fraction of myristic acid, methyl ester	Boiling temperature at pressure P, K	uncertainty
0	486.57	1
.346	472.84	1
.492	468.97	1
.496	468.89	1
.797	464.06	1
1	459.62	1

System: ethyl stearate + ethyl palmitate; phases: Liquid, Gas
Fixed: Pressure, kPa = 5.3329
Property: Boiling temperature at pressure P, K (Liquid); method: DSC
Mole fraction of ethyl palmitate	Boiling temperature at pressure P, K	uncertainty
0	520.56	1
.1017	517.76	1
.3012	512.76	1
.4004	510.87	1
.5003	509.54	1
.5998	508.3	1
.7001	506.75	1
.801	505.14	1
1	502.27	1

System: ethyl (Z)-9-octadeceneoate + ethyl palmitate; phases: Liquid, Gas
Property: Boiling temperature at pressure P, K (Liquid); method: DSC
Pressure, kPa	Mole fraction of ethyl palmitate	Boiling temperature at pressure P, K	uncertainty
5.3329	0	514.61	1
5.3329	.1017	512.78	1
5.3329	.199	511.97	1
5.3329	.3002	510.49	1
5.3329	.4021	508.64	1
5.3329	.5051	507.08	1
5.3329	.595	506.2	1
5.3329	.7007	505.39	1
5.3329	.7979	504.47	1
5.3329	.9024	503.23	1
5.3329	1	502.27	1
9.3326	0	536.83	1
9.3326	.1017	534.09	1
9.3326	.199	531.64	1
9.3326	.3002	529.33	1
9.3326	.3985	527.24	1
9.3326	.5051	524.99	1
9.3326	.595	523	1
9.3326	.7007	520.54	1
9.3326	.7979	518.38	1
9.3326	.9024	516.45	1
9.3326	1	515.13	1

System: (Z,Z)-9,12-octadecadienoic acid, ethyl ester + ethyl palmitate; phases: Liquid, Gas
Fixed: Pressure, kPa = 9.3326
Property: Boiling temperature at pressure P, K (Liquid); method: DSC
Mole fraction of ethyl palmitate	Boiling temperature at pressure P, K	uncertainty
0	537.69	1
.0974	535.36	1
.1935	532.4	1
.2965	529.87	1
.3984	527.73	1
.4977	525.48	1
.6105	522.62	1
.7042	520.25	1
.7958	518.25	1
.8992	516.51	1
1	515.13	1
