Measured thermophysical data. Calorimetric study of solvation of low polar solutes in propylene glycol and methyl cellosolve at 298 K
Source: Thermochim. Acta, 2014, 10.1016/j.tca.2014.06.003
Compound 1: propylene glycol, C3H8O2, purity 99.9%
Compound 2: methyl cellosolve, C3H8O2, purity 99.9%
Compound 3: n-hexane, C6H14, purity 99%
Compound 4: n-heptane, C7H16, purity 99%
Compound 5: n-octane, C8H18, purity 99%
Compound 6: n-nonane, C9H20, purity 99%
Compound 7: n-decane, C10H22, purity 99%
Compound 8: cyclohexane, C6H12, purity 99%
Compound 9: benzene, C6H6, purity 99%
Compound 10: toluene, C7H8, purity 99%
Compound 11: ethylbenzene, C8H10, purity 99%
Compound 12: o-xylene, C8H10, purity 99%
Compound 13: m-xylene, C8H10, purity 99%
Compound 14: p-xylene, C8H10, purity 99%
Compound 15: fluorobenzene, C6H5F, purity 99%
Compound 16: chlorobenzene, C6H5Cl, purity 99%
Compound 17: bromobenzene, C6H5Br, purity 99%
Compound 18: naphthalene, C10H8, purity 99%
Compound 19: biphenyl, C12H10, purity 99%
Compound 20: tetrahydrofuran, C4H8O, purity 99.9%
Compound 21: acetone, C3H6O, purity 99.9%

System: propylene glycol + n-hexane; phases: Liquid
Fixed: Pressure, kPa = 101
Fixed: Temperature, K = 298.15
Property: Molar enthalpy of solution, kJ/mol (Liquid); method: Calvet calorimetry
Mole fraction of n-hexane	Molar enthalpy of solution, kJ/mol	uncertainty
0	5.8	

System: propylene glycol + n-heptane; phases: Liquid
Fixed: Pressure, kPa = 101
Fixed: Temperature, K = 298.15
Property: Molar enthalpy of solution, kJ/mol (Liquid); method: Calvet calorimetry
Mole fraction of n-heptane	Molar enthalpy of solution, kJ/mol	uncertainty
0	6.5	

System: propylene glycol + n-octane; phases: Liquid
Fixed: Pressure, kPa = 101
Fixed: Temperature, K = 298.15
Property: Molar enthalpy of solution, kJ/mol (Liquid); method: Calvet calorimetry
Mole fraction of n-octane	Molar enthalpy of solution, kJ/mol	uncertainty
0	7.3	

System: propylene glycol + n-nonane; phases: Liquid
Fixed: Pressure, kPa = 101
Fixed: Temperature, K = 298.15
Property: Molar enthalpy of solution, kJ/mol (Liquid); method: Calvet calorimetry
Mole fraction of n-nonane	Molar enthalpy of solution, kJ/mol	uncertainty
0	8	

System: propylene glycol + n-decane; phases: Liquid
Fixed: Pressure, kPa = 101
Fixed: Temperature, K = 298.15
Property: Molar enthalpy of solution, kJ/mol (Liquid); method: Calvet calorimetry
Mole fraction of n-decane	Molar enthalpy of solution, kJ/mol	uncertainty
0	8.4	

System: propylene glycol + cyclohexane; phases: Liquid
Fixed: Pressure, kPa = 101
Fixed: Temperature, K = 298.15
Property: Molar enthalpy of solution, kJ/mol (Liquid); method: Calvet calorimetry
Mole fraction of cyclohexane	Molar enthalpy of solution, kJ/mol	uncertainty
0	4.6	

System: propylene glycol + benzene; phases: Liquid
Fixed: Pressure, kPa = 101
Fixed: Temperature, K = 298.15
Property: Molar enthalpy of solution, kJ/mol (Liquid); method: Calvet calorimetry
Mole fraction of benzene	Molar enthalpy of solution, kJ/mol	uncertainty
0	3	

System: propylene glycol + toluene; phases: Liquid
Fixed: Pressure, kPa = 101
Fixed: Temperature, K = 298.15
Property: Molar enthalpy of solution, kJ/mol (Liquid); method: Calvet calorimetry
Mole fraction of toluene	Molar enthalpy of solution, kJ/mol	uncertainty
0	3.51	

System: propylene glycol + ethylbenzene; phases: Liquid
Fixed: Pressure, kPa = 101
Fixed: Temperature, K = 298.15
Property: Molar enthalpy of solution, kJ/mol (Liquid); method: Calvet calorimetry
Mole fraction of ethylbenzene	Molar enthalpy of solution, kJ/mol	uncertainty
0	3.9	

System: propylene glycol + o-xylene; phases: Liquid
Fixed: Pressure, kPa = 101
Fixed: Temperature, K = 298.15
Property: Molar enthalpy of solution, kJ/mol (Liquid); method: Calvet calorimetry
Mole fraction of o-xylene	Molar enthalpy of solution, kJ/mol	uncertainty
0	4.3	

System: propylene glycol + m-xylene; phases: Liquid
Fixed: Pressure, kPa = 101
Fixed: Temperature, K = 298.15
Property: Molar enthalpy of solution, kJ/mol (Liquid); method: Calvet calorimetry
Mole fraction of m-xylene	Molar enthalpy of solution, kJ/mol	uncertainty
0	4.01	

System: propylene glycol + p-xylene; phases: Liquid
Fixed: Pressure, kPa = 101
Fixed: Temperature, K = 298.15
Property: Molar enthalpy of solution, kJ/mol (Liquid); method: Calvet calorimetry
Mole fraction of p-xylene	Molar enthalpy of solution, kJ/mol	uncertainty
0	4.01	

System: propylene glycol + fluorobenzene; phases: Liquid
Fixed: Pressure, kPa = 101
Fixed: Temperature, K = 298.15
Property: Molar enthalpy of solution, kJ/mol (Liquid); method: Calvet calorimetry
Mole fraction of fluorobenzene	Molar enthalpy of solution, kJ/mol	uncertainty
0	1.6	

System: propylene glycol + chlorobenzene; phases: Liquid
Fixed: Pressure, kPa = 101
Fixed: Temperature, K = 298.15
Property: Molar enthalpy of solution, kJ/mol (Liquid); method: Calvet calorimetry
Mole fraction of chlorobenzene	Molar enthalpy of solution, kJ/mol	uncertainty
0	2.04	

System: propylene glycol + bromobenzene; phases: Liquid
Fixed: Pressure, kPa = 101
Fixed: Temperature, K = 298.15
Property: Molar enthalpy of solution, kJ/mol (Liquid); method: Calvet calorimetry
Mole fraction of bromobenzene	Molar enthalpy of solution, kJ/mol	uncertainty
0	2.68	

System: propylene glycol + naphthalene; phases: Liquid
Fixed: Pressure, kPa = 101
Fixed: Temperature, K = 298.15
Property: Molar enthalpy of solution, kJ/mol (Liquid); method: Calvet calorimetry
Mole fraction of naphthalene	Molar enthalpy of solution, kJ/mol	uncertainty
0	21.4	

System: propylene glycol + biphenyl; phases: Liquid
Fixed: Pressure, kPa = 101
Fixed: Temperature, K = 298.15
Property: Molar enthalpy of solution, kJ/mol (Liquid); method: Calvet calorimetry
Mole fraction of biphenyl	Molar enthalpy of solution, kJ/mol	uncertainty
0	23.2	

System: methyl cellosolve + n-hexane; phases: Liquid
Fixed: Pressure, kPa = 101
Fixed: Temperature, K = 298.15
Property: Molar enthalpy of solution, kJ/mol (Liquid); method: Calvet calorimetry
Mole fraction of n-hexane	Molar enthalpy of solution, kJ/mol	uncertainty
0	6.8	

System: methyl cellosolve + n-heptane; phases: Liquid
Fixed: Pressure, kPa = 101
Fixed: Temperature, K = 298.15
Property: Molar enthalpy of solution, kJ/mol (Liquid); method: Calvet calorimetry
Mole fraction of n-heptane	Molar enthalpy of solution, kJ/mol	uncertainty
0	7.9	

System: methyl cellosolve + n-octane; phases: Liquid
Fixed: Pressure, kPa = 101
Fixed: Temperature, K = 298.15
Property: Molar enthalpy of solution, kJ/mol (Liquid); method: Calvet calorimetry
Mole fraction of n-octane	Molar enthalpy of solution, kJ/mol	uncertainty
0	8.8	

System: methyl cellosolve + n-nonane; phases: Liquid
Fixed: Pressure, kPa = 101
Fixed: Temperature, K = 298.15
Property: Molar enthalpy of solution, kJ/mol (Liquid); method: Calvet calorimetry
Mole fraction of n-nonane	Molar enthalpy of solution, kJ/mol	uncertainty
0	9.8	

System: methyl cellosolve + n-decane; phases: Liquid
Fixed: Pressure, kPa = 101
Fixed: Temperature, K = 298.15
Property: Molar enthalpy of solution, kJ/mol (Liquid); method: Calvet calorimetry
Mole fraction of n-decane	Molar enthalpy of solution, kJ/mol	uncertainty
0	10.8	

System: methyl cellosolve + cyclohexane; phases: Liquid
Fixed: Pressure, kPa = 101
Fixed: Temperature, K = 298.15
Property: Molar enthalpy of solution, kJ/mol (Liquid); method: Calvet calorimetry
Mole fraction of cyclohexane	Molar enthalpy of solution, kJ/mol	uncertainty
0	6.5	

System: benzene + methyl cellosolve; phases: Liquid
Fixed: Pressure, kPa = 101
Fixed: Temperature, K = 298.15
Property: Molar enthalpy of solution, kJ/mol (Liquid); method: Calvet calorimetry
Mole fraction of benzene	Molar enthalpy of solution, kJ/mol	uncertainty
0	.67	

System: toluene + methyl cellosolve; phases: Liquid
Fixed: Pressure, kPa = 101
Fixed: Temperature, K = 298.15
Property: Molar enthalpy of solution, kJ/mol (Liquid); method: Calvet calorimetry
Mole fraction of toluene	Molar enthalpy of solution, kJ/mol	uncertainty
0	1.22	

System: ethylbenzene + methyl cellosolve; phases: Liquid
Fixed: Pressure, kPa = 101
Fixed: Temperature, K = 298.15
Property: Molar enthalpy of solution, kJ/mol (Liquid); method: Calvet calorimetry
Mole fraction of ethylbenzene	Molar enthalpy of solution, kJ/mol	uncertainty
0	1.88	

System: o-xylene + methyl cellosolve; phases: Liquid
Fixed: Pressure, kPa = 101
Fixed: Temperature, K = 298.15
Property: Molar enthalpy of solution, kJ/mol (Liquid); method: Calvet calorimetry
Mole fraction of o-xylene	Molar enthalpy of solution, kJ/mol	uncertainty
0	2.05	

System: m-xylene + methyl cellosolve; phases: Liquid
Fixed: Pressure, kPa = 101
Fixed: Temperature, K = 298.15
Property: Molar enthalpy of solution, kJ/mol (Liquid); method: Calvet calorimetry
Mole fraction of m-xylene	Molar enthalpy of solution, kJ/mol	uncertainty
0	2.27	

System: p-xylene + methyl cellosolve; phases: Liquid
Fixed: Pressure, kPa = 101
Fixed: Temperature, K = 298.15
Property: Molar enthalpy of solution, kJ/mol (Liquid); method: Calvet calorimetry
Mole fraction of p-xylene	Molar enthalpy of solution, kJ/mol	uncertainty
0	2.03	

System: methyl cellosolve + fluorobenzene; phases: Liquid
Fixed: Pressure, kPa = 101
Fixed: Temperature, K = 298.15
Property: Molar enthalpy of solution, kJ/mol (Liquid); method: Calvet calorimetry
Mole fraction of fluorobenzene	Molar enthalpy of solution, kJ/mol	uncertainty
0	-1.36	

System: chlorobenzene + methyl cellosolve; phases: Liquid
Fixed: Pressure, kPa = 101
Fixed: Temperature, K = 298.15
Property: Molar enthalpy of solution, kJ/mol (Liquid); method: Calvet calorimetry
Mole fraction of chlorobenzene	Molar enthalpy of solution, kJ/mol	uncertainty
0	-.99	

System: bromobenzene + methyl cellosolve; phases: Liquid
Fixed: Pressure, kPa = 101
Fixed: Temperature, K = 298.15
Property: Molar enthalpy of solution, kJ/mol (Liquid); method: Calvet calorimetry
Mole fraction of bromobenzene	Molar enthalpy of solution, kJ/mol	uncertainty
0	-.7	

System: naphthalene + methyl cellosolve; phases: Liquid
Fixed: Pressure, kPa = 101
Fixed: Temperature, K = 298.15
Property: Molar enthalpy of solution, kJ/mol (Liquid); method: Calvet calorimetry
Mole fraction of naphthalene	Molar enthalpy of solution, kJ/mol	uncertainty
0	16.7	

System: biphenyl + methyl cellosolve; phases: Liquid
Fixed: Pressure, kPa = 101
Fixed: Temperature, K = 298.15
Property: Molar enthalpy of solution, kJ/mol (Liquid); method: Calvet calorimetry
Mole fraction of biphenyl	Molar enthalpy of solution, kJ/mol	uncertainty
0	18.7	

System: propylene glycol + tetrahydrofuran; phases: Liquid
Fixed: Pressure, kPa = 101
Fixed: Temperature, K = 298.15
Property: Molar enthalpy of solution, kJ/mol (Liquid); method: Calvet calorimetry
Mole fraction of tetrahydrofuran	Molar enthalpy of solution, kJ/mol	uncertainty
0	1.57	

System: methyl cellosolve + tetrahydrofuran; phases: Liquid
Fixed: Pressure, kPa = 101
Fixed: Temperature, K = 298.15
Property: Molar enthalpy of solution, kJ/mol (Liquid); method: Calvet calorimetry
Mole fraction of tetrahydrofuran	Molar enthalpy of solution, kJ/mol	uncertainty
0	1.2	

System: tetrahydrofuran + cyclohexane; phases: Liquid
Fixed: Pressure, kPa = 101
Fixed: Temperature, K = 298.15
Property: Molar enthalpy of solution, kJ/mol (Liquid); method: Calvet calorimetry
Mole fraction of tetrahydrofuran	Molar enthalpy of solution, kJ/mol	uncertainty
0	3.31	

System: acetone + tetrahydrofuran; phases: Liquid
Fixed: Pressure, kPa = 101
Fixed: Temperature, K = 298.15
Property: Molar enthalpy of solution, kJ/mol (Liquid); method: Calvet calorimetry
Mole fraction of tetrahydrofuran	Molar enthalpy of solution, kJ/mol	uncertainty
0	.62	

System: naphthalene + cyclohexane; phases: Liquid
Fixed: Pressure, kPa = 101
Fixed: Temperature, K = 298.15
Property: Molar enthalpy of solution, kJ/mol (Liquid); method: Calvet calorimetry
Mole fraction of naphthalene	Molar enthalpy of solution, kJ/mol	uncertainty
0	22.7	

System: biphenyl + cyclohexane; phases: Liquid
Fixed: Pressure, kPa = 101
Fixed: Temperature, K = 298.15
Property: Molar enthalpy of solution, kJ/mol (Liquid); method: Calvet calorimetry
Mole fraction of biphenyl	Molar enthalpy of solution, kJ/mol	uncertainty
0	23.8	

System: acetone + biphenyl; phases: Liquid
Fixed: Pressure, kPa = 101
Fixed: Temperature, K = 298.15
Property: Molar enthalpy of solution, kJ/mol (Liquid); method: Calvet calorimetry
Mole fraction of biphenyl	Molar enthalpy of solution, kJ/mol	uncertainty
0	19.3	
