Measured thermophysical data. Thermal behavior of a series of monomeric Ni(II) complexes with a-  iminoketones
Source: Thermochim. Acta, 2013, 10.1016/j.tca.2013.02.014
Compound 1: bis(4-imino-2-pentanonato)nickel, C10H16N2NiO2, purity 98%
Compound 2: bis(1,1,1-trifluoro-4-imino-2-pentanonato)nickel, C10H10F6N2NiO2, purity 98%
Compound 3: bis(1,1,1-trifluoro-4-imino-5,5-dimethyl-2-hexanonato)nickel, C16H22F6N2NiO2, purity 98%
Compound 4: bis(5-imino-2,2,6,6-tetramethyl-3-heptanonato)nickel, C22H40N2NiO2, purity 98%

System: bis(4-imino-2-pentanonato)nickel; phases: Crystal, Liquid, Air at 1 atmosphere
Property: Normal melting temperature, K (Crystal); method: Visual observation
Normal melting temperature, K	uncertainty
511.15	

System: bis(4-imino-2-pentanonato)nickel; phases: Crystal, Gas
Property: Vapor or sublimation pressure, kPa (Crystal); method: Transpiration method
Temperature, K	Vapor or sublimation pressure, kPa	uncertainty
402.65	.002533118	
433.15	.033597144	
443.15	.069727406	
453.15	.14265454	
463.15	.276109862	
463.15	.275843218	
473.15	.507823498	
473.15	.523155528	
483.15	.9665845	
493.15	1.74785142	
508.15	3.90100172	
511.15	4.81025776	
514.65	5.74884464	

System: bis(1,1,1-trifluoro-4-imino-2-pentanonato)nickel; phases: Crystal, Liquid, Air at 1 atmosphere
Property: Normal melting temperature, K (Crystal); method: Visual observation
Normal melting temperature, K	uncertainty
473.15	

System: bis(1,1,1-trifluoro-4-imino-2-pentanonato)nickel; phases: Crystal, Liquid, Air at 1 atmosphere
Property: Normal melting temperature, K (Crystal); method: DSC/DTA
Normal melting temperature, K	uncertainty
476.15	

System: bis(1,1,1-trifluoro-4-imino-2-pentanonato)nickel; phases: Crystal, Gas
Property: Vapor or sublimation pressure, kPa (Crystal); method: Transpiration method
Temperature, K	Vapor or sublimation pressure, kPa	uncertainty
373.45	.002399796	
393.15	.017731826	
403.15	.040929854	
403.15	.039596634	
423.15	.1933169	
423.15	.191850358	
433.15	.398366136	
443.15	.788066342	
443.15	.78193353	
453.15	1.45187658	

System: bis(1,1,1-trifluoro-4-imino-5,5-dimethyl-2-hexanonato)nickel; phases: Crystal, Liquid, Air at 1 atmosphere
Property: Normal melting temperature, K (Crystal); method: Visual observation
Normal melting temperature, K	uncertainty
456.15	

System: bis(1,1,1-trifluoro-4-imino-5,5-dimethyl-2-hexanonato)nickel; phases: Crystal, Liquid, Air at 1 atmosphere
Property: Normal melting temperature, K (Crystal); method: DSC/DTA
Normal melting temperature, K	uncertainty
460.15	

System: bis(1,1,1-trifluoro-4-imino-5,5-dimethyl-2-hexanonato)nickel; phases: Crystal, Gas
Property: Vapor or sublimation pressure, kPa (Crystal); method: Transpiration method
Temperature, K	Vapor or sublimation pressure, kPa	uncertainty
373.15	.002266474	
373.35	.002399796	
403.15	.034263754	
413.15	.076393506	
413.15	.07466032	
423.15	.16531928	
433.15	.336904694	
433.15	.352103402	
443.15	.693674366	
453.15	1.1932319	

System: bis(1,1,1-trifluoro-4-imino-5,5-dimethyl-2-hexanonato)nickel; phases: Liquid, Gas
Property: Vapor or sublimation pressure, kPa (Liquid); method: Transpiration method
Temperature, K	Vapor or sublimation pressure, kPa	uncertainty
463.15	2.2531418	
468.15	2.82775962	
473.15	3.21839308	
478.15	4.00499288	
482.15	4.866253	
485.15	5.63685416	
488.15	5.99949	

System: bis(5-imino-2,2,6,6-tetramethyl-3-heptanonato)nickel; phases: Crystal, Liquid, Air at 1 atmosphere
Property: Normal melting temperature, K (Crystal); method: Visual observation
Normal melting temperature, K	uncertainty
541.15	

System: bis(5-imino-2,2,6,6-tetramethyl-3-heptanonato)nickel; phases: Crystal, Gas
Property: Vapor or sublimation pressure, kPa (Crystal); method: Transpiration method
Temperature, K	Vapor or sublimation pressure, kPa	uncertainty
423.75	.0029730806	
443.15	.015198708	
453.15	.03733016	
458.15	.04999575	
463.15	.067727576	
463.15	.071060626	
473.15	.151720436	
473.15	.15132047	
483.15	.276909794	
493.15	.516756072	
493.15	.524488748	
