Measured thermophysical data. Mass spectrometric study of molecular and ionic sublimation of lanthanum triiodide
Source: Thermochim. Acta, 2015, 10.1016/j.tca.2015.09.008
Compound 1: lanthanum triiodide, I3La

System: lanthanum triiodide; phases: Crystal, Gas
Property: Vapor or sublimation pressure, kPa (Crystal); method: Knudsen effusion method
Temperature, K	Vapor or sublimation pressure, kPa	uncertainty
905	.000017	.00000085
884	.0000071	.000000355
869	.0000035	.000000175
862	.0000025	.000000125
845	.0000011	.000000055
827	.00000047	.0000000235
875	.0000047	.000000235
910	.000022	.0000011
910	.0000089	.000000445
921	.000034	.0000017
921	.000016	.0000008
937	.000065	.00000325
937	.00004	.000002
943	.000081	.00000405
943	.000054	.0000027
953	.00012	.000006
953	.000091	.00000455
962	.00017	.0000085
962	.00014	.000007
978	.00031	.0000155
978	.00033	.0000165
