Measured thermophysical data. A comparative study on two explosive acetone peroxides
Source: Thermochim. Acta, 2013, 10.1016/j.tca.2013.08.009
Compound 1: TATP, C9H18O6, purity 98%
Compound 2: DADP, C6H12O4, purity 98%

System: TATP; phases: Crystal, Liquid, Air at 1 atmosphere
Property: Normal melting temperature, K (Crystal); method: Visual observation
Normal melting temperature, K	uncertainty
370.15	

System: TATP; phases: Crystal, Gas
Property: Vapor or sublimation pressure, kPa (Crystal); method: Closed cell (Static) method
Temperature, K	Vapor or sublimation pressure, kPa	uncertainty
348.15	.466627	.0466627
353.15	.66661	.066661
353.15	.799932	.0799932
358.15	1.133237	.1133237
363.15	1.533203	.1533203
363.15	2.133152	.2133152
367.15	2.599779	.2599779

System: TATP; phases: Liquid, Gas
Property: Vapor or sublimation pressure, kPa (Liquid); method: Closed cell (Static) method
Temperature, K	Vapor or sublimation pressure, kPa	uncertainty
371.65	2.799762	
371.65	3.266389	
372.15	3.666355	
373.65	3.932999	
378.65	4.799592	
379.65	4.866253	
383.65	5.866168	
383.75	6.066151	
384.15	5.599524	
387.95	6.799422	
390.15	6.732761	
393.15	8.265964	
393.15	8.66593	
394.15	8.865913	
397.05	10.199133	
398.15	11.399031	
399.15	10.799082	
401.65	12.532268	
405.85	15.398691	
410.35	19.065046	
415.85	23.597994	

System: DADP; phases: Crystal, Liquid, Air at 1 atmosphere
Property: Normal melting temperature, K (Crystal); method: Visual observation
Normal melting temperature, K	uncertainty
406.15	

System: DADP; phases: Crystal, Gas
Property: Vapor or sublimation pressure, kPa (Crystal); method: Closed cell (Static) method
Temperature, K	Vapor or sublimation pressure, kPa	uncertainty
340.65	1.133237	.1133237
343.15	1.399881	.1399881
343.15	1.666525	.1666525
343.65	1.7065216	.17065216
343.65	1.199898	.1199898
346.15	1.666525	.1666525
349.65	2.333135	.2333135
350.65	1.99983	.199983
351.15	2.5064536	.25064536
353.15	3.33305	.333305
355.15	3.33305	.333305
357.65	4.2129752	.42129752
358.15	3.99966	.399966
358.65	4.466287	.4466287
361.15	5.4928664	.54928664
363.15	6.466117	.6466117
367.65	7.8793302	.78793302
371.65	10.932404	1.0932404
378.15	16.865233	1.6865233
383.45	22.398096	2.2398096
387.45	27.264349	2.7264349
392.95	34.66372	3.466372
