Measured thermophysical data. Solid-liquid equilibria of three binary systems of anthracene with 2-phenylimidazole, 4,5-  diphenylimidazole and 2,4,5-triphenylimidazole
Source: Thermochim. Acta, 2012, 10.1016/j.tca.2012.04.032
Compound 1: anthracene, C14H10, purity 99%
Compound 2: 2-phenylimidazole, C9H8N2, purity 98%
Compound 3: 4,5-diphenylimidazole, C15H12N2, purity 98%
Compound 4: imidazole, 2,4,5-triphenyl-, C21H16N2, purity 98%

System: anthracene; phases: Crystal, Liquid, Air at 1 atmosphere
Property: Triple point temperature, K (Crystal); method: DSC/DTA
Triple point temperature, K	uncertainty
487.75	.300000000000011

System: anthracene; phases: Crystal, Liquid, Air at 1 atmosphere
Property: Molar enthalpy of transition or fusion, kJ/mol (Crystal); method: DSC/DTA
Molar enthalpy of transition or fusion, kJ/mol	uncertainty
25.51	.1

System: 2-phenylimidazole; phases: Crystal, Liquid, Air at 1 atmosphere
Property: Triple point temperature, K (Crystal); method: DSC/DTA
Triple point temperature, K	uncertainty
419.95	.300000000000011

System: 2-phenylimidazole; phases: Crystal, Liquid, Air at 1 atmosphere
Property: Molar enthalpy of transition or fusion, kJ/mol (Crystal); method: DSC/DTA
Molar enthalpy of transition or fusion, kJ/mol	uncertainty
17.81	.1

System: 4,5-diphenylimidazole; phases: Crystal, Liquid, Air at 1 atmosphere
Property: Triple point temperature, K (Crystal); method: DSC/DTA
Triple point temperature, K	uncertainty
504.95	.300000000000011

System: 4,5-diphenylimidazole; phases: Crystal, Liquid, Air at 1 atmosphere
Property: Molar enthalpy of transition or fusion, kJ/mol (Crystal); method: DSC/DTA
Molar enthalpy of transition or fusion, kJ/mol	uncertainty
32.34	.1

System: imidazole, 2,4,5-triphenyl-; phases: Crystal, Liquid, Air at 1 atmosphere
Property: Triple point temperature, K (Crystal); method: DSC/DTA
Triple point temperature, K	uncertainty
550.95	.300000000000011

System: imidazole, 2,4,5-triphenyl-; phases: Crystal, Liquid, Air at 1 atmosphere
Property: Molar enthalpy of transition or fusion, kJ/mol (Crystal); method: DSC/DTA
Molar enthalpy of transition or fusion, kJ/mol	uncertainty
37.31	.1

System: anthracene + 2-phenylimidazole; phases: Liquid, Liquid, Crystal, Crystal
Fixed: Pressure, kPa = 101.325
Property: Eutectic temperature, K (Liquid); method: DSC/DTA
Eutectic temperature, K	uncertainty
409.45	.300000000000011

System: anthracene + 2-phenylimidazole; phases: Liquid, Crystal
Fixed: Pressure, kPa = 101
Property: Solid-liquid equilibrium temperature, K (Liquid); method: DSC/DTA
Mole fraction of anthracene	Solid-liquid equilibrium temperature, K	uncertainty
.0173	418.55	.300000000000011

System: anthracene + 2-phenylimidazole; phases: Liquid, Crystal
Fixed: Pressure, kPa = 101
Property: Solid-liquid equilibrium temperature, K (Liquid); method: DSC/DTA
Mole fraction of anthracene	Solid-liquid equilibrium temperature, K	uncertainty
.1198	424.45	.300000000000011
.1569	433.15	.300000000000011
.2055	445.35	.300000000000011
.2868	456.05	.300000000000011
.3419	461.15	.300000000000011
.389	465.65	.300000000000011
.4241	467.85	.300000000000011
.5219	473.25	.300000000000011
.6336	477.85	.300000000000011
.7449	480.45	.300000000000011
.7823	481.95	.300000000000011
.863	484.25	.300000000000011
.8959	485.75	.300000000000011
.9448	486.45	.300000000000011

System: anthracene + 4,5-diphenylimidazole; phases: Liquid, Liquid, Crystal, Crystal
Fixed: Pressure, kPa = 101.325
Property: Eutectic temperature, K (Liquid); method: DSC/DTA
Eutectic temperature, K	uncertainty
462.55	.300000000000011

System: anthracene + 4,5-diphenylimidazole; phases: Liquid, Crystal
Fixed: Pressure, kPa = 101
Property: Solid-liquid equilibrium temperature, K (Liquid); method: DSC/DTA
Mole fraction of anthracene	Solid-liquid equilibrium temperature, K	uncertainty
.0513	500.15	.300000000000011
.1004	496.55	.300000000000011
.1362	493.85	.300000000000011
.2239	487.05	.300000000000011
.3123	479.35	.300000000000011
.3668	474.95	.300000000000011
.4321	469.25	.300000000000011

System: anthracene + 4,5-diphenylimidazole; phases: Liquid, Crystal
Fixed: Pressure, kPa = 101
Property: Solid-liquid equilibrium temperature, K (Liquid); method: DSC/DTA
Mole fraction of anthracene	Solid-liquid equilibrium temperature, K	uncertainty
.5911	469.05	.300000000000011
.6994	473.75	.300000000000011
.756	476.95	.300000000000011
.8391	480.25	.300000000000011
.8861	482.05	.300000000000011
.9306	484.25	.300000000000011

System: anthracene + imidazole, 2,4,5-triphenyl-; phases: Liquid, Liquid, Crystal, Crystal
Fixed: Pressure, kPa = 101.325
Property: Eutectic temperature, K (Liquid); method: DSC/DTA
Eutectic temperature, K	uncertainty
473.05	.300000000000011

System: anthracene + imidazole, 2,4,5-triphenyl-; phases: Liquid, Crystal
Fixed: Pressure, kPa = 101
Property: Solid-liquid equilibrium temperature, K (Liquid); method: DSC/DTA
Mole fraction of anthracene	Solid-liquid equilibrium temperature, K	uncertainty
.9496	483.85	.300000000000011

System: anthracene + imidazole, 2,4,5-triphenyl-; phases: Liquid, Crystal
Fixed: Pressure, kPa = 101
Property: Solid-liquid equilibrium temperature, K (Liquid); method: DSC/DTA
Mole fraction of anthracene	Solid-liquid equilibrium temperature, K	uncertainty
.1551	540.75	.300000000000011
.2722	532.15	.300000000000011
.325	528.95	.300000000000011
.4236	523.05	.300000000000011
.524	513.75	.300000000000011
.6269	502.85	.300000000000011
.6897	496.45	.300000000000011
.7575	486.15	.300000000000011
