Measured thermophysical data. Enthalpies of solution of glycylglycine and diglycylglycine  in aqueous alcohols at 298.15K
Source: Thermochim. Acta, 2008
Compound 1: glycylglycine, C4H8N2O3
Compound 2: glycylglycylglycine, C6H11N3O4
Compound 3: water, H2O
Compound 4: ethanol, C2H6O
Compound 5: 1-propanol, C3H8O
Compound 6: 2-propanol, C3H8O

System: ethanol + glycylglycine + water; phases: Liquid
Fixed: Temperature, K = 298.15
Fixed: Pressure, kPa = 101
Fixed: Molality, mol/kg of glycylglycine = .01
Property: Molar enthalpy of solution, kJ/mol (Liquid); method: Isoperibol calorimetry
Solvent: Molality, mol/kg of ethanol	Molar enthalpy of solution, kJ/mol	uncertainty
.769	12.21	.02
1.797	13.64	.02
4.279	15.47	.02
7.355	18.17	.03
9.407	19.45	.04
11.457	19.89	.03
14.271	20.23	.03
17.087	19.59	.03
19.88	17.96	.04
22.14	15.01	.04

System: 1-propanol + glycylglycine + water; phases: Liquid
Fixed: Temperature, K = 298.15
Fixed: Pressure, kPa = 101
Fixed: Molality, mol/kg of glycylglycine = .01
Property: Molar enthalpy of solution, kJ/mol (Liquid); method: Isoperibol calorimetry
Solvent: Molality, mol/kg of 1-propanol	Molar enthalpy of solution, kJ/mol	uncertainty
.749	12.48	.02
1.451	14.06	.02
3.236	15.89	.03
4.342	16.97	.04
5.736	17.83	.03
7.096	18.77	.05
8.932	19.69	.03
10.812	19.54	.03
13.301	18.55	.02
16.206	16.7	.03

System: 2-propanol + glycylglycine + water; phases: Liquid
Fixed: Temperature, K = 298.15
Fixed: Pressure, kPa = 101
Fixed: Molality, mol/kg of glycylglycine = .01
Property: Molar enthalpy of solution, kJ/mol (Liquid); method: Isoperibol calorimetry
Solvent: Molality, mol/kg of 2-propanol	Molar enthalpy of solution, kJ/mol	uncertainty
.772	13.01	.02
1.316	15.19	.02
3.18	18.16	.02
4.397	19.56	.04
5.515	20.75	.03
6.901	21.76	.03
8.566	22.35	.04
10.743	21.58	.04
12.988	18.52	.04
16.21	12.53	.04

System: ethanol + glycylglycylglycine + water; phases: Liquid
Fixed: Temperature, K = 298.15
Fixed: Pressure, kPa = 101
Fixed: Molality, mol/kg of glycylglycylglycine = .01
Property: Molar enthalpy of solution, kJ/mol (Liquid); method: Isoperibol calorimetry
Solvent: Molality, mol/kg of ethanol	Molar enthalpy of solution, kJ/mol	uncertainty
.769	18.13	.02
1.797	18.69	.02
4.279	20.38	.02
7.355	22.82	.03
9.407	24.56	.04
11.457	25.41	.03
14.271	26.14	.03
17.087	24.45	.03
19.88	22.45	.04
22.14	18.16	.04

System: 1-propanol + glycylglycylglycine + water; phases: Liquid
Fixed: Temperature, K = 298.15
Fixed: Pressure, kPa = 101
Fixed: Molality, mol/kg of glycylglycylglycine = .01
Property: Molar enthalpy of solution, kJ/mol (Liquid); method: Isoperibol calorimetry
Solvent: Molality, mol/kg of 1-propanol	Molar enthalpy of solution, kJ/mol	uncertainty
.749	18.48	.02
1.451	19.34	.02
3.236	20.95	.03
4.342	21.93	.04
5.736	23.24	.03
7.096	24.81	.04
8.932	25.77	.03
10.812	26.19	.03
13.301	24.64	.03
16.206	22.47	.03

System: 2-propanol + glycylglycylglycine + water; phases: Liquid
Fixed: Temperature, K = 298.15
Fixed: Pressure, kPa = 101
Fixed: Molality, mol/kg of glycylglycylglycine = .01
Property: Molar enthalpy of solution, kJ/mol (Liquid); method: Isoperibol calorimetry
Solvent: Molality, mol/kg of 2-propanol	Molar enthalpy of solution, kJ/mol	uncertainty
.772	18.91	.02
1.316	19.87	.02
3.18	21.84	.02
4.397	23.09	.04
5.515	24.83	.03
6.901	26.12	.03
8.566	27.27	.04
10.743	26.5	.04
12.988	24.92	.05
16.21	20.48	.04
