Measured thermophysical data. Study of thermal stability and acoustic fingerprint spectra of phenyl and benzyl triazole derivatives using time resolved pulsed photoacoustic pyro analysis technique
Source: Thermochim. Acta, 2015, 10.1016/j.tca.2015.06.020
Compound 1: 1-(4-methoxy-3,5-dinitrobenzyl)-1H-1,2,3-triazole, C10H9N5O5, purity 97%
Compound 2: 1-(3-methoxy-2,6-dinitrophenyl)-1H-1,2,3-triazole, C9H7N5O5, purity 97%

System: 1-(4-methoxy-3,5-dinitrobenzyl)-1H-1,2,3-triazole; phases: Crystal, Liquid, Air at 1 atmosphere
Property: Normal melting temperature, K (Crystal); method: DSC/DTA
Normal melting temperature, K	uncertainty
363.28	

System: 1-(3-methoxy-2,6-dinitrophenyl)-1H-1,2,3-triazole; phases: Crystal, Liquid, Air at 1 atmosphere
Property: Normal melting temperature, K (Crystal); method: DSC/DTA
Normal melting temperature, K	uncertainty
442.11	
