Measured thermophysical data. Excess molar volumes and excess isentropic compressibilities  of 2-pyrrolidinone at 308.15K
Source: Thermochim. Acta, 2009, 10.1016/j.tca.2009.07.017
Compound 1: 2-pyrrolidinone, C4H7NO, purity 99%
Compound 2: benzene, C6H6, purity 99%
Compound 3: toluene, C7H8, purity 99%
Compound 4: 1,4-dimethylbenzene, C8H10, purity 99%
Compound 5: 1,2-dimethylbenzene, C8H10, purity 99%

System: benzene + toluene + 2-pyrrolidinone; phases: Liquid
Fixed: Temperature, K = 308.15
Fixed: Pressure, kPa = 101
Property: Speed of sound, m/s (Liquid); method: Linear variable-path acoustic interferometer
Mole fraction of 2-pyrrolidinone	Mole fraction of benzene	Speed of sound, m/s	uncertainty
.0594	.8759	1271	1
.0975	.8264	1272	1
.1181	.6545	1275	1
.1307	.5812	1277	1
.1657	.2765	1290	1
.1894	.2998	1286	1
.1905	.6631	1302	1
.2193	.3151	1290	1
.2615	.4351	1311	1
.2756	.2415	1300	1
.3074	.2256	1330	1
.3159	.5548	1310	1
.3261	.5835	1352	1
.3493	.2014	1315	1
.3596	.5162	1359	1
.4152	.1763	1330	1
.4532	.5121	1398	1
.5153	.1232	1355	1
.5844	.0961	1376	1
.6276	.0758	1391	1
.6608	.1514	1446	1
.7065	.0542	1421	1
.7324	.0417	1480	1
.7619	.0498	1447	1
.7995	.0728	1505	1
.8537	.0515	1497	1

System: benzene + toluene + 2-pyrrolidinone; phases: Liquid
Fixed: Pressure, kPa = 101
Fixed: Temperature, K = 308.15
Property: Excess molar volume, m3/mol (Liquid); method: Direct dilatometry
Mole fraction of 2-pyrrolidinone	Mole fraction of benzene	Excess molar volume, m3/mol	uncertainty
.0648	.8352	-.000000121	-.000000000605
.0759	.0464	-.000000095	-.000000000475
.1027	.7635	-.000000206	-.00000000103
.1198	.0401	-.000000164	-.00000000082
.1261	.4663	-.000000159	-.000000000795
.1315	.0527	-.000000178	-.00000000089
.1393	.1982	-.000000145	-.000000000725
.1691	.5517	-.000000295	-.000000001475
.1837	.6653	-.000000415	-.000000002075
.2089	.3642	-.000000249	-.000000001245
.2334	.4632	-.000000381	-.000000001905
.2463	.2684	-.00000028	-.0000000014
.2515	.0476	-.00000037	-.00000000185
.2997	.1359	-.000000396	-.00000000198
.3073	.6133	-.000000685	-.000000003425
.3605	.5646	-.000000763	-.000000003815
.3974	.5675	-.000000716	-.00000000358
.4032	.1068	-.000000528	-.00000000264
.412	.5136	-.000000812	-.00000000406
.4753	.3729	-.000000745	-.000000003725
.5146	.4395	-.000000778	-.00000000389
.5279	.3387	-.000000737	-.000000003685
.5342	.3824	-.000000799	-.000000003995
.5794	.0698	-.000000594	-.00000000297
.6148	.3145	-.000000709	-.000000003545
.647	.2895	-.000000665	-.000000003325
.6897	.2128	-.000000556	-.00000000278
.7086	.2179	-.000000551	-.000000002755
.8429	.0567	-.000000316	-.00000000158
.8972	.062	-.000000218	-.00000000109

System: benzene + 1,2-dimethylbenzene + 2-pyrrolidinone; phases: Liquid
Fixed: Temperature, K = 308.15
Fixed: Pressure, kPa = 101
Property: Speed of sound, m/s (Liquid); method: Linear variable-path acoustic interferometer
Mole fraction of 2-pyrrolidinone	Mole fraction of benzene	Speed of sound, m/s	uncertainty
.0545	.8579	1274	1
.0917	.7053	1288	1
.1542	.3947	1315	1
.1572	.6742	1305	1
.1669	.5311	1307	1
.1823	.5562	1316	1
.2195	.4534	1318	1
.2456	.6272	1325	1
.2861	.2842	1338	1
.3252	.5048	1348	1
.3586	.3054	1347	1
.3818	.2522	1381	1
.4219	.2137	1364	1
.4649	.1796	1375	1
.4872	.1153	1406	1
.5032	.1427	1415	1
.5373	.1578	1392	1
.5764	.1526	1402	1
.6058	.1294	1411	1
.6356	.0432	1454	1
.6947	.1081	1439	1
.7513	.0904	1461	1
.7778	.1215	1513	1
.8031	.0727	1483	1
.8207	.0438	1526	1
.8612	.05	1512	1
.901	.0472	1535	1

System: benzene + 1,2-dimethylbenzene + 2-pyrrolidinone; phases: Liquid
Fixed: Pressure, kPa = 101
Fixed: Temperature, K = 308.15
Property: Excess molar volume, m3/mol (Liquid); method: Direct dilatometry
Mole fraction of 2-pyrrolidinone	Mole fraction of benzene	Excess molar volume, m3/mol	uncertainty
.1175	.745	-.000000112	-.00000000056
.1716	.5099	-.00000004	-.0000000002
.2141	.5513	-.000000195	-.000000000975
.2456	.5095	-.000000228	-.00000000114
.2723	.128	-.000000091	-.000000000455
.2943	.4875	-.000000327	-.000000001635
.3225	.5288	-.000000464	-.00000000232
.3384	.5496	-.000000519	-.000000002595
.3464	.1667	-.000000104	-.00000000052
.3751	.4683	-.000000494	-.00000000247
.4302	.3636	-.000000423	-.000000002115
.4421	.4889	-.00000062	-.0000000031
.4584	.4307	-.000000591	-.000000002955
.4891	.1154	-.000000241	-.000000001205
.5099	.1169	-.00000025	-.00000000125
.5394	.3265	-.00000053	-.00000000265
.5486	.0928	-.000000297	-.000000001485
.5702	.1152	-.000000288	-.00000000144
.6168	.257	-.000000482	-.00000000241
.654	.1298	-.000000333	-.000000001665
.6713	.1137	-.000000331	-.000000001655
.6966	.1893	-.000000414	-.00000000207
.7432	.1824	-.000000412	-.00000000206
.7739	.1358	-.000000349	-.000000001745
.7983	.1292	-.000000334	-.00000000167
.8246	.0986	-.000000291	-.000000001455
.8549	.0872	-.000000257	-.000000001285
.8865	.0669	-.00000021	-.00000000105

System: benzene + 1,4-dimethylbenzene + 2-pyrrolidinone; phases: Liquid
Fixed: Temperature, K = 308.15
Fixed: Pressure, kPa = 101
Property: Speed of sound, m/s (Liquid); method: Linear variable-path acoustic interferometer
Mole fraction of 2-pyrrolidinone	Mole fraction of benzene	Speed of sound, m/s	uncertainty
.0588	.6391	1281	1
.0726	.6394	1276	1
.0972	.5615	1300	1
.1287	.6145	1285	1
.1712	.5655	1293	1
.1849	.7168	1372	1
.2198	.4865	1302	1
.2573	.0423	1322	1
.2976	.4119	1315	1
.3455	.5746	1527	1
.3653	.3691	1329	1
.3942	.5493	1538	1
.4273	.3299	1343	1
.4834	.2916	1356	1
.5376	.2603	1370	1
.5686	.2414	1379	1
.5974	.2243	1388	1
.6016	.3845	1505	1
.6471	.1839	1479	1
.6709	.3187	1511	1
.7218	.1477	1432	1
.7524	.127	1445	1
.7781	.1098	1517	1
.8044	.0915	1469	1
.8351	.0691	1484	1
.8725	.0494	1506	1
.9112	.0341	1564	1

System: benzene + 1,4-dimethylbenzene + 2-pyrrolidinone; phases: Liquid
Fixed: Pressure, kPa = 101
Fixed: Temperature, K = 308.15
Property: Excess molar volume, m3/mol (Liquid); method: Direct dilatometry
Mole fraction of 2-pyrrolidinone	Mole fraction of benzene	Excess molar volume, m3/mol	uncertainty
.0489	.8862	-.000000049	-.000000000245
.0585	.8658	-.000000058	-.00000000029
.0947	.0625	-.00000011	-.00000000055
.1103	.7712	-.00000011	-.00000000055
.1592	.4564	-.000000107	-.000000000535
.1951	.1511	-.000000232	-.00000000116
.2141	.3554	-.000000208	-.00000000104
.2593	.6214	-.000000266	-.00000000133
.2719	.1251	-.000000345	-.000000001725
.3065	.2341	-.000000362	-.00000000181
.3326	.3945	-.000000338	-.00000000169
.3849	.5003	-.000000347	-.000000001735
.429	.4008	-.000000383	-.000000001915
.4387	.2134	-.000000475	-.000000002375
.4682	.3692	-.000000405	-.000000002025
.4948	.2483	-.000000478	-.00000000239
.5488	.1675	-.000000515	-.000000002575
.5941	.2069	-.000000483	-.000000002415
.6012	.211	-.000000478	-.00000000239
.6519	.1196	-.000000495	-.000000002475
.7032	.0876	-.000000465	-.000000002325
.7685	.1306	-.000000371	-.000000001855
.8143	.0495	-.000000335	-.000000001675
.8471	.0727	-.000000278	-.00000000139
.8623	.0518	-.000000261	-.000000001305
.8878	.0637	-.000000212	-.00000000106
.8909	.0475	-.000000208	-.00000000104
.9432	.0339	-.000000113	-.000000000565
