Measured thermophysical data. Enthalpies of solution and enthalpies of solvation of organic solutes in ethylene glycol at 298.15 K: Prediction and analysis of intermolecular interaction contributions
Source: Thermochim. Acta, 2017, 10.1016/j.tca.2016.12.015
Compound 1: ethylene glycol, C2H6O2, purity 99%
Compound 2: acetone, C3H6O, purity 99.5%
Compound 3: butanone, C4H8O, purity 99.5%
Compound 4: 2-pentanone, C5H10O, purity 99.5%
Compound 5: 2-heptanone, C7H14O, purity 99%
Compound 6: methyl acetate, C3H6O2, purity 99.5%
Compound 7: ethyl acetate, C4H8O2, purity 99.7%
Compound 8: propyl acetate, C5H10O2, purity 99%
Compound 9: butyl acetate, C6H12O2, purity 99%
Compound 10: tetrahydrofuran, C4H8O, purity 99%
Compound 11: 1,4-dioxane, C4H8O2, purity 99.5%
Compound 12: diethyl ether, C4H10O, purity 99%
Compound 13: acetonitrile, C2H3N, purity 99.5%
Compound 14: propionitrile, C3H5N, purity 99%
Compound 15: butyronitrile, C4H7N, purity 99%
Compound 16: pyridine, C5H5N, purity 99.8%
Compound 17: 2-methylpyridine, C6H7N, purity 98%
Compound 18: 3-methylpyridine, C6H7N, purity 99%
Compound 19: 4-methylpyridine, C6H7N, purity 99%
Compound 20: n-butylamine, C4H11N, purity 99%
Compound 21: sec-butylamine, C4H11N, purity 99%
Compound 22: tert-butylamine, C4H11N, purity 99.5%
Compound 23: n-hexylamine, C6H15N, purity 99%
Compound 24: piperidine, C5H11N, purity 99%
Compound 25: diethylamine, C4H11N, purity 99.5%
Compound 26: dipropylamine, C6H15N, purity 99%
Compound 27: dibutylamine, C8H19N, purity 99%
Compound 28: triethylamine, C6H15N, purity 99%
Compound 29: acetophenone, C8H8O, purity 99%

System: acetone + ethylene glycol; phases: Liquid
Fixed: Pressure, kPa = 100
Fixed: Temperature, K = 298.15
Property: Molar enthalpy of solution, kJ/mol (Liquid); method: Titration calorimetry
Mole fraction of acetone	Molar enthalpy of solution, kJ/mol	uncertainty
0	2.53	

System: butanone + ethylene glycol; phases: Liquid
Fixed: Pressure, kPa = 100
Fixed: Temperature, K = 298.15
Property: Molar enthalpy of solution, kJ/mol (Liquid); method: Titration calorimetry
Mole fraction of butanone	Molar enthalpy of solution, kJ/mol	uncertainty
0	3.42	

System: ethylene glycol + 2-pentanone; phases: Liquid
Fixed: Pressure, kPa = 100
Fixed: Temperature, K = 298.15
Property: Molar enthalpy of solution, kJ/mol (Liquid); method: Titration calorimetry
Mole fraction of 2-pentanone	Molar enthalpy of solution, kJ/mol	uncertainty
0	4.6	

System: ethylene glycol + 2-heptanone; phases: Liquid
Fixed: Pressure, kPa = 100
Fixed: Temperature, K = 298.15
Property: Molar enthalpy of solution, kJ/mol (Liquid); method: Titration calorimetry
Mole fraction of 2-heptanone	Molar enthalpy of solution, kJ/mol	uncertainty
0	6.13	

System: methyl acetate + ethylene glycol; phases: Liquid
Fixed: Pressure, kPa = 100
Fixed: Temperature, K = 298.15
Property: Molar enthalpy of solution, kJ/mol (Liquid); method: Titration calorimetry
Mole fraction of methyl acetate	Molar enthalpy of solution, kJ/mol	uncertainty
0	3.46	

System: ethylene glycol + ethyl acetate; phases: Liquid
Fixed: Pressure, kPa = 100
Fixed: Temperature, K = 298.15
Property: Molar enthalpy of solution, kJ/mol (Liquid); method: Titration calorimetry
Mole fraction of ethyl acetate	Molar enthalpy of solution, kJ/mol	uncertainty
0	3.87	

System: ethylene glycol + propyl acetate; phases: Liquid
Fixed: Pressure, kPa = 100
Fixed: Temperature, K = 298.15
Property: Molar enthalpy of solution, kJ/mol (Liquid); method: Titration calorimetry
Mole fraction of propyl acetate	Molar enthalpy of solution, kJ/mol	uncertainty
0	4.84	

System: ethylene glycol + butyl acetate; phases: Liquid
Fixed: Pressure, kPa = 100
Fixed: Temperature, K = 298.15
Property: Molar enthalpy of solution, kJ/mol (Liquid); method: Titration calorimetry
Mole fraction of butyl acetate	Molar enthalpy of solution, kJ/mol	uncertainty
0	5.64	

System: ethylene glycol + tetrahydrofuran; phases: Liquid
Fixed: Pressure, kPa = 100
Fixed: Temperature, K = 298.15
Property: Molar enthalpy of solution, kJ/mol (Liquid); method: Titration calorimetry
Mole fraction of tetrahydrofuran	Molar enthalpy of solution, kJ/mol	uncertainty
0	.68	

System: ethylene glycol + 1,4-dioxane; phases: Liquid
Fixed: Pressure, kPa = 100
Fixed: Temperature, K = 298.15
Property: Molar enthalpy of solution, kJ/mol (Liquid); method: Titration calorimetry
Mole fraction of 1,4-dioxane	Molar enthalpy of solution, kJ/mol	uncertainty
0	3.5	

System: diethyl ether + ethylene glycol; phases: Liquid
Fixed: Pressure, kPa = 100
Fixed: Temperature, K = 298.15
Property: Molar enthalpy of solution, kJ/mol (Liquid); method: Titration calorimetry
Mole fraction of diethyl ether	Molar enthalpy of solution, kJ/mol	uncertainty
0	1.56	

System: acetonitrile + ethylene glycol; phases: Liquid
Fixed: Pressure, kPa = 100
Fixed: Temperature, K = 298.15
Property: Molar enthalpy of solution, kJ/mol (Liquid); method: Titration calorimetry
Mole fraction of acetonitrile	Molar enthalpy of solution, kJ/mol	uncertainty
0	3.71	

System: propionitrile + ethylene glycol; phases: Liquid
Fixed: Pressure, kPa = 100
Fixed: Temperature, K = 298.15
Property: Molar enthalpy of solution, kJ/mol (Liquid); method: Titration calorimetry
Mole fraction of propionitrile	Molar enthalpy of solution, kJ/mol	uncertainty
0	4.1	

System: ethylene glycol + butyronitrile; phases: Liquid
Fixed: Pressure, kPa = 100
Fixed: Temperature, K = 298.15
Property: Molar enthalpy of solution, kJ/mol (Liquid); method: Titration calorimetry
Mole fraction of butyronitrile	Molar enthalpy of solution, kJ/mol	uncertainty
0	4.69	

System: ethylene glycol + pyridine; phases: Liquid
Fixed: Pressure, kPa = 100
Fixed: Temperature, K = 298.15
Property: Molar enthalpy of solution, kJ/mol (Liquid); method: Titration calorimetry
Mole fraction of pyridine	Molar enthalpy of solution, kJ/mol	uncertainty
0	-5.35	

System: ethylene glycol + 2-methylpyridine; phases: Liquid
Fixed: Pressure, kPa = 100
Fixed: Temperature, K = 298.15
Property: Molar enthalpy of solution, kJ/mol (Liquid); method: Titration calorimetry
Mole fraction of 2-methylpyridine	Molar enthalpy of solution, kJ/mol	uncertainty
0	-6.78	

System: ethylene glycol + 3-methylpyridine; phases: Liquid
Fixed: Pressure, kPa = 100
Fixed: Temperature, K = 298.15
Property: Molar enthalpy of solution, kJ/mol (Liquid); method: Titration calorimetry
Mole fraction of 3-methylpyridine	Molar enthalpy of solution, kJ/mol	uncertainty
0	-5.41	

System: ethylene glycol + 4-methylpyridine; phases: Liquid
Fixed: Pressure, kPa = 100
Fixed: Temperature, K = 298.15
Property: Molar enthalpy of solution, kJ/mol (Liquid); method: Titration calorimetry
Mole fraction of 4-methylpyridine	Molar enthalpy of solution, kJ/mol	uncertainty
0	-5.87	

System: ethylene glycol + n-butylamine; phases: Liquid
Fixed: Pressure, kPa = 100
Fixed: Temperature, K = 298.15
Property: Molar enthalpy of solution, kJ/mol (Liquid); method: Titration calorimetry
Mole fraction of n-butylamine	Molar enthalpy of solution, kJ/mol	uncertainty
0	-17.58	

System: ethylene glycol + sec-butylamine; phases: Liquid
Fixed: Pressure, kPa = 100
Fixed: Temperature, K = 298.15
Property: Molar enthalpy of solution, kJ/mol (Liquid); method: Titration calorimetry
Mole fraction of sec-butylamine	Molar enthalpy of solution, kJ/mol	uncertainty
0	-16.51	

System: tert-butylamine + ethylene glycol; phases: Liquid
Fixed: Pressure, kPa = 100
Fixed: Temperature, K = 298.15
Property: Molar enthalpy of solution, kJ/mol (Liquid); method: Titration calorimetry
Mole fraction of tert-butylamine	Molar enthalpy of solution, kJ/mol	uncertainty
0	-19.27	

System: ethylene glycol + n-hexylamine; phases: Liquid
Fixed: Pressure, kPa = 100
Fixed: Temperature, K = 298.15
Property: Molar enthalpy of solution, kJ/mol (Liquid); method: Titration calorimetry
Mole fraction of n-hexylamine	Molar enthalpy of solution, kJ/mol	uncertainty
0	-14.57	

System: ethylene glycol + piperidine; phases: Liquid
Fixed: Pressure, kPa = 100
Fixed: Temperature, K = 298.15
Property: Molar enthalpy of solution, kJ/mol (Liquid); method: Titration calorimetry
Mole fraction of piperidine	Molar enthalpy of solution, kJ/mol	uncertainty
0	-13.2	

System: ethylene glycol + diethylamine; phases: Liquid
Fixed: Pressure, kPa = 100
Fixed: Temperature, K = 298.15
Property: Molar enthalpy of solution, kJ/mol (Liquid); method: Titration calorimetry
Mole fraction of diethylamine	Molar enthalpy of solution, kJ/mol	uncertainty
0	-16	

System: ethylene glycol + dipropylamine; phases: Liquid
Fixed: Pressure, kPa = 100
Fixed: Temperature, K = 298.15
Property: Molar enthalpy of solution, kJ/mol (Liquid); method: Titration calorimetry
Mole fraction of dipropylamine	Molar enthalpy of solution, kJ/mol	uncertainty
0	-14.94	

System: ethylene glycol + dibutylamine; phases: Liquid
Fixed: Pressure, kPa = 100
Fixed: Temperature, K = 298.15
Property: Molar enthalpy of solution, kJ/mol (Liquid); method: Titration calorimetry
Mole fraction of dibutylamine	Molar enthalpy of solution, kJ/mol	uncertainty
0	-13	

System: ethylene glycol + triethylamine; phases: Liquid
Fixed: Pressure, kPa = 100
Fixed: Temperature, K = 298.15
Property: Molar enthalpy of solution, kJ/mol (Liquid); method: Titration calorimetry
Mole fraction of triethylamine	Molar enthalpy of solution, kJ/mol	uncertainty
0	-12.59	

System: acetophenone + ethylene glycol; phases: Liquid
Fixed: Pressure, kPa = 100
Fixed: Temperature, K = 298.15
Property: Molar enthalpy of solution, kJ/mol (Liquid); method: Titration calorimetry
Mole fraction of acetophenone	Molar enthalpy of solution, kJ/mol	uncertainty
0	4.79	
