Measured thermophysical data. 5-Isopropylbarbituric and 2-thiobarbituric acids: An experimentaland computational study
Source: Thermochim. Acta, 2016, 10.1016/j.tca.2015.12.007
Compound 1: 5-isopropylbarbituric acid, C7H10N2O3, purity 98%
Compound 2: 2-thiobarbituric acid, C4H4N2O2S, purity 98%
Compound 3: carbon dioxide, CO2
Compound 4: nitrogen, N2
Compound 5: water, H2O
Compound 6: oxygen, O2
Compound 7: sulfuric acid, H2O4S

System: 5-isopropylbarbituric acid; phases: Crystal, Gas
Property: Molar enthalpy of vaporization or sublimation, kJ/mol (Crystal); method: Static calorimetry
Temperature, K	Molar enthalpy of vaporization or sublimation, kJ/mol	uncertainty
298.15	125	3.8

System: 5-isopropylbarbituric acid; phases: Crystal, Gas
Property: Vapor or sublimation pressure, kPa (Crystal); method: Knudsen effusion method
Temperature, K	Vapor or sublimation pressure, kPa	uncertainty
369.16	.000115	.00001
371.12	.000138	.00001
373.08	.000166	.00001
375.16	.000216	.00001
377.12	.000257	.00001
379.09	.000303	.00001
381.16	.000389	.00001
383.11	.000465	.00001
385.09	.000554	.00001
387.15	.000708	.00001
389.13	.000839	.00001
391.11	.000998	.00001
369.16	.000107	.00001
371.12	.000138	.00001
373.08	.000167	.00001
375.16	.000204	.00001
377.12	.000254	.00001
379.09	.000314	.00001
381.16	.000371	.00001
383.11	.000461	.00001
385.09	.000559	.00001
387.15	.000674	.00001
389.13	.000843	.00001
391.11	.001017	.00001
369.16	.000106	.00001
371.12	.000135	.00001
373.08	.000169	.00001
375.16	.000202	.00001
377.12	.000251	.00001
379.09	.000311	.00001
381.16	.00037	.00001
383.11	.000453	.00001
385.09	.000555	.00001
387.15	.000675	.00001
389.13	.000844	.00001
391.11	.001009	.00001

Reaction: -1 5-isopropylbarbituric acid + 7 carbon dioxide + 1 nitrogen + 5 water + -8 oxygen
Property: Specific internal energy of reaction at constant volume, J/g
-20374.27

Reaction: -1 2-thiobarbituric acid + 1 sulfuric acid + 4 carbon dioxide + 1 nitrogen + 1 water + -5.5 oxygen
Property: Specific internal energy of reaction at constant volume, J/g
-16310.42
