Measured thermophysical data. Solubilities of 1,3-dimethyl-1,1,3,3-tetraphenyldisiloxane in different solvents from (288.15 to 313.15) K
Source: Thermochim. Acta, 2012, 10.1016/j.tca.2012.04.033
Compound 1: silane, ethoxymethyldiphenyl-, C15H18OSi, purity 97%
Compound 2: methanol, CH4O, purity 99.5%
Compound 3: ethanol, C2H6O, purity 99.5%
Compound 4: propyl alcohol, C3H8O, purity 99.5%
Compound 5: 2-propanol, C3H8O, purity 99.5%
Compound 6: octamethylcyclotetrasiloxane, C8H24O4Si4, purity 99.9%
Compound 7: water, H2O, purity 99.8%
Compound 8: 1,3-dimethyl-1,1,3,3-tetraphenyldisiloxane, C26H26OSi2, purity 99%

System: 1,3-dimethyl-1,1,3,3-tetraphenyldisiloxane; phases: Crystal, Liquid, Air at 1 atmosphere
Property: Normal melting temperature, K (Crystal); method: DSC/DTA
Normal melting temperature, K	uncertainty
322.85	5.00000000000114E-02

System: methanol + 1,3-dimethyl-1,1,3,3-tetraphenyldisiloxane; phases: Liquid
Fixed: Pressure, kPa = 101
Fixed: Temperature, K = 298.15
Property: Mass density, kg/m3 (Liquid); method: Vibrating tube method
Mole fraction of 1,3-dimethyl-1,1,3,3-tetraphenyldisiloxane	Mass density, kg/m3	uncertainty
.00036	787.68	.05
.0009	789.17	.05
.0018	791.71	.05
.00241	793.31	.05
.00364	796.57	.05

System: methanol + 1,3-dimethyl-1,1,3,3-tetraphenyldisiloxane; phases: Liquid
Fixed: Pressure, kPa = 101
Fixed: Temperature, K = 298.15
Property: Refractive index (Na D-line) (Liquid); method: Standard Abbe refractometry
Mole fraction of 1,3-dimethyl-1,1,3,3-tetraphenyldisiloxane	Refractive index (Na D-line)	uncertainty
.00036	1.3274	4.00000000126965E-05
.0009	1.3287	4.00000000126965E-05
.0018	1.33084	4.00000000126965E-05
.00241	1.33228	4.00000000126965E-05
.00364	1.33509	4.00000000126965E-05

System: methanol + 1,3-dimethyl-1,1,3,3-tetraphenyldisiloxane; phases: Liquid, Crystal
Fixed: Pressure, kPa = 101
Property: Mole fraction of 1,3-dimethyl-1,1,3,3-tetraphenyldisiloxane (Liquid); method: Density calibration data
Temperature, K	Mole fraction of 1,3-dimethyl-1,1,3,3-tetraphenyldisiloxane	uncertainty
288.45	.00269	4.00000000126965E-05
293.15	.0038	2.90000000006785E-04
298.75	.00459	2.99999999811007E-05
304.25	.00679	2.00000000063483E-05
308.25	.0091	8.00000000253931E-05
313.45	.01522	2.49999999994088E-04

System: methanol + 1,3-dimethyl-1,1,3,3-tetraphenyldisiloxane; phases: Liquid, Crystal
Fixed: Pressure, kPa = 101
Property: Mole fraction of 1,3-dimethyl-1,1,3,3-tetraphenyldisiloxane (Liquid); method: Index of refraction calibration data
Temperature, K	Mole fraction of 1,3-dimethyl-1,1,3,3-tetraphenyldisiloxane	uncertainty
288.45	.00268	6.00000000190448E-05
293.15	.00367	2.2999999998774E-04
298.75	.00464	9.99999997475243E-06
304.25	.00667	9.99999997475243E-06
308.25	.00897	4.00000000126965E-05
313.45	.01503	1.5000000001919E-04

System: ethanol + 1,3-dimethyl-1,1,3,3-tetraphenyldisiloxane; phases: Liquid
Fixed: Pressure, kPa = 101
Fixed: Temperature, K = 298.15
Property: Mass density, kg/m3 (Liquid); method: Vibrating tube method
Mole fraction of 1,3-dimethyl-1,1,3,3-tetraphenyldisiloxane	Mass density, kg/m3	uncertainty
.0009	787.37	.05
.00225	789.76	.05
.00446	794.07	.05
.00667	798.07	.05
.00825	801.34	.05
.01059	805.13	.05
.01252	808.66	.05

System: ethanol + 1,3-dimethyl-1,1,3,3-tetraphenyldisiloxane; phases: Liquid
Fixed: Pressure, kPa = 101
Fixed: Temperature, K = 298.15
Property: Refractive index (Na D-line) (Liquid); method: Standard Abbe refractometry
Mole fraction of 1,3-dimethyl-1,1,3,3-tetraphenyldisiloxane	Refractive index (Na D-line)	uncertainty
.0009	1.36085	4.00000000126965E-05
.00225	1.36263	4.00000000126965E-05
.00446	1.36586	4.00000000126965E-05
.00667	1.36893	4.00000000126965E-05
.00825	1.37139	4.00000000126965E-05
.01059	1.37427	4.00000000126965E-05
.01252	1.37693	4.00000000126965E-05

System: ethanol + 1,3-dimethyl-1,1,3,3-tetraphenyldisiloxane; phases: Liquid, Crystal
Fixed: Pressure, kPa = 101
Property: Mole fraction of 1,3-dimethyl-1,1,3,3-tetraphenyldisiloxane (Liquid); method: Density calibration data
Temperature, K	Mole fraction of 1,3-dimethyl-1,1,3,3-tetraphenyldisiloxane	uncertainty
288.65	.00711	4.00000000126965E-05
293.15	.0095	1.89999999975043E-04
298.15	.01311	8.00000000253931E-05
303.15	.01895	9.99999999976353E-04
308.15	.03129	2.00000000063483E-05

System: ethanol + 1,3-dimethyl-1,1,3,3-tetraphenyldisiloxane; phases: Liquid, Crystal
Fixed: Pressure, kPa = 101
Property: Mole fraction of 1,3-dimethyl-1,1,3,3-tetraphenyldisiloxane (Liquid); method: Index of refraction calibration data
Temperature, K	Mole fraction of 1,3-dimethyl-1,1,3,3-tetraphenyldisiloxane	uncertainty
288.65	.00693	2.99999999811007E-05
293.15	.00922	1.80000000000291E-04
298.15	.01289	8.00000000253931E-05
303.15	.01856	8.00000000253931E-05
308.15	.03106	2.00000000063483E-05

System: 2-propanol + 1,3-dimethyl-1,1,3,3-tetraphenyldisiloxane; phases: Liquid
Fixed: Pressure, kPa = 101
Fixed: Temperature, K = 303.15
Property: Mass density, kg/m3 (Liquid); method: Vibrating tube method
Mole fraction of 1,3-dimethyl-1,1,3,3-tetraphenyldisiloxane	Mass density, kg/m3	uncertainty
.00125	778.65	.05
.00359	783.03	.05
.00759	788.42	.05
.01218	794.61	.05
.01284	795.14	.05

System: 2-propanol + 1,3-dimethyl-1,1,3,3-tetraphenyldisiloxane; phases: Liquid
Fixed: Pressure, kPa = 101
Fixed: Temperature, K = 303.15
Property: Refractive index (Na D-line) (Liquid); method: Standard Abbe refractometry
Mole fraction of 1,3-dimethyl-1,1,3,3-tetraphenyldisiloxane	Refractive index (Na D-line)	uncertainty
.00125	1.37416	4.00000000126965E-05
.00359	1.37721	4.00000000126965E-05
.00759	1.38094	4.00000000126965E-05
.01218	1.38528	4.00000000126965E-05
.01284	1.38568	4.00000000126965E-05

System: 2-propanol + 1,3-dimethyl-1,1,3,3-tetraphenyldisiloxane; phases: Liquid, Crystal
Fixed: Pressure, kPa = 101
Property: Mole fraction of 1,3-dimethyl-1,1,3,3-tetraphenyldisiloxane (Liquid); method: Density calibration data
Temperature, K	Mole fraction of 1,3-dimethyl-1,1,3,3-tetraphenyldisiloxane	uncertainty
288.15	.00474	1.5000000001919E-04
293.15	.0075	1.19999999981246E-04
298.15	.01146	2.49999999994088E-04
303.15	.01799	2.40000000019336E-04

System: 2-propanol + 1,3-dimethyl-1,1,3,3-tetraphenyldisiloxane; phases: Liquid, Crystal
Fixed: Pressure, kPa = 101
Property: Mole fraction of 1,3-dimethyl-1,1,3,3-tetraphenyldisiloxane (Liquid); method: Index of refraction calibration data
Temperature, K	Mole fraction of 1,3-dimethyl-1,1,3,3-tetraphenyldisiloxane	uncertainty
288.15	.00443	2.90000000006785E-04
293.15	.00716	1.10000000006494E-04
298.15	.0105	6.00000000190448E-05
303.15	.01711	3.60000000000582E-04

System: propyl alcohol + 1,3-dimethyl-1,1,3,3-tetraphenyldisiloxane; phases: Liquid
Fixed: Pressure, kPa = 101
Fixed: Temperature, K = 303.15
Property: Mass density, kg/m3 (Liquid); method: Vibrating tube method
Mole fraction of 1,3-dimethyl-1,1,3,3-tetraphenyldisiloxane	Mass density, kg/m3	uncertainty
.00161	797.94	.05
.00428	801.12	.05
.00956	808.9	.05
.01076	810.51	.05
.01339	813.97	.05

System: propyl alcohol + 1,3-dimethyl-1,1,3,3-tetraphenyldisiloxane; phases: Liquid
Fixed: Pressure, kPa = 101
Fixed: Temperature, K = 303.15
Property: Refractive index (Na D-line) (Liquid); method: Standard Abbe refractometry
Mole fraction of 1,3-dimethyl-1,1,3,3-tetraphenyldisiloxane	Refractive index (Na D-line)	uncertainty
.00161	1.38273	4.00000000126965E-05
.00428	1.38545	4.00000000126965E-05
.00956	1.39061	4.00000000126965E-05
.01076	1.39176	4.00000000126965E-05
.01339	1.39425	4.00000000126965E-05

System: propyl alcohol + 1,3-dimethyl-1,1,3,3-tetraphenyldisiloxane; phases: Liquid, Crystal
Fixed: Pressure, kPa = 101
Property: Mole fraction of 1,3-dimethyl-1,1,3,3-tetraphenyldisiloxane (Liquid); method: Density calibration data
Temperature, K	Mole fraction of 1,3-dimethyl-1,1,3,3-tetraphenyldisiloxane	uncertainty
288.15	.01316	3.19999999987886E-04
293.15	.0176	6.00000000190448E-05
298.15	.02439	2.99999999981537E-04
303.15	.03571	8.00000000253931E-05

System: propyl alcohol + 1,3-dimethyl-1,1,3,3-tetraphenyldisiloxane; phases: Liquid, Crystal
Fixed: Pressure, kPa = 101
Property: Mole fraction of 1,3-dimethyl-1,1,3,3-tetraphenyldisiloxane (Liquid); method: Index of refraction calibration data
Temperature, K	Mole fraction of 1,3-dimethyl-1,1,3,3-tetraphenyldisiloxane	uncertainty
288.15	.01158	6.00000000190448E-05
293.15	.01575	8.00000000253931E-05
298.15	.02264	1.80000000000291E-04
303.15	.03421	2.40000000019336E-04

System: octamethylcyclotetrasiloxane + 1,3-dimethyl-1,1,3,3-tetraphenyldisiloxane; phases: Liquid
Fixed: Pressure, kPa = 101
Fixed: Temperature, K = 303.15
Property: Mass density, kg/m3 (Liquid); method: Vibrating tube method
Mole fraction of 1,3-dimethyl-1,1,3,3-tetraphenyldisiloxane	Mass density, kg/m3	uncertainty
.00724	946.03	.05
.01526	947.52	.05
.02752	949.77	.05
.04184	952.36	.05
.05492	954.7	.05

System: octamethylcyclotetrasiloxane + 1,3-dimethyl-1,1,3,3-tetraphenyldisiloxane; phases: Liquid
Fixed: Pressure, kPa = 101
Fixed: Temperature, K = 303.15
Property: Refractive index (Na D-line) (Liquid); method: Standard Abbe refractometry
Mole fraction of 1,3-dimethyl-1,1,3,3-tetraphenyldisiloxane	Refractive index (Na D-line)	uncertainty
.00724	1.39358	4.00000000126965E-05
.01526	1.39553	4.00000000126965E-05
.02752	1.3985	4.00000000126965E-05
.04184	1.40193	4.00000000126965E-05
.05492	1.40505	4.00000000126965E-05

System: octamethylcyclotetrasiloxane + 1,3-dimethyl-1,1,3,3-tetraphenyldisiloxane; phases: Liquid, Crystal
Fixed: Pressure, kPa = 101
Property: Mole fraction of 1,3-dimethyl-1,1,3,3-tetraphenyldisiloxane (Liquid); method: Density calibration data
Temperature, K	Mole fraction of 1,3-dimethyl-1,1,3,3-tetraphenyldisiloxane	uncertainty
293.15	.02905	6.99999999937972E-05
298.15	.039	2.49999999994088E-04
303.15	.05741	3.10000000013133E-04
308.15	.08372	2.31000000002268E-03

System: octamethylcyclotetrasiloxane + 1,3-dimethyl-1,1,3,3-tetraphenyldisiloxane; phases: Liquid, Crystal
Fixed: Pressure, kPa = 101
Property: Mole fraction of 1,3-dimethyl-1,1,3,3-tetraphenyldisiloxane (Liquid); method: Index of refraction calibration data
Temperature, K	Mole fraction of 1,3-dimethyl-1,1,3,3-tetraphenyldisiloxane	uncertainty
293.15	.02972	9.99999997475243E-06
298.15	.03992	2.00000000006639E-04
303.15	.05853	2.40000000019336E-04
308.15	.08461	2.20000000001619E-03
