Measured thermophysical data. Influence of the composition of aqueous-alcohol  solvents on the thermodynamic characteristics of Lphenylalanine  dissolution at 298.15K
Source: Thermochim. Acta, 2011, 10.1016/j.tca.2011.08.022
Compound 1: methanol, CH4O, purity 99%
Compound 2: ethanol, C2H6O, purity 99%
Compound 3: propyl alcohol, C3H8O, purity 99%
Compound 4: propan-2-ol, C3H8O, purity 99%
Compound 5: water, H2O, purity 99.9%
Compound 6: L-phenylalanine, C9H11NO2, purity 99%

System: L-phenylalanine + water; phases: Liquid
Fixed: Pressure, kPa = 101
Fixed: Temperature, K = 298.15
Property: Molar enthalpy of solution, kJ/mol (Liquid); method: Isoperibol calorimetry
Molality, mol/kg of L-phenylalanine	Molar enthalpy of solution, kJ/mol	uncertainty
.01	8.33	30

System: L-phenylalanine + methanol + water; phases: Liquid
Fixed: Pressure, kPa = 101
Fixed: Temperature, K = 298.15
Property: Molar enthalpy of solution, kJ/mol (Liquid); method: Isoperibol calorimetry
Solvent: Molality, mol/kg of methanol	Molality, mol/kg of L-phenylalanine	Molar enthalpy of solution, kJ/mol	uncertainty
.712	.01	9.24	30
1.357	.01	10.63	30
2.034	.01	11.57	20
2.837	.01	12.37	20
4.117	.01	14.24	30
5.529	.01	15.45	20
7.371	.01	16.21	30
10.302	.01	17.28	20
10.882	.01	18.09	20
16.067	.01	18.11	30
24.303	.01	17.02	30

System: L-phenylalanine + ethanol + water; phases: Liquid
Fixed: Pressure, kPa = 101
Fixed: Temperature, K = 298.15
Property: Molar enthalpy of solution, kJ/mol (Liquid); method: Isoperibol calorimetry
Solvent: Molality, mol/kg of ethanol	Molality, mol/kg of L-phenylalanine	Molar enthalpy of solution, kJ/mol	uncertainty
.721	.01	9.97	30
1.452	.01	11.62	30
2.368	.01	13.59	20
3.437	.01	16.15	20
4.512	.01	17.82	30
5.435	.01	19.67	20
7.616	.01	21.35	30
9.011	.01	23.26	20
12.268	.01	25.05	20
17.247	.01	26.13	20
24.089	.01	24.21	30
34.344	.01	22.24	30

System: L-phenylalanine + propyl alcohol + water; phases: Liquid
Fixed: Pressure, kPa = 101
Fixed: Temperature, K = 298.15
Property: Molar enthalpy of solution, kJ/mol (Liquid); method: Isoperibol calorimetry
Solvent: Molality, mol/kg of propyl alcohol	Molality, mol/kg of L-phenylalanine	Molar enthalpy of solution, kJ/mol	uncertainty
.733	.01	10.05	30
1.215	.01	11.99	30
1.982	.01	14.26	20
2.726	.01	15.88	20
3.375	.01	17.76	30
4.028	.01	19.06	30
4.815	.01	20.39	20
6.021	.01	21.22	20
8.878	.01	22.17	20
13.417	.01	21.08	30
18.749	.01	19.41	30
26.796	.01	17.26	30

System: L-phenylalanine + propan-2-ol + water; phases: Liquid
Fixed: Pressure, kPa = 101
Fixed: Temperature, K = 298.15
Property: Molar enthalpy of solution, kJ/mol (Liquid); method: Isoperibol calorimetry
Solvent: Molality, mol/kg of propan-2-ol	Molality, mol/kg of L-phenylalanine	Molar enthalpy of solution, kJ/mol	uncertainty
.715	.01	11.02	30
1.181	.01	13.67	30
1.742	.01	15.25	20
2.581	.01	17.94	20
3.356	.01	19.54	30
4.285	.01	22.14	20
5.387	.01	24.12	20
6.417	.01	25.94	20
9.149	.01	26.45	20
12.838	.01	24.51	30
17.966	.01	20.09	30
25.659	.01	15.58	30
