Measured thermophysical data. Measurement and correlation of the solubility of urea l-tartaric acid in aqueous  ethanol solution
Source: Thermochim. Acta, 2009, 10.1016/j.tca.2008.11.017
Compound 1: water, H2O
Compound 2: ethanol, C2H6O, purity 99.5%
Compound 3: urea l-tartrate, C5H10N2O7, purity 99%

System: urea l-tartrate + ethanol + water; phases: Liquid, Crystal
Fixed: Pressure, kPa = 101
Property: Mole fraction of urea l-tartrate (Liquid); method: Phase equilibration
Solvent: Mole fraction of ethanol	Temperature, K	Mole fraction of urea l-tartrate	uncertainty
0	288.2	.004463	
0	298.2	.005142	
0	308.2	.006546	
0	318.2	.007528	
0	328.2	.008377	
0	338.2	.009234	
.18	288.2	.003856	
.18	298.2	.004172	
.18	308.2	.005153	
.18	318.2	.006346	
.18	328.2	.007483	
.18	338.2	.008261	
.43	288.2	.003562	
.43	298.2	.003579	
.43	308.2	.004248	
.43	318.2	.005352	
.43	328.2	.006483	
.43	338.2	.007165	
.57	288.2	.002432	
.57	298.2	.003258	
.57	308.2	.003482	
.57	318.2	.004174	
.57	328.2	.004695	
.57	338.2	.005543	
.81	288.2	.001836	
.81	298.2	.002475	
.81	308.2	.002654	
.81	318.2	.003754	
.81	328.2	.004262	
.81	338.2	.005167	
1	288.2	.000825	
1	298.2	.001253	
1	308.2	.002175	
1	318.2	.002643	
1	328.2	.003432	
1	338.2	.004152	

System: urea l-tartrate + water; phases: Liquid, Crystal
Property: Mole fraction of urea l-tartrate (Liquid); method: Phase equilibration
Temperature, K	Pressure, kPa	Mole fraction of urea l-tartrate	uncertainty
288.2	101.325	.004463	
298.2	101.325	.005142	
308.2	101.325	.006546	
318.2	101.325	.007528	
328.2	101.325	.008377	
338.2	101.325	.009234	

System: urea l-tartrate + ethanol; phases: Liquid, Crystal
Property: Mole fraction of urea l-tartrate (Liquid); method: Phase equilibration
Temperature, K	Pressure, kPa	Mole fraction of urea l-tartrate	uncertainty
288.2	101.325	.000825	
298.2	101.325	.001253	
308.2	101.325	.002175	
318.2	101.325	.002643	
328.2	101.325	.003432	
338.2	101.325	.004152	
