Measured thermophysical data. Refractive properties of binary mixtures containing pyridinium-basedionic liquids and alkanols
Source: Thermochim. Acta, 2013, 10.1016/j.tca.2013.08.016
Compound 1: 1-butylpyridinium tetrafluoroborate, C9H14BF4N, purity 99%
Compound 2: 1-butyl-3-methylpyridinium tetrafluoroborate, C10H16BF4N, purity 99%
Compound 3: 1-butyl-4-methylpyridinium tetrafluoroborate, C10H16BF4N, purity 99%
Compound 4: methanol, CH4O, purity 99.8%
Compound 5: ethanol, C2H6O, purity 99.5%

System: 1-butylpyridinium tetrafluoroborate; phases: Liquid
Fixed: Pressure, kPa = 101.325
Property: Refractive index (Na D-line) (Liquid); method: Standard Abbe refractometry
Temperature, K	Refractive index (Na D-line)	uncertainty
293.15	1.447194	
303.15	1.444538	
313.15	1.441901	
323.15	1.439241	

System: 1-butyl-3-methylpyridinium tetrafluoroborate; phases: Liquid
Fixed: Pressure, kPa = 101.325
Property: Refractive index (Na D-line) (Liquid); method: Standard Abbe refractometry
Temperature, K	Refractive index (Na D-line)	uncertainty
293.15	1.452476	
303.15	1.449764	
313.15	1.447058	
323.15	1.444249	

System: 1-butyl-4-methylpyridinium tetrafluoroborate; phases: Liquid
Fixed: Pressure, kPa = 101.325
Property: Refractive index (Na D-line) (Liquid); method: Standard Abbe refractometry
Temperature, K	Refractive index (Na D-line)	uncertainty
293.15	1.453864	
303.15	1.451143	
313.15	1.44841	
323.15	1.445711	

System: methanol; phases: Liquid
Fixed: Pressure, kPa = 101.325
Property: Refractive index (Na D-line) (Liquid); method: Standard Abbe refractometry
Temperature, K	Refractive index (Na D-line)	uncertainty
293.15	1.328426	
303.15	1.324333	
313.15	1.320152	
323.15	1.3167	

System: ethanol; phases: Liquid
Fixed: Pressure, kPa = 101.325
Property: Refractive index (Na D-line) (Liquid); method: Standard Abbe refractometry
Temperature, K	Refractive index (Na D-line)	uncertainty
303.15	1.357015	
313.15	1.352696	
323.15	1.348372	
293.15	1.361442	

System: methanol + 1-butylpyridinium tetrafluoroborate; phases: Liquid
Fixed: Pressure, kPa = 101
Property: Refractive index (Na D-line) (Liquid); method: Standard Abbe refractometry
Temperature, K	Volume fraction of 1-butylpyridinium tetrafluoroborate	Refractive index (Na D-line)	uncertainty
293.15	0	1.328426	
293.15	.0747	1.339259	
293.15	.1041	1.343274	
293.15	.2013	1.356477	
293.15	.3315	1.372863	
293.15	.4125	1.382712	
293.15	.5222	1.395628	
293.15	.6527	1.410466	
293.15	.7475	1.421057	
293.15	.8152	1.428431	
293.15	.8666	1.433772	
293.15	.9113	1.43844	
293.15	.9687	1.444254	
293.15	1	1.447194	
303.15	0	1.324333	
303.15	.0742	1.335397	
303.15	.1035	1.339491	
303.15	.2002	1.352929	
303.15	.3301	1.369553	
303.15	.411	1.379492	
303.15	.5206	1.392578	
303.15	.6513	1.407566	
303.15	.7463	1.41824	
303.15	.8142	1.42561	
303.15	.8658	1.431054	
303.15	.9108	1.435763	
303.15	.9685	1.441602	
303.15	1	1.444538	
313.15	0	1.320152	
313.15	.0737	1.331445	
313.15	.1028	1.335865	
313.15	.1991	1.349407	
313.15	.3286	1.366459	
313.15	.4096	1.3765	
313.15	.5189	1.389578	
313.15	.6498	1.404707	
313.15	.745	1.415421	
313.15	.8132	1.422733	
313.15	.865	1.428316	
313.15	.9103	1.432996	
313.15	.9683	1.438967	
313.15	1	1.441901	
323.15	0	1.3167	
323.15	.0732	1.328367	
323.15	.1022	1.332779	
323.15	.1981	1.3469	
323.15	.3271	1.364103	
323.15	.408	1.374357	
323.15	.5172	1.387328	
323.15	.6482	1.402381	
323.15	.7438	1.412834	
323.15	.8122	1.42002	
323.15	.8642	1.425459	
323.15	.9097	1.430285	
323.15	.9681	1.436137	
323.15	1	1.439241	

System: ethanol + 1-butylpyridinium tetrafluoroborate; phases: Liquid
Fixed: Pressure, kPa = 101
Property: Refractive index (Na D-line) (Liquid); method: Standard Abbe refractometry
Temperature, K	Volume fraction of 1-butylpyridinium tetrafluoroborate	Refractive index (Na D-line)	uncertainty
303.15	0	1.357015	
303.15	.0806	1.365949	
303.15	.1412	1.372183	
303.15	.2622	1.383899	
303.15	.3554	1.392361	
303.15	.4323	1.399051	
303.15	.561	1.409935	
303.15	.6685	1.418614	
303.15	.7512	1.425272	
303.15	.8213	1.430758	
303.15	.8742	1.434968	
303.15	.9217	1.438606	
303.15	.9612	1.441577	
303.15	1	1.444538	
313.15	0	1.352696	
313.15	.0802	1.36207	
313.15	.1405	1.368439	
313.15	.2611	1.380447	
313.15	.3541	1.388998	
313.15	.4308	1.395746	
313.15	.5595	1.406761	
313.15	.6672	1.415604	
313.15	.7501	1.422363	
313.15	.8205	1.427965	
313.15	.8736	1.432247	
313.15	.9213	1.435959	
313.15	.961	1.438976	
313.15	1	1.441901	
323.15	0	1.348372	
323.15	.0798	1.357943	
323.15	.1398	1.364595	
323.15	.26	1.377038	
323.15	.3528	1.38573	
323.15	.4294	1.392541	
323.15	.5581	1.403536	
323.15	.6659	1.412552	
323.15	.749	1.419383	
323.15	.8196	1.425078	
323.15	.8729	1.429472	
323.15	.9209	1.433283	
323.15	.9607	1.436331	
323.15	1	1.439241	

System: methanol + 1-butyl-3-methylpyridinium tetrafluoroborate; phases: Liquid
Fixed: Pressure, kPa = 101
Property: Refractive index (Na D-line) (Liquid); method: Standard Abbe refractometry
Temperature, K	Volume fraction of 1-butyl-3-methylpyridinium tetrafluoroborate	Refractive index (Na D-line)	uncertainty
293.15	0	1.328426	
293.15	.0958	1.342449	
293.15	.2025	1.357279	
293.15	.2756	1.367017	
293.15	.3528	1.376927	
293.15	.4508	1.389173	
293.15	.5501	1.401259	
293.15	.6751	1.416002	
293.15	.7686	1.426667	
293.15	.828	1.433334	
293.15	.8763	1.438729	
293.15	.9159	1.443069	
293.15	.9334	1.444996	
293.15	.9732	1.449495	
293.15	1	1.452476	
303.15	0	1.324333	
303.15	.0958	1.338854	
303.15	.2025	1.35407	
303.15	.2756	1.363996	
303.15	.3528	1.374055	
303.15	.4508	1.386407	
303.15	.5501	1.398546	
303.15	.6751	1.41337	
303.15	.7686	1.424015	
303.15	.828	1.430692	
303.15	.8763	1.436056	
303.15	.9159	1.440422	
303.15	.9334	1.44233	
303.15	.9732	1.446801	
303.15	1	1.449764	
313.15	0	1.320152	
313.15	.0948	1.33503	
313.15	.2006	1.350502	
313.15	.2756	1.360829	
313.15	.3501	1.370692	
313.15	.4478	1.383185	
313.15	.5471	1.395422	
313.15	.6725	1.41032	
313.15	.7665	1.421097	
313.15	.8262	1.427844	
313.15	.875	1.433299	
313.15	.915	1.43765	
313.15	.9327	1.439605	
313.15	.9729	1.444085	
313.15	1	1.447058	
323.15	0	1.3167	
323.15	.0942	1.332002	
323.15	.1995	1.347744	
323.15	.2718	1.357845	
323.15	.3485	1.368104	
323.15	.4461	1.380562	
323.15	.5454	1.392826	
323.15	.6709	1.407728	
323.15	.7652	1.418529	
323.15	.8253	1.425207	
323.15	.8742	1.430582	
323.15	.9144	1.434916	
323.15	.9322	1.436865	
323.15	.9727	1.441329	
323.15	1	1.444249	

System: ethanol + 1-butyl-3-methylpyridinium tetrafluoroborate; phases: Liquid
Fixed: Pressure, kPa = 101
Property: Refractive index (Na D-line) (Liquid); method: Standard Abbe refractometry
Temperature, K	Volume fraction of 1-butyl-3-methylpyridinium tetrafluoroborate	Refractive index (Na D-line)	uncertainty
293.15	0	1.361442	
293.15	.0895	1.371302	
293.15	.1467	1.3773	
293.15	.2062	1.383245	
293.15	.2725	1.389787	
293.15	.4637	1.407498	
293.15	.5588	1.415951	
293.15	.6583	1.424504	
293.15	.6935	1.427569	
293.15	.8285	1.438783	
293.15	.883	1.443111	
293.15	.928	1.446705	
293.15	.9641	1.44963	
293.15	1	1.452476	
303.15	0	1.357015	
303.15	.0891	1.367198	
303.15	.1461	1.37333	
303.15	.2054	1.3794	
303.15	.2716	1.386024	
303.15	.4626	1.403997	
303.15	.5577	1.41257	
303.15	.6572	1.42134	
303.15	.6925	1.424444	
303.15	.8278	1.435842	
303.15	.8825	1.440307	
303.15	.9277	1.443899	
303.15	.964	1.4469	
303.15	1	1.449764	
313.15	0	1.352696	
313.15	.0887	1.363144	
313.15	.1477	1.369639	
313.15	.2047	1.375577	
313.15	.2706	1.3823	
313.15	.4614	1.400554	
313.15	.5565	1.409244	
313.15	.6561	1.418201	
313.15	.6914	1.421341	
313.15	.8271	1.432922	
313.15	.882	1.43752	
313.15	.9273	1.44114	
313.15	.9638	1.444178	
313.15	1	1.447058	
323.15	0	1.348372	
323.15	.0883	1.359135	
323.15	.147	1.365721	
323.15	.2037	1.37173	
323.15	.2695	1.378562	
323.15	.4599	1.39714	
323.15	.555	1.405986	
323.15	.6548	1.415038	
323.15	.6902	1.418226	
323.15	.8263	1.429875	
323.15	.8814	1.434479	
323.15	.9269	1.438271	
323.15	.9636	1.441345	
323.15	1	1.444249	

System: methanol + 1-butyl-4-methylpyridinium tetrafluoroborate; phases: Liquid
Fixed: Pressure, kPa = 101
Property: Refractive index (Na D-line) (Liquid); method: Standard Abbe refractometry
Temperature, K	Volume fraction of 1-butyl-4-methylpyridinium tetrafluoroborate	Refractive index (Na D-line)	uncertainty
293.15	0	1.328426	
293.15	.1112	1.344633	
293.15	.35	1.376332	
293.15	.4246	1.385635	
293.15	.536	1.399395	
293.15	.6177	1.409234	
293.15	.7602	1.426124	
293.15	.8518	1.436881	
293.15	.918	1.444475	
293.15	.9493	1.448027	
293.15	.972	1.450712	
293.15	1	1.453864	
293.15	.2018	1.356966	
303.15	0	1.324333	
303.15	.1106	1.341169	
303.15	.3486	1.373577	
303.15	.4232	1.382991	
303.15	.5344	1.396768	
303.15	.6207	1.407134	
303.15	.7591	1.423531	
303.15	.851	1.434257	
303.15	.9176	1.44194	
303.15	.949	1.445367	
303.15	.9718	1.448042	
303.15	1	1.451143	
313.15	0	1.320152	
313.15	.11	1.337387	
313.15	.1999	1.35068	
313.15	.3473	1.370702	
313.15	.4217	1.380185	
313.15	.5329	1.393909	
313.15	.6193	1.404376	
313.15	.758	1.420791	
313.15	.8503	1.431456	
313.15	.9171	1.439119	
313.15	.9487	1.442636	
313.15	.9717	1.445348	
313.15	1	1.44841	
323.15	0	1.3167	
323.15	.1093	1.334585	
323.15	.1988	1.347988	
323.15	.3457	1.367985	
323.15	.42	1.377589	
323.15	.5312	1.391362	
323.15	.6177	1.401905	
323.15	.7567	1.418315	
323.15	.8494	1.428831	
323.15	.9166	1.436426	
323.15	.9483	1.439931	
323.15	.9715	1.442655	
323.15	1	1.445711	

System: ethanol + 1-butyl-4-methylpyridinium tetrafluoroborate; phases: Liquid
Fixed: Pressure, kPa = 101
Property: Refractive index (Na D-line) (Liquid); method: Standard Abbe refractometry
Temperature, K	Volume fraction of 1-butyl-4-methylpyridinium tetrafluoroborate	Refractive index (Na D-line)	uncertainty
293.15	0	1.361442	
293.15	.0898	1.370941	
293.15	.1519	1.377353	
293.15	.2046	1.382643	
293.15	.2741	1.389483	
293.15	.3163	1.393575	
293.15	.4292	1.404187	
293.15	.5885	1.418763	
293.15	.6938	1.428144	
293.15	.7656	1.434363	
293.15	.8307	1.439912	
293.15	.8812	1.444219	
293.15	.9278	1.44812	
293.15	.9619	1.450846	
293.15	1	1.453864	
303.15	0	1.357015	
303.15	.0894	1.366814	
303.15	.1513	1.373416	
303.15	.2042	1.378879	
303.15	.2732	1.385854	
303.15	.3153	1.390039	
303.15	.428	1.400851	
303.15	.5874	1.415686	
303.15	.6928	1.425202	
303.15	.7648	1.431499	
303.15	.8301	1.437106	
303.15	.8807	1.441454	
303.15	.9275	1.44539	
303.15	.9617	1.448118	
303.15	1	1.451143	
313.15	0	1.352696	
313.15	.089	1.362797	
313.15	.1507	1.36962	
313.15	.2034	1.375242	
313.15	.2722	1.382392	
313.15	.3142	1.386648	
313.15	.4268	1.397693	
313.15	.5862	1.412661	
313.15	.6918	1.422256	
313.15	.7639	1.428655	
313.15	.8294	1.43431	
313.15	.8802	1.438744	
313.15	.9271	1.442603	
313.15	.9615	1.445441	
313.15	1	1.44841	
323.15	0	1.348372	
323.15	.0885	1.358861	
323.15	.1499	1.365813	
323.15	.2025	1.371569	
323.15	.271	1.378843	
323.15	.313	1.38314	
323.15	.4254	1.394346	
323.15	.5848	1.409488	
323.15	.6905	1.419261	
323.15	.7629	1.425839	
323.15	.8286	1.43149	
323.15	.8796	1.435916	
323.15	.9267	1.439829	
323.15	.9613	1.442723	
323.15	1	1.445711	
