Measured thermophysical data. Enthalpies of solution of 1-ethyl-3-methyl-imidazolium chloride and aluminum  chloride in molten chloroaluminate ionic liquids
Source: Thermochim. Acta, 2011, 10.1016/j.tca.2011.07.006
Compound 1: aluminum chloride, AlCl3, purity 98%
Compound 2: 1-ethyl-3-methylimidazolium chloride, C6H11ClN2, purity 98%
Compound 3: 1-ethyl-3-methylimidazolium tetrachloroaluminate, C6H11AlCl4N2

System: 1-ethyl-3-methylimidazolium chloride; phases: Crystal, Liquid, Air at 1 atmosphere
Property: Normal melting temperature, K (Crystal); method: DSC/DTA
Normal melting temperature, K	uncertainty
370.1	.2

System: 1-ethyl-3-methylimidazolium chloride; phases: Crystal, Liquid, Air at 1 atmosphere
Property: Molar enthalpy of transition or fusion, kJ/mol (Crystal); method: DSC/DTA
Molar enthalpy of transition or fusion, kJ/mol	uncertainty
15.1	.6

System: 1-ethyl-3-methylimidazolium tetrachloroaluminate; phases: Crystal, Liquid, Air at 1 atmosphere
Property: Normal melting temperature, K (Crystal); method: DSC/DTA
Normal melting temperature, K	uncertainty
279.6	.2

System: 1-ethyl-3-methylimidazolium tetrachloroaluminate; phases: Crystal, Liquid, Air at 1 atmosphere
Property: Molar enthalpy of transition or fusion, kJ/mol (Crystal); method: DSC/DTA
Molar enthalpy of transition or fusion, kJ/mol	uncertainty
13.8	.3

Reaction: -1 aluminum chloride + -1 1-ethyl-3-methylimidazolium chloride + 1 1-ethyl-3-methylimidazolium tetrachloroaluminate
Property: Molar enthalpy of reaction, kJ/mol
-105
