Measured thermophysical data. Study of interactions of L-histidine / L-glutamic acid / L-tryptophan / glycylglycine with KCl /  KNO3 at temperatures: (298.15, 303.15, 308.15, 313.15, 318.15, 323.15) K
Source: Thermochim. Acta, 2010, 10.1016/j.tca.2010.01.012
Compound 1: L-histidine, C6H9N3O2
Compound 2: L-glutamic acid, C5H9NO4
Compound 3: L-tryptophan, C11H12N2O2
Compound 4: glycylglycine, C4H8N2O3
Compound 5: potassium chloride, ClK
Compound 6: potassium nitrate, KNO3
Compound 7: water, H2O

System: L-histidine + potassium chloride + water; phases: Liquid
Fixed: Solvent: Molality, mol/kg of potassium chloride = 2
Fixed: Pressure, kPa = 101
Property: Mass density, kg/m3 (Liquid); method: Pycnometric method
Temperature, K	Molality, mol/kg of L-histidine	Mass density, kg/m3	uncertainty
298.15	0	1087.7	.0001
298.15	.0277	1088.3	.0001
298.15	.0555	1089.6	.0001
298.15	.0836	1090.9	.0001
298.15	.1117	1092.6	.0001
298.15	.14	1094.4	.0001
298.15	.1686	1095.3	.0001
298.15	.1974	1096.6	.0001
298.15	.2263	1097.9	.0001
303.15	0	1085.7	.0001
303.15	.0277	1086.5	.0001
303.15	.0555	1087.7	.0001
303.15	.0836	1089	.0001
303.15	.1117	1090.6	.0001
303.15	.14	1092.3	.0001
303.15	.1686	1093.3	.0001
303.15	.1974	1094.5	.0001
303.15	.2263	1095.8	.0001
308.15	0	1083.6	.0001
308.15	.0277	1084.4	.0001
308.15	.0555	1085.7	.0001
308.15	.0836	1087	.0001
308.15	.1117	1088.5	.0001
308.15	.14	1090.1	.0001
308.15	.1686	1091.2	.0001
308.15	.1974	1092.2	.0001
308.15	.2263	1093.5	.0001
313.15	0	1081.3	.0001
313.15	.0277	1082.1	.0001
313.15	.0555	1083.4	.0001
313.15	.0836	1084.7	.0001
313.15	.1117	1086.1	.0001
313.15	.14	1087.8	.0001
313.15	.1686	1088.9	.0001
313.15	.1974	1089.8	.0001
313.15	.2263	1091.1	.0001
318.15	0	1078.8	.0001
318.15	.0277	1079.5	.0001
318.15	.0555	1080.9	.0001
318.15	.0836	1082.3	.0001
318.15	.1117	1083.7	.0001
318.15	.14	1085.3	.0001
318.15	.1686	1086.4	.0001
318.15	.1974	1087.3	.0001
318.15	.2263	1088.6	.0001
323.15	0	1076.1	.0001
323.15	.0277	1076.8	.0001
323.15	.0555	1078.3	.0001
323.15	.0836	1079.6	.0001
323.15	.1117	1081	.0001
323.15	.14	1082.7	.0001
323.15	.1686	1083.8	.0001
323.15	.1974	1084.7	.0001
323.15	.2263	1086	.0001

System: L-histidine + potassium chloride + water; phases: Liquid
Fixed: Solvent: Molality, mol/kg of potassium chloride = 2
Fixed: Pressure, kPa = 101
Property: Speed of sound, m/s (Liquid); method: Sing-around technique in a fixed-path interferometer
Temperature, K	Molality, mol/kg of L-histidine	Speed of sound, m/s	uncertainty
298.15	0	1592.8	.2
298.15	.0277	1595.6	.2
298.15	.0555	1597.2	.2
298.15	.0836	1599.2	.2
298.15	.1117	1600.8	.2
298.15	.14	1602.8	.2
298.15	.1686	1604.8	.2
298.15	.1974	1606.4	.2
298.15	.2263	1608.4	.2
303.15	0	1600.4	.2
303.15	.0277	1604	.2
303.15	.0555	1605.6	.2
303.15	.0836	1607.6	.2
303.15	.1117	1609.6	.2
303.15	.14	1611.6	.2
303.15	.1686	1613.6	.2
303.15	.1974	1615.6	.2
303.15	.2263	1618	.2
308.15	0	1608	.2
308.15	.0277	1610.4	.2
308.15	.0555	1612.8	.2
308.15	.0836	1615.2	.2
308.15	.1117	1617.2	.2
308.15	.14	1618.8	.2
308.15	.1686	1620.4	.2
308.15	.1974	1622.4	.2
308.15	.2263	1624.4	.2
313.15	0	1614	.2
313.15	.0277	1616.8	.2
313.15	.0555	1618.4	.2
313.15	.0836	1620.8	.2
313.15	.1117	1622.4	.2
313.15	.14	1623.6	.2
313.15	.1686	1625.6	.2
313.15	.1974	1626.8	.2
313.15	.2263	1629.2	.2
318.15	0	1617.2	1
318.15	.0277	1621.4	.2
318.15	.0555	1623.4	.2
318.15	.0836	1624.8	.2
318.15	.1117	1626.4	.2
318.15	.14	1628	.2
318.15	.1686	1630.4	.2
318.15	.1974	1632	.2
318.15	.2263	1633.6	.2
323.15	0	1622	.2
323.15	.0277	1625.2	.2
323.15	.0555	1626.4	.2
323.15	.0836	1628.4	.2
323.15	.1117	1630.4	.2
323.15	.14	1632	.2
323.15	.1686	1634	.2
323.15	.1974	1636	.2
323.15	.2263	1637.6	.2

System: L-histidine + water + potassium nitrate; phases: Liquid
Fixed: Solvent: Molality, mol/kg of potassium nitrate = 2
Fixed: Pressure, kPa = 101
Property: Mass density, kg/m3 (Liquid); method: Pycnometric method
Temperature, K	Molality, mol/kg of L-histidine	Mass density, kg/m3	uncertainty
298.15	0	1115	.0001
298.15	.027	1115.9	.0001
298.15	.0541	1117.3	.0001
298.15	.0815	1118.7	.0001
298.15	.109	1119.4	.0001
298.15	.1367	1120.4	.0001
298.15	.1645	1122	.0001
298.15	.1926	1123	.0001
298.15	.2207	1124.7	.0001
303.15	0	1112.5	.0001
303.15	.027	1113.4	.0001
303.15	.0541	1114.7	.0001
303.15	.0815	1116	.0001
303.15	.109	1117	.0001
303.15	.1367	1117.8	.0001
303.15	.1645	1119.6	.0001
303.15	.1926	1120.4	.0001
303.15	.2207	1122.1	.0001
308.15	0	1109.8	.0001
308.15	.027	1110.7	.0001
308.15	.0541	1112	.0001
308.15	.0815	1113.2	.0001
308.15	.109	1114.3	.0001
308.15	.1367	1115	.0001
308.15	.1645	1116.9	.0001
308.15	.1926	1117.7	.0001
308.15	.2207	1119.4	.0001
313.15	0	1107	.0001
313.15	.027	1107.8	.0001
313.15	.0541	1109	.0001
313.15	.0815	1110.2	.0001
313.15	.109	1111.4	.0001
313.15	.1367	1112.2	.0001
313.15	.1645	1114	.0001
313.15	.1926	1114.8	.0001
313.15	.2207	1116.6	.0001
318.15	0	1104	.0001
318.15	.027	1104.8	.0001
318.15	.0541	1106	.0001
318.15	.0815	1107.2	.0001
318.15	.109	1108.2	.0001
318.15	.1367	1109.2	.0001
318.15	.1645	1111	.0001
318.15	.1926	1111.8	.0001
318.15	.2207	1113.6	.0001
323.15	0	1100.9	.0001
323.15	.027	1101.7	.0001
323.15	.0541	1102.8	.0001
323.15	.0815	1104	.0001
323.15	.109	1104.9	.0001
323.15	.1367	1106	.0001
323.15	.1645	1107.7	.0001
323.15	.1926	1108.7	.0001
323.15	.2207	1110.4	.0001

System: L-histidine + water + potassium nitrate; phases: Liquid
Fixed: Solvent: Molality, mol/kg of potassium nitrate = 2
Fixed: Pressure, kPa = 101
Property: Speed of sound, m/s (Liquid); method: Sing-around technique in a fixed-path interferometer
Temperature, K	Molality, mol/kg of L-histidine	Speed of sound, m/s	uncertainty
298.15	0	1558.8	.2
298.15	.027	1562.4	.2
298.15	.0541	1564.4	.2
298.15	.0815	1566.8	.2
298.15	.109	1568.8	.2
298.15	.1367	1570.8	.2
298.15	.1645	1573.2	.2
298.15	.1926	1575.2	.2
298.15	.2207	1577.6	.2
303.15	0	1566.8	.2
303.15	.027	1570	.2
303.15	.0541	1572	.2
303.15	.0815	1574	.2
303.15	.109	1576	.2
303.15	.1367	1578	.2
303.15	.1645	1580.4	.2
303.15	.1926	1582.4	.2
303.15	.2207	1584.4	.2
308.15	0	1572.8	.2
308.15	.027	1576.8	.2
308.15	.0541	1578.4	.2
308.15	.0815	1580.4	.2
308.15	.109	1582.4	.2
308.15	.1367	1584.4	.2
308.15	.1645	1586.4	.2
308.15	.1926	1588.4	.2
308.15	.2207	1590.8	.2
313.15	0	1577.6	.2
313.15	.027	1581.6	.2
313.15	.0541	1583.6	.2
313.15	.0815	1585.6	.2
313.15	.109	1587.2	.2
313.15	.1367	1589.2	.2
313.15	.1645	1591.2	.2
313.15	.1926	1593.2	.2
313.15	.2207	1595.6	.2
318.15	0	1582	.2
318.15	.027	1586	.2
318.15	.0541	1587.6	.2
318.15	.0815	1589.2	.2
318.15	.109	1590.8	.2
318.15	.1367	1592.8	.2
318.15	.1645	1594.8	.2
318.15	.1926	1596.8	.2
318.15	.2207	1598.8	.2
323.15	0	1586.4	.2
323.15	.027	1589.6	.2
323.15	.0541	1591.6	.2
323.15	.0815	1592.8	.2
323.15	.109	1594.8	.2
323.15	.1367	1596	.2
323.15	.1645	1598	.2
323.15	.1926	1600	.2
323.15	.2207	1602.4	.2

System: L-glutamic acid + potassium chloride + water; phases: Liquid
Fixed: Solvent: Molality, mol/kg of potassium chloride = 2
Fixed: Pressure, kPa = 101
Property: Mass density, kg/m3 (Liquid); method: Pycnometric method
Temperature, K	Molality, mol/kg of L-glutamic acid	Mass density, kg/m3	uncertainty
298.15	0	1087.7	.0001
298.15	.0092	1087.9	.0001
298.15	.0184	1088.1	.0001
298.15	.0277	1088.4	.0001
298.15	.0369	1088.7	.0001
298.15	.0462	1089.3	.0001
298.15	.0555	1090.2	.0001
303.15	0	1085.7	.0001
303.15	.0092	1085.9	.0001
303.15	.0184	1086.1	.0001
303.15	.0277	1086.5	.0001
303.15	.0369	1086.8	.0001
303.15	.0462	1087.5	.0001
303.15	.0555	1088.3	.0001
308.15	0	1083.6	.0001
308.15	.0092	1083.7	.0001
308.15	.0184	1084	.0001
308.15	.0277	1084.4	.0001
308.15	.0369	1084.7	.0001
308.15	.0462	1085.5	.0001
308.15	.0555	1086.2	.0001
313.15	0	1081.3	.0001
313.15	.0092	1081.5	.0001
313.15	.0184	1081.7	.0001
313.15	.0277	1082.2	.0001
313.15	.0369	1082.5	.0001
313.15	.0462	1083.3	.0001
313.15	.0555	1083.9	.0001
318.15	0	1078.8	.0001
318.15	.0092	1079	.0001
318.15	.0184	1079.3	.0001
318.15	.0277	1079.7	.0001
318.15	.0369	1080	.0001
318.15	.0462	1080.8	.0001
318.15	.0555	1081.5	.0001
323.15	0	1076.1	.0001
323.15	.0092	1076.5	.0001
323.15	.0184	1076.7	.0001
323.15	.0277	1077.1	.0001
323.15	.0369	1077.4	.0001
323.15	.0462	1078.1	.0001
323.15	.0555	1078.8	.0001

System: L-glutamic acid + potassium chloride + water; phases: Liquid
Fixed: Solvent: Molality, mol/kg of potassium chloride = 2
Fixed: Pressure, kPa = 101
Property: Speed of sound, m/s (Liquid); method: Sing-around technique in a fixed-path interferometer
Temperature, K	Molality, mol/kg of L-glutamic acid	Speed of sound, m/s	uncertainty
298.15	0	1592.8	.2
298.15	.0092	1594	.2
298.15	.0184	1594.4	.2
298.15	.0277	1594.8	.2
298.15	.0369	1595.2	.2
298.15	.0462	1596	.2
298.15	.0555	1596.4	.2
303.15	0	1600.4	.2
303.15	.0092	1600.8	.2
303.15	.0184	1601.2	.2
303.15	.0277	1601.6	.2
303.15	.0369	1602	.2
303.15	.0462	1602.4	.2
303.15	.0555	1603.2	.2
308.15	0	1608	.2
308.15	.0092	1608.4	.2
308.15	.0184	1608.8	.2
308.15	.0277	1609.2	.2
308.15	.0369	1609.6	.2
308.15	.0462	1610	.2
308.15	.0555	1610.4	.2
313.15	0	1614	.2
313.15	.0092	1614.4	.2
313.15	.0184	1614.8	.2
313.15	.0277	1615.2	.2
313.15	.0369	1615.6	.2
313.15	.0462	1616	.2
313.15	.0555	1616.8	.2
318.15	0	1617.2	.2
318.15	.0092	1617.8	.2
318.15	.0184	1618.4	.2
318.15	.0277	1618.8	.2
318.15	.0369	1619.6	.2
318.15	.0462	1620	.2
318.15	.0555	1620.4	.2
323.15	0	1622	.2
323.15	.0092	1622.4	.2
323.15	.0184	1623.2	.2
323.15	.0277	1624	.2
323.15	.0369	1624.8	.2
323.15	.0462	1625.6	.2
323.15	.0555	1626.4	.2

System: L-glutamic acid + water + potassium nitrate; phases: Liquid
Fixed: Solvent: Molality, mol/kg of potassium nitrate = 2
Fixed: Pressure, kPa = 101
Property: Mass density, kg/m3 (Liquid); method: Pycnometric method
Temperature, K	Molality, mol/kg of L-glutamic acid	Mass density, kg/m3	uncertainty
298.15	0	1115	.0001
298.15	.009	1115.5	.0001
298.15	.018	1116	.0001
298.15	.027	1116.6	.0001
298.15	.036	1117.1	.0001
298.15	.045	1117.4	.0001
298.15	.0541	1118.4	.0001
303.15	0	1112.5	.0001
303.15	.009	1113	.0001
303.15	.018	1113.5	.0001
303.15	.027	1114.1	.0001
303.15	.036	1114.7	.0001
303.15	.045	1114.9	.0001
303.15	.0541	1115.9	.0001
308.15	0	1109.8	.0001
308.15	.009	1110.4	.0001
308.15	.018	1110.8	.0001
308.15	.027	1111.4	.0001
308.15	.036	1112	.0001
308.15	.045	1112.2	.0001
308.15	.0541	1113.2	.0001
313.15	0	1107	.0001
313.15	.009	1107.6	.0001
313.15	.018	1108	.0001
313.15	.027	1108.6	.0001
313.15	.036	1109.2	.0001
313.15	.045	1109.4	.0001
313.15	.0541	1110.4	.0001
318.15	0	1104	.0001
318.15	.009	1104.7	.0001
318.15	.018	1105	.0001
318.15	.027	1105.6	.0001
318.15	.036	1106.2	.0001
318.15	.045	1106.4	.0001
318.15	.0541	1107.4	.0001
323.15	0	1100.9	.0001
323.15	.009	1101.6	.0001
323.15	.018	1101.9	.0001
323.15	.027	1102.6	.0001
323.15	.036	1103.2	.0001
323.15	.045	1103.4	.0001
323.15	.0541	1104.2	.0001

System: L-glutamic acid + water + potassium nitrate; phases: Liquid
Fixed: Solvent: Molality, mol/kg of potassium nitrate = 2
Fixed: Pressure, kPa = 101
Property: Speed of sound, m/s (Liquid); method: Sing-around technique in a fixed-path interferometer
Temperature, K	Molality, mol/kg of L-glutamic acid	Speed of sound, m/s	uncertainty
298.15	0	1558.8	.2
298.15	.009	1559.2	.2
298.15	.018	1560.4	.2
298.15	.027	1561.2	.2
298.15	.036	1562	.2
298.15	.045	1562.8	.2
298.15	.0541	1563.6	.2
303.15	0	1566.8	.2
303.15	.009	1567.6	.2
303.15	.018	1568.8	.2
303.15	.027	1569.2	.2
303.15	.036	1570.4	.2
303.15	.045	1571.2	.2
303.15	.0541	1572.2	.2
308.15	0	1572.8	.2
308.15	.009	1573.2	.2
308.15	.018	1574.4	.2
308.15	.027	1575.6	.2
308.15	.036	1576.8	.2
308.15	.045	1577.6	.2
308.15	.0541	1578	.2
313.15	0	1577.6	.2
313.15	.009	1578.8	.2
313.15	.018	1579.6	.2
313.15	.027	1580.8	.2
313.15	.036	1582	.2
313.15	.045	1583.2	.2
313.15	.0541	1584	.2
318.15	0	1582	.2
318.15	.009	1583.6	.2
318.15	.018	1584.8	.2
318.15	.027	1585.6	.2
318.15	.036	1586.4	.2
318.15	.045	1587.6	.2
318.15	.0541	1588.4	.2
323.15	0	1586.4	.2
323.15	.009	1587.2	.2
323.15	.018	1588	.2
323.15	.027	1588.8	.2
323.15	.036	1589	.2
323.15	.045	1590.4	.2
323.15	.0541	1591.2	.2

System: L-tryptophan + potassium chloride + water; phases: Liquid
Fixed: Solvent: Molality, mol/kg of potassium chloride = 2
Fixed: Pressure, kPa = 101
Property: Mass density, kg/m3 (Liquid); method: Pycnometric method
Temperature, K	Molality, mol/kg of L-tryptophan	Mass density, kg/m3	uncertainty
298.15	0	1087.7	.0001
298.15	.0092	1087.9	.0001
298.15	.0138	1088.1	.0001
298.15	.0184	1088.2	.0001
298.15	.0231	1088.6	.0001
298.15	.0277	1089	.0001
298.15	.0323	1089.4	.0001
298.15	.037	1089.5	.0001
303.15	0	1085.7	.0001
303.15	.0092	1086	.0001
303.15	.0138	1086.2	.0001
303.15	.0184	1086.4	.0001
303.15	.0231	1086.7	.0001
303.15	.0277	1087	.0001
303.15	.0323	1087.3	.0001
303.15	.037	1087.4	.0001
308.15	0	1083.6	.0001
308.15	.0092	1083.8	.0001
308.15	.0138	1084.1	.0001
308.15	.0184	1084.3	.0001
308.15	.0231	1084.6	.0001
308.15	.0277	1084.7	.0001
308.15	.0323	1085.1	.0001
308.15	.037	1085.3	.0001
313.15	0	1081.3	.0001
313.15	.0092	1081.6	.0001
313.15	.0138	1081.9	.0001
313.15	.0184	1082.1	.0001
313.15	.0231	1082.3	.0001
313.15	.0277	1082.4	.0001
313.15	.0323	1082.8	.0001
313.15	.037	1082.9	.0001
318.15	0	1078.8	.0001
318.15	.0092	1079.1	.0001
318.15	.0138	1079.4	.0001
318.15	.0184	1079.6	.0001
318.15	.0231	1079.8	.0001
318.15	.0277	1079.9	.0001
318.15	.0323	1080.3	.0001
318.15	.037	1080.5	.0001
323.15	0	1076.1	.0001
323.15	.0092	1076.4	.0001
323.15	.0138	1076.7	.0001
323.15	.0184	1077	.0001
323.15	.0231	1077.1	.0001
323.15	.0277	1077.3	.0001
323.15	.0323	1077.7	.0001
323.15	.037	1077.9	.0001

System: L-tryptophan + potassium chloride + water; phases: Liquid
Fixed: Solvent: Molality, mol/kg of potassium chloride = 2
Fixed: Pressure, kPa = 101
Property: Speed of sound, m/s (Liquid); method: Sing-around technique in a fixed-path interferometer
Temperature, K	Molality, mol/kg of L-tryptophan	Speed of sound, m/s	uncertainty
298.15	0	1592.8	.2
298.15	.0092	1593.6	.2
298.15	.0138	1594	.2
298.15	.0184	1594.4	.2
298.15	.0231	1595.2	.2
298.15	.0277	1596	.2
298.15	.0323	1596.8	.2
298.15	.037	1597.6	.2
303.15	0	1600.4	.2
303.15	.0092	1601.6	.2
303.15	.0138	1602	.2
303.15	.0184	1603.2	.2
303.15	.0231	1604	.2
303.15	.0277	1604.8	.2
303.15	.0323	1605.6	.2
303.15	.037	1606.4	.2
308.15	0	1608	.2
308.15	.0092	1608.8	.2
308.15	.0138	1609.6	.2
308.15	.0184	1610	.2
308.15	.0231	1610.4	.2
308.15	.0277	1610.8	.2
308.15	.0323	1611.6	.2
308.15	.037	1612	.2
313.15	0	1614	.2
313.15	.0092	1614.8	.2
313.15	.0138	1615.2	.2
313.15	.0184	1615.6	.2
313.15	.0231	1616	.2
313.15	.0277	1616.8	.2
313.15	.0323	1617.6	.2
313.15	.037	1618.4	.2
318.15	0	1617.2	.2
318.15	.0092	1620	.2
318.15	.0138	1620.4	.2
318.15	.0184	1620.8	.2
318.15	.0231	1621.6	.2
318.15	.0277	1622.4	.2
318.15	.0323	1622.8	.2
318.15	.037	1623.6	.2
323.15	0	1622	.2
323.15	.0092	1623.6	.2
323.15	.0138	1624	.2
323.15	.0184	1624.4	.2
323.15	.0231	1625.2	.2
323.15	.0277	1626	.2
323.15	.0323	1626.4	.2
323.15	.037	1627.6	.2

System: L-tryptophan + water + potassium nitrate; phases: Liquid
Fixed: Solvent: Molality, mol/kg of potassium nitrate = 2
Fixed: Pressure, kPa = 101
Property: Mass density, kg/m3 (Liquid); method: Pycnometric method
Temperature, K	Molality, mol/kg of L-tryptophan	Mass density, kg/m3	uncertainty
298.15	0	1115	.0001
298.15	.009	1115.3	.0001
298.15	.0135	1115.6	.0001
298.15	.018	1115.7	.0001
298.15	.0225	1116.1	.0001
298.15	.027	1116.3	.0001
298.15	.0315	1116.4	.0001
298.15	.0361	1116.9	.0001
303.15	0	1112.5	.0001
303.15	.009	1112.7	.0001
303.15	.0135	1113.1	.0001
303.15	.018	1113.3	.0001
303.15	.0225	1113.5	.0001
303.15	.027	1113.8	.0001
303.15	.0315	1113.9	.0001
303.15	.0361	1114.3	.0001
308.15	0	1109.8	.0001
308.15	.009	1110	.0001
308.15	.0135	1110.4	.0001
308.15	.018	1110.6	.0001
308.15	.0225	1110.8	.0001
308.15	.027	1111.1	.0001
308.15	.0315	1111.3	.0001
308.15	.0361	1111.5	.0001
313.15	0	1107	.0001
313.15	.009	1107.2	.0001
313.15	.0135	1107.6	.0001
313.15	.018	1107.8	.0001
313.15	.0225	1108	.0001
313.15	.027	1108.3	.0001
313.15	.0315	1108.4	.0001
313.15	.0361	1108.6	.0001
318.15	0	1104	.0001
318.15	.009	1104.2	.0001
318.15	.0135	1104.6	.0001
318.15	.018	1104.8	.0001
318.15	.0225	1105	.0001
318.15	.027	1105.3	.0001
318.15	.0315	1105.4	.0001
318.15	.0361	1105.6	.0001
323.15	0	1100.9	.0001
323.15	.009	1101.1	.0001
323.15	.0135	1101.5	.0001
323.15	.018	1101.7	.0001
323.15	.0225	1101.8	.0001
323.15	.027	1102.1	.0001
323.15	.0315	1102.3	.0001
323.15	.0361	1102.4	.0001

System: L-tryptophan + water + potassium nitrate; phases: Liquid
Fixed: Solvent: Molality, mol/kg of potassium nitrate = 2
Fixed: Pressure, kPa = 101
Property: Speed of sound, m/s (Liquid); method: Sing-around technique in a fixed-path interferometer
Temperature, K	Molality, mol/kg of L-tryptophan	Speed of sound, m/s	uncertainty
298.15	0	1558.8	.2
298.15	.009	1560.8	.2
298.15	.0135	1561.2	.2
298.15	.018	1562	.2
298.15	.0225	1562.6	.2
298.15	.027	1563.2	.2
298.15	.0315	1564	.2
298.15	.0361	1564.8	.2
303.15	0	1566.8	.2
303.15	.009	1567.6	.2
303.15	.0135	1568	.2
303.15	.018	1568.4	.2
303.15	.0225	1569.2	.2
303.15	.027	1570	.2
303.15	.0315	1570.8	.2
303.15	.0361	1571.6	.2
308.15	0	1572.6	.2
308.15	.009	1573	.2
308.15	.0135	1573.6	.2
308.15	.018	1574.8	.2
308.15	.0225	1575.6	.2
308.15	.027	1576	.2
308.15	.0315	1576.8	.2
308.15	.0361	1578	.2
313.15	0	1577.6	.2
313.15	.009	1578	.2
313.15	.0135	1578.4	.2
313.15	.018	1579.2	.2
313.15	.0225	1580	.2
313.15	.027	1580.8	.2
313.15	.0315	1581.2	.2
313.15	.0361	1582	.2
318.15	0	1582	.2
318.15	.009	1582.8	.2
318.15	.0135	1583.2	.2
318.15	.018	1584	.2
318.15	.0225	1584.4	.2
318.15	.027	1585.2	.2
318.15	.0315	1586	.2
318.15	.0361	1586.8	.2
323.15	0	1586.4	.2
323.15	.009	1586.8	.2
323.15	.0135	1587.2	.2
323.15	.018	1587.6	.2
323.15	.0225	1588.4	.2
323.15	.027	1589.2	.2
323.15	.0315	1590	.2
323.15	.0361	1590.8	.2

System: glycylglycine + potassium chloride + water; phases: Liquid
Fixed: Solvent: Molality, mol/kg of potassium chloride = 2
Fixed: Pressure, kPa = 101
Property: Mass density, kg/m3 (Liquid); method: Pycnometric method
Temperature, K	Molality, mol/kg of glycylglycine	Mass density, kg/m3	uncertainty
298.15	0	1087.7	.0001
298.15	.0184	1088.1	.0001
298.15	.0369	1089	.0001
298.15	.0554	1090.2	.0001
298.15	.074	1091.1	.0001
298.15	.0927	1092.3	.0001
298.15	.1114	1092.8	.0001
298.15	.1302	1093.5	.0001
298.15	.1491	1094.2	.0001
303.15	0	1085.7	.0001
303.15	.0184	1086.2	.0001
303.15	.0369	1087.1	.0001
303.15	.0554	1088.1	.0001
303.15	.074	1089	.0001
303.15	.0927	1089.9	.0001
303.15	.1114	1090.5	.0001
303.15	.1302	1091.5	.0001
303.15	.1491	1092.2	.0001
308.15	0	1083.6	.0001
308.15	.0184	1084.1	.0001
308.15	.0369	1085	.0001
308.15	.0554	1085.9	.0001
308.15	.074	1086.8	.0001
308.15	.0927	1087.5	.0001
308.15	.1114	1088.1	.0001
308.15	.1302	1089.3	.0001
308.15	.1491	1090	.0001
313.15	0	1081.3	.0001
313.15	.0184	1081.9	.0001
313.15	.0369	1082.8	.0001
313.15	.0554	1083.6	.0001
313.15	.074	1084.5	.0001
313.15	.0927	1085.2	.0001
313.15	.1114	1085.7	.0001
313.15	.1302	1087	.0001
313.15	.1491	1087.7	.0001
318.15	0	1078.8	.0001
318.15	.0184	1079.5	.0001
318.15	.0369	1080.4	.0001
318.15	.0554	1081.2	.0001
318.15	.074	1082	.0001
318.15	.0927	1082.7	.0001
318.15	.1114	1083.2	.0001
318.15	.1302	1084.5	.0001
318.15	.1491	1085.2	.0001
323.15	0	1076.1	.0001
323.15	.0184	1076.9	.0001
323.15	.0369	1077.8	.0001
323.15	.0554	1078.6	.0001
323.15	.074	1079.4	.0001
323.15	.0927	1080.2	.0001
323.15	.1114	1080.7	.0001
323.15	.1302	1081.9	.0001
323.15	.1491	1082.6	.0001

System: glycylglycine + potassium chloride + water; phases: Liquid
Fixed: Solvent: Molality, mol/kg of potassium chloride = 2
Fixed: Pressure, kPa = 101
Property: Speed of sound, m/s (Liquid); method: Sing-around technique in a fixed-path interferometer
Temperature, K	Molality, mol/kg of glycylglycine	Speed of sound, m/s	uncertainty
298.15	0	1592.8	.2
298.15	.0184	1594	.2
298.15	.0369	1596.4	.2
298.15	.0554	1598.5	.2
298.15	.074	1599.6	.2
298.15	.0927	1600.8	.2
298.15	.1114	1602.4	.2
298.15	.1302	1603.2	.2
298.15	.1491	1604.4	.2
303.15	0	1600.4	.2
303.15	.0184	1601.2	.2
303.15	.0369	1603.2	.2
303.15	.0554	1605.6	.2
303.15	.074	1607.5	.2
303.15	.0927	1608.8	.2
303.15	.1114	1609.6	.2
303.15	.1302	1610.4	.2
303.15	.1491	1611.2	.2
308.15	0	1608	.2
308.15	.0184	1609.2	.2
308.15	.0369	1610.4	.2
308.15	.0554	1612.7	.2
308.15	.074	1613.2	.2
308.15	.0927	1614.4	.2
308.15	.1114	1615.6	.2
308.15	.1302	1616.8	.2
308.15	.1491	1617.8	.2
313.15	0	1614	.2
313.15	.0184	1614.9	.2
313.15	.0369	1616.4	.2
313.15	.0554	1617.7	.2
313.15	.074	1618.4	.2
313.15	.0927	1620.2	.2
313.15	.1114	1622.4	.2
313.15	.1302	1623.3	.2
313.15	.1491	1624.4	.2
318.15	0	1617.2	.2
318.15	.0184	1621.6	.2
318.15	.0369	1622.4	.2
318.15	.0554	1623.6	.2
318.15	.074	1624.4	.2
318.15	.0927	1626	.2
318.15	.1114	1627.2	.2
318.15	.1302	1628	.2
318.15	.1491	1628.8	.2
323.15	0	1622	.2
323.15	.0184	1625.2	.2
323.15	.0369	1626	.2
323.15	.0554	1627.6	.2
323.15	.074	1628.4	.2
323.15	.0927	1629.2	.2
323.15	.1114	1630.4	.2
323.15	.1302	1630.8	.2
323.15	.1491	1632.4	.2

System: glycylglycine + water + potassium nitrate; phases: Liquid
Fixed: Solvent: Molality, mol/kg of potassium nitrate = 2
Fixed: Pressure, kPa = 101
Property: Mass density, kg/m3 (Liquid); method: Pycnometric method
Temperature, K	Molality, mol/kg of glycylglycine	Mass density, kg/m3	uncertainty
298.15	0	1115	.0001
298.15	.018	1115.6	.0001
298.15	.036	1116.1	.0001
298.15	.0541	1117.1	.0001
298.15	.0722	1118.1	.0001
298.15	.0904	1119.2	.0001
298.15	.1087	1119.8	.0001
298.15	.127	1121.1	.0001
298.15	.1454	1121.6	.0001
303.15	0	1112.5	.0001
303.15	.018	1113	.0001
303.15	.036	1113.7	.0001
303.15	.0541	1114.8	.0001
303.15	.0722	1115.7	.0001
303.15	.0904	1116.6	.0001
303.15	.1087	1117.4	.0001
303.15	.127	1118.5	.0001
303.15	.1454	1119.4	.0001
308.15	0	1109.8	.0001
308.15	.018	1110.4	.0001
308.15	.036	1111.1	.0001
308.15	.0541	1112.3	.0001
308.15	.0722	1113.1	.0001
308.15	.0904	1113.9	.0001
308.15	.1087	1114.8	.0001
308.15	.127	1115.8	.0001
308.15	.1454	1117	.0001
313.15	0	1107	.0001
313.15	.018	1107.6	.0001
313.15	.036	1108.3	.0001
313.15	.0541	1109.6	.0001
313.15	.0722	1110.3	.0001
313.15	.0904	1111.1	.0001
313.15	.1087	1112	.0001
313.15	.127	1112.9	.0001
313.15	.1454	1114.4	.0001
318.15	0	1104	.0001
318.15	.018	1104.6	.0001
318.15	.036	1105.3	.0001
318.15	.0541	1106.7	.0001
318.15	.0722	1107.3	.0001
318.15	.0904	1108.1	.0001
318.15	.1087	1109	.0001
318.15	.127	1109.9	.0001
318.15	.1454	1111.7	.0001
323.15	0	1100.9	.0001
323.15	.018	1101.5	.0001
323.15	.036	1102.2	.0001
323.15	.0541	1103.5	.0001
323.15	.0722	1104.2	.0001
323.15	.0904	1105	.0001
323.15	.1087	1105.8	.0001
323.15	.127	1106.8	.0001
323.15	.1454	1108.9	.0001

System: glycylglycine + water + potassium nitrate; phases: Liquid
Fixed: Solvent: Molality, mol/kg of potassium nitrate = 2
Fixed: Pressure, kPa = 101
Property: Speed of sound, m/s (Liquid); method: Sing-around technique in a fixed-path interferometer
Temperature, K	Molality, mol/kg of glycylglycine	Speed of sound, m/s	uncertainty
298.15	0	1558.8	.2
298.15	.018	1561.4	.2
298.15	.036	1562.6	.2
298.15	.0541	1563.5	.2
298.15	.0722	1564.8	.2
298.15	.0904	1566.4	.2
298.15	.1087	1567.6	.2
298.15	.127	1569	.2
298.15	.1454	1570.4	.2
303.15	0	1566.8	.2
303.15	.018	1568.4	.2
303.15	.036	1569.6	.2
303.15	.0541	1571.6	.2
303.15	.0722	1572.8	.2
303.15	.0904	1574.6	.2
303.15	.1087	1576	.2
303.15	.127	1576.8	.2
303.15	.1454	1578	.2
308.15	0	1572.8	.2
308.15	.018	1575.6	.2
308.15	.036	1576.4	.2
308.15	.0541	1577.2	.2
308.15	.0722	1578.8	.2
308.15	.0904	1580	.2
308.15	.1087	1581.6	.2
308.15	.127	1582.8	.2
308.15	.1454	1584.4	.2
313.15	0	1577.6	.2
313.15	.018	1580.4	.2
313.15	.036	1582	.2
313.15	.0541	1582.8	.2
313.15	.0722	1584	.2
313.15	.0904	1585.2	.2
313.15	.1087	1586.8	.2
313.15	.127	1588	.2
313.15	.1454	1590	.2
318.15	0	1582	.2
318.15	.018	1585.2	.2
318.15	.036	1586	.2
318.15	.0541	1587.2	.2
318.15	.0722	1588.4	.2
318.15	.0904	1590	.2
318.15	.1087	1591.6	.2
318.15	.127	1593.2	.2
318.15	.1454	1594.4	.2
323.15	0	1586.4	.2
323.15	.018	1589.6	.2
323.15	.036	1590.4	.2
323.15	.0541	1591.6	.2
323.15	.0722	1592.8	.2
323.15	.0904	1594.8	.2
323.15	.1087	1595.6	.2
323.15	.127	1596.4	.2
323.15	.1454	1597.6	.2

System: potassium chloride + water; phases: Liquid
Property: Mass density, kg/m3 (Liquid); method: Pycnometric method
Temperature, K	Molality, mol/kg of potassium chloride	Pressure, kPa	Mass density, kg/m3	uncertainty
298.15	2	101	1087.7	.0001
303.15	2	101	1085.7	.0001
308.15	2	101	1083.6	.0001
313.15	2	101	1081.3	.0001
318.15	2	101	1078.8	.0001
323.15	2	101	1076.1	.0001

System: potassium chloride + water; phases: Liquid
Property: Speed of sound, m/s (Liquid); method: Sing-around technique in a fixed-path interferometer
Temperature, K	Molality, mol/kg of potassium chloride	Pressure, kPa	Speed of sound, m/s	uncertainty
298.15	2	101	1592.8	.2
303.15	2	101	1600.4	.2
308.15	2	101	1608	.2
313.15	2	101	1614	.2
318.15	2	101	1617.2	.2
323.15	2	101	1622	.2

System: water + potassium nitrate; phases: Liquid
Property: Mass density, kg/m3 (Liquid); method: Pycnometric method
Temperature, K	Molality, mol/kg of potassium nitrate	Pressure, kPa	Mass density, kg/m3	uncertainty
298.15	2	101	1115	.0001
303.15	2	101	1112.5	.0001
308.15	2	101	1109.8	.0001
313.15	2	101	1107	.0001
318.15	2	101	1104	.0001
323.15	2	101	1100.9	.0001

System: water + potassium nitrate; phases: Liquid
Property: Speed of sound, m/s (Liquid); method: Sing-around technique in a fixed-path interferometer
Temperature, K	Molality, mol/kg of potassium nitrate	Pressure, kPa	Speed of sound, m/s	uncertainty
298.15	2	101	1558.8	.2
303.15	2	101	1566.8	.2
308.15	2	101	1572.8	.2
313.15	2	101	1577.6	.2
318.15	2	101	1582	.2
323.15	2	101	1586.4	.2
308.15	2	101	1572.6	.2
