Measured thermophysical data. THERMODYNAMICS OF MIXTURES CONTAINING  ALKOXYETHANOLS. XXVIII. LIQUID-LIQUID EQUILIBRIA  FOR 2-PHENOXYETHANOL + SELECTED ALKANES
Source: Thermochim. Acta, 2011, 10.1016/j.tca.2011.04.012
Compound 1: ethylene glycol monophenyl ether, C8H10O2
Compound 2: heptane, C7H16, purity 99.5%
Compound 3: octane, C8H18, purity 99%
Compound 4: cyclohexane, C6H12, purity 99.5%
Compound 5: methylcyclohexane, C7H14, purity 98%
Compound 6: ethylcyclohexane, C8H16, purity 99%

System: ethylene glycol monophenyl ether; phases: Liquid
Fixed: Pressure, kPa = 101.325
Property: Mass density, kg/m3 (Liquid); method: none given
Temperature, K	Mass density, kg/m3	uncertainty
298.15	1103.41	

System: ethylene glycol monophenyl ether + heptane; phases: Liquid mixture 1, Liquid mixture 2
Fixed: Pressure, kPa = 101
Property: Liquid-liquid equilibrium temperature, K (Liquid mixture 1); method: Visual observation
Mole fraction of ethylene glycol monophenyl ether	Liquid-liquid equilibrium temperature, K	uncertainty
.2089	361.59	.05
.2389	363.41	.05
.2618	364.76	.05
.281	365.64	.05
.3007	366.37	.05
.3379	367.02	.05
.3741	367.38	.05
.3954	367.52	.05
.4232	367.54	.05
.4297	367.53	.05
.4511	367.59	.05
.4602	367.56	.05
.4752	367.54	.05
.4976	367.6	.05
.5112	367.45	.05
.525	367.35	.05
.5466	367.28	.05
.5926	366.41	.05
.6273	365.13	.05
.6537	363.48	.05
.6858	361.45	.05

System: octane + ethylene glycol monophenyl ether; phases: Liquid mixture 1, Liquid mixture 2
Fixed: Pressure, kPa = 101
Property: Liquid-liquid equilibrium temperature, K (Liquid mixture 1); method: Visual observation
Mole fraction of ethylene glycol monophenyl ether	Liquid-liquid equilibrium temperature, K	uncertainty
.2774	365.92	.05
.2914	366.52	.05
.2992	366.86	.05
.3196	367.62	.05
.3382	368.19	.05
.3561	368.46	.05
.3719	368.84	.05
.3958	368.95	.05
.4208	369.12	.05
.4448	369.18	.05
.474	369.25	.05
.4998	369.25	.05
.5221	369.16	.05
.5446	369.17	.05
.57	368.98	.05
.5914	368.8	.05
.6195	368.26	.05
.6406	367.64	.05
.6687	366.74	.05
.6894	365.69	.05

System: cyclohexane + ethylene glycol monophenyl ether; phases: Liquid mixture 1, Liquid mixture 2
Fixed: Pressure, kPa = 101
Property: Liquid-liquid equilibrium temperature, K (Liquid mixture 1); method: Visual observation
Mole fraction of ethylene glycol monophenyl ether	Liquid-liquid equilibrium temperature, K	uncertainty
.1166	310.55	.05
.1264	311.48	.05
.1562	312.96	.05
.1851	313.9	.05
.2063	314.36	.05
.2264	314.63	.05
.2555	314.88	.05
.2855	314.93	.05
.3246	314.93	.05
.3546	314.92	.05
.3701	314.86	.05
.3837	314.83	.05
.4145	314.7	.05
.4336	314.4	.05
.4465	314.33	.05
.4642	314.04	.05
.4788	313.81	.05
.4959	313.36	.05
.5134	312.83	.05
.537	312.03	.05
.5899	309.22	.05

System: methylcyclohexane + ethylene glycol monophenyl ether; phases: Liquid mixture 1, Liquid mixture 2
Fixed: Pressure, kPa = 101
Property: Liquid-liquid equilibrium temperature, K (Liquid mixture 1); method: Visual observation
Mole fraction of ethylene glycol monophenyl ether	Liquid-liquid equilibrium temperature, K	uncertainty
.1527	320.99	.05
.1821	322.82	.05
.2155	324.17	.05
.2404	324.77	.05
.2744	325.22	.05
.2994	325.47	.05
.3176	325.51	.05
.346	325.54	.05
.3771	325.59	.05
.4077	325.53	.05
.4339	325.49	.05
.4586	325.39	.05
.4807	325.2	.05
.5013	324.91	.05
.5278	324.44	.05
.5539	323.65	.05
.5845	322.38	.05
.6144	321.13	.05

System: ethylene glycol monophenyl ether + ethylcyclohexane; phases: Liquid mixture 1, Liquid mixture 2
Fixed: Pressure, kPa = 101
Property: Liquid-liquid equilibrium temperature, K (Liquid mixture 1); method: Visual observation
Mole fraction of ethylene glycol monophenyl ether	Liquid-liquid equilibrium temperature, K	uncertainty
.199	327.34	.05
.2106	327.79	.05
.2246	328.36	.05
.2499	329.09	.05
.2748	329.63	.05
.2971	329.97	.05
.3252	330.2	.05
.3493	330.28	.05
.3746	330.35	.05
.4027	330.36	.05
.4255	330.37	.05
.4491	330.31	.05
.4756	330.32	.05
.4994	330.19	.05
.5238	330.05	.05
.5497	329.7	.05
.571	329.36	.05
.6005	328.57	.05
.6233	327.79	.05
.635	327.19	.05
