Measured thermophysical data. Express thermo-gravimetric method for the vaporization enthalpies appraisal for very low  volatile molecular and ionic compounds.
Source: Thermochim. Acta, 2012, 10.1016/j.tca.2012.03.018
Compound 1: cetane, C16H34
Compound 2: hatco DBP, C16H22O4
Compound 3: methyl octadecanoate, C19H38O2
Compound 4: octadecanoic acid, butyl ester, C22H44O2
Compound 5: 1-ethyl-3-methylimidazolium bis[(trifluoromethyl)sulfonyl]imide, C8H11F6N3O4S2
Compound 6: ethyl stearate, C20H40O2

System: cetane; phases: Liquid, Gas
Property: Molar enthalpy of vaporization or sublimation, kJ/mol (Liquid); method: DTG
Temperature, K	Molar enthalpy of vaporization or sublimation, kJ/mol	uncertainty
353	74.5	.8

System: cetane; phases: Liquid, Gas
Property: Molar enthalpy of vaporization or sublimation, kJ/mol (Liquid); method: Transpiration
Temperature, K	Molar enthalpy of vaporization or sublimation, kJ/mol	uncertainty
333.5	74.9	.4

System: hatco DBP; phases: Liquid, Gas
Property: Molar enthalpy of vaporization or sublimation, kJ/mol (Liquid); method: DTG
Temperature, K	Molar enthalpy of vaporization or sublimation, kJ/mol	uncertainty
393	84	.8

System: methyl octadecanoate; phases: Liquid, Gas
Property: Molar enthalpy of vaporization or sublimation, kJ/mol (Liquid); method: DTG
Temperature, K	Molar enthalpy of vaporization or sublimation, kJ/mol	uncertainty
353	90.2	.5

System: 1-ethyl-3-methylimidazolium bis[(trifluoromethyl)sulfonyl]imide; phases: Liquid, Gas
Property: Molar enthalpy of vaporization or sublimation, kJ/mol (Liquid); method: DTG
Temperature, K	Molar enthalpy of vaporization or sublimation, kJ/mol	uncertainty
525	110.5	1.5

System: ethyl stearate; phases: Liquid, Gas
Property: Molar enthalpy of vaporization or sublimation, kJ/mol (Liquid); method: DTG
Temperature, K	Molar enthalpy of vaporization or sublimation, kJ/mol	uncertainty
373	92.2	.7

System: ethyl stearate; phases: Liquid, Gas
Property: Molar enthalpy of vaporization or sublimation, kJ/mol (Liquid); method: Transpiration
Temperature, K	Molar enthalpy of vaporization or sublimation, kJ/mol	uncertainty
383.5	93.5	.7
