Measured thermophysical data. Gibbs energy of formation of bismuth(III) oxide
Source: Thermochim. Acta, 2016, 10.1016/j.tca.2016.02.006
Compound 1: bismuth oxide, Bi2O3, purity 99.99%
Compound 2: oxygen, O2, purity 99.999%
Compound 3: bismuth, Bi, purity 99.99%

System: bismuth oxide; phases: Crystal 2, Crystal 1, Air at 1 atmosphere
Property: Molar enthalpy of transition or fusion, kJ/mol (Crystal 2); method: Derived from the emf measurements
Molar enthalpy of transition or fusion, kJ/mol	uncertainty
30.57	1.75

System: bismuth oxide; phases: Crystal 2, Crystal 1, Air at 1 atmosphere
Property: Triple point temperature, K (Crystal 2); method: Derived from the emf measurements
Triple point temperature, K	uncertainty
1002	2

Reaction: 1 bismuth oxide + -2 bismuth + -1.5 oxygen
Property: Molar enthalpy of reaction, kJ/mol
-574

Reaction: 1 bismuth oxide + -2 bismuth + -1.5 oxygen
Property: Molar Gibbs energy of reaction, kJ/mol
808	-350.5
819	-347.5
841	-340.8
860	-335.2
879	-329.9
900	-324.0
921	-317.8
932	-314.8
945	-310.9
968	-304.2
984	-299.5

Reaction: 1 bismuth oxide + -2 bismuth + -1.5 oxygen
Property: Molar Gibbs energy of reaction, kJ/mol
1006	-293.4
1016	-290.8
1026	-288.2
1036	-285.5
1046	-282.9
1057	-280.3
1069	-277.1

Reaction: 1 bismuth oxide + -2 bismuth + -1.5 oxygen
Property: Molar Gibbs energy of reaction, kJ/mol
1084	-273.3
1100	-269.2
1132	-261.8
1160	-254.8
1190	-247.9
1214	-241.8
1232	-237.9
1252	-233.0
1286	-225.2
1314	-218.4
1349	-210.7
1376	-204.0
1409	-196.8
1429	-192.0
1449	-187.8
1473	-182.2
