Measured thermophysical data. Dissolution Properties of Ammonium Dipicrylamide in Dimethyl Sulfoxide and N-methl  Pyrrolidone
Source: Thermochim. Acta, 2012, 10.1016/j.tca.2012.07.003
Compound 1: methylsulfinylmethane, C2H6OS, purity 99.5%
Compound 2: N-methyl-2-pyrrolidone, C5H9NO, purity 99.5%
Compound 3: Ammonium dipicrylaminate, C12H8N8O12, purity 99.4%

System: N-methyl-2-pyrrolidone + Ammonium dipicrylaminate; phases: Liquid
Fixed: Temperature, K = 298.15
Fixed: Pressure, kPa = 101
Property: Molar enthalpy of solution, kJ/mol (Liquid); method: Calvet calorimetry
Mass fraction of Ammonium dipicrylaminate	Molar enthalpy of solution, kJ/mol	uncertainty
.0017	-39.22	
.0022	-39.53	
.0033	-41.35	
.0048	-43.03	
.0055	-43.7	

System: methylsulfinylmethane + Ammonium dipicrylaminate; phases: Liquid
Fixed: Temperature, K = 298.15
Fixed: Pressure, kPa = 101
Property: Molar enthalpy of solution, kJ/mol (Liquid); method: Calvet calorimetry
Mass fraction of Ammonium dipicrylaminate	Molar enthalpy of solution, kJ/mol	uncertainty
.0022	-18.34	
.003	-27.08	
.0037	-29.98	
.0043	-31.13	
.0058	-27.9	
