Measured thermophysical data. Determination of vapor pressure and thermal decomposition using thermogravimetrical analysis
Source: Thermochim. Acta, 2015, 10.1016/j.tca.2015.03.020
Compound 1: anthracene, C14H10, purity 99%
Compound 2: hexadecane, C16H34, purity 99%
Compound 3: dodecane, C12H26, purity 98%
Compound 4: 1-ethyl-3-methylimidazolium bis(trifluoromethylsulfonyl)imide, C8H11F6N3O4S2, purity 98%
Compound 5: 1-ethyl-3-methylimidazolium methylsulfate, C7H14N2O4S, purity 98%

System: anthracene; phases: Crystal, Gas
Property: Vapor or sublimation pressure, kPa (Crystal); method: Rate of evaporation
Temperature, K	Vapor or sublimation pressure, kPa	uncertainty
284.15	.000000179	.0000000537
289.15	.000000352	.0000001056
294.15	.000000677	.0000002031
299.15	.00000127	.000000381
304.15	.00000235	.000000705
309.15	.00000425	.000001275
314.15	.00000754	.000002262
319.15	.0000131	.00000393
324.15	.0000225	.00000675
329.15	.0000379	.00001137
334.15	.0000629	.00001887
339.15	.000103	.0000309
344.15	.000166	.0000498
349.15	.000263	.0000789
354.15	.000413	.0001239
359.15	.00064	.000192
364.15	.000979	.0002937
369.15	.00148	.000444
374.15	.00222	.000666
379.15	.00328	.000984
384.15	.00481	.001443
389.15	.00698	.002094
394.15	.01	.003
399.15	.0143	.00429
404.15	.0202	.00606
409.15	.0283	.00849
414.15	.0393	.01179
419.15	.0541	.01623
424.15	.0741	.02223
429.15	.101	.0303
434.15	.136	.0408
439.15	.182	.0546
444.15	.242	.0726
449.15	.319	.0957
454.15	.42	.126
459.15	.548	.1644
464.15	.712	.2136
469.15	.919	.2757
474.15	1.18	.354
479.15	1.51	.453
484.15	1.92	.576
489.15	2.42	.726
494.15	3.05	.915
499.15	3.83	1.149
504.15	4.77	1.431
509.15	5.93	1.779

System: hexadecane; phases: Liquid, Gas
Property: Vapor or sublimation pressure, kPa (Liquid); method: Rate of evaporation
Temperature, K	Vapor or sublimation pressure, kPa	uncertainty
284.15	.0000601	.00001803
289.15	.000102	.0000306
294.15	.000168	.0000504
299.15	.000274	.0000822
304.15	.00044	.000132
309.15	.000696	.0002088
314.15	.00108	.000324
319.15	.00166	.000498
324.15	.00252	.000756
329.15	.00377	.001131
334.15	.00558	.001674
339.15	.00816	.002448
344.15	.0118	.00354
349.15	.0169	.00507
354.15	.0239	.00717
359.15	.0335	.01005
364.15	.0465	.01395
369.15	.0641	.01923
374.15	.0875	.02625
379.15	.119	.0357
384.15	.159	.0477
389.15	.212	.0636
394.15	.281	.0843
399.15	.369	.1107
404.15	.482	.1446
409.15	.626	.1878
414.15	.806	.2418
419.15	1.03	.309
424.15	1.32	.396
429.15	1.67	.501
434.15	2.1	.63
439.15	2.63	.789
444.15	3.28	.984
449.15	4.07	1.221
454.15	5.02	1.506
459.15	6.18	1.854
464.15	7.56	2.268
469.15	9.21	2.763
474.15	11.2	3.36
479.15	13.5	4.05
484.15	16.3	4.89
489.15	19.5	5.85
494.15	23.3	6.99
499.15	27.7	8.31
504.15	32.9	9.87
509.15	38.9	11.67

System: dodecane; phases: Liquid, Gas
Property: Vapor or sublimation pressure, kPa (Liquid); method: Rate of evaporation
Temperature, K	Vapor or sublimation pressure, kPa	uncertainty
284.15	.00421	.001263
289.15	.00646	.001938
294.15	.00978	.002934
299.15	.0146	.00438
304.15	.0215	.00645
309.15	.0312	.00936
314.15	.0449	.01347
319.15	.0638	.01914
324.15	.0897	.02691
329.15	.125	.0375
334.15	.172	.0516
339.15	.234	.0702
344.15	.317	.0951
349.15	.425	.1275
354.15	.565	.1695
359.15	.746	.2238
364.15	.976	.2928
369.15	1.27	.381
374.15	1.64	.492
379.15	2.1	.63
384.15	2.67	.801
389.15	3.38	1.014
394.15	4.25	1.275
399.15	5.32	1.596
404.15	6.62	1.986
409.15	8.19	2.457
414.15	10.1	3.03
419.15	12.4	3.72
424.15	15.1	4.53
429.15	18.3	5.49
434.15	22.1	6.63
439.15	26.6	7.98
444.15	31.8	9.54
449.15	38	11.4
454.15	45.1	13.53
459.15	53.4	16.02
464.15	63	18.9
469.15	74.1	22.23
474.15	86.8	26.04
479.15	101	30.3
484.15	118	35.4
489.15	137	41.1
494.15	158	47.4
499.15	183	54.9
504.15	210	63
509.15	241	72.3

System: 1-ethyl-3-methylimidazolium bis(trifluoromethylsulfonyl)imide; phases: Liquid, Gas
Property: Vapor or sublimation pressure, kPa (Liquid); method: Rate of evaporation
Temperature, K	Vapor or sublimation pressure, kPa	uncertainty
538.13	.00129	.000387
543.13	.00168	.000504
548.13	.00216	.000648
553.13	.00277	.000831
558.13	.00355	.001065
563.13	.00451	.001353
568.13	.00572	.001716
573.13	.00722	.002166
578.13	.00907	.002721
583.13	.0114	.00342
588.13	.0142	.00426
593.13	.0176	.00528
598.13	.0218	.00654
603.13	.0269	.00807
608.13	.0331	.00993
613.13	.0405	.01215
618.13	.0495	.01485
623.13	.0602	.01806
628.13	.0731	.02193
633.13	.0885	.02655
638.13	.107	.0321
643.13	.128	.0384
648.13	.154	.0462
653.13	.184	.0552
658.13	.22	.066
663.13	.261	.0783
668.13	.31	.093
673.13	.367	.1101
678.13	.433	.1299
683.13	.51	.153
688.13	.599	.1797
693.13	.703	.2109
698.13	.822	.2466
703.13	.959	.2877
708.13	1.12	.336
713.13	1.3	.39
718.13	1.5	.45
723.13	1.74	.522

System: 1-ethyl-3-methylimidazolium bis(trifluoromethylsulfonyl)imide; phases: Liquid, Gas
Property: Vapor or sublimation pressure, kPa (Liquid); method: Rate of evaporation
Temperature, K	Vapor or sublimation pressure, kPa	uncertainty
363.13	.00000000175	.000000000525
368.13	.00000000295	.000000000885
373.13	.00000000491	.000000001473
378.13	.00000000806	.000000002418
383.13	.0000000131	.00000000393
388.13	.0000000209	.00000000627
393.13	.0000000331	.00000000993
398.13	.0000000518	.00000001554
403.13	.0000000801	.00000002403
408.13	.000000123	.0000000369
413.13	.000000186	.0000000558
418.13	.000000278	.0000000834
423.13	.000000414	.0000001242
428.13	.000000609	.0000001827
433.13	.000000888	.0000002664
438.13	.00000128	.000000384
443.13	.00000184	.000000552
448.13	.00000262	.000000786
453.13	.0000037	.00000111
458.13	.00000518	.000001554
463.13	.0000072	.00000216
468.13	.00000995	.000002985
473.13	.0000136	.00000408

System: 1-ethyl-3-methylimidazolium methylsulfate; phases: Liquid, Gas
Property: Vapor or sublimation pressure, kPa (Liquid); method: Rate of evaporation
Temperature, K	Vapor or sublimation pressure, kPa	uncertainty
408.15	.00000000675	.000000002025
410.15	.00000000827	.000000002481
413.15	.0000000112	.00000000336
416.15	.000000015	.0000000045
420.15	.0000000221	.00000000663
424.15	.0000000324	.00000000972
428.15	.000000047	.0000000141
432.15	.0000000679	.00000002037
436.15	.0000000972	.00000002916
440.15	.000000138	.0000000414
444.15	.000000196	.0000000588
448.15	.000000275	.0000000825
