Measured thermophysical data. Standard enthalpy of reaction for the reduction of Co3O4 to CoO
Source: Thermochim. Acta, 2017, 10.1016/j.tca.2017.03.011
Compound 1: cobalt(II) oxide, CoO, purity 99.998%
Compound 2: cobalt oxide (Co3O4), Co3O4, purity 99.998%
Compound 3: oxygen, O2, purity 99.9995%

System: cobalt oxide (Co3O4); phases: Crystal
Fixed: Pressure, kPa = 101.325
Property: Molar enthalpy, kJ/mol (Crystal); method: Other
Temperature, K	Molar enthalpy, kJ/mol	uncertainty
974.15	112.09	

Reaction: 3 cobalt(II) oxide + -1 cobalt oxide (Co3O4) + 0.5 oxygen
Property: Molar enthalpy of reaction, kJ/mol
205.14

Reaction: 3 cobalt(II) oxide + -1 cobalt oxide (Co3O4) + 0.5 oxygen
Property: Molar enthalpy of reaction, kJ/mol
204.46
