Measured thermophysical data. Thermodynamic properties of betulinic acid in THF + water mixed solvents at different temperatures
Source: Thermochim. Acta, 2014, 10.1016/j.tca.2014.10.026
Compound 1: betulinic acid, C30H48O3, purity 98%
Compound 2: tetrahydrofuran, C4H8O, purity 99.5%
Compound 3: water, H2O

System: tetrahydrofuran + betulinic acid + water; phases: Liquid, Crystal
Fixed: Pressure, kPa = 101
Property: Mole fraction of betulinic acid (Liquid); method: Chromatography
Temperature, K	Solvent: Mole fraction of tetrahydrofuran	Mole fraction of betulinic acid	uncertainty
278.2	0	.000000463	.000000005
288.2	0	.000000713	.000000014
298.2	0	.00000103	.00000002
308.2	0	.00000158	.00000001
318.2	0	.00000232	.00000007
278.2	.1001	.00000791	.00000009
288.2	.1001	.0000128	.000001
298.2	.1001	.0000243	.0000007
308.2	.1001	.0000575	.0000006
318.2	.1001	.00013	.000001
278.2	.2002	.0000828	.0000018
288.2	.2002	.000208	.000007
298.2	.2002	.000447	.000007
308.2	.2002	.000895	.000002
318.2	.2002	.00208	.00002
278.2	.3	.000418	.00001
288.2	.3	.000707	.000009
298.2	.3	.0013	.00001
308.2	.3	.00219	.00002
318.2	.3	.0038	.00005
278.2	.4002	.000796	.000009
288.2	.4002	.0013	.00001
298.2	.4002	.00234	.00002
308.2	.4002	.00362	.00003
318.2	.4002	.00611	.00005
278.2	.4999	.00132	.00002
288.2	.4999	.00204	.00006
298.2	.4999	.00341	.00006
308.2	.4999	.00519	.00011
318.2	.4999	.00836	.00004
278.2	.6002	.00208	.00001
288.2	.6002	.00303	.0001
298.2	.6002	.00485	.00023
308.2	.6002	.00722	.0001
318.2	.6002	.0107	.00025
278.2	.7001	.00299	.00005
288.2	.7001	.00427	.00008
298.2	.7001	.00668	.00016
308.2	.7001	.01003	.00014
318.2	.7001	.01456	.00031
278.2	.8001	.00415	.0001
288.2	.8001	.0061	.00019
298.2	.8001	.00904	.00011
308.2	.8001	.01292	.00007
318.2	.8001	.01863	.00018
278.2	.9	.00646	.00021
288.2	.9	.00946	.00016
298.2	.9	.01332	.00026
308.2	.9	.01884	.00024
318.2	.9	.02658	.0006

System: betulinic acid + water; phases: Liquid, Crystal
Property: Mole fraction of betulinic acid (Liquid); method: Chromatography
Temperature, K	Pressure, kPa	Mole fraction of betulinic acid	uncertainty
278.2	101	.000000463	.000000005
288.2	101	.000000713	.000000014
298.2	101	.00000103	.00000002
308.2	101	.00000158	.00000001
318.2	101	.00000232	.00000007
