Measured thermophysical data. Apparent molar volume and apparent molar isentropic compressibility for thebinary systems {methyltrioctylammoniumbis(trifluoromethylsulfonyl)imide + ethyl acetate or ethanol} at different temperatures underatmospheric pressure
Source: Thermochim. Acta, 2013, 10.1016/j.tca.2013.05.015
Compound 1: methyltrioctylammonium 1,1,1-trifluoro-N-[(trifluoromethyl)sulfonyl]methanesulfonamide, C27H54F6N2O4S2
Compound 2: ethyl acetate, C4H8O2
Compound 3: ethanol, C2H6O

System: methyltrioctylammonium 1,1,1-trifluoro-N-[(trifluoromethyl)sulfonyl]methanesulfonamide; phases: Liquid
Fixed: Pressure, kPa = 101.325
Property: Mass density, kg/m3 (Liquid); method: Vibrating tube method
Temperature, K	Mass density, kg/m3	uncertainty
298.15	1106.9	.1
303.15	1103.2	.1
308.15	1099.6	.1
313.15	1095.7	.1

System: methyltrioctylammonium 1,1,1-trifluoro-N-[(trifluoromethyl)sulfonyl]methanesulfonamide; phases: Liquid
Fixed: Pressure, kPa = 101.325
Property: Speed of sound, m/s (Liquid); method: Sing-around technique in a fixed-path interferometer
Temperature, K	Speed of sound, m/s	uncertainty
298.15	1260	1
303.15	1242	1
308.15	1230	1
313.15	1212	1

System: ethyl acetate; phases: Liquid
Fixed: Pressure, kPa = 101.325
Property: Mass density, kg/m3 (Liquid); method: Vibrating tube method
Temperature, K	Mass density, kg/m3	uncertainty
298.15	894.4	.1
303.15	888.5	.1
308.15	882.7	.1
313.15	876.3	.1

System: ethyl acetate; phases: Liquid
Fixed: Pressure, kPa = 101.325
Property: Speed of sound, m/s (Liquid); method: Sing-around technique in a fixed-path interferometer
Temperature, K	Speed of sound, m/s	uncertainty
298.15	1141	1
303.15	1118	1
308.15	1096	1
313.15	1073	1

System: ethanol; phases: Liquid
Fixed: Pressure, kPa = 101.325
Property: Mass density, kg/m3 (Liquid); method: Vibrating tube method
Temperature, K	Mass density, kg/m3	uncertainty
298.15	785.7	.1
303.15	782	.1
308.15	777.7	.1
313.15	773.6	.1

System: ethanol; phases: Liquid
Fixed: Pressure, kPa = 101.325
Property: Speed of sound, m/s (Liquid); method: Sing-around technique in a fixed-path interferometer
Temperature, K	Speed of sound, m/s	uncertainty
298.15	1149	1
303.15	1128	1
308.15	1098	1
313.15	1086	1

System: ethyl acetate + methyltrioctylammonium 1,1,1-trifluoro-N-[(trifluoromethyl)sulfonyl]methanesulfonamide; phases: Liquid
Fixed: Pressure, kPa = 101.325
Property: Mass density, kg/m3 (Liquid); method: Vibrating tube method
Temperature, K	Molality, mol/kg of methyltrioctylammonium 1,1,1-trifluoro-N-[(trifluoromethyl)sulfonyl]methanesulfonamide	Mass density, kg/m3	uncertainty
298.15	.0193	897	.1
298.15	.0434	900	.1
298.15	.0692	903	.1
298.15	.1377	910.7	.1
298.15	.2691	923.8	.1
298.15	.4006	935.1	.1
298.15	.6119	950.4	.1
298.15	.8299	963.4	.1
298.15	1.0059	972.5	.1
298.15	1.2799	984.5	.1
298.15	2.1321	1011.1	.1
298.15	2.9994	1029.3	.1
303.15	.0193	891.1	.1
303.15	.0434	894.1	.1
303.15	.0692	897.1	.1
303.15	.1377	904.8	.1
303.15	.2691	918	.1
303.15	.4006	929.4	.1
303.15	.6119	944.9	.1
303.15	.8299	958.3	.1
303.15	1.0059	967.5	.1
303.15	1.2799	979.7	.1
303.15	2.1321	1006.9	.1
303.15	2.9994	1025.5	.1
308.15	.0193	885.3	.1
308.15	.0434	888.3	.1
308.15	.0692	891.3	.1
308.15	.1377	899.1	.1
308.15	.2691	912.4	.1
308.15	.4006	924	.1
308.15	.6119	939.7	.1
308.15	.8299	953.3	.1
308.15	1.0059	962.6	.1
308.15	1.2799	974.8	.1
308.15	2.1321	1001.9	.1
308.15	2.9994	1019.5	.1
313.15	.0193	878.9	.1
313.15	.0434	882	.1
313.15	.0692	885	.1
313.15	.1377	892.9	.1
313.15	.2691	906.5	.1
313.15	.4006	918.3	.1
313.15	.6119	934.5	.1
313.15	.8299	948.4	.1
313.15	1.0059	957.9	.1
313.15	1.2799	970.2	.1
313.15	2.1321	997	.1
313.15	2.9994	1013.8	.1

System: ethyl acetate + methyltrioctylammonium 1,1,1-trifluoro-N-[(trifluoromethyl)sulfonyl]methanesulfonamide; phases: Liquid
Fixed: Pressure, kPa = 101.325
Property: Speed of sound, m/s (Liquid); method: Sing-around technique in a fixed-path interferometer
Temperature, K	Molality, mol/kg of methyltrioctylammonium 1,1,1-trifluoro-N-[(trifluoromethyl)sulfonyl]methanesulfonamide	Speed of sound, m/s	uncertainty
298.15	.0193	1142	10
298.15	.0434	1143	10
298.15	.0692	1144	10
298.15	.1377	1149	10
298.15	.2691	1152	10
298.15	.4006	1155	10
298.15	.6119	1161	10
298.15	.8299	1164	10
298.15	1.0059	1170	10
298.15	1.2799	1179	10
298.15	2.1321	1200	10
298.15	2.9994	1206	10
303.15	.0193	1119	10
303.15	.0434	1120	10
303.15	.0692	1122	10
303.15	.1377	1125	10
303.15	.2691	1128	10
303.15	.4006	1131	10
303.15	.6119	1140	10
303.15	.8299	1146	10
303.15	1.0059	1158	10
303.15	1.2799	1161	10
303.15	2.1321	1170	10
303.15	2.9994	1182	10
308.15	.0193	1097	10
308.15	.0434	1098	10
308.15	.0692	1104	10
308.15	.1377	1107	10
308.15	.2691	1110	10
308.15	.4006	1113	10
308.15	.6119	1116	10
308.15	.8299	1122	10
308.15	1.0059	1128	10
308.15	1.2799	1137	10
308.15	2.1321	1152	10
308.15	2.9994	1161	10
313.15	.0193	1074	10
313.15	.0434	1076	10
313.15	.0692	1077	10
313.15	.1377	1080	10
313.15	.2691	1083	10
313.15	.4006	1086	10
313.15	.6119	1092	10
313.15	.8299	1098	10
313.15	1.0059	1107	10
313.15	1.2799	1113	10
313.15	2.1321	1131	10
313.15	2.9994	1140	10

System: ethanol + methyltrioctylammonium 1,1,1-trifluoro-N-[(trifluoromethyl)sulfonyl]methanesulfonamide; phases: Liquid
Fixed: Pressure, kPa = 101.325
Property: Mass density, kg/m3 (Liquid); method: Vibrating tube method
Temperature, K	Molality, mol/kg of methyltrioctylammonium 1,1,1-trifluoro-N-[(trifluoromethyl)sulfonyl]methanesulfonamide	Mass density, kg/m3	uncertainty
298.15	.022	787.5	.1
298.15	.0465	790.5	.1
298.15	.0692	793.7	.1
298.15	.1378	805.5	.1
298.15	.2691	825.5	.1
298.15	.4006	844.7	.1
298.15	.6112	868.3	.1
298.15	.8299	883.8	.1
298.15	1.0077	892.6	.1
298.15	1.28	910.2	.1
303.15	.022	783.3	.1
303.15	.0465	786.3	.1
303.15	.0692	789.3	.1
303.15	.1378	801.2	.1
303.15	.2691	821.5	.1
303.15	.4006	840.6	.1
303.15	.6112	864.6	.1
303.15	.8299	879.9	.1
303.15	1.0077	888.9	.1
303.15	1.28	906.5	.1
308.15	.022	778.6	.1
308.15	.0465	781.5	.1
308.15	.0692	784.3	.1
308.15	.1378	797	.1
308.15	.2691	816.6	.1
308.15	.4006	836.4	.1
308.15	.6112	860.4	.1
308.15	.8299	875.8	.1
308.15	1.0077	884.8	.1
308.15	1.28	902.4	.1
313.15	.022	774	.1
313.15	.0465	777	.1
313.15	.0692	779.5	.1
313.15	.1378	792.6	.1
313.15	.2691	812	.1
313.15	.4006	832.3	.1
313.15	.6112	856.3	.1
313.15	.8299	866.2	.1
313.15	1.0077	880.7	.1
313.15	1.28	898.3	.1

System: ethanol + methyltrioctylammonium 1,1,1-trifluoro-N-[(trifluoromethyl)sulfonyl]methanesulfonamide; phases: Liquid
Fixed: Pressure, kPa = 101.325
Property: Speed of sound, m/s (Liquid); method: Sing-around technique in a fixed-path interferometer
Temperature, K	Molality, mol/kg of methyltrioctylammonium 1,1,1-trifluoro-N-[(trifluoromethyl)sulfonyl]methanesulfonamide	Speed of sound, m/s	uncertainty
298.15	.022	1150	10
298.15	.0465	1151	10
298.15	.0692	1152	10
298.15	.1378	1154	10
298.15	.2691	1158	10
298.15	.4006	1170	10
298.15	.6112	1176	10
298.15	.8299	1179	10
298.15	1.0077	1182	10
298.15	1.28	1188	10
303.15	.022	1129	10
303.15	.0465	1130	10
303.15	.0692	1131	10
303.15	.1378	1134	10
303.15	.2691	1140	10
303.15	.4006	1149	10
303.15	.6112	1158	10
303.15	.8299	1161	10
303.15	1.0077	1164	10
303.15	1.28	1170	10
308.15	.022	1099	10
308.15	.0465	1100	10
308.15	.0692	1101	10
308.15	.1378	1116	10
308.15	.2691	1122	10
308.15	.4006	1134	10
308.15	.6112	1140	10
308.15	.8299	1146	10
308.15	1.0077	1149	10
308.15	1.28	1158	10
313.15	.022	1087	10
313.15	.0465	1088	10
313.15	.0692	1089	10
313.15	.1378	1104	10
313.15	.2691	1110	10
313.15	.4006	1116	10
313.15	.6112	1125	10
313.15	.8299	1131	10
313.15	1.0077	1134	10
313.15	1.28	1146	10
