Measured thermophysical data. Solubility of disodium cytidine 5'-monophosphate in different binarymixtures from 288.15 K to 313.15 K
Source: Thermochim. Acta, 2013, 10.1016/j.tca.2013.04.018
Compound 1: disodium cytidine 5'-monophosphate, C9H12N3Na2O8P, purity 99%
Compound 2: methanol, CH4O, purity 99.5%
Compound 3: ethanol, C2H6O, purity 99.7%
Compound 4: water, H2O

System: methanol + disodium cytidine 5'-monophosphate + water; phases: Liquid, Crystal
Fixed: Pressure, kPa = 101.325
Property: Mole fraction of disodium cytidine 5'-monophosphate (Liquid); method: Chromatography
Temperature, K	Solvent: Mole fraction of methanol	Mole fraction of disodium cytidine 5'-monophosphate	uncertainty
288.15	.36	.000087	.000003
288.15	.4286	.000159	.000002
288.15	.5295	.00036	.000001
288.15	.6	.000592	.000005
288.15	.6923	.000919	.000004
288.15	.7377	.001167	.000007
288.15	.8182	.002969	.000002
293.15	.36	.000102	.000004
293.15	.4286	.000197	.000009
293.15	.5295	.000452	.000003
293.15	.6	.000782	.000006
293.15	.6923	.001388	.000002
293.15	.7377	.001848	.000007
293.15	.8182	.004475	.000005
298.15	.36	.000128	.000002
298.15	.4286	.00025	.000004
298.15	.5295	.000564	.000003
298.15	.6	.00099	.000003
298.15	.6923	.001926	.000007
298.15	.7377	.002742	.000004
298.15	.8182	.006244	.000009
303.15	.36	.000156	.000002
303.15	.4286	.000312	.000003
303.15	.5295	.00069	.000005
303.15	.6	.001237	.000003
303.15	.6923	.002782	.000006
303.15	.7377	.004279	.000004
303.15	.8182	.009482	.000007
308.15	.36	.000173	.000005
308.15	.4286	.00036	.000002
308.15	.5295	.000871	.000002
308.15	.6	.001627	.000007
308.15	.6923	.003935	.000006
308.15	.7377	.006565	.000001
308.15	.8182	.013594	.000008
313.15	.36	.000216	.000001
313.15	.4286	.000479	.000004
313.15	.5295	.001087	.000002
313.15	.6	.002075	.000007
313.15	.6923	.005631	.000003
313.15	.7377	.010417	.000009
313.15	.8182	.019813	.000002

System: ethanol + disodium cytidine 5'-monophosphate + water; phases: Liquid, Crystal
Fixed: Pressure, kPa = 101.325
Property: Mole fraction of disodium cytidine 5'-monophosphate (Liquid); method: Chromatography
Temperature, K	Solvent: Mole fraction of ethanol	Mole fraction of disodium cytidine 5'-monophosphate	uncertainty
293.15	.4471	.000015	.000003
293.15	.5188	.000041	.000005
293.15	.6179	.000139	.000006
293.15	.6832	.000341	.000002
293.15	.7639	.000979	.000003
293.15	.8017	.001711	.000007
293.15	.8661	.003537	.000001
298.15	.4471	.000017	.000002
298.15	.5188	.00005	.000004
298.15	.6179	.000162	.000003
298.15	.6832	.000416	.000008
298.15	.7639	.001262	.000005
298.15	.8017	.002255	.000004
298.15	.8661	.005293	.000007
303.15	.4471	.000022	.000005
303.15	.5188	.000063	.000002
303.15	.6179	.000213	.000004
303.15	.6832	.000522	.000001
303.15	.7639	.001645	.000003
303.15	.8017	.002956	.000007
303.15	.8661	.008169	.000002
308.15	.4471	.000028	.000007
308.15	.5188	.000078	.000005
308.15	.6179	.000259	.000002
308.15	.6832	.000629	.000004
308.15	.7639	.002135	.000007
308.15	.8017	.004004	.000003
308.15	.8661	.012688	.000008
313.15	.4471	.000034	.000003
313.15	.5188	.000099	.000005
313.15	.6179	.000332	.000011
313.15	.6832	.000829	.000007
313.15	.7639	.002952	.000004
313.15	.8017	.005581	.000003
313.15	.8661	.019156	.000005
