Measured thermophysical data. Vaporization studies over (NiO + Ni2Te3O8) in the Ni-Te-O system by transpiration thermogravimetry and Knudsen effusion mass spectrometry
Source: Thermochim. Acta, 2015, 10.1016/j.tca.2014.11.024
Compound 1: nickel tellurite (Ni2Te3O8), Ni2O8Te3, purity 95%
Compound 2: oxygen, O2
Compound 3: nickel, Ni
Compound 4: tellurium, Te

System: nickel tellurite (Ni2Te3O8); phases: Crystal, Gas
Property: Vapor or sublimation pressure, kPa (Crystal); method: Transpiration method
Temperature, K	Vapor or sublimation pressure, kPa	uncertainty
1015	.0024	.00048
1030	.0034	.00068
1050	.0056	.00112
1070	.0112	.00224
1085	.0183	.00366
1070	.0111	.00222
1055	.0068	.00136
1040	.0043	.00086
1025	.0026	.00052
1015	.0018	.00036
1000	.0012	.00024
985	.00082	.000164
970	.00045	.00009
960	.00024	.000048
1015	.0022	.00044
1030	.0034	.00068
1050	.0061	.00122
1070	.0117	.00234
1085	.0192	.00384
1070	.0116	.00232
1055	.0068	.00136
1040	.0042	.00084
1025	.0025	.0005
1015	.0018	.00036
1000	.0013	.00026
985	.00073	.000146
970	.00042	.000084
960	.00026	.000052
950	.0002	.00004
1015	.0021	.00042
1030	.0032	.00064
1050	.0062	.00124
1070	.0113	.00226
1085	.0178	.00356
1070	.011	.0022
1055	.007	.0014
1040	.0044	.00088
1025	.0027	.00054
1015	.0019	.00038
1000	.0012	.00024
985	.00072	.000144
970	.00044	.000088
960	.00027	.000054
1015	.0017	.00034
1030	.0031	.00062
1050	.006	.0012
1070	.0112	.00224
1085	.0178	.00356
1070	.0113	.00226
1055	.0069	.00138
1040	.0044	.00088
1025	.0027	.00054
1015	.0019	.00038
1000	.0012	.00024
985	.00077	.000154
970	.00044	.000088
960	.00029	.000058
1050	.0061	.00122
1070	.0107	.00214
1085	.0168	.00336
1070	.0107	.00214
1055	.0076	.00152
1040	.0046	.00092
1025	.003	.0006
1015	.0015	.0003
1000	.0013	.00026
985	.00076	.000152
970	.00043	.000086
960	.0003	.00006

System: nickel tellurite (Ni2Te3O8); phases: Crystal, Gas
Property: Vapor or sublimation pressure, kPa (Crystal); method: Knudsen effusion method
Temperature, K	Vapor or sublimation pressure, kPa	uncertainty
900	.000034	.0000068
960	.0004	.00008
1025	.0042	.00084

Reaction: -2 nickel + 1 nickel tellurite (Ni2Te3O8) + -3 tellurium + -4 oxygen
Property: Molar enthalpy of reaction, kJ/mol
-1543
