Measured thermophysical data. Thermochemical study of 2,4-, 2,6- and 3,4-dihydroxybenzoic acids in the liquid phase using a TG  apparatus
Source: Thermochim. Acta, 2011, 10.1016/j.tca.2011.01.001
Compound 1: 2,4-dihydroxybenzoic acid, C7H6O4, purity 95%
Compound 2: 2,6-dihydroxybenzoic acid, C7H6O4, purity 95%
Compound 3: 3,4-dihydroxybenzoic acid, C7H6O4, purity 95%

System: 2,4-dihydroxybenzoic acid; phases: Crystal, Liquid, Air at 1 atmosphere
Property: Normal melting temperature, K (Crystal); method: DSC/DTA
Normal melting temperature, K	uncertainty
501.7	

System: 2,4-dihydroxybenzoic acid; phases: Crystal, Liquid, Air at 1 atmosphere
Property: Molar enthalpy of transition or fusion, kJ/mol (Crystal); method: DSC/DTA
Molar enthalpy of transition or fusion, kJ/mol	uncertainty
31	1

System: 2,4-dihydroxybenzoic acid; phases: Liquid, Gas
Property: Vapor or sublimation pressure, kPa (Liquid); method: Non-isothermal TG
Temperature, K	Vapor or sublimation pressure, kPa	uncertainty
511.2	2.825	.2825
514.8	3.343	.3343
518.9	3.901	.3901
522.9	4.463	.4463
528.4	5.41	.541
532.5	5.928	.5928
511.7	2.896	.2896
515.3	3.35	.335
519.4	3.97	.397
523.4	4.543	.4543
528.9	5.477	.5477
533	6.061	.6061
512.2	3.022	.3022
515.8	3.458	.3458
519.9	4.016	.4016
523.9	4.649	.4649
529.4	5.483	.5483
512.7	3.073	.3073
516.4	3.553	.3553
520.4	4.161	.4161
524.4	4.833	.4833
529.9	5.556	.5556

System: 2,4-dihydroxybenzoic acid; phases: Liquid, Gas
Property: Vapor or sublimation pressure, kPa (Liquid); method: Isothermal TG
Temperature, K	Vapor or sublimation pressure, kPa	uncertainty
513.3	3.108	.3108
516.9	3.606	.3606
520.9	4.222	.4222
525.4	4.975	.4975
530.4	5.598	.5598
513.8	3.111	.3111
517.4	3.622	.3622
521.4	4.207	.4207
526.4	5.059	.5059
530.9	5.667	.5667
514.3	3.167	.3167
517.9	3.638	.3638
521.9	4.223	.4223
526.9	5.093	.5093
531.5	5.675	.5675
533.5	6.226	.6226
514.3	3.167	.3167
518.4	3.711	.3711
522.4	4.342	.4342
527.4	5.122	.5122
532	5.825	.5825
534	6.322	.6322

System: 2,4-dihydroxybenzoic acid; phases: Crystal, Gas
Property: Vapor or sublimation pressure, kPa (Crystal); method: Torsion effusion method
Temperature, K	Vapor or sublimation pressure, kPa	uncertainty
364.2	.000062	
365.3	.00007	
366.3	.00008	
367.1	.000089	
368.3	.000101	
369.6	.000116	
370.8	.000131	
372.5	.000155	
374.2	.000187	
375.7	.000218	
377.1	.000255	
379	.000312	
380.3	.000353	
382.5	.000391	
383	.000423	
384.1	.000512	
385.2	.000576	
387.3	.000655	
388.1	.000735	
389.2	.000821	
390.1	.000912	

System: 2,6-dihydroxybenzoic acid; phases: Crystal, Liquid, Air at 1 atmosphere
Property: Normal melting temperature, K (Crystal); method: DSC/DTA
Normal melting temperature, K	uncertainty
443.7	

System: 2,6-dihydroxybenzoic acid; phases: Crystal, Liquid, Air at 1 atmosphere
Property: Molar enthalpy of transition or fusion, kJ/mol (Crystal); method: DSC/DTA
Molar enthalpy of transition or fusion, kJ/mol	uncertainty
25	1

System: 2,6-dihydroxybenzoic acid; phases: Liquid, Gas
Property: Vapor or sublimation pressure, kPa (Liquid); method: Non-isothermal TG
Temperature, K	Vapor or sublimation pressure, kPa	uncertainty
454.2	.643	.0643
457.7	.804	.0804
460.8	.954	.0954
464.8	1.121	.1121
468.8	1.364	.1364
472.7	1.557	.1557
476.7	1.847	.1847
454.7	.681	.0681
458.7	.853	.0853
461.8	1.006	.1006
465.8	1.175	.1175
469.8	1.412	.1412
473.7	1.644	.1644
455.7	.722	.0722
459.7	.904	.0904
462.7	1.056	.1056
466.8	1.22	.122
470.8	1.464	.1464
474.8	1.761	.1761
456.7	.754	.0754
459.7	.904	.0904
463.8	1.077	.1077
467.8	1.313	.1313
471.7	1.51	.151
475.7	1.829	.1829

System: 2,6-dihydroxybenzoic acid; phases: Liquid, Gas
Property: Vapor or sublimation pressure, kPa (Liquid); method: Isothermal TG
Temperature, K	Vapor or sublimation pressure, kPa	uncertainty
458.7	.809	.0809
460.2	.887	.0887
461.5	.948	.0948
463.1	1.027	.1027
464.7	1.108	.1108
466.3	1.187	.1187
467.9	1.267	.1267
469.5	1.348	.1348
471.2	1.442	.1442
459.1	.829	.0829
460.6	.907	.0907
461.9	.968	.0968
463.5	1.048	.1048
465.1	1.113	.1113
466.7	1.208	.1208
468.3	1.288	.1288
470	1.381	.1381
471.6	1.472	.1472
459.2	.848	.0848
460.7	.928	.0928
462	.979	.0979
463.6	1.055	.1055
465.2	1.14	.114
466.8	1.227	.1227
468.4	1.307	.1307
470.1	1.389	.1389
471.7	1.509	.1509
459.8	.868	.0868
461	.928	.0928
462.7	1	.1
464.3	1.087	.1087
465.9	1.167	.1167
467.5	1.248	.1248
469.1	1.328	.1328
470.8	1.434	.1434
472.5	1.546	.1546

System: 2,6-dihydroxybenzoic acid; phases: Crystal, Gas
Property: Vapor or sublimation pressure, kPa (Crystal); method: Torsion effusion method
Temperature, K	Vapor or sublimation pressure, kPa	uncertainty
346	.000099	
347	.000113	
351.5	.00017	
353.3	.000216	
354	.000223	
354	.000223	
355	.000248	
357	.000307	
357	.000307	
358	.000341	
360.5	.000443	
361	.000467	
361.5	.000492	
363	.000574	
363	.000574	
363	.000574	
363.5	.000604	
365	.000704	
366	.000779	
367	.000851	
367.5	.0009	
369	.001031	

System: 3,4-dihydroxybenzoic acid; phases: Crystal, Liquid, Air at 1 atmosphere
Property: Normal melting temperature, K (Crystal); method: DSC/DTA
Normal melting temperature, K	uncertainty
474.9	

System: 3,4-dihydroxybenzoic acid; phases: Crystal, Liquid, Air at 1 atmosphere
Property: Molar enthalpy of transition or fusion, kJ/mol (Crystal); method: DSC/DTA
Molar enthalpy of transition or fusion, kJ/mol	uncertainty
34	1

System: 3,4-dihydroxybenzoic acid; phases: Liquid, Gas
Property: Vapor or sublimation pressure, kPa (Liquid); method: Non-isothermal TG
Temperature, K	Vapor or sublimation pressure, kPa	uncertainty
485.8	.807	.0807
487.7	.902	.0902
489.7	1.033	.1033
491.7	1.162	.1162
493.7	1.298	.1298
495.7	1.435	.1435
497.7	1.634	.1634
499.7	1.817	.1817
501.7	1.899	.1899
503.8	2.014	.2014
505.7	2.217	.2217
485.2	.819	.0819
487.2	.933	.0933
489.1	1.005	.1005
491.1	1.188	.1188
493.1	1.327	.1327
495	1.494	.1494
496.9	1.652	.1652
499	1.71	.171
501	1.898	.1898
503.1	2.033	.2033
505	2.292	.2292
486.8	.868	.0868
488.7	.967	.0967
490.7	1.087	.1087
492.7	1.286	.1286
494.7	1.365	.1365
496.7	1.477	.1477
498.8	1.703	.1703
500.7	1.858	.1858
502.7	1.95	.195
504.7	2.179	.2179
486.2	.892	.0892
488.1	.974	.0974
490.1	1.129	.1129
492.2	1.221	.1221
494.1	1.375	.1375
495.9	1.566	.1566
498	1.745	.1745
499.9	1.882	.1882
502	1.962	.1962
504.1	2.184	.2184

System: 3,4-dihydroxybenzoic acid; phases: Liquid, Gas
Property: Vapor or sublimation pressure, kPa (Liquid); method: Isothermal TG
Temperature, K	Vapor or sublimation pressure, kPa	uncertainty
488.4	.983	.0983
490	1.074	.1074
491.2	1.153	.1153
492.8	1.28	.128
494.4	1.381	.1381
496	1.529	.1529
497.6	1.636	.1636
499.1	1.751	.1751
500.7	1.879	.1879
502	1.945	.1945
488.8	1.007	.1007
490.4	1.092	.1092
491.6	1.192	.1192
493.2	1.32	.132
494.8	1.445	.1445
496.4	1.557	.1557
498	1.682	.1682
499.5	1.764	.1764
500.7	1.879	.1879
502.4	2.003	.2003
489.2	1.027	.1027
490.8	1.129	.1129
492	1.22	.122
493.6	1.346	.1346
495.2	1.477	.1477
496.8	1.584	.1584
498.4	1.699	.1699
500	1.815	.1815
501.2	1.914	.1914
502.8	2.047	.2047
489.6	1.061	.1061
490.8	1.129	.1129
492.4	1.254	.1254
494	1.374	.1374
495.6	1.482	.1482
497.2	1.607	.1607
498.8	1.728	.1728
500.4	1.865	.1865
501.6	1.939	.1939

System: 3,4-dihydroxybenzoic acid; phases: Crystal, Gas
Property: Vapor or sublimation pressure, kPa (Crystal); method: Torsion effusion method
Temperature, K	Vapor or sublimation pressure, kPa	uncertainty
381.8	.00006	
383	.000067	
384.5	.000077	
385.6	.000087	
387.2	.000104	
388.6	.000117	
390	.000143	
391.4	.00016	
392.8	.000191	
394.2	.000216	
395.4	.000251	
396.9	.000286	
398.3	.00033	
399.8	.000377	
401.2	.000465	
402.6	.000533	
404	.00061	
405.4	.000701	
406.8	.000804	
407.7	.000876	
408.9	.000997	
