Measured thermophysical data. Intermolecular interactions in Formamide +2-Alkoxyethanols: Viscometric study
Source: Thermochim. Acta, 2012, 10.1016/j.tca.2012.03.001
Compound 1: formamide, CH3NO, purity 99%
Compound 2: ethylene glycol, monomethyl ether, C3H8O2, purity 99.5%
Compound 3: 2-ethoxyethanol, C4H10O2, purity 99.5%

System: formamide; phases: Liquid
Fixed: Pressure, kPa = 101.325
Property: Mass density, kg/m3 (Liquid); method: Pycnometric method
Temperature, K	Mass density, kg/m3	uncertainty
303.15	1124.57	
308.15	1120.19	
313.15	1115.22	
318.15	1110.95	
323.15	1105.47	

System: formamide; phases: Liquid
Property: Viscosity, Pa*s (Liquid); method: Capillary tube (Ostwald; Ubbelohde) method
Temperature, K	Pressure, kPa	Viscosity, Pa*s	uncertainty
303.15	101	.0028767	
308.15	101	.0025438	
313.15	101	.0023562	
318.15	101	.0020606	
323.15	101	.0018353	

System: ethylene glycol, monomethyl ether; phases: Liquid
Fixed: Pressure, kPa = 101.325
Property: Mass density, kg/m3 (Liquid); method: Pycnometric method
Temperature, K	Mass density, kg/m3	uncertainty
303.15	955.72	
308.15	951.11	
313.15	946.27	
318.15	941.64	
323.15	936.88	

System: ethylene glycol, monomethyl ether; phases: Liquid
Property: Viscosity, Pa*s (Liquid); method: Capillary tube (Ostwald; Ubbelohde) method
Temperature, K	Pressure, kPa	Viscosity, Pa*s	uncertainty
303.15	101	.0014212	
308.15	101	.0012491	
313.15	101	.0011732	
318.15	101	.0010789	
323.15	101	.0009347	

System: 2-ethoxyethanol; phases: Liquid
Fixed: Pressure, kPa = 101.325
Property: Mass density, kg/m3 (Liquid); method: Pycnometric method
Temperature, K	Mass density, kg/m3	uncertainty
303.15	921.19	
308.15	916.43	
313.15	911.58	
318.15	907.76	
323.15	903.45	

System: 2-ethoxyethanol; phases: Liquid
Property: Viscosity, Pa*s (Liquid); method: Capillary tube (Ostwald; Ubbelohde) method
Temperature, K	Pressure, kPa	Viscosity, Pa*s	uncertainty
303.15	101	.0016541	
308.15	101	.0014823	
313.15	101	.0013055	
318.15	101	.0012309	
323.15	101	.0011156	

System: formamide + ethylene glycol, monomethyl ether; phases: Liquid
Fixed: Pressure, kPa = 101
Property: Viscosity, Pa*s (Liquid); method: Capillary tube (Ostwald; Ubbelohde) method
Temperature, K	Mole fraction of formamide	Viscosity, Pa*s	uncertainty
303.15	0	.0014212	
303.15	.1785	.0017952	
303.15	.2723	.0019926	
303.15	.3849	.0022365	
303.15	.4862	.0024698	
303.15	.5726	.0026649	
303.15	.6651	.002849	
303.15	.7492	.0029272	
303.15	.8363	.0029677	
303.15	.9138	.002965	
303.15	1	.0028767	
308.15	0	.0012491	
308.15	.1785	.0015731	
308.15	.2723	.001749	
308.15	.3849	.0019657	
308.15	.4862	.0021578	
308.15	.5726	.0023223	
308.15	.6651	.0025044	
308.15	.7492	.0025927	
308.15	.8363	.0026144	
308.15	.9138	.0026085	
308.15	1	.0025438	
313.15	0	.0011732	
313.15	.1785	.001453	
313.15	.2723	.0016231	
313.15	.3849	.0018133	
313.15	.4862	.0019883	
313.15	.5726	.0021311	
313.15	.6651	.0022637	
313.15	.7492	.0023232	
313.15	.8363	.0023605	
313.15	.9138	.0023598	
313.15	1	.0023562	
318.15	0	.0010789	
318.15	.1785	.0013126	
318.15	.2723	.0014601	
318.15	.3849	.0016262	
318.15	.4862	.0017688	
318.15	.5726	.0018855	
318.15	.6651	.0019879	
318.15	.7492	.0020456	
318.15	.8363	.0020698	
318.15	.9138	.0020572	
318.15	1	.0020606	
323.15	0	.0009347	
323.15	.1785	.0011294	
323.15	.2723	.0012696	
323.15	.3849	.0014205	
323.15	.4862	.001566	
323.15	.5726	.0016614	
323.15	.6651	.0017502	
323.15	.7492	.0018063	
323.15	.8363	.0018418	
323.15	.9138	.0018304	
323.15	1	.0018353	

System: formamide + 2-ethoxyethanol; phases: Liquid
Fixed: Pressure, kPa = 101
Property: Viscosity, Pa*s (Liquid); method: Capillary tube (Ostwald; Ubbelohde) method
Temperature, K	Mole fraction of formamide	Viscosity, Pa*s	uncertainty
303.15	0	.0016541	
303.15	.0975	.0019965	
303.15	.2009	.0023062	
303.15	.2984	.0025802	
303.15	.4047	.0028732	
303.15	.5054	.0031622	
303.15	.6055	.0034092	
303.15	.7092	.0035093	
303.15	.8063	.0034954	
303.15	.9074	.0033065	
303.15	1	.0028767	
308.15	0	.0014823	
308.15	.0975	.0017895	
308.15	.2009	.0020171	
308.15	.2984	.0022405	
308.15	.4047	.0024896	
308.15	.5054	.002735	
308.15	.6055	.002968	
308.15	.7092	.0030431	
308.15	.8063	.0030071	
308.15	.9074	.0028673	
308.15	1	.0025438	
313.15	0	.0013055	
313.15	.0975	.0015636	
313.15	.2009	.0017855	
313.15	.2984	.0019864	
313.15	.4047	.0022206	
313.15	.5054	.0024657	
313.15	.6055	.0026587	
313.15	.7092	.0027184	
313.15	.8063	.0026916	
313.15	.9074	.0025834	
313.15	1	.0023562	
318.15	0	.0012309	
318.15	.0975	.0014374	
318.15	.2009	.0015991	
318.15	.2984	.0017512	
318.15	.4047	.0019573	
318.15	.5054	.0021543	
318.15	.6055	.0022979	
318.15	.7092	.0023629	
318.15	.8063	.0023528	
318.15	.9074	.0022019	
318.15	1	.0020606	
323.15	0	.0011156	
323.15	.0975	.0012807	
323.15	.2009	.0014148	
323.15	.2984	.0015334	
323.15	.4047	.0017089	
323.15	.5054	.0018912	
323.15	.6055	.0020411	
323.15	.7092	.0020997	
323.15	.8063	.0020939	
323.15	.9074	.0019544	
323.15	1	.0018353	
