Measured thermophysical data. Water as a solute in aprotic dipolar solvents. 2. D2O-H2O  solute isotope effects on the enthalpy of water dissolution  in nitromethane, acetonitrile and propylene carbonate at  298.15 K
Source: Thermochim. Acta, 2010, 10.1016/j.tca.2010.09.013
Compound 1: nitromethane, CH3NO2, purity 99%
Compound 2: methylnitrile, C2H3N, purity 99.9%
Compound 3: 4-methyl-1,3-dioxolan-2-one, C4H6O3, purity 99%
Compound 4: water, H2O, purity 99.9%
Compound 5: water-d2, D2O, purity 99.95%

System: nitromethane + water; phases: Liquid
Fixed: Temperature, K = 298.15
Fixed: Pressure, kPa = 101
Property: Molar enthalpy of solution, kJ/mol (Liquid); method: Isoperibol calorimetry
Molality, mol/kg of water	Molar enthalpy of solution, kJ/mol	uncertainty
.147	12.82	.02

System: methylnitrile + water; phases: Liquid
Fixed: Temperature, K = 298.15
Fixed: Pressure, kPa = 101
Property: Molar enthalpy of solution, kJ/mol (Liquid); method: Isoperibol calorimetry
Molality, mol/kg of water	Molar enthalpy of solution, kJ/mol	uncertainty
.123	7.92	.05

System: 4-methyl-1,3-dioxolan-2-one + water; phases: Liquid
Fixed: Temperature, K = 298.15
Fixed: Pressure, kPa = 101
Property: Molar enthalpy of solution, kJ/mol (Liquid); method: Isoperibol calorimetry
Molality, mol/kg of water	Molar enthalpy of solution, kJ/mol	uncertainty
.091	8.25	.06

System: nitromethane + water-d2; phases: Liquid
Fixed: Temperature, K = 298.15
Fixed: Pressure, kPa = 101
Property: Molar enthalpy of solution, kJ/mol (Liquid); method: Isoperibol calorimetry
Molality, mol/kg of water-d2	Molar enthalpy of solution, kJ/mol	uncertainty
.16	13.85	.03

System: methylnitrile + water-d2; phases: Liquid
Fixed: Temperature, K = 298.15
Fixed: Pressure, kPa = 101
Property: Molar enthalpy of solution, kJ/mol (Liquid); method: Isoperibol calorimetry
Molality, mol/kg of water-d2	Molar enthalpy of solution, kJ/mol	uncertainty
.155	8.63	.06

System: 4-methyl-1,3-dioxolan-2-one + water-d2; phases: Liquid
Fixed: Temperature, K = 298.15
Fixed: Pressure, kPa = 101
Property: Molar enthalpy of solution, kJ/mol (Liquid); method: Isoperibol calorimetry
Molality, mol/kg of water-d2	Molar enthalpy of solution, kJ/mol	uncertainty
.161	8.6	.05
