Measured thermophysical data. Thermochemistry and kinetics of silica dissolution in NaOH solutions: Effect of the alkali concentration
Source: Thermochim. Acta, 2014, 10.1016/j.tca.2014.09.003
Compound 1: sodium hydroxide, HNaO
Compound 2: silicon dioxide, O2Si, purity 99%
Compound 3: water, H2O

System: sodium hydroxide + silicon dioxide + water; phases: Liquid, Gas
Fixed: Mole fraction of silicon dioxide = 0
Fixed: Temperature, K = 393.15
Property: Molar enthalpy of solution, kJ/mol (Liquid); method: Calvet calorimetry
Solvent: Mass fraction of sodium hydroxide	Molar enthalpy of solution, kJ/mol	uncertainty
.04	-12.9175	.14
.08	-15.2	.22
.11	-17.3375	.61
