Measured thermophysical data. Vapor pressure measurements of PbBr2 by the Knudsen effusion method and identification of its vapor species
Source: Thermochim. Acta, 2015, 10.1016/j.tca.2015.10.014
Compound 1: lead(II) bromide, Br2Pb, purity 99.999%

System: lead(II) bromide; phases: Crystal, Gas
Property: Vapor or sublimation pressure, kPa (Crystal); method: Knudsen effusion method
Temperature, K	Vapor or sublimation pressure, kPa	uncertainty
532.3	.000007	.000000812
553.2	.000036	.000004176
572.5	.000078	.000009048
590.8	.000233	.000027028
611.5	.000573	.000066468
633.9	.001334	.000154744
533	.000008	.000000928
553.7	.000026	.000003016
571.5	.000061	.000007076
591.9	.000178	.000020648
611.3	.000418	.000048488
632.7	.000886	.000102776
533.1	.000008	.000000928
553.9	.000027	.000003132
573.7	.000075	.0000087
592.6	.0002	.0000232
612.9	.000512	.000059392
633.5	.001153	.000133748
