Measured thermophysical data. Partial and Integral Enthalpies of mixing of Ag-Ga-Sn liquid alloys
Source: Thermochim. Acta, 2011, 10.1016/j.tca.2011.04.032
Compound 1: silver, Ag, purity 99.99%
Compound 2: tin, Sn, purity 99.999%
Compound 3: gallium, Ga, purity 99.999%

System: tin + gallium; phases: Liquid
Fixed: Pressure, kPa = 101
Property: Excess molar enthalpy (molar enthalpy of mixing), kJ/mol (Liquid); method: Calvet calorimetry
Temperature, K	Mole fraction of tin	Excess molar enthalpy (molar enthalpy of mixing), kJ/mol	uncertainty
803	.0386	.143	.15
803	.0789	.295	.15
803	.1176	.404	.15
803	.1534	.509	.15
803	.1882	.602	.15
803	.2234	.671	.15
803	.257	.726	.15
803	.2895	.77	.15
803	.3193	.82	.15
803	.3482	.862	.15

System: silver + gallium; phases: Liquid
Fixed: Pressure, kPa = 101
Property: Excess molar enthalpy (molar enthalpy of mixing), kJ/mol (Liquid); method: Calvet calorimetry
Temperature, K	Mole fraction of silver	Excess molar enthalpy (molar enthalpy of mixing), kJ/mol	uncertainty
803	.0414	.145	.15
803	.0838	.223	.15
803	.1226	.219	.15
803	.1599	.165	.15
803	.1964	.048	.15
803	.2316	-.104	.15
803	.2654	-.279	.15
803	.2984	-.506	.15
803	.3299	-.753	.15
803	.362	-1.042	.15
803	.0527	.139	.15
803	.1049	.188	.15
803	.1521	.111	.15
803	.2	-.037	.15
803	.2436	-.217	.15
803	.2836	-.469	.15
803	.3254	-.804	.15
803	.3636	-1.161	.15
803	.3977	-1.545	.15
803	.4302	-1.924	.15
803	.4608	-2.305	.15
803	.4884	-2.679	.15
803	.5148	-3.058	.15
803	.5395	-3.437	.15
803	.5618	-3.784	.15
939	.0723	.222	.15
939	.1366	.329	.15
939	.2071	.26	.15
939	.2669	-.01	.15
939	.321	-.329	.15
939	.3703	-.763	.15
939	.4139	-1.236	.15
939	.452	-1.661	.15
939	.4878	-2.09	.15
939	.5194	-2.487	.15
939	.5474	-2.835	.15
939	.5732	-3.165	.15
939	.5968	-3.456	.15
939	.618	-3.698	.15
939	.6382	-3.909	.15
939	.6569	-4.145	.15
939	.674	-4.319	.15
939	.6896	-4.452	.15
939	.704	-4.556	.15
939	.7178	-4.613	.15
939	.7304	-4.657	.15
939	.7421	-4.682	.15
939	.7531	-4.847	.15
939	.7635	-5.136	.15
939	.7727	-5.398	.15
939	.0658	.199	.15
939	.124	.314	.15
939	.1767	.299	.15
939	.2244	.163	.15
939	.2726	-.077	.15
939	.3157	-.349	.15
939	.3551	-.647	.15
939	.3915	-.983	.15
939	.4243	-1.304	.15
939	.4539	-1.62	.15
939	.4811	-1.925	.15
939	.5058	-2.222	.15
939	.5294	-2.533	.15
939	.5509	-2.843	.15
939	.5712	-3.124	.15
939	.5898	-3.377	.15
939	.6072	-3.633	.15
939	.6233	-3.847	.15
939	.6383	-4.028	.15
939	.6535	-4.21	.15
939	.6676	-4.356	.15
939	.6808	-4.484	.15
939	.6932	-4.6	.15
939	.7051	-4.67	.15
939	.7164	-4.737	.15
1073	.1169	.167	.15
1073	.2127	.047	.15
1073	.2923	-.35	.15
1073	.3577	-.773	.15
1073	.4225	-1.295	.15
1073	.4759	-1.819	.15
1073	.5234	-2.357	.15
1073	.5631	-2.843	.15
1073	.597	-3.261	.15
1073	.6264	-3.611	.15
1073	.6525	-3.858	.15
1073	.6755	-4.07	.15
1073	.6956	-4.256	.15
1073	.7142	-4.366	.15
1073	.7309	-4.435	.15
1073	.7459	-4.427	.15
1073	.7601	-4.397	.15
1073	.7735	-4.35	.15
1073	.7857	-4.271	.15
1073	.7971	-4.17	.15
1073	.0269	.106	.15
1073	.0526	.187	.15
1073	.0773	.235	.15
1073	.1027	.261	.15
1073	.1273	.249	.15
1073	.1505	.24	.15
1073	.173	.206	.15
1073	.1944	.164	.15
1073	.2149	.106	.15
1073	.2344	.067	.15
1073	.253	-.008	.15
1073	.2712	-.098	.15
1073	.289	-.204	.15
1073	.306	-.301	.15
1073	.3224	-.387	.15
1073	.3386	-.488	.15
1073	.3543	-.598	.15
1073	.3693	-.72	.15
1073	.384	-.83	.15
1073	.3984	-.957	.15
1073	.4128	-1.094	.15
1073	.427	-1.24	.15
1073	.4411	-1.378	.15
1073	.4561	-1.528	.15
1073	.4704	-1.67	.15

System: silver + tin + gallium; phases: Liquid
Fixed: Pressure, kPa = 101
Property: Excess molar enthalpy (molar enthalpy of mixing), kJ/mol (Liquid); method: Calvet calorimetry
Temperature, K	Mole fraction of silver	Mole fraction of tin	Excess molar enthalpy (molar enthalpy of mixing), kJ/mol	uncertainty
803	.5	0	-2.849	.15
803	.4869	.0262	-2.488	.15
803	.4743	.0515	-2.147	.15
803	.4621	.0758	-1.853	.15
803	.4384	.1232	-1.321	.15
803	.4272	.1457	-1.095	.15
803	.4164	.1673	-.874	.15
803	.4061	.1878	-.684	.15
803	.3963	.2074	-.532	.15
803	.3778	.2444	-.242	.15
803	.3692	.2617	-.115	.15
803	.3606	.2788	-.004	.15
803	.3525	.2951	.086	.15
803	.3447	.3106	.17	.15
803	.3298	.3405	.345	.15
803	.3227	.3547	.405	.15
803	.3157	.3686	.462	.15
803	.309	.382	.519	.15
803	.3025	.395	.551	.15
803	.2903	.4195	.669	.15
803	.2845	.431	.704	.15
803	.2789	.4422	.734	.15
803	.36	0	-1.042	.15
803	.35	.0279	-.796	.15
803	.3402	.0549	-.579	.15
803	.3308	.0812	-.392	.15
803	.3213	.1075	-.198	.15
803	.312	.1333	-.035	.15
803	.3029	.1585	.124	.15
803	.2942	.1829	.261	.15
803	.2852	.2078	.394	.15
803	.2765	.232	.504	.15
803	.2679	.2557	.611	.15
803	.2598	.2784	.664	.15
803	.2515	.3013	.742	.15
803	.2438	.3228	.791	.15
803	.2363	.3436	.846	.15
803	.229	.3639	.887	.15
803	.25	0	-.203	.15
803	.244	.0241	-.06497	.15
803	.2382	.0473	.06786	.15
803	.2325	.0701	.18354	.15
803	.227	.0919	.29002	.15
803	.2218	.1127	.3551	.15
803	.2168	.1327	.46575	.15
803	.2119	.1524	.54402	.15
803	.2071	.1715	.58956	.15
803	.2024	.1903	.65119	.15
803	.1979	.2084	.70419	.15
803	.1936	.2256	.75046	.15
803	.1895	.2422	.81323	.15
803	.1854	.2584	.84712	.15
803	.1815	.274	.87994	.15
803	.1777	.2893	.90709	.15
803	.174	.3041	.95649	.15
803	.1704	.3183	.97463	.15
803	.167	.3319	.97022	.15
803	.1637	.3451	.99073	.15
803	.1606	.3578	1.02638	.15
803	.1575	.3702	1.01943	.15
803	.1545	.3822	1.02307	.15
803	.1514	.3943	1.00847	.15
803	.1485	.4062	1.027	.15
803	.1455	.418	1.231	.15
