Measured thermophysical data. Heat capacities of several Co2 YZ Heusler compounds
Source: Thermochim. Acta, 2013, 10.1016/j.tca.2013.10.004
Compound 1: Co2FeGe, Co2FeGe, purity 95%
Compound 2: Co2FeAl, AlCo2Fe, purity 95%
Compound 3: Co2FeGa, Co2FeGa, purity 95%
Compound 4: Co2FeSi, Co2FeSi, purity 95%
Compound 5: Co2MnAl, AlCo2Mn, purity 95%
Compound 6: Co2MnSi, Co2MnSi, purity 95%
Compound 7: Co2MnGe, Co2GeMn, purity 95%
Compound 8: Co2TiAl, AlCo2Ti, purity 95%
Compound 9: Co2TiGa, Co2GaTi, purity 95%
Compound 10: Co2TiSi, Co2SiTi, purity 95%
Compound 11: Co2TiSn, Co2SnTi, purity 95%
Compound 12: Co2MnSn, Co2MnSn, purity 95%

System: Co2FeGe; phases: Crystal, Liquid, Gas
Property: Triple point temperature, K (Crystal); method: DSC/DTA
Triple point temperature, K	uncertainty
1401	

System: Co2FeGe; phases: Crystal, Liquid, Gas
Property: Molar enthalpy of transition or fusion, kJ/mol (Crystal); method: DSC/DTA
Molar enthalpy of transition or fusion, kJ/mol	uncertainty
45.6	

System: Co2FeGe; phases: Crystal
Fixed: Pressure, kPa = 101.325
Property: Molar enthalpy, kJ/mol (Crystal); method: Drop calorimetry
Temperature, K	Molar enthalpy, kJ/mol	uncertainty
588	32.8	1.968
689	46.8	2.808
791	62.4	3.744
892	76.4	4.584
994	100.8	6.048
1095	124	7.44
1197	138.4	8.304
1298	170.4	10.224
1374	174.4	10.464

System: Co2FeGe; phases: Liquid
Fixed: Pressure, kPa = 101.325
Property: Molar enthalpy, kJ/mol (Liquid); method: Drop calorimetry
Temperature, K	Molar enthalpy, kJ/mol	uncertainty
1502	254	15.24
1553	255.2	15.312

System: Co2FeAl; phases: Crystal
Fixed: Pressure, kPa = 101.325
Property: Molar enthalpy, kJ/mol (Crystal); method: Drop calorimetry
Temperature, K	Molar enthalpy, kJ/mol	uncertainty
687	42	2.52
773	54.4	3.264
873	68.4	4.104
972	80.4	4.824
1072	97.6	5.856
1174	124.8	7.488
1274	146.8	8.808
1374	168.8	10.128
1476	199.2	11.952
585	30.4	1.824

System: Co2FeGa; phases: Crystal, Liquid, Gas
Property: Triple point temperature, K (Crystal); method: DSC/DTA
Triple point temperature, K	uncertainty
1539	

System: Co2FeGa; phases: Crystal, Liquid, Gas
Property: Molar enthalpy of transition or fusion, kJ/mol (Crystal); method: DSC/DTA
Molar enthalpy of transition or fusion, kJ/mol	uncertainty
34.8	

System: Co2FeGa; phases: Crystal
Fixed: Pressure, kPa = 101.325
Property: Molar enthalpy, kJ/mol (Crystal); method: Drop calorimetry
Temperature, K	Molar enthalpy, kJ/mol	uncertainty
673	40.8	2.448
771	52	3.12
873	66.4	3.984
975	86.4	5.184
1074	111.6	6.696
1172	135.6	8.136
1271	155.6	9.336
1371	189.2	11.352
1475	194.8	11.688
572	28.8	1.728

System: Co2FeSi; phases: Crystal, Liquid, Gas
Property: Triple point temperature, K (Crystal); method: DSC/DTA
Triple point temperature, K	uncertainty
1510	

System: Co2FeSi; phases: Crystal, Liquid, Gas
Property: Molar enthalpy of transition or fusion, kJ/mol (Crystal); method: DSC/DTA
Molar enthalpy of transition or fusion, kJ/mol	uncertainty
48	

System: Co2FeSi; phases: Crystal
Fixed: Pressure, kPa = 101.325
Property: Molar enthalpy, kJ/mol (Crystal); method: Drop calorimetry
Temperature, K	Molar enthalpy, kJ/mol	uncertainty
584	31.6	1.896
688	44	2.64
789	59.2	3.552
891	72.4	4.344
992	92.8	5.568
1094	113.6	6.816
1196	141.2	8.472
1297	150.8	9.048
1374	168	10.08

System: Co2MnAl; phases: Crystal
Fixed: Pressure, kPa = 101.325
Property: Molar enthalpy, kJ/mol (Crystal); method: Drop calorimetry
Temperature, K	Molar enthalpy, kJ/mol	uncertainty
684	48	2.88
786	60.4	3.624
887	74.8	4.488
989	89.6	5.376
1091	108	6.48
1194	119.2	7.152
1296	132.4	7.944
1398	156.4	9.384

System: Co2MnSi; phases: Crystal, Liquid, Gas
Property: Triple point temperature, K (Crystal); method: DSC/DTA
Triple point temperature, K	uncertainty
1460	

System: Co2MnSi; phases: Crystal, Liquid, Gas
Property: Molar enthalpy of transition or fusion, kJ/mol (Crystal); method: DSC/DTA
Molar enthalpy of transition or fusion, kJ/mol	uncertainty
76	

System: Co2MnSi; phases: Crystal
Fixed: Pressure, kPa = 101.325
Property: Molar enthalpy, kJ/mol (Crystal); method: Drop calorimetry
Temperature, K	Molar enthalpy, kJ/mol	uncertainty
585	30	1.8
687	42	2.52
773	54	3.24
873	64.4	3.864
972	82.4	4.944
1072	104	6.24
1174	126.4	7.584
1274	142.4	8.544
1374	168.8	10.128

System: Co2MnSi; phases: Liquid
Fixed: Pressure, kPa = 101.325
Property: Molar enthalpy, kJ/mol (Liquid); method: Drop calorimetry
Temperature, K	Molar enthalpy, kJ/mol	uncertainty
1476	255.2	15.312

System: Co2MnGe; phases: Crystal, Liquid, Gas
Property: Triple point temperature, K (Crystal); method: DSC/DTA
Triple point temperature, K	uncertainty
1353	

System: Co2MnGe; phases: Crystal, Liquid, Gas
Property: Molar enthalpy of transition or fusion, kJ/mol (Crystal); method: DSC/DTA
Molar enthalpy of transition or fusion, kJ/mol	uncertainty
32	

System: Co2MnGe; phases: Crystal
Fixed: Pressure, kPa = 101.325
Property: Molar enthalpy, kJ/mol (Crystal); method: Drop calorimetry
Temperature, K	Molar enthalpy, kJ/mol	uncertainty
588	32.4	1.944
689	44	2.64
790	58	3.48
890	75.6	4.536
991	98.8	5.928
1091	115.6	6.936
1192	138.8	8.328
1293	158.8	9.528

System: Co2MnGe; phases: Liquid
Fixed: Pressure, kPa = 101.325
Property: Molar enthalpy, kJ/mol (Liquid); method: Drop calorimetry
Temperature, K	Molar enthalpy, kJ/mol	uncertainty
1377	243.2	14.592
1445	252.8	15.168
1496	259.6	15.576

System: Co2TiAl; phases: Crystal
Fixed: Pressure, kPa = 101.325
Property: Molar enthalpy, kJ/mol (Crystal); method: Drop calorimetry
Temperature, K	Molar enthalpy, kJ/mol	uncertainty
586	22.8	1.368
688	40.8	2.448
790	52.4	3.144
891	62.8	3.768
992	76.8	4.608
1094	92	5.52
1196	104	6.24
1297	110	6.6
1374	124.4	7.464
1476	140	8.4

System: Co2TiGa; phases: Crystal
Fixed: Pressure, kPa = 101.325
Property: Molar enthalpy, kJ/mol (Crystal); method: Drop calorimetry
Temperature, K	Molar enthalpy, kJ/mol	uncertainty
572	29.2	1.752
673	40.8	2.448
771	50	3
873	60.4	3.624
975	75.2	4.512
1074	80.4	4.824
1172	97.6	5.856
1271	112	6.72
1371	128	7.68
1475	138.8	8.328

System: Co2TiSi; phases: Crystal
Fixed: Pressure, kPa = 101.325
Property: Molar enthalpy, kJ/mol (Crystal); method: Drop calorimetry
Temperature, K	Molar enthalpy, kJ/mol	uncertainty
585	31.6	1.896
687	41.6	2.496
773	53.2	3.192
873	63.2	3.792
972	75.2	4.512
1072	83.2	4.992
1174	98.8	5.928
1274	107.2	6.432
1377	128.8	7.728
1476	129.6	7.776

System: Co2TiSn; phases: Crystal
Fixed: Pressure, kPa = 101.325
Property: Molar enthalpy, kJ/mol (Crystal); method: Drop calorimetry
Temperature, K	Molar enthalpy, kJ/mol	uncertainty
584	32	1.92
688	44	2.64
789	54.8	3.288
891	65.2	3.912
992	80	4.8
1094	92.4	5.544
1196	100.8	6.048
1297	117.2	7.032
1321	118	7.08
1347	129.2	7.752
1372	128.4	7.704
1476	150	9

System: Co2MnSn; phases: Crystal, Liquid, Gas
Property: Triple point temperature, K (Crystal); method: DSC/DTA
Triple point temperature, K	uncertainty
1317	

System: Co2MnSn; phases: Crystal, Liquid, Gas
Property: Molar enthalpy of transition or fusion, kJ/mol (Crystal); method: DSC/DTA
Molar enthalpy of transition or fusion, kJ/mol	uncertainty
40	
