Measured thermophysical data. Thermodynamic of dissolution and hydrogen bond of the pyrrole, N-methylpyrrole with proton acceptors
Source: Thermochim. Acta, 2016, 10.1016/j.tca.2016.07.009
Compound 1: acetonitrile, C2H3N, purity 99%
Compound 2: acetone, C3H6O, purity 99%
Compound 3: dibutyl ether, C8H18O, purity 98%
Compound 4: 1,4-dioxane, C4H8O2, purity 98%
Compound 5: diethyl ether, C4H10O, purity 98%
Compound 6: dimethylformamide, C3H7NO, purity 98%
Compound 7: ethyl acetate, C4H8O2, purity 98%
Compound 8: methyl acetate, C3H6O2, purity 99%
Compound 9: 1-methylimidazole, C4H6N2, purity 98%
Compound 10: N-methylpyrrole, C5H7N, purity 99%
Compound 11: pentan-2-one, C5H10O, purity 98%
Compound 12: propionitrile, C3H5N, purity 98%
Compound 13: pyridine, C5H5N, purity 98%
Compound 14: pyrrole, C4H5N, purity 99%
Compound 15: tetrahydrofuran, C4H8O, purity 98%
Compound 16: triethylamine, C6H15N, purity 98%
Compound 17: hexane, C6H14, purity 98.5%
Compound 18: heptane, C7H16, purity 99%
Compound 19: octane, C8H18, purity 98%

System: acetonitrile + pyrrole; phases: Liquid
Fixed: Pressure, kPa = 100
Fixed: Temperature, K = 298.15
Property: Molar enthalpy of solution, kJ/mol (Liquid); method: Titration calorimetry
Mole fraction of pyrrole	Molar enthalpy of solution, kJ/mol	uncertainty
0	-1.64	

System: acetonitrile + pyrrole; phases: Liquid
Fixed: Pressure, kPa = 100
Fixed: Temperature, K = 298.15
Property: Molar enthalpy of solution, kJ/mol (Liquid); method: Titration calorimetry
Mole fraction of acetonitrile	Molar enthalpy of solution, kJ/mol	uncertainty
0	-1.67	

System: acetone + pyrrole; phases: Liquid
Fixed: Pressure, kPa = 100
Fixed: Temperature, K = 298.15
Property: Molar enthalpy of solution, kJ/mol (Liquid); method: Titration calorimetry
Mole fraction of pyrrole	Molar enthalpy of solution, kJ/mol	uncertainty
0	-5.35	

System: acetone + pyrrole; phases: Liquid
Fixed: Pressure, kPa = 100
Fixed: Temperature, K = 298.15
Property: Molar enthalpy of solution, kJ/mol (Liquid); method: Titration calorimetry
Mole fraction of acetone	Molar enthalpy of solution, kJ/mol	uncertainty
0	-4.95	

System: pyrrole + dibutyl ether; phases: Liquid
Fixed: Pressure, kPa = 100
Fixed: Temperature, K = 298.15
Property: Molar enthalpy of solution, kJ/mol (Liquid); method: Titration calorimetry
Mole fraction of pyrrole	Molar enthalpy of solution, kJ/mol	uncertainty
0	-3.02	

System: pyrrole + dibutyl ether; phases: Liquid
Fixed: Pressure, kPa = 100
Fixed: Temperature, K = 298.15
Property: Molar enthalpy of solution, kJ/mol (Liquid); method: Titration calorimetry
Mole fraction of dibutyl ether	Molar enthalpy of solution, kJ/mol	uncertainty
0	-2.16	

System: diethyl ether + pyrrole; phases: Liquid
Fixed: Pressure, kPa = 100
Fixed: Temperature, K = 298.15
Property: Molar enthalpy of solution, kJ/mol (Liquid); method: Titration calorimetry
Mole fraction of pyrrole	Molar enthalpy of solution, kJ/mol	uncertainty
0	-5.27	

System: diethyl ether + pyrrole; phases: Liquid
Fixed: Pressure, kPa = 100
Fixed: Temperature, K = 298.15
Property: Molar enthalpy of solution, kJ/mol (Liquid); method: Titration calorimetry
Mole fraction of diethyl ether	Molar enthalpy of solution, kJ/mol	uncertainty
0	-5.64	

System: dimethylformamide + pyrrole; phases: Liquid
Fixed: Pressure, kPa = 100
Fixed: Temperature, K = 298.15
Property: Molar enthalpy of solution, kJ/mol (Liquid); method: Titration calorimetry
Mole fraction of pyrrole	Molar enthalpy of solution, kJ/mol	uncertainty
0	-9	

System: dimethylformamide + pyrrole; phases: Liquid
Fixed: Pressure, kPa = 100
Fixed: Temperature, K = 298.15
Property: Molar enthalpy of solution, kJ/mol (Liquid); method: Titration calorimetry
Mole fraction of dimethylformamide	Molar enthalpy of solution, kJ/mol	uncertainty
0	-11.97	

System: pyrrole + 1,4-dioxane; phases: Liquid
Fixed: Pressure, kPa = 100
Fixed: Temperature, K = 298.15
Property: Molar enthalpy of solution, kJ/mol (Liquid); method: Titration calorimetry
Mole fraction of pyrrole	Molar enthalpy of solution, kJ/mol	uncertainty
0	-5	

System: pyrrole + 1,4-dioxane; phases: Liquid
Fixed: Pressure, kPa = 100
Fixed: Temperature, K = 298.15
Property: Molar enthalpy of solution, kJ/mol (Liquid); method: Titration calorimetry
Mole fraction of 1,4-dioxane	Molar enthalpy of solution, kJ/mol	uncertainty
0	-7.04	

System: methyl acetate + pyrrole; phases: Liquid
Fixed: Pressure, kPa = 100
Fixed: Temperature, K = 298.15
Property: Molar enthalpy of solution, kJ/mol (Liquid); method: Titration calorimetry
Mole fraction of pyrrole	Molar enthalpy of solution, kJ/mol	uncertainty
0	-3.3	

System: methyl acetate + pyrrole; phases: Liquid
Fixed: Pressure, kPa = 100
Fixed: Temperature, K = 298.15
Property: Molar enthalpy of solution, kJ/mol (Liquid); method: Titration calorimetry
Mole fraction of methyl acetate	Molar enthalpy of solution, kJ/mol	uncertainty
0	-2.47	

System: N-methylpyrrole + pyrrole; phases: Liquid
Fixed: Pressure, kPa = 100
Fixed: Temperature, K = 298.15
Property: Molar enthalpy of solution, kJ/mol (Liquid); method: Titration calorimetry
Mole fraction of pyrrole	Molar enthalpy of solution, kJ/mol	uncertainty
0	-.67	

System: N-methylpyrrole + pyrrole; phases: Liquid
Fixed: Pressure, kPa = 100
Fixed: Temperature, K = 298.15
Property: Molar enthalpy of solution, kJ/mol (Liquid); method: Titration calorimetry
Mole fraction of N-methylpyrrole	Molar enthalpy of solution, kJ/mol	uncertainty
0	-.43	

System: pentan-2-one + pyrrole; phases: Liquid
Fixed: Pressure, kPa = 100
Fixed: Temperature, K = 298.15
Property: Molar enthalpy of solution, kJ/mol (Liquid); method: Titration calorimetry
Mole fraction of pyrrole	Molar enthalpy of solution, kJ/mol	uncertainty
0	-5.85	

System: pentan-2-one + pyrrole; phases: Liquid
Fixed: Pressure, kPa = 100
Fixed: Temperature, K = 298.15
Property: Molar enthalpy of solution, kJ/mol (Liquid); method: Titration calorimetry
Mole fraction of pentan-2-one	Molar enthalpy of solution, kJ/mol	uncertainty
0	-4.95	

System: propionitrile + pyrrole; phases: Liquid
Fixed: Pressure, kPa = 100
Fixed: Temperature, K = 298.15
Property: Molar enthalpy of solution, kJ/mol (Liquid); method: Titration calorimetry
Mole fraction of pyrrole	Molar enthalpy of solution, kJ/mol	uncertainty
0	-3	

System: propionitrile + pyrrole; phases: Liquid
Fixed: Pressure, kPa = 100
Fixed: Temperature, K = 298.15
Property: Molar enthalpy of solution, kJ/mol (Liquid); method: Titration calorimetry
Mole fraction of propionitrile	Molar enthalpy of solution, kJ/mol	uncertainty
0	-2.13	

System: pyrrole + pyridine; phases: Liquid
Fixed: Pressure, kPa = 100
Fixed: Temperature, K = 298.15
Property: Molar enthalpy of solution, kJ/mol (Liquid); method: Titration calorimetry
Mole fraction of pyrrole	Molar enthalpy of solution, kJ/mol	uncertainty
0	-9.03	

System: pyrrole + pyridine; phases: Liquid
Fixed: Pressure, kPa = 100
Fixed: Temperature, K = 298.15
Property: Molar enthalpy of solution, kJ/mol (Liquid); method: Titration calorimetry
Mole fraction of pyridine	Molar enthalpy of solution, kJ/mol	uncertainty
0	-7.9	

System: pyrrole + tetrahydrofuran; phases: Liquid
Fixed: Pressure, kPa = 100
Fixed: Temperature, K = 298.15
Property: Molar enthalpy of solution, kJ/mol (Liquid); method: Titration calorimetry
Mole fraction of pyrrole	Molar enthalpy of solution, kJ/mol	uncertainty
0	-7.4	

System: pyrrole + tetrahydrofuran; phases: Liquid
Fixed: Pressure, kPa = 100
Fixed: Temperature, K = 298.15
Property: Molar enthalpy of solution, kJ/mol (Liquid); method: Titration calorimetry
Mole fraction of tetrahydrofuran	Molar enthalpy of solution, kJ/mol	uncertainty
0	-7.88	

System: pyrrole + triethylamine; phases: Liquid
Fixed: Pressure, kPa = 100
Fixed: Temperature, K = 298.15
Property: Molar enthalpy of solution, kJ/mol (Liquid); method: Titration calorimetry
Mole fraction of pyrrole	Molar enthalpy of solution, kJ/mol	uncertainty
0	-12	

System: pyrrole + triethylamine; phases: Liquid
Fixed: Pressure, kPa = 100
Fixed: Temperature, K = 298.15
Property: Molar enthalpy of solution, kJ/mol (Liquid); method: Titration calorimetry
Mole fraction of triethylamine	Molar enthalpy of solution, kJ/mol	uncertainty
0	-12.45	

System: pyrrole + ethyl acetate; phases: Liquid
Fixed: Pressure, kPa = 100
Fixed: Temperature, K = 298.15
Property: Molar enthalpy of solution, kJ/mol (Liquid); method: Titration calorimetry
Mole fraction of ethyl acetate	Molar enthalpy of solution, kJ/mol	uncertainty
0	-3.63	

System: diethyl ether + N-methylpyrrole; phases: Liquid
Fixed: Pressure, kPa = 100
Fixed: Temperature, K = 298.15
Property: Molar enthalpy of solution, kJ/mol (Liquid); method: Titration calorimetry
Mole fraction of N-methylpyrrole	Molar enthalpy of solution, kJ/mol	uncertainty
0	1.2	

System: diethyl ether + N-methylpyrrole; phases: Liquid
Fixed: Pressure, kPa = 100
Fixed: Temperature, K = 298.15
Property: Molar enthalpy of solution, kJ/mol (Liquid); method: Titration calorimetry
Mole fraction of diethyl ether	Molar enthalpy of solution, kJ/mol	uncertainty
0	.96	

System: methyl acetate + N-methylpyrrole; phases: Liquid
Fixed: Pressure, kPa = 100
Fixed: Temperature, K = 298.15
Property: Molar enthalpy of solution, kJ/mol (Liquid); method: Titration calorimetry
Mole fraction of N-methylpyrrole	Molar enthalpy of solution, kJ/mol	uncertainty
0	.11	

System: methyl acetate + N-methylpyrrole; phases: Liquid
Fixed: Pressure, kPa = 100
Fixed: Temperature, K = 298.15
Property: Molar enthalpy of solution, kJ/mol (Liquid); method: Titration calorimetry
Mole fraction of methyl acetate	Molar enthalpy of solution, kJ/mol	uncertainty
0	.72	

System: N-methylpyrrole + pentan-2-one; phases: Liquid
Fixed: Pressure, kPa = 100
Fixed: Temperature, K = 298.15
Property: Molar enthalpy of solution, kJ/mol (Liquid); method: Titration calorimetry
Mole fraction of N-methylpyrrole	Molar enthalpy of solution, kJ/mol	uncertainty
0	-.01	

System: N-methylpyrrole + pentan-2-one; phases: Liquid
Fixed: Pressure, kPa = 100
Fixed: Temperature, K = 298.15
Property: Molar enthalpy of solution, kJ/mol (Liquid); method: Titration calorimetry
Mole fraction of pentan-2-one	Molar enthalpy of solution, kJ/mol	uncertainty
0	-.28	

System: acetonitrile + N-methylpyrrole; phases: Liquid
Fixed: Pressure, kPa = 100
Fixed: Temperature, K = 298.15
Property: Molar enthalpy of solution, kJ/mol (Liquid); method: Titration calorimetry
Mole fraction of acetonitrile	Molar enthalpy of solution, kJ/mol	uncertainty
0	-.13	

System: acetone + N-methylpyrrole; phases: Liquid
Fixed: Pressure, kPa = 100
Fixed: Temperature, K = 298.15
Property: Molar enthalpy of solution, kJ/mol (Liquid); method: Titration calorimetry
Mole fraction of acetone	Molar enthalpy of solution, kJ/mol	uncertainty
0	-.21	

System: N-methylpyrrole + dibutyl ether; phases: Liquid
Fixed: Pressure, kPa = 100
Fixed: Temperature, K = 298.15
Property: Molar enthalpy of solution, kJ/mol (Liquid); method: Titration calorimetry
Mole fraction of dibutyl ether	Molar enthalpy of solution, kJ/mol	uncertainty
0	4.33	

System: dimethylformamide + N-methylpyrrole; phases: Liquid
Fixed: Pressure, kPa = 100
Fixed: Temperature, K = 298.15
Property: Molar enthalpy of solution, kJ/mol (Liquid); method: Titration calorimetry
Mole fraction of dimethylformamide	Molar enthalpy of solution, kJ/mol	uncertainty
0	-.35	

System: N-methylpyrrole + 1,4-dioxane; phases: Liquid
Fixed: Pressure, kPa = 100
Fixed: Temperature, K = 298.15
Property: Molar enthalpy of solution, kJ/mol (Liquid); method: Titration calorimetry
Mole fraction of 1,4-dioxane	Molar enthalpy of solution, kJ/mol	uncertainty
0	-.4	

System: N-methylpyrrole + ethyl acetate; phases: Liquid
Fixed: Pressure, kPa = 100
Fixed: Temperature, K = 298.15
Property: Molar enthalpy of solution, kJ/mol (Liquid); method: Titration calorimetry
Mole fraction of ethyl acetate	Molar enthalpy of solution, kJ/mol	uncertainty
0	.38	

System: N-methylpyrrole + 1-methylimidazole; phases: Liquid
Fixed: Pressure, kPa = 100
Fixed: Temperature, K = 298.15
Property: Molar enthalpy of solution, kJ/mol (Liquid); method: Titration calorimetry
Mole fraction of 1-methylimidazole	Molar enthalpy of solution, kJ/mol	uncertainty
0	2.4	

System: N-methylpyrrole + propionitrile; phases: Liquid
Fixed: Pressure, kPa = 100
Fixed: Temperature, K = 298.15
Property: Molar enthalpy of solution, kJ/mol (Liquid); method: Titration calorimetry
Mole fraction of propionitrile	Molar enthalpy of solution, kJ/mol	uncertainty
0	-.36	

System: N-methylpyrrole + pyridine; phases: Liquid
Fixed: Pressure, kPa = 100
Fixed: Temperature, K = 298.15
Property: Molar enthalpy of solution, kJ/mol (Liquid); method: Titration calorimetry
Mole fraction of pyridine	Molar enthalpy of solution, kJ/mol	uncertainty
0	-.32	

System: N-methylpyrrole + tetrahydrofuran; phases: Liquid
Fixed: Pressure, kPa = 100
Fixed: Temperature, K = 298.15
Property: Molar enthalpy of solution, kJ/mol (Liquid); method: Titration calorimetry
Mole fraction of tetrahydrofuran	Molar enthalpy of solution, kJ/mol	uncertainty
0	-.51	

System: N-methylpyrrole + triethylamine; phases: Liquid
Fixed: Pressure, kPa = 100
Fixed: Temperature, K = 298.15
Property: Molar enthalpy of solution, kJ/mol (Liquid); method: Titration calorimetry
Mole fraction of triethylamine	Molar enthalpy of solution, kJ/mol	uncertainty
0	2.96	

System: pentan-2-one + hexane; phases: Liquid
Fixed: Pressure, kPa = 100
Fixed: Temperature, K = 298.15
Property: Molar enthalpy of solution, kJ/mol (Liquid); method: Titration calorimetry
Mole fraction of hexane	Molar enthalpy of solution, kJ/mol	uncertainty
0	3.78	

System: pentan-2-one + heptane; phases: Liquid
Fixed: Pressure, kPa = 100
Fixed: Temperature, K = 298.15
Property: Molar enthalpy of solution, kJ/mol (Liquid); method: Titration calorimetry
Mole fraction of heptane	Molar enthalpy of solution, kJ/mol	uncertainty
0	4.43	

System: pentan-2-one + octane; phases: Liquid
Fixed: Pressure, kPa = 100
Fixed: Temperature, K = 298.15
Property: Molar enthalpy of solution, kJ/mol (Liquid); method: Titration calorimetry
Mole fraction of octane	Molar enthalpy of solution, kJ/mol	uncertainty
0	5	

System: methyl acetate + hexane; phases: Liquid
Fixed: Pressure, kPa = 100
Fixed: Temperature, K = 298.15
Property: Molar enthalpy of solution, kJ/mol (Liquid); method: Titration calorimetry
Mole fraction of hexane	Molar enthalpy of solution, kJ/mol	uncertainty
0	7.01	

System: methyl acetate + heptane; phases: Liquid
Fixed: Pressure, kPa = 100
Fixed: Temperature, K = 298.15
Property: Molar enthalpy of solution, kJ/mol (Liquid); method: Titration calorimetry
Mole fraction of heptane	Molar enthalpy of solution, kJ/mol	uncertainty
0	8.02	

System: methyl acetate + octane; phases: Liquid
Fixed: Pressure, kPa = 100
Fixed: Temperature, K = 298.15
Property: Molar enthalpy of solution, kJ/mol (Liquid); method: Titration calorimetry
Mole fraction of octane	Molar enthalpy of solution, kJ/mol	uncertainty
0	9.27	
