Measured thermophysical data. Solid state structural relation and binary melting phase diagram of(S-) and racemic 2-(2-nitro-1-phenylethyl)-1,3-diphenyl-propane-1,3-dione
Source: Thermochim. Acta, 2014, 10.1016/j.tca.2014.01.028
Compound 1: 2-[(1S)-2-nitro-1-phenylethyl]-1,3-diphenyl-1,3-propanedione, C23H19NO4
Compound 2: 2-[(1R)-2-nitro-1-phenylethyl]-1,3-diphenyl-1,3-propanedione, C23H19NO4

System: 2-[(1S)-2-nitro-1-phenylethyl]-1,3-diphenyl-1,3-propanedione; phases: Crystal, Liquid, Air at 1 atmosphere
Property: Normal melting temperature, K (Crystal); method: DSC/DTA
Normal melting temperature, K	uncertainty
408.75	

System: 2-[(1S)-2-nitro-1-phenylethyl]-1,3-diphenyl-1,3-propanedione; phases: Crystal, Liquid, Air at 1 atmosphere
Property: Molar enthalpy of transition or fusion, kJ/mol (Crystal); method: DSC/DTA
Molar enthalpy of transition or fusion, kJ/mol	uncertainty
31.996757397	

System: 2-[(1R)-2-nitro-1-phenylethyl]-1,3-diphenyl-1,3-propanedione + 2-[(1S)-2-nitro-1-phenylethyl]-1,3-diphenyl-1,3-propanedione; phases: Crystal, Crystal of intercomponent compound 1, Liquid, Air at 1 atmosphere
Fixed: Pressure, kPa = 101.325
Property: Eutectic temperature, K (Crystal); method: DSC/DTA
Eutectic temperature, K	uncertainty
405.85	

System: 2-[(1R)-2-nitro-1-phenylethyl]-1,3-diphenyl-1,3-propanedione + 2-[(1S)-2-nitro-1-phenylethyl]-1,3-diphenyl-1,3-propanedione; phases: Crystal, Crystal of intercomponent compound 1, Liquid, Air at 1 atmosphere
Fixed: Pressure, kPa = 101.325
Property: Eutectic composition: mole fraction of 2-[(1S)-2-nitro-1-phenylethyl]-1,3-diphenyl-1,3-propanedione (Crystal); method: Derived from phase diagram analysis
Eutectic composition: mole fraction of 2-[(1S)-2-nitro-1-phenylethyl]-1,3-diphenyl-1,3-propanedione	uncertainty
.064	

System: 2-[(1R)-2-nitro-1-phenylethyl]-1,3-diphenyl-1,3-propanedione + 2-[(1S)-2-nitro-1-phenylethyl]-1,3-diphenyl-1,3-propanedione; phases: Liquid, Crystal of intercomponent compound 1
Fixed: Pressure, kPa = 101
Property: Molar enthalpy, kJ/mol (Liquid); method: Small sample (50 mg) DSC
Mole fraction of 2-[(1R)-2-nitro-1-phenylethyl]-1,3-diphenyl-1,3-propanedione	Molar enthalpy, kJ/mol	uncertainty
.5	38.27363325	

System: 2-[(1R)-2-nitro-1-phenylethyl]-1,3-diphenyl-1,3-propanedione + 2-[(1S)-2-nitro-1-phenylethyl]-1,3-diphenyl-1,3-propanedione; phases: Liquid, Crystal of intercomponent compound 1
Fixed: Pressure, kPa = 101
Property: Solid-liquid equilibrium temperature, K (Liquid); method: DSC/DTA
Mole fraction of 2-[(1R)-2-nitro-1-phenylethyl]-1,3-diphenyl-1,3-propanedione	Solid-liquid equilibrium temperature, K	uncertainty
.5	432.85	
