Measured thermophysical data. Mixing enthalpy of liquid Ga Li Zn alloys
Source: Thermochim. Acta, 2016, 10.1016/j.tca.2015.12.011
Compound 1: gallium, Ga, purity 99.999%
Compound 2: lithium, Li, purity 99.9%
Compound 3: zinc, Zn, purity 99.999%

System: lithium + gallium + zinc; phases: Liquid
Fixed: Pressure, kPa = 100
Property: Excess molar enthalpy (molar enthalpy of mixing), kJ/mol (Liquid); method: Calvet calorimetry
Temperature, K	Mole fraction of lithium	Mole fraction of zinc	Excess molar enthalpy (molar enthalpy of mixing), kJ/mol	uncertainty
891	.7508	0	-17.2	.4
891	.668	.1103	-17.2	.4
891	.5945	.2082	-16.8	.4
891	.5334	.2896	-18.9	.4
891	.4833	.3563	-19	.4
891	.4385	.4159	-16.8	.4
891	.4013	.4655	-15.8	.4
891	.3694	.508	-14.9	.4
891	.3421	.5444	-14.2	.4
993	.2531	0	-13.5	.2
993	.2267	.1043	-11.7	.2
993	.2051	.1896	-10.3	.2
993	.1863	.264	-9.1	.2
993	.1706	.3259	-8.2	.2
993	.1572	.379	-7.4	.2
993	.1453	.4257	-6.7	.2
993	.1352	.4659	-6.1	.2
993	.1258	.5028	-5.6	.2
993	.1184	.5322	-5.2	.2
993	.112	.5576	-4.9	.2
993	.1058	.5819	-4.5	.2
993	.1008	.6019	-4.3	.2
993	.1014	0	-5.8	.2
993	.0965	.0481	-5.3	.2
993	.092	.0923	-4.9	.2
993	.0874	.138	-4.4	.2
993	.0831	.18	-4.1	.2
993	.0792	.2191	-3.7	.2
993	.0755	.2551	-3.4	.2
993	.0721	.2887	-3.2	.2
993	.0689	.3198	-2.9	.2
993	.066	.3488	-2.7	.2
993	.0633	.3756	-2.5	.2
1018	.7505	0	-16.3	.3
1018	.6847	.0876	-16.2	.3
1018	.6289	.162	-15.9	.3
1018	.5783	.2295	-15.6	.3
1018	.5319	.2913	-15.2	.3
1018	.4924	.3439	-14.8	.3
1018	.4581	.3897	-14.3	.3
1018	.4266	.4315	-13.8	.3
1018	.3992	.4681	-13.3	.3
1018	.3751	.5002	-12.9	.3
1018	.3536	.5289	-12.4	.3
1044	.4035	0	-19.4	.1
1044	.3388	.1604	-16.1	.1
1044	.2918	.2768	-13.6	.1
1044	.2543	.3696	-11.8	.1
1044	.2238	.4454	-10.3	.1
1044	.1996	.5052	-9	.1
1044	.1798	.5542	-8	.1
1044	.1633	.5951	-7.2	.1
1044	.1489	.6309	-6.5	.1
1044	.6005	0	-21.1	.3
1044	.5265	.1233	-19	.3
1044	.4656	.2247	-17.3	.3
1044	.4152	.3086	-15.8	.3
1044	.3739	.3774	-14.6	.3
1044	.3401	.4338	-13.6	.3
1044	.3112	.4819	-12.8	.3
1044	.2867	.5227	-12.1	.3
1044	.2647	.5592	-11.4	.3
1044	.2458	.5908	-10.7	.3
1044	.2287	.6193	-10.2	.3
1044	.5023	0	-21.1	.2
1044	.4365	.1309	-18.3	.2
1044	.3838	.2359	-16.1	.2
1044	.3393	.3246	-14.2	.2
1044	.3014	.4	-12.6	.2
1044	.2694	.4636	-11.3	.2
1044	.2429	.5165	-10.1	.2
1044	.2206	.5609	-9.2	.2

System: lithium + gallium; phases: Liquid
Property: Excess molar enthalpy (molar enthalpy of mixing), kJ/mol (Liquid); method: Calvet calorimetry
Temperature, K	Mole fraction of lithium	Pressure, kPa	Excess molar enthalpy (molar enthalpy of mixing), kJ/mol	uncertainty
891	.7508	100	-17.2	.4
993	.2531	100	-13.5	.2
993	.1014	100	-5.8	.2
1018	.7505	100	-16.3	.3
1044	.4035	100	-19.4	.1
1044	.6005	100	-21.1	.3
1044	.5023	100	-21.1	.2
