Measured thermophysical data. Thermochemistry of dissolution of cis-N-dimethylglycoluril in water at T = (278.15-313.15) K and ambient pressure
Source: Thermochim. Acta, 2016, 10.1016/j.tca.2016.01.003
Compound 1: cis-1,6-dimethyltetrahydroimidazo[4,5-d]imidazole-2,5(1H,3H)-dione, C6H10N4O2, purity 95%
Compound 2: water, H2O

System: cis-1,6-dimethyltetrahydroimidazo[4,5-d]imidazole-2,5(1H,3H)-dione; phases: Crystal, Liquid, Air at 1 atmosphere
Property: Normal melting temperature, K (Crystal); method: DSC/DTA
Normal melting temperature, K	uncertainty
576	.5

System: cis-1,6-dimethyltetrahydroimidazo[4,5-d]imidazole-2,5(1H,3H)-dione; phases: Crystal, Liquid, Air at 1 atmosphere
Property: Molar enthalpy of transition or fusion, kJ/mol (Crystal); method: DSC
Molar enthalpy of transition or fusion, kJ/mol	uncertainty
43.1	.5

System: water + cis-1,6-dimethyltetrahydroimidazo[4,5-d]imidazole-2,5(1H,3H)-dione; phases: Liquid
Fixed: Pressure, kPa = 99.6
Fixed: Mole fraction of cis-1,6-dimethyltetrahydroimidazo[4,5-d]imidazole-2,5(1H,3H)-dione = 0
Property: Molar enthalpy of solution, kJ/mol (Liquid); method: Isoperibol calorimetry
Temperature, K	Molar enthalpy of solution, kJ/mol	uncertainty
278.15	19.06	.05
279.15	19.16	.05
288.15	19.91	.06
298.15	20.78	.07
308.15	21.6	.07
313.15	21.99	.07
