Measured thermophysical data. Measurement and Correlation for Solubility of Dexibuprofen in Different Solvents from (263.15  to 293.15) K
Source: Thermochim. Acta, 2012, 10.1016/j.tca.2012.04.016
Compound 1: d-Ibuprofen, C13H18O2, purity 99%
Compound 2: methanol, CH4O, purity 99%
Compound 3: n-butyl alcohol, C4H10O, purity 99%
Compound 4: 2-methyl-1-propanol, C4H10O, purity 99%
Compound 5: pentan-1-ol, C5H12O, purity 99%
Compound 6: octyl alcohol, C8H18O, purity 95%

System: methanol + d-Ibuprofen; phases: Liquid, Crystal
Fixed: Pressure, kPa = 101
Property: Mole fraction of d-Ibuprofen (Liquid); method: UV-visspectrophotometer
Temperature, K	Mole fraction of d-Ibuprofen	uncertainty
263.15	.0838	.001676
268.15	.0893	.001786
273.15	.093	.00186
278.15	.0966	.001932
283.15	.1048	.002096
288.15	.1085	.00217
293.15	.1129	.002258

System: n-butyl alcohol + d-Ibuprofen; phases: Liquid, Crystal
Fixed: Pressure, kPa = 101
Property: Mole fraction of d-Ibuprofen (Liquid); method: UV-visspectrophotometer
Temperature, K	Mole fraction of d-Ibuprofen	uncertainty
263.15	.1255	.00251
268.15	.1373	.002746
273.15	.1544	.003088
278.15	.1634	.003268
283.15	.1836	.003672
288.15	.1988	.003976
293.15	.214	.00428

System: 2-methyl-1-propanol + d-Ibuprofen; phases: Liquid, Crystal
Fixed: Pressure, kPa = 101
Property: Mole fraction of d-Ibuprofen (Liquid); method: UV-visspectrophotometer
Temperature, K	Mole fraction of d-Ibuprofen	uncertainty
263.15	.1217	.002434
268.15	.1332	.002664
273.15	.1446	.002892
278.15	.16	.0032
283.15	.1802	.003604
288.15	.1925	.00385
293.15	.2105	.00421

System: pentan-1-ol + d-Ibuprofen; phases: Liquid, Crystal
Fixed: Pressure, kPa = 101
Property: Mole fraction of d-Ibuprofen (Liquid); method: UV-visspectrophotometer
Temperature, K	Mole fraction of d-Ibuprofen	uncertainty
263.15	.1465	.00293
268.15	.1562	.003124
273.15	.1688	.003376
278.15	.1824	.003648
283.15	.2072	.004144
288.15	.2281	.004562
293.15	.2424	.004848

System: octyl alcohol + d-Ibuprofen; phases: Liquid, Crystal
Fixed: Pressure, kPa = 101
Property: Mole fraction of d-Ibuprofen (Liquid); method: UV-visspectrophotometer
Temperature, K	Mole fraction of d-Ibuprofen	uncertainty
263.15	.2012	.004024
268.15	.2172	.004344
273.15	.235	.0047
278.15	.2565	.00513
283.15	.2788	.005576
288.15	.3071	.006142
293.15	.3223	.006446
