Measured thermophysical data. Solvation behavior of some vitamins in aqueous solutions of sodiumchloride at different temperatures and at atmospheric pressure
Source: Thermochim. Acta, 2013, 10.1016/j.tca.2013.08.007
Compound 1: L-ascorbic acid, C6H8O6, purity 99%
Compound 2: nicotinic acid, C6H5NO2, purity 99%
Compound 3: thiamine hydrochloride, C12H18Cl2N4OS, purity 98%
Compound 4: pyridoxine hydrochloride, C8H12ClNO3, purity 98%
Compound 5: water, H2O, purity 99%
Compound 6: sodium chloride, ClNa, purity 98%

System: L-ascorbic acid + sodium chloride + water; phases: Liquid
Fixed: Pressure, kPa = 101
Property: Mass density, kg/m3 (Liquid); method: Vibrating tube method
Temperature, K	Solvent: Molality, mol/kg of sodium chloride	Molality, mol/kg of L-ascorbic acid	Mass density, kg/m3	uncertainty
288.15	.2	.16516	1018.937	
288.15	.2	.26147	1025.458	
288.15	.2	.40208	1034.743	
288.15	.2	.48923	1040.362	
288.15	.2	.58635	1046.49	
288.15	.4	.08156	1021.369	
288.15	.4	.19938	1029.413	
288.15	.4	.26931	1034.088	
288.15	.4	.31268	1036.932	
288.15	.4	.38989	1041.918	
288.15	.4	.56454	1052.907	
288.15	.6	.05915	1027.703	
288.15	.6	.18181	1035.952	
288.15	.6	.28565	1042.794	
288.15	.6	.35321	1047.168	
288.15	.6	.38892	1049.464	
288.15	.6	.50157	1056.592	
288.15	.6	.51014	1057.129	
288.15	.8	.1354	1040.509	
288.15	.8	.23672	1047.135	
288.15	.8	.26393	1048.916	
288.15	.8	.30506	1051.562	
288.15	.8	.36682	1055.54	
288.15	.8	.47697	1062.48	
288.15	1	.10066	1045.762	
288.15	1	.15264	1049.159	
288.15	1	.26245	1056.265	
288.15	1	.32363	1060.227	
288.15	1	.41182	1065.824	
288.15	1.5	.11642	1065.613	
288.15	1.5	.32048	1078.466	
288.15	1.5	.40418	1083.581	
288.15	1.5	.56039	1093.084	
288.15	1.5	.6241	1096.819	
298.15	.2	.16516	1016.512	
298.15	.2	.26147	1022.914	
298.15	.2	.40208	1032.004	
298.15	.2	.48923	1037.507	
298.15	.2	.58635	1043.497	
298.15	.4	.08156	1018.76	
298.15	.4	.19938	1026.675	
298.15	.4	.26931	1031.269	
298.15	.4	.31268	1034.09	
298.15	.4	.38989	1038.989	
298.15	.4	.56454	1049.831	
298.15	.6	.05915	1024.958	
298.15	.6	.18181	1033.09	
298.15	.6	.28565	1039.829	
298.15	.6	.35321	1044.143	
298.15	.6	.38892	1046.396	
298.15	.6	.50157	1053.416	
298.15	.6	.51014	1053.946	
298.15	.8	.07687	1033.768	
298.15	.8	.1354	1037.622	
298.15	.8	.23672	1044.197	
298.15	.8	.26393	1045.939	
298.15	.8	.30506	1048.565	
298.15	.8	.36682	1052.471	
298.15	.8	.47697	1059.296	
298.15	1	.100658	1042.701	
298.15	1	.15264	1046.025	
298.15	1	.262451	1052.96	
298.15	1	.323628	1056.829	
298.15	1	.408929	1062.237	
298.15	1.5	.11642	1061.97	
298.15	1.5	.32048	1074.557	
298.15	1.5	.40418	1079.594	
298.15	1.5	.56039	1088.872	
298.15	1.5	.6241	1092.554	
308.15	.2	.16516	1013.178	
308.15	.2	.26147	1019.475	
308.15	.2	.40208	1028.435	
308.15	.2	.48923	1033.859	
308.15	.2	.58635	1039.784	
308.15	.4	.08156	1015.452	
308.15	.4	.19938	1023.242	
308.15	.4	.26931	1027.759	
308.15	.4	.31268	1030.521	
308.15	.4	.38989	1035.333	
308.15	.4	.56454	1045.887	
308.15	.6	.075	1022.603	
308.15	.6	.20113	1030.854	
308.15	.6	.2566	1034.415	
308.15	.6	.2794	1035.869	
308.15	.6	.39834	1043.338	
308.15	.6	.47299	1047.937	
308.15	.6	.53538	1051.725	
308.15	.8	.07687	1030.207	
308.15	.8	.1354	1034.023	
308.15	.8	.23672	1040.542	
308.15	.8	.30506	1044.851	
308.15	.8	.36682	1048.707	
308.15	.8	.47697	1055.489	
308.15	1	.10066	1039.006	
308.15	1	.15264	1042.298	
308.15	1	.26245	1049.151	
308.15	1	.32363	1052.92	
308.15	1	.41182	1058.084	
308.15	1.5	.20168	1063.397	
308.15	1.5	.28419	1068.423	
308.15	1.5	.39757	1075.176	
308.15	1.5	.47569	1079.732	
308.15	1.5	.56563	1084.881	
308.15	1.5	.67825	1091.173	
318.15	.2	.16516	1009.111	
318.15	.2	.26147	1015.309	
318.15	.2	.40208	1024.134	
318.15	.2	.48923	1029.471	
318.15	.2	.58635	1035.303	
318.15	.4	.08156	1011.387	
318.15	.4	.19938	1019.102	
318.15	.4	.26931	1023.581	
318.15	.4	.31268	1026.31	
318.15	.4	.38989	1031.093	
318.15	.4	.56454	1041.643	
318.15	.6	.075	1018.534	
318.15	.6	.20113	1026.763	
318.15	.6	.2566	1030.294	
318.15	.6	.2794	1031.733	
318.15	.6	.39834	1039.071	
318.15	.6	.47299	1043.581	
318.15	.6	.53538	1047.274	
318.15	.8	.07687	1025.891	
318.15	.8	.1354	1029.692	
318.15	.8	.23672	1036.159	
318.15	.8	.30506	1040.441	
318.15	.8	.36682	1044.256	
318.15	.8	.47697	1050.936	
318.15	1	.10066	1034.803	
318.15	1	.15264	1038.044	
318.15	1	.26245	1044.686	
318.15	1	.32363	1048.314	
318.15	1	.41182	1053.44	
318.15	1.5	.20168	1059.081	
318.15	1.5	.28419	1064.082	
318.15	1.5	.39757	1070.806	
318.15	1.5	.47569	1075.315	
318.15	1.5	.56563	1080.408	
318.15	1.5	.67825	1086.608	

System: nicotinic acid + sodium chloride + water; phases: Liquid
Fixed: Pressure, kPa = 101
Property: Mass density, kg/m3 (Liquid); method: Vibrating tube method
Temperature, K	Solvent: Molality, mol/kg of sodium chloride	Molality, mol/kg of nicotinic acid	Mass density, kg/m3	uncertainty
288.15	.2	.0094	1007.828	
288.15	.2	.02162	1008.338	
288.15	.2	.02621	1008.528	
288.15	.2	.05047	1009.533	
288.15	.2	.06984	1010.33	
288.15	.2	.11165	1012.032	
288.15	.4	.02337	1016.59	
288.15	.4	.02572	1016.685	
288.15	.4	.04654	1017.529	
288.15	.4	.06441	1018.254	
288.15	.4	.09799	1019.645	
288.15	.6	.01961	1024.423	
288.15	.6	.03051	1024.86	
288.15	.6	.05414	1025.847	
288.15	.6	.05729	1025.985	
288.15	.6	.08512	1027.22	
288.15	.8	.01207	1031.9	
288.15	.8	.062	1033.789	
288.15	.8	.07202	1034.34	
288.15	.8	.1354	1034.651	
288.15	.8	.23672	1034.955	
288.15	.8	.26393	1036.088	
288.15	1	.01389	1039.616	
288.15	1	.03052	1040.177	
288.15	1	.03993	1040.505	
288.15	1	.05675	1041.155	
288.15	1.5	.01348	1058.515	
288.15	1.5	.03089	1059.101	
288.15	1.5	.05197	1059.912	
288.15	1.5	.06711	1060.494	
288.15	1.5	.07405	1060.831	
288.15	1.5	.08199	1061.167	
298.15	.2	.0094	1005.542	
298.15	.2	.02162	1006.037	
298.15	.2	.02621	1006.221	
298.15	.2	.05047	1007.193	
298.15	.2	.06984	1007.964	
298.15	.2	.11165	1009.613	
298.15	.4	.02337	1014.066	
298.15	.4	.02572	1014.159	
298.15	.4	.04654	1014.986	
298.15	.4	.06441	1015.698	
298.15	.4	.09799	1017.047	
298.15	.6	.01961	1021.714	
298.15	.6	.03051	1022.144	
298.15	.6	.05414	1023.075	
298.15	.6	.05729	1023.205	
298.15	.6	.08512	1024.339	
298.15	.8	.062	1030.878	
298.15	.8	.07602	1031.374	
298.15	.8	.08343	1031.637	
298.15	.8	.09099	1031.902	
298.15	.8	.1181	1032.844	
298.15	1	.03052	1037.261	
298.15	1	.03993	1037.58	
298.15	1	.05675	1038.154	
298.15	1	.06779	1038.513	
298.15	1	.09509	1039.396	
298.15	1	.10382	1039.666	
298.15	1.5	.03089	1055.682	
298.15	1.5	.05197	1056.46	
298.15	1.5	.06711	1057.022	
298.15	1.5	.07405	1057.281	
298.15	1.5	.08199	1057.58	
308.15	.2	.01718	1002.751	
308.15	.2	.02969	1003.245	
308.15	.2	.06168	1004.483	
308.15	.2	.09922	1005.898	
308.15	.2	.1239	1006.806	
308.15	.4	.02337	1010.812	
308.15	.4	.02572	1010.904	
308.15	.4	.04654	1011.712	
308.15	.4	.06441	1012.415	
308.15	.4	.09799	1013.741	
308.15	.6	.01961	1018.325	
308.15	.6	.03051	1018.736	
308.15	.6	.05414	1019.66	
308.15	.6	.05729	1019.784	
308.15	.6	.08512	1020.908	
308.15	.8	.062	1027.361	
308.15	.8	.07602	1027.891	
308.15	.8	.08343	1028.176	
308.15	.8	.09099	1028.457	
308.15	.8	.1181	1029.478	
308.15	1	.03993	1033.867	
308.15	1	.05675	1034.458	
308.15	1	.06779	1034.857	
308.15	1	.09509	1035.853	
308.15	1	.10382	1036.172	
308.15	1.5	.01348	1051.142	
308.15	1.5	.03089	1051.701	
308.15	1.5	.05197	1052.362	
308.15	1.5	.06711	1052.82	
308.15	1.5	.07405	1053.016	
308.15	1.5	.08199	1053.251	
318.15	.2	.02162	999.02	
318.15	.2	.02621	999.198	
318.15	.2	.05047	1000.134	
318.15	.2	.06984	1000.876	
318.15	.2	.11165	1002.437	
318.15	.4	.02337	1006.811	
318.15	.4	.02572	1006.901	
318.15	.4	.04654	1007.697	
318.15	.4	.06441	1008.37	
318.15	.4	.09799	1009.621	
318.15	.6	.00944	1013.855	
318.15	.6	.03051	1014.644	
318.15	.6	.05414	1015.535	
318.15	.6	.05729	1015.657	
318.15	.6	.08512	1016.733	
318.15	.8	.01207	1021.434	
318.15	.8	.02319	1021.843	
318.15	.8	.07602	1023.72	
318.15	.8	.08343	1023.982	
318.15	.8	.09099	1024.233	
318.15	1	.03052	1029.385	
318.15	1	.03993	1029.699	
318.15	1	.06779	1030.618	
318.15	1	.09509	1031.502	
318.15	1	.10382	1031.777	
318.15	1.5	.03089	1047.475	
318.15	1.5	.05197	1048.193	
318.15	1.5	.06711	1048.685	
318.15	1.5	.07405	1048.91	
318.15	1.5	.08199	1049.16	

System: thiamine hydrochloride + sodium chloride + water; phases: Liquid
Fixed: Pressure, kPa = 101
Property: Mass density, kg/m3 (Liquid); method: Vibrating tube method
Temperature, K	Solvent: Molality, mol/kg of sodium chloride	Molality, mol/kg of thiamine hydrochloride	Mass density, kg/m3	uncertainty
288.15	.2	.09403	1016.619	
288.15	.2	.18129	1024.664	
288.15	.2	.21887	1028.055	
288.15	.2	.31922	1036.791	
288.15	.2	.51044	1052.271	
288.15	.4	.05163	1020.587	
288.15	.4	.09265	1024.439	
288.15	.4	.16037	1030.611	
288.15	.4	.2646	1039.823	
288.15	.4	.3908	1050.476	
288.15	.6	.08972	1032.048	
288.15	.6	.14639	1037.097	
288.15	.6	.16465	1038.692	
288.15	.6	.19944	1041.716	
288.15	.6	.30502	1050.584	
288.15	.8	.04886	1035.963	
288.15	.8	.07848	1038.617	
288.15	.8	.09494	1040.075	
288.15	.8	.12773	1042.966	
288.15	.8	.21314	1050.285	
288.15	.8	.26267	1054.492	
288.15	1	.05628	1044.198	
288.15	1	.07538	1045.9	
288.15	1	.15187	1052.585	
288.15	1	.18913	1055.849	
288.15	1	.11677	1049.52	
288.15	1	.25054	1061.268	
288.15	1.5	.08282	1065.227	
288.15	1.5	.10946	1067.429	
288.15	1.5	.16597	1072.003	
288.15	1.5	.20189	1074.833	
288.15	1.5	.25662	1079.01	
288.15	1.5	.31368	1083.278	
298.15	.2	.1026	1014.927	
298.15	.2	.22099	1025.592	
298.15	.2	.34154	1035.82	
298.15	.2	.39358	1040.14	
298.15	.2	.59373	1055.784	
298.15	.4	.05163	1017.924	
298.15	.4	.09265	1021.62	
298.15	.4	.16037	1027.704	
298.15	.4	.2646	1036.772	
298.15	.4	.3908	1047.266	
298.15	.6	.0795	1028.146	
298.15	.6	.08972	1029.052	
298.15	.6	.14639	1034.05	
298.15	.6	.16465	1035.629	
298.15	.6	.19944	1038.628	
298.15	.6	.30502	1047.411	
298.15	.8	.04886	1033.013	
298.15	.8	.07848	1035.632	
298.15	.8	.09494	1037.059	
298.15	.8	.12773	1039.921	
298.15	.8	.21314	1047.082	
298.15	.8	.26267	1051.325	
298.15	1	.05628	1041.126	
298.15	1	.07538	1042.769	
298.15	1	.11677	1046.352	
298.15	1	.15187	1049.357	
298.15	1	.18913	1053.436	
298.15	1	.25054	1057.933	
298.15	1.5	.07887	1061.268	
298.15	1.5	.11336	1064.107	
298.15	1.5	.15261	1067.267	
298.15	1.5	.18811	1070.112	
298.15	1.5	.24044	1074.219	
298.15	1.5	.26065	1075.819	
308.15	.2	.1026	1011.762	
308.15	.2	.22099	1022.292	
308.15	.2	.34154	1032.395	
308.15	.2	.39358	1036.699	
308.15	.2	.59373	1052.119	
308.15	.4	.05163	1014.643	
308.15	.4	.09265	1018.3	
308.15	.4	.16037	1024.34	
308.15	.4	.2646	1033.359	
308.15	.4	.3908	1043.716	
308.15	.6	.08972	1025.576	
308.15	.6	.14639	1030.404	
308.15	.6	.16465	1031.967	
308.15	.6	.19944	1034.927	
308.15	.6	.30502	1043.55	
308.15	.8	.04886	1029.433	
308.15	.8	.07848	1032.002	
308.15	.8	.12773	1036.173	
308.15	.8	.21314	1043.256	
308.15	.8	.26267	1047.315	
308.15	1	.05628	1037.424	
308.15	1	.07538	1039.077	
308.15	1	.11677	1042.597	
308.15	1	.15187	1045.558	
308.15	1	.18913	1048.727	
308.15	1	.25054	1054.1	
308.15	1.5	.07887	1057.219	
308.15	1.5	.11336	1059.998	
308.15	1.5	.15261	1063.194	
308.15	1.5	.18811	1066.003	
308.15	1.5	.24044	1070.151	
308.15	1.5	.26065	1071.697	
318.15	.2	.07362	1005.167	
318.15	.2	.16041	1012.997	
318.15	.2	.25143	1020.898	
318.15	.2	.34829	1028.959	
318.15	.2	.4554	1037.448	
318.15	.4	.05163	1010.633	
318.15	.4	.09265	1014.308	
318.15	.4	.16037	1020.293	
318.15	.4	.2646	1029.256	
318.15	.4	.3908	1039.63	
318.15	.6	.08972	1021.471	
318.15	.6	.14639	1026.356	
318.15	.6	.16465	1027.916	
318.15	.6	.19944	1030.859	
318.15	.6	.30502	1039.443	
318.15	.8	.04886	1025.077	
318.15	.8	.07848	1027.647	
318.15	.8	.09494	1029.048	
318.15	.8	.12773	1031.822	
318.15	.8	.21314	1038.931	
318.15	.8	.26267	1043.041	
318.15	1	.05628	1033.142	
318.15	1	.07538	1034.77	
318.15	1	.11677	1038.305	
318.15	1	.15187	1041.335	
318.15	1	.18913	1044.468	
318.15	1	.25054	1049.922	
318.15	1.5	.08282	1053.166	
318.15	1.5	.10946	1055.318	
318.15	1.5	.16597	1059.792	
318.15	1.5	.20189	1062.638	
318.15	1.5	.25662	1066.858	
318.15	1.5	.31368	1071.236	

System: pyridoxine hydrochloride + sodium chloride + water; phases: Liquid
Fixed: Pressure, kPa = 101
Property: Mass density, kg/m3 (Liquid); method: Vibrating tube method
Temperature, K	Solvent: Molality, mol/kg of sodium chloride	Molality, mol/kg of pyridoxine hydrochloride	Mass density, kg/m3	uncertainty
288.15	.2	.07441	1011.894	
288.15	.2	.12229	1014.701	
288.15	.2	.23429	1021.098	
288.15	.2	.32957	1026.375	
288.15	.2	.41835	1031.148	
288.15	.2	.53155	1037.07	
288.15	.4	.08134	1020.412	
288.15	.4	.15347	1024.528	
288.15	.4	.21144	1027.771	
288.15	.4	.27672	1031.366	
288.15	.4	.40765	1038.359	
288.15	.4	.50083	1043.201	
288.15	.4	.59067	1047.736	
288.15	.6	.09757	1029.162	
288.15	.6	.14418	1031.729	
288.15	.6	.1585	1032.511	
288.15	.6	.22694	1036.198	
288.15	.6	.28948	1039.513	
288.15	.6	.37101	1043.755	
288.15	.8	.13779	1039.048	
288.15	.8	.19718	1042.209	
288.15	.8	.30535	1047.833	
288.15	.8	.36401	1050.823	
288.15	.8	.46737	1055.962	
288.15	.8	.51982	1058.49	
288.15	1	.1163	1045.443	
288.15	1	.16627	1048.07	
288.15	1	.2053	1050.107	
288.15	1	.28332	1054.143	
288.15	1	.36355	1058.216	
288.15	1	.54172	1066.952	
288.15	1.5	.11315	1063.914	
288.15	1.5	.13409	1064.976	
288.15	1.5	.13851	1065.221	
288.15	1.5	.17168	1066.929	
288.15	1.5	.2688	1071.88	
288.15	1.5	.42214	1079.844	
298.15	.2	.07441	1009.522	
298.15	.2	.12229	1012.272	
298.15	.2	.23429	1018.543	
298.15	.2	.32957	1023.72	
298.15	.2	.41835	1028.417	
298.15	.2	.53155	1034.226	
298.15	.4	.08134	1017.776	
298.15	.4	.15347	1021.8	
298.15	.4	.21144	1024.983	
298.15	.4	.27672	1028.498	
298.15	.4	.40765	1035.367	
298.15	.4	.50083	1040.126	
298.15	.4	.59067	1044.588	
298.15	.6	.09757	1026.358	
298.15	.6	.14418	1028.91	
298.15	.6	.1585	1029.69	
298.15	.6	.22694	1033.401	
298.15	.6	.28948	1036.771	
298.15	.6	.37101	1041.074	
298.15	.8	.13779	1036.045	
298.15	.8	.19718	1039.145	
298.15	.8	.30535	1044.685	
298.15	.8	.36401	1047.619	
298.15	.8	.46737	1052.691	
298.15	.8	.51982	1055.207	
298.15	1	.1163	1042.334	
298.15	1	.16627	1044.94	
298.15	1	.2053	1046.93	
298.15	1	.28332	1050.934	
298.15	1	.36355	1054.966	
298.15	1	.54172	1063.76	
298.15	1.5	.11315	1060.151	
298.15	1.5	.13409	1061.171	
298.15	1.5	.13851	1061.394	
298.15	1.5	.17168	1063.023	
298.15	1.5	.2688	1067.723	
298.15	1.5	.42214	1074.961	
308.15	.2	.07441	1006.355	
308.15	.2	.12229	1009.057	
308.15	.2	.23429	1015.234	
308.15	.2	.32957	1020.329	
308.15	.2	.41835	1024.946	
308.15	.2	.53155	1030.665	
308.15	.4	.08134	1014.464	
308.15	.4	.15347	1018.401	
308.15	.4	.21144	1021.516	
308.15	.4	.27672	1024.965	
308.15	.4	.40765	1031.756	
308.15	.4	.50083	1036.414	
308.15	.4	.59067	1040.828	
308.15	.6	.09757	1022.904	
308.15	.6	.14418	1025.431	
308.15	.6	.1585	1026.2	
308.15	.6	.22694	1029.825	
308.15	.6	.28948	1033.119	
308.15	.6	.37101	1037.353	
308.15	.8	.13779	1032.462	
308.15	.8	.19718	1035.544	
308.15	.8	.30535	1041.101	
308.15	.8	.36401	1044.072	
308.15	.8	.45942	1048.822	
308.15	.8	.51982	1051.787	
308.15	1	.10645	1038.093	
308.15	1	.27332	1046.58	
308.15	1	.37176	1051.414	
308.15	1	.46758	1056.176	
308.15	1	.51963	1058.659	
308.15	1	.59822	1062.422	
308.15	1.5	.11315	1056.153	
308.15	1.5	.13409	1057.151	
308.15	1.5	.13851	1057.372	
308.15	1.5	.17168	1058.97	
308.15	1.5	.2688	1063.653	
308.15	1.5	.42214	1070.972	
318.15	.2	.07441	1002.446	
318.15	.2	.12229	1005.131	
318.15	.2	.23429	1011.244	
318.15	.2	.32957	1016.282	
318.15	.2	.41835	1020.849	
318.15	.2	.53155	1026.501	
318.15	.4	.08134	1010.47	
318.15	.4	.15347	1014.409	
318.15	.4	.21144	1017.529	
318.15	.4	.27672	1020.95	
318.15	.4	.40765	1027.623	
318.15	.4	.50083	1032.231	
318.15	.4	.59067	1036.565	
318.15	.6	.09757	1018.84	
318.15	.6	.14418	1021.34	
318.15	.6	.1585	1022.096	
318.15	.6	.22694	1025.701	
318.15	.6	.28948	1028.966	
318.15	.6	.37101	1033.1	
318.15	.8	.13779	1028.171	
318.15	.8	.19718	1031.254	
318.15	.8	.30535	1036.721	
318.15	.8	.36401	1039.625	
318.15	.8	.45942	1044.339	
318.15	.8	.51982	1047.229	
318.15	1	.10645	1033.865	
318.15	1	.27332	1042.132	
318.15	1	.37176	1046.805	
318.15	1	.46758	1051.259	
318.15	1	.51963	1053.655	
318.15	1	.59822	1057.204	
318.15	1.5	.11315	1051.876	
318.15	1.5	.13409	1052.872	
318.15	1.5	.13851	1053.085	
318.15	1.5	.17168	1054.657	
318.15	1.5	.2688	1059.204	
318.15	1.5	.42214	1066.197	

System: sodium chloride + water; phases: Liquid
Fixed: Pressure, kPa = 101
Property: Mass density, kg/m3 (Liquid); method: Vibrating tube method
Temperature, K	Molality, mol/kg of sodium chloride	Mass density, kg/m3	uncertainty
288.15	.2	1007.434	
288.15	.4	1015.657	
288.15	.6	1023.655	
288.15	.8	1031.475	
288.15	1	1039.161	
288.15	1.5	1058.091	
298.15	.2	1005.161	
298.15	.4	1013.141	
298.15	.6	1020.964	
298.15	.8	1028.644	
298.15	1	1036.192	
298.15	1.5	1054.577	
308.15	.2	1002.066	
308.15	.4	1009.91	
308.15	.6	1017.592	
308.15	.8	1025.132	
308.15	1	1032.55	
308.15	1.5	1050.695	
318.15	.2	998.17	
318.15	.4	1005.908	
318.15	.6	1013.508	
318.15	.8	1020.821	
318.15	1	1028.347	
318.15	1.5	1046.38	
