Measured thermophysical data. Dielectric and thermal properties of cerium dioxide up to 1000.C and the effect of the porosity for microwave processing studies
Source: Thermochim. Acta, 2015, 10.1016/j.tca.2015.08.011
Compound 1: cerium dioxide, CeO2

System: cerium dioxide; phases: Crystal
Fixed: Pressure, kPa = 101.325
Property: Molar heat capacity at constant pressure, J/K/mol (Crystal); method: Small sample (50 mg) scanning calorimetry
Temperature, K	Molar heat capacity at constant pressure, J/K/mol	uncertainty
323.15	57.89941872	
373.15	62.09901984	
423.15	65.42083548	
473.15	67.985346	
523.15	69.93024324	
573.15	71.3415846	
623.15	72.32263896	
673.15	72.95946372	
723.15	73.33811628	
773.15	73.52744256	
823.15	73.59628848	
873.15	73.579077	
923.15	73.52744256	
973.15	73.47580812	
1023.15	73.44138516	
1073.15	73.45859664	
1123.15	73.51023108	
1173.15	73.61349996	

System: cerium dioxide; phases: Crystal
Fixed: Pressure, kPa = 101.325
Property: Thermal conductivity, W/m/K (Crystal); method: Laser pulse heating
Temperature, K	Thermal conductivity, W/m/K	uncertainty
298.15	15.15	.4545
773.15	6.05	.1815
1273.15	2.7	.081
