Measured thermophysical data. Measurement and correlation of tie-line data in ternary aqueous mixtures of 1,3-butanediol with  decanol at different temperatures
Source: Thermochim. Acta, 2012, 10.1016/j.tca.2011.10.025
Compound 1: n-decyl alcohol, C10H22O, purity 99%
Compound 2: .beta.-butylene glycol, C4H10O2, purity 99%
Compound 3: water, H2O

System: .beta.-butylene glycol + n-decyl alcohol + water; phases: Liquid mixture 1, Liquid mixture 2
Fixed: Pressure, kPa = 101
Property: Mole fraction of .beta.-butylene glycol (Liquid mixture 1); method: Chromatography
Property: Mole fraction of water (Liquid mixture 2); method: Chromatography
Property: Mole fraction of .beta.-butylene glycol (Liquid mixture 2); method: Chromatography
Temperature, K	Mole fraction of water	Mole fraction of .beta.-butylene glycol	uncertainty	Mole fraction of water	uncertainty	Mole fraction of .beta.-butylene glycol	uncertainty
298.2	.777	.222	.001	.05	.001	.062	.001
298.2	.725	.275	.001	.068	.001	.096	.001
298.2	.685	.315	.001	.081	.001	.136	.001
298.2	.622	.357	.001	.091	.001	.166	.001
298.2	.537	.366	.001	.134	.001	.213	.001
298.2	.443	.365	.001	.177	.001	.259	.001
303.2	.739	.261	.001	.064	.001	.071	.001
303.2	.714	.286	.001	.079	.001	.109	.001
303.2	.684	.315	.001	.092	.001	.142	.001
303.2	.655	.344	.001	.101	.001	.171	.001
303.2	.577	.365	.001	.161	.001	.235	.001
303.2	.497	.387	.001	.221	.001	.3	.001
308.2	.748	.252	.001	.067	.001	.067	.001
308.2	.715	.285	.001	.087	.001	.105	.001
308.2	.678	.321	.001	.09	.001	.131	.001
308.2	.631	.358	.001	.129	.001	.182	.001
308.2	.54	.359	.001	.163	.001	.216	.001
308.2	.467	.353	.001	.197	.001	.25	.001
