Measured thermophysical data. Characterization of phase-diagrams of ionic mixtures of 1-n-butyl-3-methylimidazolium chloride  and niobium chloride or zinc chloride by differential scanning calorimetry
Source: Thermochim. Acta, 2010, 10.1016/j.tca.2010.01.023
Compound 1: 1-n-butyl-3-methylimidazolium chloride, C8H15ClN2, purity 98%
Compound 2: zinc chloride, Cl2Zn, purity 98%
Compound 3: niobium chloride (NbCl5), Cl5Nb, purity 98%

System: 1-n-butyl-3-methylimidazolium chloride; phases: Crystal, Liquid, Air at 1 atmosphere
Property: Normal melting temperature, K (Crystal); method: DSC/DTA
Normal melting temperature, K	uncertainty
338.15	

System: zinc chloride + 1-n-butyl-3-methylimidazolium chloride; phases: Liquid, Crystal
Fixed: Pressure, kPa = 101
Property: Solid-liquid equilibrium temperature, K (Liquid); method: DSC/DTA
Mole fraction of zinc chloride	Solid-liquid equilibrium temperature, K	uncertainty
0	338.15	
.1	333.15	
.105	237.15	
.185	231.15	
.22	298.15	
.275	328.15	
.33	333.15	
.39	321.15	
.44	230.15	
.51	369.15	
.56	299.15	
.57	312.15	
.615	291.15	
.64	351.15	
.68	296.15	
.69	343.15	
.75	378.15	
.8	357.15	
.87	289.15	

System: niobium chloride (NbCl5) + 1-n-butyl-3-methylimidazolium chloride; phases: Liquid, Crystal
Fixed: Pressure, kPa = 101
Property: Solid-liquid equilibrium temperature, K (Liquid); method: DSC/DTA
Mole fraction of niobium chloride (NbCl5)	Solid-liquid equilibrium temperature, K	uncertainty
0	338.15	
.1	290.15	
.2	293.15	
.3	261.15	
.4	309.15	
.5	330.15	
.6	324.15	
.7	315.15	
