Measured thermophysical data. The measurement of thermal conductivity variation with  temperature for Sn-20 wt.% In based lead-free ternary solders
Source: Thermochim. Acta, 2013, 10.1016/j.tca.2012.12.012
Compound 1: tin, Sn, purity 99.99%
Compound 2: argentum, Ag, purity 99.99%
Compound 3: indium, In, purity 99.99%
Compound 4: bismuth, Bi, purity 99.99%
Compound 5: antimony, Sb, purity 99.99%
Compound 6: zinc, Zn, purity 99.99%

System: argentum + tin + indium; phases: Crystal
Fixed: Mass fraction of tin = .2
Fixed: Mass fraction of indium = .15
Fixed: Mass fraction of argentum = .65
Property: Thermal conductivity, W/m/K (Crystal); method: Linear heat flow apparatus
Temperature, K	Thermal conductivity, W/m/K	uncertainty
313	66.99	6.0291
333	65.27	5.8743
353	64.89	5.8401
373	63.08	5.6772
393	62.82	5.6538
413	60.22	5.4198
433	59.78	5.3802
453	58.52	5.2668
473	57.91	5.2119

System: tin + bismuth + indium; phases: Crystal
Fixed: Mass fraction of tin = .2
Fixed: Mass fraction of indium = .15
Fixed: Mass fraction of bismuth = .65
Property: Thermal conductivity, W/m/K (Crystal); method: Linear heat flow apparatus
Temperature, K	Thermal conductivity, W/m/K	uncertainty
313	43.89	3.9501
333	43.16	3.8844
353	40.87	3.6783
373	40.32	3.6288

System: tin + antimony + indium; phases: Crystal
Fixed: Mass fraction of tin = .2
Fixed: Mass fraction of indium = .15
Fixed: Mass fraction of antimony = .65
Property: Thermal conductivity, W/m/K (Crystal); method: Linear heat flow apparatus
Temperature, K	Thermal conductivity, W/m/K	uncertainty
313	53.98	4.8582
333	52.12	4.6908
353	49.97	4.4973
373	47.68	4.2912
393	44.17	3.9753
413	42.73	3.8457
433	40.02	3.6018
453	39.61	3.5649
473	38.44	3.4596
493	37.05	3.3345

System: tin + zinc + indium; phases: Crystal
Fixed: Mass fraction of tin = .2
Fixed: Mass fraction of indium = .15
Fixed: Mass fraction of zinc = .65
Property: Thermal conductivity, W/m/K (Crystal); method: Linear heat flow apparatus
Temperature, K	Thermal conductivity, W/m/K	uncertainty
313	93.16	8.3844
333	91.71	8.2539
353	88.43	7.9587
373	87.66	7.8894
393	83.12	7.4808
413	82.51	7.4259
433	79.51	7.1559
453	74.61	6.7149
