Measured thermophysical data. The density, the refractive index and the adjustment of the excess thermodynamic properties by means of the multiple linear regression method for the ternary system ethylbenzene-octane-propylbenzene
Source: Thermochim. Acta, 2015, 10.1016/j.tca.2015.08.023
Compound 1: ethylbenzene, C8H10, purity 99%
Compound 2: octane, C8H18, purity 99%
Compound 3: propylbenzene, C9H12, purity 98%

System: ethylbenzene; phases: Liquid
Fixed: Pressure, kPa = 101.325
Property: Mass density, kg/m3 (Liquid); method: Vibrating tube method
Temperature, K	Mass density, kg/m3	uncertainty
298.15	862.7	1
308.15	853.8	1
318.15	844.8	1

System: ethylbenzene; phases: Liquid
Fixed: Pressure, kPa = 101.325
Property: Refractive index (Na D-line) (Liquid); method: Standard Abbe refractometry
Temperature, K	Refractive index (Na D-line)	uncertainty
298.15	1.4928	.0002
308.15	1.4879	.0002
318.15	1.4832	.0002

System: octane; phases: Liquid
Fixed: Pressure, kPa = 101.325
Property: Mass density, kg/m3 (Liquid); method: Vibrating tube method
Temperature, K	Mass density, kg/m3	uncertainty
298.15	698.6	1
308.15	690.5	1
318.15	682.2	1

System: octane; phases: Liquid
Fixed: Pressure, kPa = 101.325
Property: Refractive index (Na D-line) (Liquid); method: Standard Abbe refractometry
Temperature, K	Refractive index (Na D-line)	uncertainty
298.15	1.3948	.0002
308.15	1.3904	.0002
318.15	1.3868	.0002

System: propylbenzene; phases: Liquid
Fixed: Pressure, kPa = 101.325
Property: Mass density, kg/m3 (Liquid); method: Vibrating tube method
Temperature, K	Mass density, kg/m3	uncertainty
298.15	857.9	1
308.15	849.4	1
318.15	840.9	1

System: propylbenzene; phases: Liquid
Fixed: Pressure, kPa = 101.325
Property: Refractive index (Na D-line) (Liquid); method: Standard Abbe refractometry
Temperature, K	Refractive index (Na D-line)	uncertainty
298.15	1.4892	.0002
308.15	1.4844	.0002
318.15	1.48	.0002

System: ethylbenzene + propylbenzene + octane; phases: Liquid
Fixed: Pressure, kPa = 100
Property: Mass density, kg/m3 (Liquid); method: Vibrating tube method
Mole fraction of ethylbenzene	Mole fraction of octane	Temperature, K	Mass density, kg/m3	uncertainty
.0378	.6051	298.15	754.7	1
.0446	.8535	298.15	718.2	1
.0707	.4032	298.15	786.9	1
.0708	.6539	298.15	747.2	1
.0747	.1635	298.15	828	1
.1573	.504	298.15	769.8	1
.1691	.2825	298.15	806.8	1
.2498	.6022	298.15	753.3	1
.2672	.1683	298.15	827.1	1
.2696	.6321	298.15	747.7	1
.3502	.3982	298.15	786	1
.4494	.0396	298.15	851.9	1
.452	.2671	298.15	808.6	1
.5243	.2707	298.15	807.7	1
.6811	.1492	298.15	830.8	1
.0378	.6051	308.15	746.7	1
.0446	.8535	308.15	710.1	1
.0707	.4032	308.15	778.6	1
.0708	.6539	308.15	739	1
.0747	.1635	308.15	819.6	1
.1573	.504	308.15	761.5	1
.1691	.2825	308.15	798.5	1
.2498	.6022	308.15	745.3	1
.2672	.1683	308.15	818.7	1
.2696	.6321	308.15	740.4	1
.3502	.3982	308.15	777.8	1
.4494	.0396	308.15	843.3	1
.452	.2671	308.15	800.4	1
.5243	.2707	308.15	799.5	1
.6811	.1492	308.15	821.6	1
.0378	.6051	318.15	738.4	1
.0446	.8535	318.15	701.8	1
.0707	.4032	318.15	770	1
.0708	.6539	318.15	730.5	1
.0747	.1635	318.15	811	1
.1573	.504	318.15	753.1	1
.1691	.2825	318.15	789.9	1
.2498	.6022	318.15	736.7	1
.2672	.1683	318.15	810	1
.2696	.6321	318.15	732	1
.3502	.3982	318.15	769.3	1
.4494	.0396	318.15	834.7	1
.452	.2671	318.15	791.8	1
.5243	.2707	318.15	791	1
.6811	.1492	318.15	813.5	1

System: ethylbenzene + propylbenzene + octane; phases: Liquid
Fixed: Pressure, kPa = 100
Property: Refractive index (Na D-line) (Liquid); method: Standard Abbe refractometry
Mole fraction of ethylbenzene	Mole fraction of octane	Temperature, K	Refractive index (Na D-line)	uncertainty
.0378	.6051	298.15	1.4279	.0002
.0446	.8535	298.15	1.4063	.0002
.0707	.4032	298.15	1.4474	.0002
.0708	.6539	298.15	1.4237	.0002
.0747	.1635	298.15	1.472	.0002
.1573	.504	298.15	1.437	.0002
.1691	.2825	298.15	1.459	.0002
.2498	.6022	298.15	1.4272	.0002
.2672	.1683	298.15	1.4709	.0002
.2696	.6321	298.15	1.4244	.0002
.3502	.3982	298.15	1.4468	.0002
.4494	.0396	298.15	1.4859	.0002
.452	.2671	298.15	1.4602	.0002
.5243	.2707	298.15	1.46	.0002
.6811	.1492	298.15	1.4736	.0002
.0378	.6051	308.15	1.4236	.0002
.0446	.8535	308.15	1.402	.0002
.0707	.4032	308.15	1.4431	.0002
.0708	.6539	308.15	1.4194	.0002
.0747	.1635	308.15	1.4675	.0002
.1573	.504	308.15	1.4324	.0002
.1691	.2825	308.15	1.4551	.0002
.2498	.6022	308.15	1.4227	.0002
.2672	.1683	308.15	1.4667	.0002
.2696	.6321	308.15	1.4201	.0002
.3502	.3982	308.15	1.442	.0002
.4494	.0396	308.15	1.4814	.0002
.452	.2671	308.15	1.4559	.0002
.5243	.2707	308.15	1.4553	.0002
.6811	.1492	308.15	1.4689	.0002
.0378	.6051	318.15	1.42	.0002
.0446	.8535	318.15	1.398	.0002
.0707	.4032	318.15	1.4382	.0002
.0708	.6539	318.15	1.4148	.0002
.0747	.1635	318.15	1.4624	.0002
.1573	.504	318.15	1.4284	.0002
.1691	.2825	318.15	1.45	.0002
.2498	.6022	318.15	1.4186	.0002
.2672	.1683	318.15	1.462	.0002
.2696	.6321	318.15	1.416	.0002
.3502	.3982	318.15	1.438	.0002
.4494	.0396	318.15	1.477	.0002
.452	.2671	318.15	1.4518	.0002
.5243	.2707	318.15	1.4508	.0002
.6811	.1492	318.15	1.4648	.0002
