Measured thermophysical data. Experimental densities and viscosities of binary mixture of 1-butyl-3-methylimidazolium bis(trifluoromethylsulfonyl)imide or glycerol with sulfolane and their molecular interaction by COSMO-RS
Source: Thermochim. Acta, 2016, 10.1016/j.tca.2016.07.005
Compound 1: 1-butyl-3-methylimidazolium bis((trifluoromethyl)sulfonyl)amide, C10H15F6N3O4S2, purity 99%
Compound 2: glycerol, C3H8O3, purity 99%
Compound 3: sulfolane, C4H8O2S, purity 99%

System: 1-butyl-3-methylimidazolium bis((trifluoromethyl)sulfonyl)amide; phases: Liquid
Property: Mass density, kg/m3 (Liquid); method: Vibrating tube method
Temperature, K	Pressure, kPa	Mass density, kg/m3	uncertainty
293.15	101.3	1441.2	
298.15	101.3	1436.4	
303.15	101.3	1431.5	
313.15	101.3	1421.9	
323.15	101.3	1412.4	
333.15	101.3	1402.9	
343.15	101.3	1393.5	

System: 1-butyl-3-methylimidazolium bis((trifluoromethyl)sulfonyl)amide; phases: Liquid
Property: Viscosity, Pa*s (Liquid); method: Concentric cylinders viscometry
Temperature, K	Pressure, kPa	Viscosity, Pa*s	uncertainty
293.15	101.3	.064	
298.15	101.3	.0495	
303.15	101.3	.039	
313.15	101.3	.0267	
323.15	101.3	.0201	
333.15	101.3	.0155	
343.15	101.3	.0124	

System: glycerol; phases: Liquid
Property: Mass density, kg/m3 (Liquid); method: Vibrating tube method
Temperature, K	Pressure, kPa	Mass density, kg/m3	uncertainty
313.15	101.3	1249	
323.15	101.3	1242.4	
333.15	101.3	1235.7	
343.15	101.3	1228.9	
353.15	101.3	1221.9	
363.15	101.3	1214.8	

System: glycerol; phases: Liquid
Property: Viscosity, Pa*s (Liquid); method: Concentric cylinders viscometry
Temperature, K	Pressure, kPa	Viscosity, Pa*s	uncertainty
313.15	101.3	.303	
323.15	101.3	.1393	
333.15	101.3	.0855	
343.15	101.3	.0505	
353.15	101.3	.0312	
363.15	101.3	.0199	

System: sulfolane; phases: Liquid
Property: Mass density, kg/m3 (Liquid); method: Vibrating tube method
Temperature, K	Pressure, kPa	Mass density, kg/m3	uncertainty
303.15	101.3	1259.4	
313.15	101.3	1251.7	
323.15	101.3	1244	
333.15	101.3	1235.4	
343.15	101.3	1225	
298.15	101.3	1266.4	
353.15	101.3	1215	
363.15	101.3	1206	

System: sulfolane; phases: Liquid
Property: Viscosity, Pa*s (Liquid); method: Concentric cylinders viscometry
Temperature, K	Pressure, kPa	Viscosity, Pa*s	uncertainty
303.15	101.3	.0105	
313.15	101.3	.0081	
323.15	101.3	.0064	
333.15	101.3	.0052	
343.15	101.3	.0043	
298.15	101.3	.0119	
353.15	101.3	.0037	
363.15	101.3	.0032	

System: sulfolane + 1-butyl-3-methylimidazolium bis((trifluoromethyl)sulfonyl)amide; phases: Liquid
Fixed: Pressure, kPa = 101.3
Property: Mass density, kg/m3 (Liquid); method: Vibrating tube method
Temperature, K	Mole fraction of 1-butyl-3-methylimidazolium bis((trifluoromethyl)sulfonyl)amide	Mass density, kg/m3	uncertainty
293.15	.1	1315.1	
293.15	.1999	1345.9	
293.15	.3001	1368.7	
293.15	.4	1386.1	
293.15	.5001	1400.1	
293.15	.5999	1411.3	
293.15	.7	1420.8	
293.15	.7995	1428.6	
293.15	.8985	1435.3	
293.15	1	1441.2	
298.15	0	1266.4	
298.15	.1	1310.6	
298.15	.1999	1341.3	
298.15	.3001	1364.6	
298.15	.4	1381.3	
298.15	.5001	1395.3	
298.15	.5999	1406.5	
298.15	.7	1416	
298.15	.7995	1423.8	
298.15	.8985	1430.5	
298.15	1	1436.4	
303.15	0	1259.4	
303.15	.1	1306.1	
303.15	.1999	1336.7	
303.15	.3001	1359.1	
303.15	.4	1376.6	
303.15	.5001	1390.5	
303.15	.5999	1401.7	
303.15	.7	1411.1	
303.15	.7995	1419	
303.15	.8985	1425.7	
303.15	1	1431.5	
313.15	0	1251.7	
313.15	.1	1297	
313.15	.1999	1327.5	
313.15	.3001	1349.4	
313.15	.4	1367.2	
313.15	.5001	1381.1	
313.15	.5999	1392.2	
313.15	.7	1401.6	
313.15	.7995	1409.4	
313.15	.8985	1416.1	
313.15	1	1421.9	
323.15	0	1244	
323.15	.1	1288	
323.15	.1999	1318.3	
323.15	.3001	1340.2	
323.15	.4	1357.8	
323.15	.5001	1371.6	
323.15	.5999	1382.8	
323.15	.7	1392.1	
323.15	.7995	1399.9	
323.15	.8985	1406.6	
323.15	1	1412.4	
333.15	0	1235.4	
333.15	.1	1279	
333.15	.1999	1309	
333.15	.3001	1331	
333.15	.4	1348.4	
333.15	.5001	1362.2	
333.15	.5999	1373.3	
333.15	.7	1382.6	
333.15	.7995	1390.4	
333.15	.8985	1397.1	
333.15	1	1402.9	
343.15	0	1225	
343.15	.1	1269.9	
343.15	.1999	1299.8	
343.15	.3001	1321.8	
343.15	.4	1339.1	
343.15	.5001	1352.8	
343.15	.5999	1363.9	
343.15	.7	1373.2	
343.15	.7995	1381	
343.15	.8985	1387.6	
343.15	1	1393.5	

System: sulfolane + 1-butyl-3-methylimidazolium bis((trifluoromethyl)sulfonyl)amide; phases: Liquid
Fixed: Pressure, kPa = 101.3
Property: Viscosity, Pa*s (Liquid); method: Concentric cylinders viscometry
Temperature, K	Mole fraction of 1-butyl-3-methylimidazolium bis((trifluoromethyl)sulfonyl)amide	Viscosity, Pa*s	uncertainty
293.15	.1	.0167	
293.15	.1999	.0198	
293.15	.3001	.0238	
293.15	.4	.0282	
293.15	.5001	.0329	
293.15	.5999	.038	
293.15	.7	.0432	
293.15	.7995	.0496	
293.15	.8985	.0551	
293.15	1	.064	
298.15	0	.0119	
298.15	.1	.0148	
298.15	.1999	.017	
298.15	.3001	.0199	
298.15	.4	.0232	
298.15	.5001	.0267	
298.15	.5999	.0308	
298.15	.7	.0347	
298.15	.7995	.0398	
298.15	.8985	.0444	
298.15	1	.0495	
303.15	0	.0105	
303.15	.1	.0128	
303.15	.1999	.0143	
303.15	.3001	.0165	
303.15	.4	.0188	
303.15	.5001	.0215	
303.15	.5999	.0247	
303.15	.7	.0273	
303.15	.7995	.0311	
303.15	.8985	.0351	
303.15	1	.039	
313.15	0	.0081	
313.15	.1	.0097	
313.15	.1999	.0107	
313.15	.3001	.0123	
313.15	.4	.0134	
313.15	.5001	.0154	
313.15	.5999	.0176	
313.15	.7	.0187	
313.15	.7995	.0212	
313.15	.8985	.0244	
313.15	1	.0267	
323.15	0	.0064	
323.15	.1	.0077	
323.15	.1999	.0084	
323.15	.3001	.0097	
323.15	.4	.0102	
323.15	.5001	.0119	
323.15	.5999	.0136	
323.15	.7	.0141	
323.15	.7995	.016	
323.15	.8985	.0184	
323.15	1	.0201	
333.15	0	.0052	
333.15	.1	.0057	
333.15	.1999	.0063	
333.15	.3001	.0073	
333.15	.4	.0075	
333.15	.5001	.0092	
333.15	.5999	.0105	
333.15	.7	.0108	
333.15	.7995	.0122	
333.15	.8985	.0141	
333.15	1	.0155	
343.15	0	.0043	
343.15	.1	.0046	
343.15	.1999	.0051	
343.15	.3001	.0059	
343.15	.4	.0062	
343.15	.5001	.0073	
343.15	.5999	.0082	
343.15	.7	.0086	
343.15	.7995	.0095	
343.15	.8985	.0107	
343.15	1	.0124	

System: glycerol + sulfolane; phases: Liquid
Fixed: Pressure, kPa = 101.3
Property: Mass density, kg/m3 (Liquid); method: Vibrating tube method
Temperature, K	Mole fraction of glycerol	Mass density, kg/m3	uncertainty
313.15	0	1251.7	
313.15	.1002	1249.6	
313.15	.2002	1248.8	
313.15	.3002	1248.4	
313.15	.4001	1247.8	
313.15	.5001	1247.5	
313.15	.5999	1247.5	
313.15	.6999	1247.5	
313.15	.7999	1248.5	
313.15	.8993	1248.9	
313.15	1	1249	
323.15	0	1244	
323.15	.1002	1240.9	
323.15	.2002	1240.1	
323.15	.3002	1239.7	
323.15	.4001	1239.2	
323.15	.5001	1239.1	
323.15	.5999	1239.2	
323.15	.6999	1239.7	
323.15	.7999	1241.2	
323.15	.8993	1241.9	
323.15	1	1242.4	
333.15	0	1235.4	
333.15	.1002	1232.1	
333.15	.2002	1231.3	
333.15	.3002	1231	
333.15	.4001	1230.7	
333.15	.5001	1230.7	
333.15	.5999	1231.1	
333.15	.6999	1232	
333.15	.7999	1233.7	
333.15	.8993	1234.8	
333.15	1	1235.7	
343.15	0	1225	
343.15	.1002	1223.2	
343.15	.2002	1222.5	
343.15	.3002	1222.3	
343.15	.4001	1222.3	
343.15	.5001	1222.7	
343.15	.5999	1223.3	
343.15	.6999	1224.1	
343.15	.7999	1226.2	
343.15	.8993	1227.5	
343.15	1	1228.9	
353.15	0	1215	
353.15	.1002	1214.3	
353.15	.2002	1213.7	
353.15	.3002	1213.6	
353.15	.4001	1213.8	
353.15	.5001	1214.4	
353.15	.5999	1215.3	
353.15	.6999	1216.1	
353.15	.7999	1218.5	
353.15	.8993	1220.2	
353.15	1	1221.9	
363.15	0	1206	
363.15	.1002	1205.3	
363.15	.2002	1204.8	
363.15	.3002	1204.8	
363.15	.4001	1205.1	
363.15	.5001	1205.9	
363.15	.5999	1206.9	
363.15	.6999	1208	
363.15	.7999	1210.7	
363.15	.8993	1212.7	
363.15	1	1214.8	

System: glycerol + sulfolane; phases: Liquid
Fixed: Pressure, kPa = 101.3
Property: Viscosity, Pa*s (Liquid); method: Concentric cylinders viscometry
Temperature, K	Mole fraction of glycerol	Viscosity, Pa*s	uncertainty
313.15	0	.0081	
313.15	.1002	.0085	
313.15	.2002	.0105	
313.15	.3002	.0144	
313.15	.4001	.0192	
313.15	.5001	.0304	
313.15	.5999	.0462	
313.15	.6999	.0707	
313.15	.7999	.101	
313.15	.8993	.164	
313.15	1	.303	
323.15	0	.0064	
323.15	.1002	.0072	
323.15	.2002	.0085	
323.15	.3002	.0112	
323.15	.4001	.0144	
323.15	.5001	.022	
323.15	.5999	.0322	
323.15	.6999	.0459	
323.15	.7999	.0665	
323.15	.8993	.103	
323.15	1	.1393	
333.15	0	.0052	
333.15	.1002	.0058	
333.15	.2002	.0066	
333.15	.3002	.0083	
333.15	.4001	.0104	
333.15	.5001	.0146	
333.15	.5999	.0203	
333.15	.6999	.0288	
333.15	.7999	.0418	
333.15	.8993	.0617	
333.15	1	.0855	
343.15	0	.0043	
343.15	.1002	.0047	
343.15	.2002	.0053	
343.15	.3002	.0063	
343.15	.4001	.0077	
343.15	.5001	.0102	
343.15	.5999	.0136	
343.15	.6999	.0185	
343.15	.7999	.0266	
343.15	.8993	.038	
343.15	1	.0505	
353.15	0	.0037	
353.15	.1002	.0039	
353.15	.2002	.0043	
353.15	.3002	.0049	
353.15	.4001	.006	
353.15	.5001	.0074	
353.15	.5999	.0098	
353.15	.6999	.0129	
353.15	.7999	.018	
353.15	.8993	.0249	
353.15	1	.0312	
363.15	0	.0032	
363.15	.1002	.0033	
363.15	.2002	.0035	
363.15	.3002	.004	
363.15	.4001	.0047	
363.15	.5001	.0058	
363.15	.5999	.0074	
363.15	.6999	.0094	
363.15	.7999	.0127	
363.15	.8993	.0171	
363.15	1	.0199	
