Measured thermophysical data. ENTHALPIES OF SOLUTION OF METHYLCALIX[4]RESORCINARENE IN NON-AQUEOUS  SOLVENTS AS A FUNCTION OF CONCENTRATION AND TEMPERATURE
Source: Thermochim. Acta, 2012, 10.1016/j.tca.2012.08.022
Compound 1: methanol, CH4O, purity 99.5%
Compound 2: ethyl alcohol, C2H6O, purity 99.5%
Compound 3: propan-1-ol, C3H8O, purity 99.5%
Compound 4: rac-2,8,14,20-tetramethylresorc[4]arene, C32H32O8

System: methanol + rac-2,8,14,20-tetramethylresorc[4]arene; phases: Liquid
Fixed: Pressure, kPa = 101
Property: Molar enthalpy of solution, kJ/mol (Liquid); method: Isoperibol calorimetry
Temperature, K	Molality, mol/kg of rac-2,8,14,20-tetramethylresorc[4]arene	Molar enthalpy of solution, kJ/mol	uncertainty
298.15	.00154	23.95	.02
298.15	.00215	23.22	.06
298.15	.00244	22.92	.07
298.15	.00279	22.85	.66
298.15	.00343	22.03	.64
298.15	.00375	21.88	.1
308.15	.00146	34.47	.49
308.15	.00192	34.2	.37
308.15	.00245	34.12	.35
308.15	.00284	34.27	.2
308.15	.00342	34.79	1.16
308.15	.00376	35.36	.52

System: ethyl alcohol + rac-2,8,14,20-tetramethylresorc[4]arene; phases: Liquid
Fixed: Pressure, kPa = 101
Property: Molar enthalpy of solution, kJ/mol (Liquid); method: Isoperibol calorimetry
Temperature, K	Molality, mol/kg of rac-2,8,14,20-tetramethylresorc[4]arene	Molar enthalpy of solution, kJ/mol	uncertainty
288.15	.00153	16.76	.01
288.15	.00197	16.43	.3
288.15	.00314	15.68	.02
288.15	.00394	15.14	.01
288.15	.00473	14.53	.24
288.15	.0054	14.78	.02
298.15	.00208	24.18	.18
298.15	.00251	22.72	.01
298.15	.00327	21.85	.61
298.15	.00327	22.08	.07
298.15	.00424	21.09	.62
298.15	.00448	20.71	.21
298.15	.00518	20.68	.18
308.15	.00131	30.71	.02
308.15	.00226	30.47	.12
308.15	.00336	30.25	.65
308.15	.004	30.29	.05
308.15	.00459	30.43	.38
308.15	.00519	30.43	.36

System: propan-1-ol + rac-2,8,14,20-tetramethylresorc[4]arene; phases: Liquid
Fixed: Pressure, kPa = 101
Property: Molar enthalpy of solution, kJ/mol (Liquid); method: Isoperibol calorimetry
Temperature, K	Molality, mol/kg of rac-2,8,14,20-tetramethylresorc[4]arene	Molar enthalpy of solution, kJ/mol	uncertainty
288.15	.00149	36.62	.15
288.15	.00194	36.18	.2
288.15	.0024	35.84	.59
288.15	.00291	34.99	.05
288.15	.0032	34.83	.09
288.15	.00369	34.17	.09
298.15	.00149	49.41	.34
298.15	.00192	49.84	.6
298.15	.00248	49.16	.34
298.15	.00286	48.89	.04
298.15	.00334	48.67	.48
298.15	.00378	49.12	.78
308.15	.00144	71.9	.17
308.15	.00192	71.05	.85
308.15	.0025	70.17	.18
308.15	.00286	69.53	.26
308.15	.00329	69.4	.07
308.15	.00376	69.45	.35
