Measured thermophysical data. Dielectric constants and hydrogen bonded structures in amide-alcohol mixed solvents
Source: Thermochim. Acta, 2010, 10.1016/j.tca.2010.04.013
Compound 1: formimidic acid, CH3NO
Compound 2: N,N-dimethylformamide, C3H7NO
Compound 3: N,N-dimethylacetamide, C4H9NO
Compound 4: ethanol, C2H6O
Compound 5: ethylene glycol, C2H6O2
Compound 6: NMF, C2H5NO

System: formimidic acid; phases: Liquid
Fixed: Pressure, kPa = 101.3
Property: Relative permittivity at various frequencies (Liquid); method: capacitance measurements at 1 MHz
Temperature, K	Frequency, MHz	Relative permittivity at various frequencies	uncertainty
303.15	1	106.14	.31842

System: N,N-dimethylformamide; phases: Liquid
Fixed: Pressure, kPa = 101.3
Property: Relative permittivity at various frequencies (Liquid); method: capacitance measurements at 1 MHz
Temperature, K	Frequency, MHz	Relative permittivity at various frequencies	uncertainty
303.15	1	36.55	.10965

System: N,N-dimethylacetamide; phases: Liquid
Fixed: Pressure, kPa = 101.3
Property: Relative permittivity at various frequencies (Liquid); method: capacitance measurements at 1 MHz
Temperature, K	Frequency, MHz	Relative permittivity at various frequencies	uncertainty
303.15	1	37.72	.11316

System: ethanol; phases: Liquid
Fixed: Pressure, kPa = 101.3
Property: Relative permittivity at various frequencies (Liquid); method: capacitance measurements at 1 MHz
Temperature, K	Frequency, MHz	Relative permittivity at various frequencies	uncertainty
303.15	1	23.87	.07161

System: ethylene glycol; phases: Liquid
Fixed: Pressure, kPa = 101.3
Property: Relative permittivity at various frequencies (Liquid); method: capacitance measurements at 1 MHz
Temperature, K	Frequency, MHz	Relative permittivity at various frequencies	uncertainty
303.15	1	39.84	.11952

System: NMF; phases: Liquid
Fixed: Pressure, kPa = 101.3
Property: Relative permittivity at various frequencies (Liquid); method: capacitance measurements at 1 MHz
Temperature, K	Frequency, MHz	Relative permittivity at various frequencies	uncertainty
303.15	1	169.76	.50928

System: ethanol + formimidic acid; phases: Liquid
Fixed: Temperature, K = 303.15
Fixed: Frequency, MHz = 1
Property: Relative permittivity at various frequencies (Liquid); method: capacitance measurements at 1 MHz
Mole fraction of ethanol	Relative permittivity at various frequencies	uncertainty
0	106.14	.31842
.046	100.82	.30246
.095	95.19	.28557
.146	89.27	.26781
.199	82.58	.24774
.254	76.43	.22929
.312	70.03	.21009
.374	64.23	.19269
.438	57.92	.17376
.506	51.93	.15579
.577	46.28	.13884
.652	41.17	.12351
.732	36.15	.10845
.816	31.37	.09411
.905	27.6	.0828
1	23.87	.07161

System: ethanol + NMF; phases: Liquid
Fixed: Temperature, K = 303.15
Fixed: Frequency, MHz = 1
Property: Relative permittivity at various frequencies (Liquid); method: capacitance measurements at 1 MHz
Mole fraction of ethanol	Relative permittivity at various frequencies	uncertainty
0	169.76	.50928
.101	144.63	.43389
.202	123.72	.37116
.302	104.17	.31251
.402	85.99	.25797
.502	71.06	.21318
.602	57.8	.1734
.702	46.91	.14073
.802	37.6	.1128
.901	29.54	.08862
1	23.87	.07161

System: ethanol + N,N-dimethylformamide; phases: Liquid
Fixed: Temperature, K = 303.15
Fixed: Frequency, MHz = 1
Property: Relative permittivity at various frequencies (Liquid); method: capacitance measurements at 1 MHz
Mole fraction of ethanol	Relative permittivity at various frequencies	uncertainty
0	36.55	.10965
.087	35.57	.10671
.169	34.72	.10416
.249	33.96	.10188
.325	32.98	.09894
.399	32.16	.09648
.469	31.39	.09417
.537	30.57	.09171
.603	29.63	.08889
.666	28.78	.08634
.726	27.8	.0834
.785	27.05	.08115
.841	26.22	.07866
.896	25.39	.07617
.949	24.65	.07395
1	23.87	.07161

System: ethanol + N,N-dimethylacetamide; phases: Liquid
Fixed: Temperature, K = 303.15
Fixed: Frequency, MHz = 1
Property: Relative permittivity at various frequencies (Liquid); method: capacitance measurements at 1 MHz
Mole fraction of ethanol	Relative permittivity at various frequencies	uncertainty
0	37.72	.11316
.102	36.31	.10893
.197	35.21	.10563
.285	34.16	.10248
.367	32.95	.09885
.444	32.15	.09645
.515	31.25	.09375
.583	30.3	.0909
.646	29.54	.08862
.705	28.71	.08613
.761	27.78	.08334
.814	27	.081
.864	26.2	.0786
.912	25.49	.07647
.957	24.64	.07392
1	23.87	.07161

System: formimidic acid + ethylene glycol; phases: Liquid
Fixed: Temperature, K = 303.15
Fixed: Frequency, MHz = 1
Property: Relative permittivity at various frequencies (Liquid); method: capacitance measurements at 1 MHz
Mole fraction of ethylene glycol	Relative permittivity at various frequencies	uncertainty
0	106.14	.31842
.048	103.75	.31125
.099	100.44	.30132
.151	96.49	.28947
.206	92.28	.27684
.263	88.7	.2661
.322	84.61	.25383
.384	80.3	.2409
.449	75.79	.22737
.517	70.99	.21297
.588	66.04	.19812
.662	61.55	.18465
.74	56.35	.16905
.823	51.05	.15315
.909	46.12	.13836
1	39.84	.11952

System: ethylene glycol + NMF; phases: Liquid
Fixed: Temperature, K = 303.15
Fixed: Frequency, MHz = 1
Property: Relative permittivity at various frequencies (Liquid); method: capacitance measurements at 1 MHz
Mole fraction of ethylene glycol	Relative permittivity at various frequencies	uncertainty
0	169.76	.50928
.105	139.93	.41979
.209	118.26	.35478
.312	102.12	.30636
.413	87.49	.26247
.514	76.46	.22938
.613	67.14	.20142
.711	59.59	.17877
.809	52.6	.1578
.905	46.26	.13878
1	39.84	.11952

System: N,N-dimethylformamide + ethylene glycol; phases: Liquid
Fixed: Temperature, K = 303.15
Fixed: Frequency, MHz = 1
Property: Relative permittivity at various frequencies (Liquid); method: capacitance measurements at 1 MHz
Mole fraction of ethylene glycol	Relative permittivity at various frequencies	uncertainty
0	36.55	.10965
.09	37.69	.11307
.176	38.57	.11571
.258	39.36	.11808
.335	39.93	.11979
.41	40.56	.12168
.481	40.98	.12294
.548	41.23	.12369
.613	41.38	.12414
.676	41.42	.12426
.735	41.35	.12405
.792	41.24	.12372
.847	41.01	.12303
.9	40.71	.12213
.951	40.23	.12069
1	39.84	.11952

System: ethylene glycol + N,N-dimethylacetamide; phases: Liquid
Fixed: Temperature, K = 303.15
Fixed: Frequency, MHz = 1
Property: Relative permittivity at various frequencies (Liquid); method: capacitance measurements at 1 MHz
Mole fraction of ethylene glycol	Relative permittivity at various frequencies	uncertainty
0	37.72	.11316
.106	38.21	.11463
.204	38.76	.11628
.294	39.26	.11778
.378	39.64	.11892
.455	39.95	.11985
.527	40.24	.12072
.594	40.45	.12135
.656	40.59	.12177
.715	40.62	.12186
.769	40.51	.12153
.821	40.49	.12147
.87	40.46	.12138
.916	40.29	.12087
.959	40.06	.12018
1	39.84	.11952
