Measured thermophysical data. Thermogravimetric analysis of InCl3 sublimation at atmospheric pressure
Source: Thermochim. Acta, 2015, 10.1016/j.tca.2015.07.018
Compound 1: indium trichloride, Cl3In
Compound 2: copper monochloride, ClCu

System: indium trichloride; phases: Crystal, Gas
Property: Vapor or sublimation pressure, kPa (Crystal); method: Rate of evaporation
Temperature, K	Vapor or sublimation pressure, kPa	uncertainty
570	.004417	
580	.007462	
590	.01238	
600	.02021	
610	.03245	
620	.05132	
630	.07998	
640	.1229	

System: copper monochloride; phases: Crystal 2, Crystal 1, Gas
Property: Triple point temperature, K (Crystal 2); method: From the change of vapor pressure slope
Triple point temperature, K	uncertainty
688	3

System: copper monochloride; phases: Crystal 1, Liquid, Gas
Property: Triple point temperature, K (Crystal 1); method: From the change of vapor pressure slope
Triple point temperature, K	uncertainty
701	3
