Measured thermophysical data. Effects of SiO2 nanoparticles on structure and property of form-stable phase change materials made of cellulose acetate phase inversion membrane absorbed with capric-myristic-stearic acid ternary eutectic mixture
Source: Thermochim. Acta, 2017, 10.1016/j.tca.2017.03.027
Compound 1: capric acid, C10H20O2
Compound 2: myristic acid, C14H28O2
Compound 3: stearic acid, C18H36O2

System: capric acid; phases: Crystal, Liquid, Air at 1 atmosphere
Property: Normal melting temperature, K (Crystal); method: DSC/DTA
Normal melting temperature, K	uncertainty
304.25	2

System: capric acid; phases: Crystal, Liquid, Air at 1 atmosphere
Property: Molar enthalpy of transition or fusion, kJ/mol (Crystal); method: DSC
Molar enthalpy of transition or fusion, kJ/mol	uncertainty
28.71650882	.5743301764

System: myristic acid; phases: Crystal, Liquid, Air at 1 atmosphere
Property: Normal melting temperature, K (Crystal); method: DSC/DTA
Normal melting temperature, K	uncertainty
326.85	2

System: myristic acid; phases: Crystal, Liquid, Air at 1 atmosphere
Property: Molar enthalpy of transition or fusion, kJ/mol (Crystal); method: DSC
Molar enthalpy of transition or fusion, kJ/mol	uncertainty
42.773873316	.85547746632

System: stearic acid; phases: Crystal, Liquid, Air at 1 atmosphere
Property: Normal melting temperature, K (Crystal); method: DSC/DTA
Normal melting temperature, K	uncertainty
342.15	2

System: stearic acid; phases: Crystal, Liquid, Air at 1 atmosphere
Property: Molar enthalpy of transition or fusion, kJ/mol (Crystal); method: DSC
Molar enthalpy of transition or fusion, kJ/mol	uncertainty
63.381529072	1.26763058144

System: stearic acid + capric acid + myristic acid; phases: Crystal, Crystal, Crystal, Liquid, Air at 1 atmosphere
Fixed: Pressure, kPa = 101.325
Property: Eutectic temperature, K (Crystal); method: DSC/DTA
Eutectic temperature, K	uncertainty
290.55	

System: stearic acid + capric acid + myristic acid; phases: Crystal, Crystal, Crystal, Liquid, Air at 1 atmosphere
Fixed: Pressure, kPa = 101.325
Property: Eutectic composition: mass fraction of capric acid (Crystal); method: Derived from phase diagram analysis
Eutectic composition: mass fraction of capric acid	uncertainty
.7697	

System: stearic acid + capric acid + myristic acid; phases: Crystal, Crystal, Crystal, Liquid, Air at 1 atmosphere
Fixed: Pressure, kPa = 101.325
Property: Eutectic composition: mass fraction of myristic acid (Crystal); method: Derived from phase diagram analysis
Eutectic composition: mass fraction of myristic acid	uncertainty
.1855	
