Measured thermophysical data. Interactions in (L-alanine / L-threonine + aqueous glucose / aqueous sucrose) systems at 298.15-  323.15 K
Source: Thermochim. Acta, 2012, 10.1016/j.tca.2011.10.013
Compound 1: L-alanine, C3H7NO2, purity 99%
Compound 2: L-threonine, C4H9NO3, purity 99%
Compound 3: D-glucose, C6H12O6, purity 99%
Compound 4: saccharose, C12H22O11, purity 99%
Compound 5: water, H2O, purity 99.9%

System: D-glucose + L-alanine + water; phases: Liquid
Fixed: Pressure, kPa = 101
Fixed: Solvent: Molality, mol/kg of D-glucose = 1.1301
Property: Mass density, kg/m3 (Liquid); method: Vibrating tube method
Temperature, K	Molality, mol/kg of L-alanine	Mass density, kg/m3	uncertainty
298.15	0	1065.068	.005
298.15	.19	1069.771	.005
298.15	.3852	1074.442	.005
298.15	.586	1079.131	.005
298.15	.7923	1083.792	.005
298.15	1.0041	1088.431	.005
298.15	1.2222	1093.162	.005
298.15	1.4479	1097.851	.005
303.15	0	1063.297	.005
303.15	.19	1067.983	.005
303.15	.3852	1072.652	.005
303.15	.586	1077.353	.005
303.15	.7923	1082.121	.005
303.15	1.0041	1086.661	.005
303.15	1.2222	1091.362	.005
303.15	1.4479	1096.063	.005
308.15	0	1061.359	.005
308.15	.19	1066.031	.005
308.15	.3852	1070.732	.005
308.15	.586	1075.421	.005
308.15	.7923	1080.031	.005
308.15	1.0041	1084.713	.005
308.15	1.2222	1089.441	.005
308.15	1.4479	1094.062	.005
313.15	0	1059.245	.005
313.15	.19	1063.914	.005
313.15	.3852	1068.612	.005
313.15	.586	1073.323	.005
313.15	.7923	1077.944	.005
313.15	1.0041	1082.612	.005
313.15	1.2222	1087.343	.005
313.15	1.4479	1091.943	.005
318.15	0	1056.983	.005
318.15	.19	1061.631	.005
318.15	.3852	1066.342	.005
318.15	.586	1071.061	.005
318.15	.7923	1075.72	.005
318.15	1.0041	1080.373	.005
318.15	1.2222	1085.094	.005
318.15	1.4479	1089.771	.005
323.15	0	1054.253	.005
323.15	.19	1058.952	.005
323.15	.3852	1063.693	.005
323.15	.586	1068.464	.005
323.15	.7923	1073.142	.005
323.15	1.0041	1077.871	.005
323.15	1.2222	1082.653	.005
323.15	1.4479	1087.352	.005

System: D-glucose + L-alanine + water; phases: Liquid
Fixed: Pressure, kPa = 101
Fixed: Solvent: Molality, mol/kg of D-glucose = 1.1301
Property: Speed of sound, m/s (Liquid); method: Sing-around technique in a fixed-path interferometer
Temperature, K	Molality, mol/kg of L-alanine	Speed of sound, m/s	uncertainty
298.15	0	1564.8	.5
298.15	.19	1578.61	.5
298.15	.3852	1589.13	.5
298.15	.586	1599.07	.5
298.15	.7923	1609.91	.5
298.15	1.0041	1620.05	.5
298.15	1.2222	1630.99	.5
298.15	1.4479	1641.19	.5
303.15	0	1574.3	.5
303.15	.19	1587.6	.5
303.15	.3852	1597.74	.5
303.15	.586	1607.48	.5
303.15	.7923	1617.93	.5
303.15	1.0041	1628.65	.5
303.15	1.2222	1638.63	.5
303.15	1.4479	1648.15	.5
308.15	0	1582.38	.5
308.15	.19	1595.27	.5
308.15	.3852	1605.08	.5
308.15	.586	1614.57	.5
308.15	.7923	1624.61	.5
308.15	1.0041	1634.99	.5
308.15	1.2222	1645.23	.5
308.15	1.4479	1653.9	.5
313.15	0	1589.06	.5
313.15	.19	1601.6	.5
313.15	.3852	1611.07	.5
313.15	.586	1620.34	.5
313.15	.7923	1630.04	.5
313.15	1.0041	1640.1	.5
313.15	1.2222	1650.05	.5
313.15	1.4479	1658.46	.5
318.15	0	1594.42	.5
318.15	.19	1606.63	.5
318.15	.3852	1615.79	.5
318.15	.586	1624.87	.5
318.15	.7923	1634.24	.5
318.15	1.0041	1644.02	.5
318.15	1.2222	1653.78	.5
318.15	1.4479	1661.88	.5
323.15	0	1598.53	.5
323.15	.19	1610.43	.5
323.15	.3852	1619.33	.5
323.15	.586	1628.22	.5
323.15	.7923	1637.3	.5
323.15	1.0041	1646.81	.5
323.15	1.2222	1656.58	.5
323.15	1.4479	1664.21	.5

System: L-alanine + saccharose + water; phases: Liquid
Fixed: Pressure, kPa = 101
Fixed: Solvent: Molality, mol/kg of saccharose = 1.2738
Property: Mass density, kg/m3 (Liquid); method: Vibrating tube method
Temperature, K	Molality, mol/kg of L-alanine	Mass density, kg/m3	uncertainty
298.15	0	1127.374	.005
298.15	.1797	1131.291	.005
298.15	.3642	1135.14	.005
298.15	.5537	1138.941	.005
298.15	.7482	1142.92	.005
298.15	.9485	1146.701	.005
298.15	1.1542	1150.62	.005
303.15	0	1125.373	.005
303.15	.1797	1129.29	.005
303.15	.3642	1133.151	.005
303.15	.5537	1136.951	.005
303.15	.7482	1140.89	.005
303.15	.9485	1144.741	.005
303.15	1.1542	1148.701	.005
308.15	0	1123.197	.005
308.15	.1797	1127.14	.005
308.15	.3642	1131.051	.005
308.15	.5537	1134.783	.005
308.15	.7482	1138.762	.005
308.15	.9485	1142.62	.005
308.15	1.1542	1146.571	.005
313.15	0	1120.735	.005
313.15	.1797	1124.713	.005
313.15	.3642	1128.614	.005
313.15	.5537	1132.43	.005
313.15	.7482	1136.411	.005
313.15	.9485	1140.253	.005
313.15	1.1542	1144.24	.005
318.15	0	1118.184	.005
318.15	.1797	1122.183	.005
318.15	.3642	1126.13	.005
318.15	.5537	1129.921	.005
318.15	.7482	1133.931	.005
318.15	.9485	1137.773	.005
318.15	1.1542	1141.701	.005
323.15	0	1115.445	.005
323.15	.1797	1119.48	.005
323.15	.3642	1123.491	.005
323.15	.5537	1127.353	.005
323.15	.7482	1131.314	.005
323.15	.9485	1135.123	.005
323.15	1.1542	1139.05	.005

System: L-alanine + saccharose + water; phases: Liquid
Fixed: Pressure, kPa = 101
Fixed: Solvent: Molality, mol/kg of saccharose = 1.2738
Property: Speed of sound, m/s (Liquid); method: Sing-around technique in a fixed-path interferometer
Temperature, K	Molality, mol/kg of L-alanine	Speed of sound, m/s	uncertainty
298.15	0	1607.89	.5
298.15	.1797	1620.34	.5
298.15	.3642	1632.14	.5
298.15	.5537	1643.7	.5
298.15	.7482	1654.83	.5
298.15	.9485	1666.23	.5
298.15	1.1542	1676.91	.5
303.15	0	1615.56	.5
303.15	.1797	1627.59	.5
303.15	.3642	1639	.5
303.15	.5537	1650.17	.5
303.15	.7482	1660.94	.5
303.15	.9485	1671.96	.5
303.15	1.1542	1682.28	.5
308.15	0	1621.92	.5
308.15	.1797	1633.56	.5
308.15	.3642	1644.64	.5
308.15	.5537	1655.38	.5
308.15	.7482	1665.85	.5
308.15	.9485	1676.54	.5
308.15	1.1542	1686.52	.5
313.15	0	1627	.5
313.15	.1797	1638.29	.5
313.15	.3642	1649.04	.5
313.15	.5537	1659.43	.5
313.15	.7482	1669.56	.5
313.15	.9485	1679.98	.5
313.15	1.1542	1689.66	.5
318.15	0	1630.84	.5
318.15	.1797	1641.83	.5
318.15	.3642	1652.29	.5
318.15	.5537	1662.34	.5
318.15	.7482	1672.18	.5
318.15	.9485	1682.34	.5
318.15	1.1542	1691.73	.5
323.15	0	1633.3	.5
323.15	.1797	1644.23	.5
323.15	.3642	1654.45	.5
323.15	.5537	1664.17	.5
323.15	.7482	1673.72	.5
323.15	.9485	1683.68	.5
323.15	1.1542	1692.78	.5

System: D-glucose + L-threonine + water; phases: Liquid
Fixed: Pressure, kPa = 101
Fixed: Solvent: Molality, mol/kg of D-glucose = 1.1301
Property: Mass density, kg/m3 (Liquid); method: Vibrating tube method
Temperature, K	Molality, mol/kg of L-threonine	Mass density, kg/m3	uncertainty
298.15	0	1065.068	.005
298.15	.0472	1066.753	.005
298.15	.0948	1068.434	.005
298.15	.1911	1071.773	.005
298.15	.289	1075.134	.005
298.15	.3887	1078.462	.005
298.15	.4899	1081.782	.005
298.15	.593	1085.073	.005
303.15	0	1063.297	.005
303.15	.0472	1064.972	.005
303.15	.0948	1066.644	.005
303.15	.1911	1069.963	.005
303.15	.289	1073.291	.005
303.15	.3887	1076.643	.005
303.15	.4899	1079.943	.005
303.15	.593	1083.242	.005
308.15	0	1061.359	.005
308.15	.0472	1063.024	.005
308.15	.0948	1064.682	.005
308.15	.1911	1067.991	.005
308.15	.289	1071.343	.005
308.15	.3887	1074.634	.005
308.15	.4899	1077.924	.005
308.15	.593	1081.224	.005
313.15	0	1059.245	.005
313.15	.0472	1060.924	.005
313.15	.0948	1062.563	.005
313.15	.1911	1065.854	.005
313.15	.289	1069.144	.005
313.15	.3887	1072.434	.005
313.15	.4899	1075.733	.005
313.15	.593	1078.991	.005
318.15	0	1056.983	.005
318.15	.0472	1058.624	.005
318.15	.0948	1060.263	.005
318.15	.1911	1063.544	.005
318.15	.289	1066.814	.005
318.15	.3887	1070.063	.005
318.15	.4899	1073.334	.005
318.15	.593	1076.572	.005
323.15	0	1054.253	.005
323.15	.0472	1055.881	.005
323.15	.0948	1057.524	.005
323.15	.1911	1060.772	.005
323.15	.289	1064.014	.005
323.15	.3887	1067.272	.005
323.15	.4899	1070.491	.005
323.15	.593	1073.724	.005

System: D-glucose + L-threonine + water; phases: Liquid
Fixed: Pressure, kPa = 101
Fixed: Solvent: Molality, mol/kg of D-glucose = 1.1301
Property: Speed of sound, m/s (Liquid); method: Sing-around technique in a fixed-path interferometer
Temperature, K	Molality, mol/kg of L-threonine	Speed of sound, m/s	uncertainty
298.15	0	1564.8	.5
298.15	.0472	1567.18	.5
298.15	.0948	1570.96	.5
298.15	.1911	1578.32	.5
298.15	.289	1584.94	.5
298.15	.3887	1591.77	.5
298.15	.4899	1598.62	.5
298.15	.593	1605.64	.5
303.15	0	1574.3	.5
303.15	.0472	1576.63	.5
303.15	.0948	1580.23	.5
303.15	.1911	1587.36	.5
303.15	.289	1593.68	.5
303.15	.3887	1600.29	.5
303.15	.4899	1606.87	.5
303.15	.593	1613.71	.5
308.15	0	1582.38	.5
308.15	.0472	1584.67	.5
308.15	.0948	1588.11	.5
308.15	.1911	1595.04	.5
308.15	.289	1601.09	.5
308.15	.3887	1607.48	.5
308.15	.4899	1613.87	.5
308.15	.593	1620.49	.5
313.15	0	1589.06	.5
313.15	.0472	1591.31	.5
313.15	.0948	1594.61	.5
313.15	.1911	1601.35	.5
313.15	.289	1607.18	.5
313.15	.3887	1613.35	.5
313.15	.4899	1619.56	.5
313.15	.593	1625.97	.5
318.15	0	1594.42	.5
318.15	.0472	1596.6	.5
318.15	.0948	1599.82	.5
318.15	.1911	1606.37	.5
318.15	.289	1611.99	.5
318.15	.3887	1617.98	.5
318.15	.4899	1623.98	.5
318.15	.593	1630.23	.5
323.15	0	1598.53	.5
323.15	.0472	1600.6	.5
323.15	.0948	1603.78	.5
323.15	.1911	1610.18	.5
323.15	.289	1615.58	.5
323.15	.3887	1621.52	.5
323.15	.4899	1627.23	.5
323.15	.593	1633.31	.5

System: saccharose + L-threonine + water; phases: Liquid
Fixed: Pressure, kPa = 101
Fixed: Solvent: Molality, mol/kg of saccharose = 1.2738
Property: Mass density, kg/m3 (Liquid); method: Vibrating tube method
Temperature, K	Molality, mol/kg of L-threonine	Mass density, kg/m3	uncertainty
298.15	0	1127.374	.005
298.15	.0445	1128.772	.005
298.15	.0886	1130.153	.005
298.15	.1804	1132.981	.005
298.15	.2728	1135.772	.005
298.15	.3669	1138.581	.005
298.15	.4624	1141.343	.005
303.15	0	1125.373	.005
303.15	.0445	1126.764	.005
303.15	.0886	1128.113	.005
303.15	.1804	1130.904	.005
303.15	.2728	1133.642	.005
303.15	.3669	1136.39	.005
303.15	.4624	1139.134	.005
308.15	0	1123.197	.005
308.15	.0445	1124.582	.005
308.15	.0886	1125.931	.005
308.15	.1804	1128.703	.005
308.15	.2728	1131.443	.005
308.15	.3669	1134.171	.005
308.15	.4624	1136.881	.005
313.15	0	1120.735	.005
313.15	.0445	1122.102	.005
313.15	.0886	1123.451	.005
313.15	.1804	1126.224	.005
313.15	.2728	1128.943	.005
313.15	.3669	1131.671	.005
313.15	.4624	1134.37	.005
318.15	0	1118.184	.005
318.15	.0445	1119.552	.005
318.15	.0886	1120.89	.005
318.15	.1804	1123.643	.005
318.15	.2728	1126.362	.005
318.15	.3669	1129.081	.005
318.15	.4624	1131.804	.005
323.15	0	1115.445	.005
323.15	.0445	1116.801	.005
323.15	.0886	1118.144	.005
323.15	.1804	1120.872	.005
323.15	.2728	1123.58	.005
323.15	.3669	1126.281	.005
323.15	.4624	1128.972	.005

System: saccharose + L-threonine + water; phases: Liquid
Fixed: Pressure, kPa = 101
Fixed: Solvent: Molality, mol/kg of saccharose = 1.2738
Property: Speed of sound, m/s (Liquid); method: Sing-around technique in a fixed-path interferometer
Temperature, K	Molality, mol/kg of L-threonine	Speed of sound, m/s	uncertainty
298.15	0	1607.89	.5
298.15	.0445	1611.54	.5
298.15	.0886	1615.42	.5
298.15	.1804	1622.68	.5
298.15	.2728	1629.7	.5
298.15	.3669	1636.79	.5
298.15	.4624	1644.04	.5
303.15	0	1615.56	.5
303.15	.0445	1619.04	.5
303.15	.0886	1622.79	.5
303.15	.1804	1629.79	.5
303.15	.2728	1636.61	.5
303.15	.3669	1643.5	.5
303.15	.4624	1650.42	.5
308.15	0	1621.92	.5
308.15	.0445	1625.28	.5
308.15	.0886	1628.9	.5
308.15	.1804	1635.66	.5
308.15	.2728	1642.25	.5
308.15	.3669	1648.89	.5
308.15	.4624	1655.61	.5
313.15	0	1627	.5
313.15	.0445	1630.25	.5
313.15	.0886	1633.73	.5
313.15	.1804	1640.26	.5
313.15	.2728	1646.68	.5
313.15	.3669	1653.1	.5
313.15	.4624	1659.32	.5
318.15	0	1630.84	.5
318.15	.0445	1633.95	.5
318.15	.0886	1637.38	.5
318.15	.1804	1643.68	.5
318.15	.2728	1649.92	.5
318.15	.3669	1656.15	.5
318.15	.4624	1662.46	.5
323.15	0	1633.3	.5
323.15	.0445	1636.51	.5
323.15	.0886	1639.86	.5
323.15	.1804	1645.98	.5
323.15	.2728	1652.04	.5
323.15	.3669	1658.14	.5
323.15	.4624	1664.2	.5

System: D-glucose + water; phases: Liquid
Property: Mass density, kg/m3 (Liquid); method: Vibrating tube method
Temperature, K	Pressure, kPa	Molality, mol/kg of D-glucose	Mass density, kg/m3	uncertainty
298.15	101	1.1301	1065.068	.005
303.15	101	1.1301	1063.297	.005
308.15	101	1.1301	1061.359	.005
313.15	101	1.1301	1059.245	.005
318.15	101	1.1301	1056.983	.005
323.15	101	1.1301	1054.253	.005

System: D-glucose + water; phases: Liquid
Property: Speed of sound, m/s (Liquid); method: Sing-around technique in a fixed-path interferometer
Temperature, K	Pressure, kPa	Molality, mol/kg of D-glucose	Speed of sound, m/s	uncertainty
298.15	101	1.1301	1564.8	.5
303.15	101	1.1301	1574.3	.5
308.15	101	1.1301	1582.38	.5
313.15	101	1.1301	1589.06	.5
318.15	101	1.1301	1594.42	.5
323.15	101	1.1301	1598.53	.5

System: saccharose + water; phases: Liquid
Property: Mass density, kg/m3 (Liquid); method: Vibrating tube method
Temperature, K	Pressure, kPa	Molality, mol/kg of saccharose	Mass density, kg/m3	uncertainty
298.15	101	1.2738	1127.374	.005
303.15	101	1.2738	1125.373	.005
308.15	101	1.2738	1123.197	.005
313.15	101	1.2738	1120.735	.005
318.15	101	1.2738	1118.184	.005
323.15	101	1.2738	1115.445	.005

System: saccharose + water; phases: Liquid
Property: Speed of sound, m/s (Liquid); method: Sing-around technique in a fixed-path interferometer
Temperature, K	Pressure, kPa	Molality, mol/kg of saccharose	Speed of sound, m/s	uncertainty
298.15	101	1.2738	1607.89	.5
303.15	101	1.2738	1615.56	.5
308.15	101	1.2738	1621.92	.5
313.15	101	1.2738	1627	.5
318.15	101	1.2738	1630.84	.5
323.15	101	1.2738	1633.3	.5
