Measured thermophysical data. Determination of Standard Enthalpy of Vaporization and Thermal Decomposition Reactions from  Derivative Thermogravimetric (DTG) Curves
Source: Thermochim. Acta, 2011, 10.1016/j.tca.2010.09.010
Compound 1: cadmium(II) iodide, CdI2
Compound 2: calcium carbonate, CCaO3
Compound 3: calcium oxide, CaO
Compound 4: carbon dioxide, CO2

System: cadmium(II) iodide; phases: Crystal, Gas
Property: Vapor or sublimation pressure, kPa (Crystal); method: TG
Temperature, K	Vapor or sublimation pressure, kPa	uncertainty
740	.28877625	.0007125
745	.32525325	.0008025
750	.3667965	.000905
755	.41239275	.0010175
760	.46305525	.0011425
765	.51979725	.0012825
770	.58261875	.0014375

Reaction: -1 calcium carbonate + 1 calcium oxide + 1 carbon dioxide
Property: Equilibrium constant in terms of partial pressure, kPa^n
905.0	0.00875
910.0	0.00985
915.0	0.01108
920.0	0.01244
930.0	0.01563
940.0	0.01955
950.0	0.02434
960.0	0.03015
970.0	0.03719
980.0	0.04568
990.0	0.05587
995.0	0.06169
999.0	0.06674
