Measured thermophysical data. Synthesis and characterization of organosilicon compounds as novel precursors for CVD processes
Source: Thermochim. Acta, 2015, 10.1016/j.tca.2015.02.004
Compound 1: trimethylphenylsilane, C9H14Si
Compound 2: trimethyl(phenylamino)silane, C9H15NSi
Compound 3: (benzylamino)trimethylsilane, C10H17NSi
Compound 4: N,N-bis(trimethylsilyl)aniline, C12H23NSi2
Compound 5: 1,1,1,3,3,3-hexamethyldisilazane, C6H19NSi2, purity 98%

System: trimethylphenylsilane; phases: Liquid, Gas
Property: Boiling temperature at pressure P, K (Liquid); method: Distillation
Pressure, kPa	Boiling temperature at pressure P, K	uncertainty
1.866	329.15	1

System: trimethylphenylsilane; phases: Liquid, Gas
Property: Vapor or sublimation pressure, kPa (Liquid); method: Diaphragm manometer
Temperature, K	Vapor or sublimation pressure, kPa	uncertainty
298.8	.31	.065
322.2	1.14	.065
352.2	4.73	.065
372.2	11.04	.065
391	21.76	.065
297.7	.29	.065
322.7	1.28	.065
333.2	2.02	.065
343.7	3.24	.065
352.8	4.91	.065
371.9	10.63	.065
382.9	15.75	.065
392.1	21.75	.065
401.1	29.35	.065
392.4	22.02	.065
373.2	10.82	.065
296.7	.33	.065

System: trimethyl(phenylamino)silane; phases: Liquid, Gas
Property: Boiling temperature at pressure P, K (Liquid); method: Distillation
Pressure, kPa	Boiling temperature at pressure P, K	uncertainty
.4	329.15	

System: trimethyl(phenylamino)silane; phases: Liquid, Gas
Property: Vapor or sublimation pressure, kPa (Liquid); method: Diaphragm manometer
Temperature, K	Vapor or sublimation pressure, kPa	uncertainty
312.8	.24	.065
332.5	.65	.065
371.8	3.76	.065
391.4	7.86	.065
422.7	22.43	.065
452.1	52.87	.065
432.7	30.61	.065
411.6	15.98	.065
311.6	.2	.065
350.9	1.64	.065
390	7.38	.065
421.7	21.19	.065
455.2	55.6	.065
446.1	43.07	.065
431.8	28.53	.065
410.6	14.88	.065
391.6	7.85	.065
372.1	3.79	.065

System: (benzylamino)trimethylsilane; phases: Liquid, Gas
Property: Boiling temperature at pressure P, K (Liquid); method: Distillation
Pressure, kPa	Boiling temperature at pressure P, K	uncertainty
2	371.15	1

System: N,N-bis(trimethylsilyl)aniline; phases: Liquid, Gas
Property: Boiling temperature at pressure P, K (Liquid); method: Distillation
Pressure, kPa	Boiling temperature at pressure P, K	uncertainty
.267	333.15	

System: N,N-bis(trimethylsilyl)aniline; phases: Liquid, Gas
Property: Vapor or sublimation pressure, kPa (Liquid); method: Diaphragm manometer
Temperature, K	Vapor or sublimation pressure, kPa	uncertainty
321.8	.15	.065
331.2	.24	.065
351.4	.59	.065
322.1	.2	.065
341.9	.36	.065
361.2	1	.065
381.2	2.32	.065
390.9	3.54	.065
330.7	.29	.065
351.2	.61	.065
361.1	.96	.065
371.2	1.56	.065
400.7	5.19	.065
410.7	7.51	.065
421.5	10.91	.065
411	7.35	.065
400.9	5.65	.065
331.4	.26	.065
351.2	.59	.065
380.7	2.34	.065
400.5	5.22	.065
421.4	10.96	.065
441.2	20.51	.065
451.2	27.3	.065
441.6	20.37	.065
431.7	15.13	.065
421.9	10.9	.065

System: 1,1,1,3,3,3-hexamethyldisilazane; phases: Liquid, Gas
Property: Vapor or sublimation pressure, kPa (Liquid); method: Diaphragm manometer
Temperature, K	Vapor or sublimation pressure, kPa	uncertainty
293.5	1.73	.065
312.4	4.36	.065
331.8	10.3	.065
352.7	23.41	.065
371.8	45.32	.065
290.8	1.51	.065
301.5	2.68	.065
311.4	4.25	.065
321.2	6.6	.065
341.1	15.35	.065
360.5	31.34	.065
382.2	59.76	.065
290.9	1.54	.065
301.1	2.71	.065
330.9	10.21	.065
370	42.85	.065
360.3	30.3	.065
349.8	20.68	.065
340.1	14.79	.065
329.7	9.72	.065
320.2	5.93	.065
292	1.68	.065
