Measured thermophysical data. Standard molar Gibbs free energy and enthalpy of solvation of lowpolar solutes in formamide derivatives at 298 K
Source: Thermochim. Acta, 2016, 10.1016/j.tca.2015.11.010
Compound 1: formamide, CH3NO, purity 99%
Compound 2: N-methylformamide, C2H5NO, purity 99%
Compound 3: ethylene glycol, C2H6O2, purity 99.5%
Compound 4: n-hexane, C6H14, purity 99%
Compound 5: n-heptane, C7H16, purity 99%
Compound 6: n-octane, C8H18, purity 99%
Compound 7: n-nonane, C9H20, purity 99%
Compound 8: n-decane, C10H22, purity 99%
Compound 9: n-undecane, C11H24, purity 99%
Compound 10: cyclohexane, C6H12, purity 99.5%
Compound 11: cyclooctane, C8H16, purity 99%
Compound 12: 1,7-octadiene, C8H14, purity 99%
Compound 13: 4-vinyl-1-cyclohexene, C8H12, purity 99.5%
Compound 14: benzene, C6H6, purity 99%
Compound 15: toluene, C7H8, purity 99.8%
Compound 16: ethylbenzene, C8H10, purity 99%
Compound 17: o-xylene, C8H10, purity 99%
Compound 18: m-xylene, C8H10, purity 99%
Compound 19: p-xylene, C8H10, purity 99%
Compound 20: p-cymene, C10H14, purity 99%
Compound 21: fluorobenzene, C6H5F, purity 99%
Compound 22: chlorobenzene, C6H5Cl, purity 99.6%
Compound 23: bromobenzene, C6H5Br, purity 99%
Compound 24: naphthalene, C10H8, purity 99%
Compound 25: water, H2O, purity 99.8%

System: n-hexane + N-methylformamide; phases: Liquid
Fixed: Temperature, K = 298.15
Fixed: Mole fraction of n-hexane = 0
Property: Activity coefficient of n-hexane (Liquid); method: Chromatography
Pressure, kPa	Activity coefficient of n-hexane	uncertainty
238	38.6	3.7

System: n-hexane + N-methylformamide; phases: Liquid
Fixed: Temperature, K = 298.15
Fixed: Pressure, kPa = 101
Property: Molar enthalpy of solution, kJ/mol (Liquid); method: Titration calorimetry
Mole fraction of n-hexane	Molar enthalpy of solution, kJ/mol	uncertainty
0	5.1	.1

System: N-methylformamide + n-heptane; phases: Liquid
Fixed: Temperature, K = 298.15
Fixed: Pressure, kPa = 101
Property: Molar enthalpy of solution, kJ/mol (Liquid); method: Titration calorimetry
Mole fraction of n-heptane	Molar enthalpy of solution, kJ/mol	uncertainty
0	5.74	.1

System: N-methylformamide + n-heptane; phases: Liquid
Fixed: Temperature, K = 298.15
Fixed: Mole fraction of n-heptane = 0
Property: Activity coefficient of n-heptane (Liquid); method: Other
Pressure, kPa	Activity coefficient of n-heptane	uncertainty
238	60.5	2.2

System: n-octane + N-methylformamide; phases: Liquid
Fixed: Temperature, K = 298.15
Fixed: Pressure, kPa = 101
Property: Molar enthalpy of solution, kJ/mol (Liquid); method: Titration calorimetry
Mole fraction of n-octane	Molar enthalpy of solution, kJ/mol	uncertainty
0	6.47	.3

System: n-octane + N-methylformamide; phases: Liquid
Fixed: Temperature, K = 298.15
Fixed: Mole fraction of n-octane = 0
Property: Activity coefficient of n-octane (Liquid); method: Chromatography
Pressure, kPa	Activity coefficient of n-octane	uncertainty
238	83.9	1.8

System: n-nonane + N-methylformamide; phases: Liquid
Fixed: Temperature, K = 298.15
Fixed: Pressure, kPa = 101
Property: Molar enthalpy of solution, kJ/mol (Liquid); method: Titration calorimetry
Mole fraction of n-nonane	Molar enthalpy of solution, kJ/mol	uncertainty
0	7.09	.3

System: n-nonane + N-methylformamide; phases: Liquid
Fixed: Temperature, K = 298.15
Fixed: Mole fraction of n-nonane = 0
Property: Activity coefficient of n-nonane (Liquid); method: Chromatography
Pressure, kPa	Activity coefficient of n-nonane	uncertainty
238	122.2	2.4

System: N-methylformamide + n-decane; phases: Liquid
Fixed: Temperature, K = 298.15
Fixed: Mole fraction of n-decane = 0
Property: Activity coefficient of n-decane (Liquid); method: Other
Pressure, kPa	Activity coefficient of n-decane	uncertainty
238	194.2	3.2

System: N-methylformamide + n-decane; phases: Liquid
Fixed: Temperature, K = 298.15
Fixed: Pressure, kPa = 101
Property: Molar enthalpy of solution, kJ/mol (Liquid); method: Titration calorimetry
Mole fraction of n-decane	Molar enthalpy of solution, kJ/mol	uncertainty
0	7.78	.3

System: N-methylformamide + n-undecane; phases: Liquid
Fixed: Temperature, K = 298.15
Fixed: Mole fraction of n-undecane = 0
Property: Activity coefficient of n-undecane (Liquid); method: Other
Pressure, kPa	Activity coefficient of n-undecane	uncertainty
238	318.3	15

System: cyclohexane + N-methylformamide; phases: Liquid
Fixed: Temperature, K = 298.15
Fixed: Pressure, kPa = 101
Property: Molar enthalpy of solution, kJ/mol (Liquid); method: Titration calorimetry
Mole fraction of cyclohexane	Molar enthalpy of solution, kJ/mol	uncertainty
0	4.61	.2

System: N-methylformamide + cyclooctane; phases: Liquid
Fixed: Temperature, K = 298.15
Fixed: Mole fraction of cyclooctane = 0
Property: Activity coefficient of cyclooctane (Liquid); method: Other
Pressure, kPa	Activity coefficient of cyclooctane	uncertainty
238	42.3	1.5

System: N-methylformamide + 1,7-octadiene; phases: Liquid
Fixed: Temperature, K = 298.15
Fixed: Mole fraction of 1,7-octadiene = 0
Property: Activity coefficient of 1,7-octadiene (Liquid); method: Other
Pressure, kPa	Activity coefficient of 1,7-octadiene	uncertainty
238	23	1

System: 4-vinyl-1-cyclohexene + N-methylformamide; phases: Liquid
Fixed: Temperature, K = 298.15
Fixed: Mole fraction of 4-vinyl-1-cyclohexene = 0
Property: Activity coefficient of 4-vinyl-1-cyclohexene (Liquid); method: Chromatography
Pressure, kPa	Activity coefficient of 4-vinyl-1-cyclohexene	uncertainty
238	16.6	.9

System: benzene + N-methylformamide; phases: Liquid
Fixed: Temperature, K = 298.15
Fixed: Mole fraction of benzene = 0
Property: Activity coefficient of benzene (Liquid); method: Chromatography
Pressure, kPa	Activity coefficient of benzene	uncertainty
238	4.8	.2

System: benzene + N-methylformamide; phases: Liquid
Fixed: Temperature, K = 298.15
Fixed: Pressure, kPa = 101
Property: Molar enthalpy of solution, kJ/mol (Liquid); method: Titration calorimetry
Mole fraction of benzene	Molar enthalpy of solution, kJ/mol	uncertainty
0	1.18	.05

System: toluene + N-methylformamide; phases: Liquid
Fixed: Temperature, K = 298.15
Fixed: Mole fraction of toluene = 0
Property: Activity coefficient of toluene (Liquid); method: Chromatography
Pressure, kPa	Activity coefficient of toluene	uncertainty
238	7	.3

System: toluene + N-methylformamide; phases: Liquid
Fixed: Temperature, K = 298.15
Fixed: Pressure, kPa = 101
Property: Molar enthalpy of solution, kJ/mol (Liquid); method: Titration calorimetry
Mole fraction of toluene	Molar enthalpy of solution, kJ/mol	uncertainty
0	1.59	.05

System: ethylbenzene + N-methylformamide; phases: Liquid
Fixed: Temperature, K = 298.15
Fixed: Pressure, kPa = 101
Property: Molar enthalpy of solution, kJ/mol (Liquid); method: Titration calorimetry
Mole fraction of ethylbenzene	Molar enthalpy of solution, kJ/mol	uncertainty
0	1.98	.05

System: o-xylene + N-methylformamide; phases: Liquid
Fixed: Temperature, K = 298.15
Fixed: Mole fraction of o-xylene = 0
Property: Activity coefficient of o-xylene (Liquid); method: Chromatography
Pressure, kPa	Activity coefficient of o-xylene	uncertainty
238	9.8	.5

System: o-xylene + N-methylformamide; phases: Liquid
Fixed: Temperature, K = 298.15
Fixed: Pressure, kPa = 101
Property: Molar enthalpy of solution, kJ/mol (Liquid); method: Titration calorimetry
Mole fraction of o-xylene	Molar enthalpy of solution, kJ/mol	uncertainty
0	2.29	.05

System: m-xylene + N-methylformamide; phases: Liquid
Fixed: Temperature, K = 298.15
Fixed: Mole fraction of m-xylene = 0
Property: Activity coefficient of m-xylene (Liquid); method: Chromatography
Pressure, kPa	Activity coefficient of m-xylene	uncertainty
238	10.8	.3

System: m-xylene + N-methylformamide; phases: Liquid
Fixed: Temperature, K = 298.15
Fixed: Pressure, kPa = 101
Property: Molar enthalpy of solution, kJ/mol (Liquid); method: Titration calorimetry
Mole fraction of m-xylene	Molar enthalpy of solution, kJ/mol	uncertainty
0	2.44	.05

System: p-xylene + N-methylformamide; phases: Liquid
Fixed: Temperature, K = 298.15
Fixed: Mole fraction of p-xylene = 0
Property: Activity coefficient of p-xylene (Liquid); method: Chromatography
Pressure, kPa	Activity coefficient of p-xylene	uncertainty
238	10.4	.4

System: p-xylene + N-methylformamide; phases: Liquid
Fixed: Temperature, K = 298.15
Fixed: Pressure, kPa = 101
Property: Molar enthalpy of solution, kJ/mol (Liquid); method: Titration calorimetry
Mole fraction of p-xylene	Molar enthalpy of solution, kJ/mol	uncertainty
0	2.24	.05

System: p-cymene + N-methylformamide; phases: Liquid
Fixed: Temperature, K = 298.15
Fixed: Mole fraction of p-cymene = 0
Property: Activity coefficient of p-cymene (Liquid); method: Chromatography
Pressure, kPa	Activity coefficient of p-cymene	uncertainty
238	22.3	1

System: N-methylformamide + fluorobenzene; phases: Liquid
Fixed: Temperature, K = 298.15
Fixed: Mole fraction of fluorobenzene = 0
Property: Activity coefficient of fluorobenzene (Liquid); method: Other
Pressure, kPa	Activity coefficient of fluorobenzene	uncertainty
238	4	.15

System: N-methylformamide + fluorobenzene; phases: Liquid
Fixed: Temperature, K = 298.15
Fixed: Pressure, kPa = 101
Property: Molar enthalpy of solution, kJ/mol (Liquid); method: Titration calorimetry
Mole fraction of fluorobenzene	Molar enthalpy of solution, kJ/mol	uncertainty
0	-.22	.05

System: chlorobenzene + N-methylformamide; phases: Liquid
Fixed: Temperature, K = 298.15
Fixed: Mole fraction of chlorobenzene = 0
Property: Activity coefficient of chlorobenzene (Liquid); method: Chromatography
Pressure, kPa	Activity coefficient of chlorobenzene	uncertainty
238	5.2	.3

System: chlorobenzene + N-methylformamide; phases: Liquid
Fixed: Temperature, K = 298.15
Fixed: Pressure, kPa = 101
Property: Molar enthalpy of solution, kJ/mol (Liquid); method: Titration calorimetry
Mole fraction of chlorobenzene	Molar enthalpy of solution, kJ/mol	uncertainty
0	.4	.05

System: bromobenzene + N-methylformamide; phases: Liquid
Fixed: Temperature, K = 298.15
Fixed: Mole fraction of bromobenzene = 0
Property: Activity coefficient of bromobenzene (Liquid); method: Chromatography
Pressure, kPa	Activity coefficient of bromobenzene	uncertainty
238	6.3	.2

System: naphthalene + N-methylformamide; phases: Liquid
Fixed: Temperature, K = 298.15
Fixed: Mole fraction of naphthalene = 0
Property: Activity coefficient of naphthalene (Liquid); method: Chromatography
Pressure, kPa	Activity coefficient of naphthalene	uncertainty
238	26.7	1.8

System: naphthalene + N-methylformamide; phases: Liquid
Fixed: Temperature, K = 298.15
Fixed: Pressure, kPa = 101
Property: Molar enthalpy of solution, kJ/mol (Liquid); method: Isoperibol calorimetry
Mole fraction of naphthalene	Molar enthalpy of solution, kJ/mol	uncertainty
0	18.6	1.3

System: benzene + ethylene glycol + N-methylformamide; phases: Liquid
Fixed: Pressure, kPa = 238
Fixed: Temperature, K = 298.15
Fixed: Mole fraction of benzene = 0
Property: Activity coefficient of benzene (Liquid); method: Chromatography
Solvent: Mole fraction of N-methylformamide	Activity coefficient of benzene	uncertainty
.25	17.3	1
.5	10.3	.4
.75	6.63	.3
1	4.8	.2

System: benzene + ethylene glycol + N-methylformamide; phases: Liquid
Fixed: Temperature, K = 298.15
Fixed: Pressure, kPa = 101
Fixed: Mole fraction of benzene = 0
Property: Molar enthalpy of solution, kJ/mol (Liquid); method: Titration calorimetry
Solvent: Mole fraction of N-methylformamide	Molar enthalpy of solution, kJ/mol	uncertainty
.25	1.83	.2
.5	1.6	.05
.75	1.36	.05
1	1.18	.05

System: benzene + formamide + ethylene glycol; phases: Liquid
Fixed: Pressure, kPa = 238
Fixed: Temperature, K = 298.15
Fixed: Mole fraction of benzene = 0
Property: Activity coefficient of benzene (Liquid); method: Chromatography
Solvent: Mole fraction of formamide	Activity coefficient of benzene	uncertainty
.25	33.9	.9
.5	36.9	1.1
.75	40.7	1
.9	44.1	1

System: benzene + formamide + ethylene glycol; phases: Liquid
Fixed: Temperature, K = 298.15
Fixed: Pressure, kPa = 101
Fixed: Mole fraction of benzene = 0
Property: Molar enthalpy of solution, kJ/mol (Liquid); method: Titration calorimetry
Solvent: Mole fraction of formamide	Molar enthalpy of solution, kJ/mol	uncertainty
.25	2.44	.2
.5	3.12	.2
.75	3.6	.4
.9	3.96	.3

System: benzene + N-methylformamide + water; phases: Liquid
Fixed: Temperature, K = 298.15
Fixed: Pressure, kPa = 238
Fixed: Mole fraction of benzene = 0
Property: Activity coefficient of benzene (Liquid); method: Chromatography
Solvent: Mole fraction of N-methylformamide	Activity coefficient of benzene	uncertainty
.3	91.1	1.5
.4	43.4	1.1
.5	24.9	.8
.6	15.4	.5
.7	10.3	.3
.8	7.44	.2
.9	5.71	.1
1	4.8	.2

System: benzene + N-methylformamide + water; phases: Liquid
Fixed: Temperature, K = 298.15
Fixed: Pressure, kPa = 101
Fixed: Mole fraction of benzene = 0
Property: Molar enthalpy of solution, kJ/mol (Liquid); method: Titration calorimetry
Solvent: Mole fraction of N-methylformamide	Molar enthalpy of solution, kJ/mol	uncertainty
.3	5.81	.4
.4	4.61	.2
.5	3.08	.3
.6	2.62	.1
.7	2.01	.05
.8	1.75	.05
.9	1.36	.05
1	1.18	.05
