Measured thermophysical data. Phase transition of neopentyl glycol in nanopores for thermal energy storage
Source: Thermochim. Acta, 2016, 10.1016/j.tca.2016.03.016
Compound 1: neopentyl glycol, C5H12O2, purity 99%

System: neopentyl glycol; phases: Crystal 2, Crystal 1, Air at 1 atmosphere
Property: Triple point temperature, K (Crystal 2); method: DSC
Triple point temperature, K	uncertainty
314.95	.5

System: neopentyl glycol; phases: Crystal 1, Liquid, Air at 1 atmosphere
Property: Normal melting temperature, K (Crystal 1); method: DSC/DTA
Normal melting temperature, K	uncertainty
401.65	.5

System: neopentyl glycol; phases: Crystal 2, Crystal 1, Air at 1 atmosphere
Property: Molar enthalpy of transition or fusion, kJ/mol (Crystal 2); method: DSC
Molar enthalpy of transition or fusion, kJ/mol	uncertainty
11.070887754	.22141775508

System: neopentyl glycol; phases: Crystal 1, Liquid, Air at 1 atmosphere
Property: Molar enthalpy of transition or fusion, kJ/mol (Crystal 1); method: DSC
Molar enthalpy of transition or fusion, kJ/mol	uncertainty
3.978437556	.07956875112
