Measured thermophysical data. Enthalpic interactions of N,N-dimethylformamide in aqueous  glucose and sucrose solutions at 298.15 K
Source: Thermochim. Acta, 2009, 10.1016/j.tca.2008.10.021
Compound 1: N,N-dimethylformamide, C3H7NO, purity 99.5%
Compound 2: saccharose, C12H22O11, purity 99%
Compound 3: D(+)-glucose, C6H12O6, purity 99%
Compound 4: water, H2O

System: D(+)-glucose + N,N-dimethylformamide + water; phases: Liquid
Fixed: Temperature, K = 298.15
Fixed: Pressure, kPa = 101.3
Property: Molar enthalpy of dilution, kJ/mol (Liquid); method: Isoperibol calorimetry
Solvent: Molality, mol/kg of D(+)-glucose	Initial molality of solute, mol/kg	Final molality of solute, mol/kg	Molar enthalpy of dilution, kJ/mol	uncertainty
0	2.0169	1.5655	-.25072	
0	2.0169	1.5164	-.28181	
0	2.0169	1.4569	-.31134	
0	2.0169	1.3817	-.35467	
0	2.0169	1.281	-.41064	
0	2.0169	1.1403	-.4962	
0	2.0169	.7388	-.73891	
0	2.0169	.6084	-.8293	
0	2.0169	.5181	-.88434	
0	2.0169	.4523	-.93643	
0	2.0169	.401	-.96539	
0	2.0169	.3593	-.98522	
.2653	1.9958	1.5495	-.23589	
.2653	1.9958	1.5009	-.25957	
.2653	1.9958	1.442	-.29581	
.2653	1.9958	1.3677	-.33869	
.2653	1.9958	1.268	-.39551	
.2653	1.9958	1.1287	-.4727	
.2653	1.9958	.9273	-.60116	
.2653	1.9958	.7315	-.7174	
.2653	1.9958	.6024	-.80018	
.2653	1.9958	.513	-.86261	
.2653	1.9958	.4478	-.90149	
.2653	1.9958	.3971	-.93475	
.2653	1.9958	.3558	-.97353	
.5545	1.993	1.5453	-.2312	
.5545	1.993	1.4967	-.2562	
.5545	1.993	1.4377	-.28898	
.5545	1.993	1.3633	-.33121	
.5545	1.993	1.2636	-.38905	
.5545	1.993	1.1244	-.46642	
.5545	1.993	.9232	-.58716	
.5545	1.993	.7278	-.70684	
.5545	1.993	.5991	-.76598	
.5545	1.993	.5101	-.84549	
.5545	1.993	.4452	-.88048	
.5545	1.993	.3947	-.92191	
.5545	1.993	.3537	-.94555	
.8642	1.9945	1.5461	-.22445	
.8642	1.9945	1.4974	-.24955	
.8642	1.9945	1.4383	-.27987	
.8642	1.9945	1.3639	-.31775	
.8642	1.9945	1.2641	-.37075	
.8642	1.9945	1.1247	-.4489	
.8642	1.9945	.9234	-.56478	
.8642	1.9945	.7279	-.67543	
.8642	1.9945	.5992	-.75604	
.8642	1.9945	.5101	-.82021	
.8642	1.9945	.4452	-.85823	
.8642	1.9945	.3947	-.88958	
.8642	1.9945	.3536	-.92066	
1.1362	1.9911	1.5421	-.21812	
1.1362	1.9911	1.4934	-.24141	
1.1362	1.9911	1.4343	-.27443	
1.1362	1.9911	1.3599	-.31088	
1.1362	1.9911	1.2601	-.36441	
1.1362	1.9911	1.1209	-.44091	
1.1362	1.9911	.9199	-.55532	
1.1362	1.9911	.7249	-.66261	
1.1362	1.9911	.5965	-.74161	
1.1362	1.9911	.5077	-.80102	
1.1362	1.9911	.4431	-.83865	
1.1362	1.9911	.3928	-.87248	
1.1362	1.9911	.3519	-.89462	
1.383	1.9877	1.5385	-.21191	
1.383	1.9877	1.4898	-.23737	
1.383	1.9877	1.4307	-.26699	
1.383	1.9877	1.3563	-.30674	
1.383	1.9877	1.2567	-.35788	
1.383	1.9877	1.1176	-.4276	
1.383	1.9877	.9169	-.53921	
1.383	1.9877	.7223	-.64408	
1.383	1.9877	.5943	-.72541	
1.383	1.9877	.5058	-.77475	
1.383	1.9877	.4414	-.81649	
1.383	1.9877	.3912	-.83799	
1.383	1.9877	.3505	-.87033	
1.6399	1.9763	1.5288	-.20918	
1.6399	1.9763	1.4803	-.23404	
1.6399	1.9763	1.4215	-.26542	
1.6399	1.9763	1.3475	-.30059	
1.6399	1.9763	1.2483	-.3544	
1.6399	1.9763	1.11	-.42676	
1.6399	1.9763	.9104	-.53474	
1.6399	1.9763	.717	-.64138	
1.6399	1.9763	.5899	-.72463	
1.6399	1.9763	.502	-.77295	
1.6399	1.9763	.438	-.81641	
1.6399	1.9763	.3882	-.84232	
1.6399	1.9763	.3477	-.8582	

System: saccharose + N,N-dimethylformamide + water; phases: Liquid
Fixed: Temperature, K = 298.15
Fixed: Pressure, kPa = 101.3
Property: Molar enthalpy of dilution, kJ/mol (Liquid); method: Isoperibol calorimetry
Solvent: Molality, mol/kg of saccharose	Initial molality of solute, mol/kg	Final molality of solute, mol/kg	Molar enthalpy of dilution, kJ/mol	uncertainty
0	2.0169	1.5655	-.25072	
0	2.0169	1.5164	-.28181	
0	2.0169	1.4569	-.31134	
0	2.0169	1.3817	-.35467	
0	2.0169	1.281	-.41064	
0	2.0169	1.1403	-.4962	
0	2.0169	.7388	-.73891	
0	2.0169	.6084	-.8293	
0	2.0169	.5181	-.88434	
0	2.0169	.4523	-.93643	
0	2.0169	.401	-.96539	
0	2.0169	.3593	-.98522	
.1561	1.9532	1.5169	-.23645	
.1561	1.9532	1.4694	-.26318	
.1561	1.9532	1.4118	-.29705	
.1561	1.9532	1.3391	-.33699	
.1561	1.9532	1.2417	-.39473	
.1561	1.9532	1.1054	-.47829	
.1561	1.9532	.9083	-.59928	
.1561	1.9532	.7166	-.71918	
.1561	1.9532	.5902	-.79794	
.1561	1.9532	.5026	-.8675	
.1561	1.9532	.4388	-.90337	
.1561	1.9532	.3891	-.94162	
.1561	1.9532	.3487	-.96939	
.3233	1.9896	1.5446	-.24039	
.3233	1.9896	1.4962	-.26912	
.3233	1.9896	1.4374	-.30357	
.3233	1.9896	1.3633	-.34457	
.3233	1.9896	1.264	-.40366	
.3233	1.9896	1.1251	-.48766	
.3233	1.9896	.9243	-.60826	
.3233	1.9896	.7291	-.73359	
.3233	1.9896	.6004	-.82757	
.3233	1.9896	.5113	-.88336	
.3233	1.9896	.4464	-.94001	
.3233	1.9896	.3958	-.97559	
.3233	1.9896	.3547	-.99398	
.4805	1.9903	1.545	-.23823	
.4805	1.9903	1.4965	-.26712	
.4805	1.9903	1.4377	-.30128	
.4805	1.9903	1.3636	-.34251	
.4805	1.9903	1.2642	-.40134	
.4805	1.9903	1.1253	-.48455	
.4805	1.9903	.9244	-.60638	
.4805	1.9903	.7292	-.73596	
.4805	1.9903	.6005	-.81194	
.4805	1.9903	.5113	-.87938	
.4805	1.9903	.4464	-.92675	
.4805	1.9903	.3958	-.97374	
.4805	1.9903	.3547	-.99402	
.7306	2.0003	1.5506	-.23876	
.7306	2.0003	1.5018	-.26357	
.7306	2.0003	1.4425	-.297	
.7306	2.0003	1.3678	-.34011	
.7306	2.0003	1.2678	-.39467	
.7306	2.0003	1.128	-.47542	
.7306	2.0003	.9261	-.60208	
.7306	2.0003	.73	-.72188	
.7306	2.0003	.6009	-.80821	
.7306	2.0003	.5116	-.87495	
.7306	2.0003	.4465	-.91899	
.7306	2.0003	.3958	-.95796	
.7306	2.0003	.3547	-.99208	
.9714	2.0016	1.5518	-.23292	
.9714	2.0016	1.5029	-.25832	
.9714	2.0016	1.4436	-.29138	
.9714	2.0016	1.3689	-.33006	
.9714	2.0016	1.2688	-.38698	
.9714	2.0016	1.1289	-.46691	
.9714	2.0016	.9269	-.58436	
.9714	2.0016	.7307	-.71053	
.9714	2.0016	.6015	-.79484	
.9714	2.0016	.5121	-.84874	
.9714	2.0016	.4469	-.89742	
.9714	2.0016	.3962	-.93992	
.9714	2.0016	.355	-.96318	
1.2318	1.9919	1.543	-.21607	
1.2318	1.9919	1.4943	-.23926	
1.2318	1.9919	1.4352	-.26797	
1.2318	1.9919	1.3608	-.3072	
1.2318	1.9919	1.261	-.35509	
1.2318	1.9919	1.1217	-.42722	
1.2318	1.9919	.9206	-.54095	
1.2318	1.9919	.7255	-.64771	
1.2318	1.9919	.5971	-.72937	
1.2318	1.9919	.5082	-.78288	
1.2318	1.9919	.4435	-.8301	
1.2318	1.9919	.3932	-.86151	
1.2318	1.9919	.3523	-.88246	

System: N,N-dimethylformamide + water; phases: Liquid
Fixed: Pressure, kPa = 101.3
Property: Molar enthalpy of dilution, kJ/mol (Liquid); method: Isoperibol calorimetry
Initial molality of solute, mol/kg	Final molality of solute, mol/kg	Temperature, K	Molar enthalpy of dilution, kJ/mol	uncertainty
2.0169	1.5655	298.15	-.25072	
2.0169	1.5164	298.15	-.28181	
2.0169	1.4569	298.15	-.31134	
2.0169	1.3817	298.15	-.35467	
2.0169	1.281	298.15	-.41064	
2.0169	1.1403	298.15	-.4962	
2.0169	.7388	298.15	-.73891	
2.0169	.6084	298.15	-.8293	
2.0169	.5181	298.15	-.88434	
2.0169	.4523	298.15	-.93643	
2.0169	.401	298.15	-.96539	
2.0169	.3593	298.15	-.98522	
