Measured thermophysical data. Volumetric properties for binary and ternary mixtures of allyl alcohol, 1,3-dichloro-2-propanol and 1-ethyl-3-methyl imidazolium ethyl sulfate [Emim][EtSO4] from T = 298.15 to 318.15 K at ambient pressure
Source: Thermochim. Acta, 2015, 10.1016/j.tca.2015.04.027
Compound 1: 1-ethyl-3-methylimidazolium ethyl sulfate, C8H16N2O4S, purity 98%
Compound 2: 1,3-dichloro-2-propanol, C3H6Cl2O, purity 99%
Compound 3: allyl alcohol, C3H6O, purity 98%

System: 1-ethyl-3-methylimidazolium ethyl sulfate; phases: Liquid
Property: Mass density, kg/m3 (Liquid); method: Vibrating tube method
Temperature, K	Pressure, kPa	Mass density, kg/m3	uncertainty
298.15	87	1236.42	.5
303.15	87	1233.09	.5
308.15	87	1229.72	.5
313.15	87	1226.36	.5
318.15	87	1223	.5

System: 1,3-dichloro-2-propanol; phases: Liquid
Property: Mass density, kg/m3 (Liquid); method: Vibrating tube method
Temperature, K	Pressure, kPa	Mass density, kg/m3	uncertainty
298.15	87	1356.46	.5
303.15	87	1350.55	.5
308.15	87	1344.61	.5
313.15	87	1338.56	.5
318.15	87	1332.47	.5

System: allyl alcohol; phases: Liquid
Property: Mass density, kg/m3 (Liquid); method: Vibrating tube method
Temperature, K	Pressure, kPa	Mass density, kg/m3	uncertainty
298.15	87	850.4	.5
303.15	87	846.02	.5
308.15	87	841.59	.5
313.15	87	837.13	.5
318.15	87	832.63	.5

System: 1,3-dichloro-2-propanol + allyl alcohol; phases: Liquid
Fixed: Pressure, kPa = 87
Property: Mass density, kg/m3 (Liquid); method: Vibrating tube method
Temperature, K	Mole fraction of 1,3-dichloro-2-propanol	Mass density, kg/m3	uncertainty
298.15	0	850.4	.5
298.15	.0927	914.27	.5
298.15	.1927	978.2	.5
298.15	.2704	1024.81	.5
298.15	.3548	1072.33	.5
298.15	.4555	1125.39	.5
298.15	.4973	1146.3	.5
298.15	.6062	1198.1	.5
298.15	.7166	1246.88	.5
298.15	.8004	1281.46	.5
298.15	.8893	1316.06	.5
298.15	.9452	1336.81	.5
298.15	1	1356.46	.5
303.15	0	846.02	.5
303.15	.0927	909.73	.5
303.15	.1927	973.46	.5
303.15	.2704	1019.93	.5
303.15	.3548	1067.35	.5
303.15	.4555	1120.22	.5
303.15	.4973	1141.05	.5
303.15	.6062	1192.65	.5
303.15	.7166	1241.35	.5
303.15	.8004	1275.78	.5
303.15	.8893	1310.26	.5
303.15	.9452	1330.96	.5
303.15	1	1350.55	.5
308.15	0	841.59	.5
308.15	.0927	905.11	.5
308.15	.1927	968.64	.5
308.15	.2704	1014.97	.5
308.15	.3548	1062.2	.5
308.15	.4555	1114.94	.5
308.15	.4973	1135.75	.5
308.15	.6062	1187.2	.5
308.15	.7166	1235.7	.5
308.15	.8004	1270	.5
308.15	.8893	1304.41	.5
308.15	.9452	1325.07	.5
308.15	1	1344.61	.5
313.15	0	837.13	.5
313.15	.0927	900.45	.5
313.15	.1927	963.78	.5
313.15	.2704	1009.97	.5
313.15	.3548	1057.06	.5
313.15	.4555	1109.64	.5
313.15	.4973	1130.35	.5
313.15	.6062	1181.65	.5
313.15	.7166	1230.01	.5
313.15	.8004	1264.19	.5
313.15	.8893	1298.46	.5
313.15	.9452	1319.07	.5
313.15	1	1338.56	.5
318.15	0	832.63	.5
318.15	.0927	895.75	.5
318.15	.1927	958.88	.5
318.15	.2704	1004.93	.5
318.15	.3548	1051.87	.5
318.15	.4555	1104.29	.5
318.15	.4973	1124.95	.5
318.15	.6062	1176.1	.5
318.15	.7166	1224.28	.5
318.15	.8004	1258.35	.5
318.15	.8893	1292.49	.5
318.15	.9452	1313.05	.5
318.15	1	1332.47	.5

System: allyl alcohol + 1-ethyl-3-methylimidazolium ethyl sulfate; phases: Liquid
Fixed: Pressure, kPa = 87
Property: Mass density, kg/m3 (Liquid); method: Vibrating tube method
Temperature, K	Mole fraction of allyl alcohol	Mass density, kg/m3	uncertainty
298.15	0	1236.42	.5
298.15	.0988	1223.65	.5
298.15	.1811	1211.14	.5
298.15	.2833	1193.07	.5
298.15	.4107	1165.72	.5
298.15	.4939	1143.57	.5
298.15	.5909	1112.3	.5
298.15	.7086	1064.08	.5
298.15	.8066	1012	.5
298.15	.9057	942.5	.5
298.15	.9835	869.29	.5
298.15	1	850.4	.5
303.15	0	1233.09	.5
303.15	.0988	1220.28	.5
303.15	.1811	1207.72	.5
303.15	.2833	1189.54	.5
303.15	.4107	1162.19	.5
303.15	.4939	1140.1	.5
303.15	.5909	1109.47	.5
303.15	.7086	1061.4	.5
303.15	.8066	1009.5	.5
303.15	.9057	939.58	.5
303.15	.9835	865.2	.5
303.15	1	846.02	.5
308.15	0	1229.72	.5
308.15	.0988	1216.87	.5
308.15	.1811	1204.27	.5
308.15	.2833	1186.02	.5
308.15	.4107	1158.64	.5
308.15	.4939	1136.5	.5
308.15	.5909	1105.88	.5
308.15	.7086	1058	.5
308.15	.8066	1005.8	.5
308.15	.9057	935.46	.5
308.15	.9835	860.9	.5
308.15	1	841.59	.5
313.15	0	1226.36	.5
313.15	.0988	1213.47	.5
313.15	.1811	1200.85	.5
313.15	.2833	1182.52	.5
313.15	.4107	1155.11	.5
313.15	.4939	1133	.5
313.15	.5909	1102.21	.5
313.15	.7086	1054.02	.5
313.15	.8066	1001.87	.5
313.15	.9057	931.33	.5
313.15	.9835	856.62	.5
313.15	1	837.13	.5
318.15	0	1223	.5
318.15	.0988	1210.09	.5
318.15	.1811	1197.44	.5
318.15	.2833	1179.15	.5
318.15	.4107	1151.59	.5
318.15	.4939	1129.55	.5
318.15	.5909	1098.55	.5
318.15	.7086	1049.98	.5
318.15	.8066	997.66	.5
318.15	.9057	927.19	.5
318.15	.9835	852.28	.5
318.15	1	832.63	.5

System: 1,3-dichloro-2-propanol + 1-ethyl-3-methylimidazolium ethyl sulfate; phases: Liquid
Fixed: Pressure, kPa = 87
Property: Mass density, kg/m3 (Liquid); method: Vibrating tube method
Temperature, K	Mole fraction of 1,3-dichloro-2-propanol	Mass density, kg/m3	uncertainty
298.15	0	1236.42	.5
298.15	.0638	1239	.5
298.15	.1199	1241.65	.5
298.15	.2073	1246.7	.5
298.15	.2973	1252.5	.5
298.15	.3964	1259.8	.5
298.15	.505	1269.3	.5
298.15	.6616	1286.79	.5
298.15	.7527	1300	.5
298.15	.8236	1313	.5
298.15	.9012	1329.59	.5
298.15	.9645	1346	.5
298.15	1	1356.46	.5
303.15	0	1233.09	.5
303.15	.0638	1235.7	.5
303.15	.1199	1238.3	.5
303.15	.2073	1243.39	.5
303.15	.2973	1249.05	.5
303.15	.3964	1256.2	.5
303.15	.505	1265.55	.5
303.15	.6616	1282.36	.5
303.15	.7527	1295.49	.5
303.15	.8236	1308.44	.5
303.15	.9012	1324.72	.5
303.15	.9645	1340.45	.5
303.15	1	1350.55	.5
308.15	0	1229.72	.5
308.15	.0638	1232.4	.5
308.15	.1199	1234.9	.5
308.15	.2073	1239.87	.5
308.15	.2973	1245.5	.5
308.15	.3964	1252.5	.5
308.15	.505	1261.5	.5
308.15	.6616	1278.15	.5
308.15	.7527	1291.17	.5
308.15	.8236	1304	.5
308.15	.9012	1319.69	.5
308.15	.9645	1335.3	.5
308.15	1	1344.61	.5
313.15	0	1226.36	.5
313.15	.0638	1229	.5
313.15	.1199	1231.6	.5
313.15	.2073	1236.36	.5
313.15	.2973	1241.9	.5
313.15	.3964	1248.7	.5
313.15	.505	1257.6	.5
313.15	.6616	1274	.5
313.15	.7527	1286.8	.5
313.15	.8236	1299.5	.5
313.15	.9012	1314.64	.5
313.15	.9645	1329.4	.5
313.15	1	1338.56	.5
318.15	0	1223	.5
318.15	.0638	1225.55	.5
318.15	.1199	1228.1	.5
318.15	.2073	1232.86	.5
318.15	.2973	1238.2	.5
318.15	.3964	1245.1	.5
318.15	.505	1253.9	.5
318.15	.6616	1270	.5
318.15	.7527	1282.3	.5
318.15	.8236	1294.6	.5
318.15	.9012	1309.58	.5
318.15	.9645	1323.7	.5
318.15	1	1332.47	.5

System: 1,3-dichloro-2-propanol + allyl alcohol + 1-ethyl-3-methylimidazolium ethyl sulfate; phases: Liquid
Fixed: Pressure, kPa = 87
Property: Mass density, kg/m3 (Liquid); method: Vibrating tube method
Temperature, K	Mole fraction of 1-ethyl-3-methylimidazolium ethyl sulfate	Mole fraction of allyl alcohol	Mass density, kg/m3	uncertainty
298.15	.0149	.8799	937.2	.5
298.15	.0156	.0567	1332.99	.5
298.15	.0263	.1549	1293.97	.5
298.15	.0268	.1184	1307.09	.5
298.15	.0282	.9177	917.23	.5
298.15	.0354	.7074	1042.12	.5
298.15	.0381	.6151	1091.18	.5
298.15	.0516	.2055	1268.81	.5
298.15	.0668	.5671	1114.3	.5
298.15	.0834	.3373	1213.11	.5
298.15	.1136	.4731	1154.42	.5
298.15	.1271	.4459	1165.1	.5
298.15	.1571	.5545	1119.2	.5
298.15	.1947	.4933	1144.62	.5
298.15	.2243	.2686	1221.33	.5
298.15	.3188	.0677	1271.64	.5
298.15	.3308	.3349	1192.49	.5
298.15	.3561	.1616	1241.38	.5
298.15	.412	.1659	1236.02	.5
298.15	.4487	.4384	1158.54	.5
298.15	.5678	.1531	1227.7	.5
298.15	.6564	.084	1238.67	.5
298.15	.7175	.1898	1212.74	.5
298.15	.8273	.1205	1222.22	.5
298.15	.9013	.0781	1226.87	.5
303.15	.0149	.8799	932.71	.5
303.15	.0156	.0567	1327.32	.5
303.15	.0263	.1549	1288.54	.5
303.15	.0268	.1184	1301.62	.5
303.15	.0282	.9177	912.9	.5
303.15	.0354	.7074	1037.53	.5
303.15	.0381	.6151	1086.47	.5
303.15	.0516	.2055	1263.67	.5
303.15	.0668	.5671	1109.7	.5
303.15	.0834	.3373	1208.35	.5
303.15	.1136	.4731	1149.96	.5
303.15	.1271	.4459	1160.67	.5
303.15	.1571	.5545	1114.97	.5
303.15	.1947	.4933	1140.46	.5
303.15	.2243	.2686	1217.11	.5
303.15	.3188	.0677	1267.53	.5
303.15	.3308	.3349	1188.5	.5
303.15	.3561	.1616	1237.4	.5
303.15	.412	.1659	1232.15	.5
303.15	.4487	.4384	1154.66	.5
303.15	.5678	.1531	1224.04	.5
303.15	.6564	.084	1235.1	.5
303.15	.7175	.1898	1209.25	.5
303.15	.8273	.1205	1218.79	.5
303.15	.9013	.0781	1223.48	.5
308.15	.0149	.8799	928.17	.5
308.15	.0156	.0567	1321.56	.5
308.15	.0263	.1549	1283.02	.5
308.15	.0268	.1184	1296.06	.5
308.15	.0282	.9177	908.5	.5
308.15	.0354	.7074	1032.71	.5
308.15	.0381	.6151	1081.67	.5
308.15	.0516	.2055	1258.46	.5
308.15	.0668	.5671	1105.1	.5
308.15	.0834	.3373	1203.53	.5
308.15	.1136	.4731	1145.43	.5
308.15	.1271	.4459	1156.18	.5
308.15	.1571	.5545	1110.69	.5
308.15	.1947	.4933	1136.26	.5
308.15	.2243	.2686	1212.85	.5
308.15	.3188	.0677	1263.39	.5
308.15	.3308	.3349	1184.5	.5
308.15	.3561	.1616	1233.39	.5
308.15	.412	.1659	1228.24	.5
308.15	.4487	.4384	1150.64	.5
308.15	.5678	.1531	1220.35	.5
308.15	.6564	.084	1231.48	.5
308.15	.7175	.1898	1205.73	.5
308.15	.8273	.1205	1215.34	.5
308.15	.9013	.0781	1220.06	.5
313.15	.0149	.8799	923.59	.5
313.15	.0156	.0567	1315.77	.5
313.15	.0263	.1549	1277.47	.5
313.15	.0268	.1184	1290.48	.5
313.15	.0282	.9177	904.09	.5
313.15	.0354	.7074	1028.17	.5
313.15	.0381	.6151	1076.85	.5
313.15	.0516	.2055	1253.23	.5
313.15	.0668	.5671	1100.41	.5
313.15	.0834	.3373	1198.7	.5
313.15	.1136	.4731	1140.9	.5
313.15	.1271	.4459	1151.7	.5
313.15	.1571	.5545	1106.41	.5
313.15	.1947	.4933	1132.07	.5
313.15	.2243	.2686	1208.59	.5
313.15	.3188	.0677	1259.26	.5
313.15	.3308	.3349	1180.52	.5
313.15	.3561	.1616	1229.39	.5
313.15	.412	.1659	1224.34	.5
313.15	.4487	.4384	1146.41	.5
313.15	.5678	.1531	1216.66	.5
313.15	.6564	.084	1227.87	.5
313.15	.7175	.1898	1202.25	.5
313.15	.8273	.1205	1211.9	.5
313.15	.9013	.0781	1216.66	.5
318.15	.0149	.8799	918.97	.5
318.15	.0156	.0567	1309.96	.5
318.15	.0263	.1549	1271.85	.5
318.15	.0268	.1184	1284.87	.5
318.15	.0282	.9177	899.63	.5
318.15	.0354	.7074	1023.46	.5
318.15	.0381	.6151	1072	.5
318.15	.0516	.2055	1247.97	.5
318.15	.0668	.5671	1095.65	.5
318.15	.0834	.3373	1193.86	.5
318.15	.1136	.4731	1136.48	.5
318.15	.1271	.4459	1147.2	.5
318.15	.1571	.5545	1102.13	.5
318.15	.1947	.4933	1127.88	.5
318.15	.2243	.2686	1204.33	.5
318.15	.3188	.0677	1255.14	.5
318.15	.3308	.3349	1176.62	.5
318.15	.3561	.1616	1225.4	.5
318.15	.412	.1659	1220.45	.5
318.15	.4487	.4384	1143.54	.5
318.15	.5678	.1531	1212.99	.5
318.15	.6564	.084	1224.27	.5
318.15	.7175	.1898	1198.77	.5
318.15	.8273	.1205	1208.47	.5
318.15	.9013	.0781	1213.26	.5
