Measured thermophysical data. Sublimation and vapour pressure estimation of l-leucine using  thermogravimetric analysis
Source: Thermochim. Acta, 2009, 10.1016/j.tca.2008.10.009
Compound 1: L-leucine, C6H13NO2

System: L-leucine; phases: Crystal, Gas
Property: Vapor or sublimation pressure, kPa (Crystal); method: Rate of evaporation
Temperature, K	Vapor or sublimation pressure, kPa	uncertainty
420.7	.0009	.000225
440.3	.0029	.000725
469.9	.0425	.010625
499.2	.5263	.131575
517.5	2.1623	.540575
