Measured thermophysical data. Fruit Sugar-based Deep Eutectic Solvents and their Physical Properties
Source: Thermochim. Acta, 2012, 10.1016/j.tca.2012.04.030
Compound 1: choline chloride, C5H14ClNO, purity 98%
Compound 2: D-fructose, C6H12O6, purity 98%

System: D-fructose + choline chloride; phases: Liquid
Fixed: Pressure, kPa = 101
Property: Mass density, kg/m3 (Liquid); method: Vibrating tube method
Amount ratio of solute to solvent of choline chloride	Temperature, K	Mass density, kg/m3	uncertainty
1	298.15	1337	.01
1	308.15	1331.6	.01
1	318.15	1326.2	.01
1	328.15	1320.7	.01
1	338.15	1315.2	.01
1	348.15	1309.3	.01
1	358.15	1303.1	.01
1.5	298.15	1303.6	.01
1.5	308.15	1298.2	.01
1.5	318.15	1292.7	.01
1.5	328.15	1287.3	.01
1.5	338.15	1281.8	.01
1.5	348.15	1275.9	.01
1.5	358.15	1269.7	.01
2	298.15	1277.9	.01
2	308.15	1272.5	.01
2	318.15	1266.9	.01
2	328.15	1261.2	.01
2	338.15	1255.5	.01
2	348.15	1249.7	.01
2	358.15	1241.9	.01
2.5	298.15	1259	.01
2.5	308.15	1253.7	.01
2.5	318.15	1248.5	.01
2.5	328.15	1243.3	.01
2.5	338.15	1237.9	.01
2.5	348.15	1232.4	.01
2.5	358.15	1226.9	.01

System: D-fructose + choline chloride; phases: Liquid
Fixed: Pressure, kPa = 101
Property: Viscosity, Pa*s (Liquid); method: Concentric cylinders viscometry
Amount ratio of solute to solvent of choline chloride	Temperature, K	Viscosity, Pa*s	uncertainty
1	298.15	14.3474	.71737
1	308.15	7.7229	.386145
1	318.15	4.0505	.202525
1	328.15	1.4159	.070795
1	338.15	.8065	.040325
1	348.15	.4597	.022985
1	358.15	.2806	.01403
1.5	298.15	12.7725	.638625
1.5	308.15	7.1261	.356305
1.5	318.15	3.071	.15355
1.5	328.15	1.2711	.063555
1.5	338.15	.6984	.03492
1.5	348.15	.3531	.017655
1.5	358.15	.2361	.011805
2	298.15	11.7331	.586655
2	308.15	6.1371	.306855
2	318.15	2.457	.12285
2	328.15	1.2617	.063085
2	338.15	.5707	.028535
2	348.15	.2853	.014265
2	358.15	.1293	.006465
2.5	298.15	17.6455	.882275
2.5	308.15	8.55656	.427828
2.5	318.15	4.4617	.223085
2.5	328.15	1.2675	.063375
2.5	338.15	.6154	.03077
2.5	348.15	.3255	.016275
2.5	358.15	.1826	.00913

System: D-fructose + choline chloride; phases: Liquid, Air at 1 atmosphere
Property: Surface tension liquid-gas, N/m (Liquid); method: Ring tensiometer
Amount ratio of solute to solvent of choline chloride	Temperature, K	Surface tension liquid-gas, N/m	uncertainty
1	298.15	.0704	.00001
1	308.15	.068	.00001
1	318.15	.066	.00001
1	328.15	.0644	.00001
1	338.15	.0626	.00001
1	348.15	.061	.00001
1	358.15	.059	.00001
1.5	298.15	.0736	.00001
1.5	308.15	.0717	.00001
1.5	318.15	.0695	.00001
1.5	328.15	.0673	.00001
1.5	338.15	.0656	.00001
1.5	348.15	.063	.00001
1.5	358.15	.0613	.00001
2	298.15	.074	.00001
2	308.15	.072	.00001
2	318.15	.07	.00001
2	328.15	.068	.00001
2	338.15	.066	.00001
2	348.15	.064	.00001
2	358.15	.062	.00001
2.5	298.15	.075	.00001
2.5	308.15	.073	.00001
2.5	318.15	.071	.00001
2.5	328.15	.069	.00001
2.5	338.15	.067	.00001
2.5	348.15	.065	.00001
2.5	358.15	.063	.00001

System: D-fructose + choline chloride; phases: Liquid
Fixed: Pressure, kPa = 101
Property: Refractive index (Na D-line) (Liquid); method: Standard Abbe refractometry
Amount ratio of solute to solvent of choline chloride	Temperature, K	Refractive index (Na D-line)	uncertainty
1	298.15	1.523	.007
1	308.15	1.521	.007
1	318.15	1.52	.007
1	328.15	1.518	.007
1	338.15	1.515	.007
1	348.15	1.513	.007
1	358.15	1.512	.007
1.5	298.15	1.521	.007
1.5	308.15	1.519	.007
1.5	318.15	1.517	.007
1.5	328.15	1.515	.007
1.5	338.15	1.512	.007
1.5	348.15	1.511	.007
1.5	358.15	1.509	.007
2	298.15	1.519	.007
2	308.15	1.518	.007
2	318.15	1.515	.007
2	328.15	1.514	.007
2	338.15	1.511	.007
2	348.15	1.509	.007
2	358.15	1.507	.007
2.5	298.15	1.522	.007
2.5	308.15	1.52	.007
2.5	318.15	1.517	.007
2.5	328.15	1.516	.007
2.5	338.15	1.514	.007
2.5	348.15	1.512	.007
2.5	358.15	1.51	.007

System: D-fructose + choline chloride; phases: Liquid, Crystal
Fixed: Pressure, kPa = 101
Property: Solid-liquid equilibrium temperature, K (Liquid); method: Visual observation
Amount ratio of solute to solvent of choline chloride	Solid-liquid equilibrium temperature, K	uncertainty
1	293.15	1
1.5	286.15	1

System: D-fructose + choline chloride; phases: Liquid, Crystal
Fixed: Pressure, kPa = 101
Property: Solid-liquid equilibrium temperature, K (Liquid); method: Visual observation
Amount ratio of solute to solvent of choline chloride	Solid-liquid equilibrium temperature, K	uncertainty
2	283.15	1
2.5	310.15	1
