Measured thermophysical data. Volumetric and transport properties of ternary mixtures containing 1-propanol, triethylamine or tri-n-butylamine and cyclohexane at 303.15 K: Experimental data, correlation and prediction by ERAS model
Source: Thermochim. Acta, 2008, 10.1016/j.tca.2008.09.006
Compound 1: cyclohexane, C6H12
Compound 2: 1-propanol, C3H8O
Compound 3: triethylamine, C6H15N
Compound 4: tributylamine, C12H27N

System: cyclohexane; phases: Liquid
Property: Mass density, kg/m3 (Liquid); method: Vibrating tube method
Pressure, kPa	Temperature, K	Mass density, kg/m3	uncertainty
101	303.15	769.16	.02

System: cyclohexane; phases: Liquid
Property: Viscosity, Pa*s (Liquid); method: Capillary tube (Ostwald; Ubbelohde) method
Temperature, K	Pressure, kPa	Viscosity, Pa*s	uncertainty
303.15	101	.000819	.000002

System: 1-propanol; phases: Liquid
Property: Mass density, kg/m3 (Liquid); method: Vibrating tube method
Pressure, kPa	Temperature, K	Mass density, kg/m3	uncertainty
101	303.15	795.66	.02

System: 1-propanol; phases: Liquid
Property: Viscosity, Pa*s (Liquid); method: Capillary tube (Ostwald; Ubbelohde) method
Temperature, K	Pressure, kPa	Viscosity, Pa*s	uncertainty
303.15	101	.001727	.000002

System: triethylamine; phases: Liquid
Property: Mass density, kg/m3 (Liquid); method: Vibrating tube method
Pressure, kPa	Temperature, K	Mass density, kg/m3	uncertainty
101	303.15	718.45	.02

System: triethylamine; phases: Liquid
Property: Viscosity, Pa*s (Liquid); method: Capillary tube (Ostwald; Ubbelohde) method
Temperature, K	Pressure, kPa	Viscosity, Pa*s	uncertainty
303.15	101	.00033	.000002

System: tributylamine; phases: Liquid
Property: Mass density, kg/m3 (Liquid); method: Vibrating tube method
Pressure, kPa	Temperature, K	Mass density, kg/m3	uncertainty
101	303.15	770.39	.02

System: tributylamine; phases: Liquid
Property: Viscosity, Pa*s (Liquid); method: Capillary tube (Ostwald; Ubbelohde) method
Temperature, K	Pressure, kPa	Viscosity, Pa*s	uncertainty
303.15	101	.001167	.000002

System: cyclohexane + triethylamine; phases: Liquid
Fixed: Pressure, kPa = 101
Fixed: Temperature, K = 303.15
Property: Mass density, kg/m3 (Liquid); method: Vibrating tube method
Mole fraction of triethylamine	Mass density, kg/m3	uncertainty
0	769.16	.02
.0995	761.78	.02
.1947	755.57	.02
.291	749.84	.02
.3963	744.18	.02
.4999	739.03	.02
.5961	734.6	.02
.6989	730.17	.02
.7968	726.09	.02
.8973	722.21	.02
1	718.45	.02

System: cyclohexane + triethylamine; phases: Liquid
Fixed: Temperature, K = 303.15
Fixed: Pressure, kPa = 101
Property: Viscosity, Pa*s (Liquid); method: Capillary tube (Ostwald; Ubbelohde) method
Mole fraction of triethylamine	Viscosity, Pa*s	uncertainty
0	.000819	.000002
.0995	.000697	.000002
.1947	.000614	.000002
.291	.000548	.000002
.3963	.000495	.000002
.4999	.000453	.000002
.5961	.00042	.000002
.6989	.000392	.000002
.7968	.000374	.000002
.8973	.000348	.000002
1	.00033	.000002

System: tributylamine + cyclohexane; phases: Liquid
Fixed: Pressure, kPa = 101
Fixed: Temperature, K = 303.15
Property: Mass density, kg/m3 (Liquid); method: Vibrating tube method
Mole fraction of tributylamine	Mass density, kg/m3	uncertainty
0	769.16	.02
.1023	768.32	.02
.2014	768.09	.02
.3008	768.17	.02
.4016	768.42	.02
.5002	768.78	.02
.6018	769.15	.02
.7021	769.57	.02
.8012	769.85	.02
.9024	770.12	.02
1	770.39	.02

System: tributylamine + cyclohexane; phases: Liquid
Fixed: Temperature, K = 303.15
Fixed: Pressure, kPa = 101
Property: Viscosity, Pa*s (Liquid); method: Capillary tube (Ostwald; Ubbelohde) method
Mole fraction of tributylamine	Viscosity, Pa*s	uncertainty
0	.000819	.000002
.1023	.000848	.000002
.2014	.000878	.000002
.3008	.000914	.000002
.4016	.000947	.000002
.5002	.000985	.000002
.6018	.001025	.000002
.7021	.001058	.000002
.8012	.001096	.000002
.9024	.00113	.000002
1	.001167	.000002

System: 1-propanol + cyclohexane; phases: Liquid
Fixed: Pressure, kPa = 101
Fixed: Temperature, K = 303.15
Property: Mass density, kg/m3 (Liquid); method: Vibrating tube method
Mole fraction of 1-propanol	Mass density, kg/m3	uncertainty
0	769.16	.02
.1021	769.52	.02
.2112	770.68	.02
.3122	772.37	.02
.4211	774.63	.02
.5151	776.9	.02
.6203	779.94	.02
.7208	783.15	.02
.8143	786.73	.02
.9079	790.83	.02
1	795.66	.02

System: 1-propanol + cyclohexane; phases: Liquid
Fixed: Temperature, K = 303.15
Fixed: Pressure, kPa = 101
Property: Viscosity, Pa*s (Liquid); method: Capillary tube (Ostwald; Ubbelohde) method
Mole fraction of 1-propanol	Viscosity, Pa*s	uncertainty
0	.000819	.000002
.1021	.000832	.000002
.2112	.000872	.000002
.3122	.000922	.000002
.4211	.000986	.000002
.5151	.001053	.000002
.6203	.001148	.000002
.7208	.001264	.000002
.8143	.001398	.000002
.9079	.001555	.000002
1	.001727	.000002

System: 1-propanol + triethylamine; phases: Liquid
Fixed: Pressure, kPa = 101
Fixed: Temperature, K = 303.15
Property: Mass density, kg/m3 (Liquid); method: Vibrating tube method
Mole fraction of triethylamine	Mass density, kg/m3	uncertainty
0	795.66	.02
.2007	783.21	.02
.295	775.99	.02
.3226	773.73	.02
.393	767.95	.02
.4852	760.11	.02
.6128	749.28	.02
.7308	739.53	.02
.7637	736.85	.02
.8776	727.89	.02
1	718.45	.02

System: 1-propanol + triethylamine; phases: Liquid
Fixed: Temperature, K = 303.15
Fixed: Pressure, kPa = 101
Property: Viscosity, Pa*s (Liquid); method: Capillary tube (Ostwald; Ubbelohde) method
Mole fraction of triethylamine	Viscosity, Pa*s	uncertainty
0	.001727	.000002
.2007	.001189	.000002
.295	.001007	.000002
.3226	.000954	.000002
.393	.000845	.000002
.4852	.000719	.000002
.6128	.000574	.000002
.7308	.00047	.000002
.7637	.000444	.000002
.8776	.000375	.000002
1	.00033	.000002

System: 1-propanol + tributylamine; phases: Liquid
Fixed: Pressure, kPa = 101
Fixed: Temperature, K = 303.15
Property: Mass density, kg/m3 (Liquid); method: Vibrating tube method
Mole fraction of tributylamine	Mass density, kg/m3	uncertainty
0	795.66	.02
.0986	791.71	.02
.1991	788.31	.02
.2978	785.47	.02
.4984	780.18	.02
.5992	777.82	.02
.6031	777.75	.02
.6981	775.71	.02
.7989	773.78	.02
.8988	771.94	.02
1	770.39	.02

System: 1-propanol + tributylamine; phases: Liquid
Fixed: Temperature, K = 303.15
Fixed: Pressure, kPa = 101
Property: Viscosity, Pa*s (Liquid); method: Capillary tube (Ostwald; Ubbelohde) method
Mole fraction of tributylamine	Viscosity, Pa*s	uncertainty
0	.001727	.000002
.0986	.001695	.000002
.1991	.00166	.000002
.2978	.001619	.000002
.4984	.001514	.000002
.5992	.001449	.000002
.6031	.001445	.000002
.6981	.001378	.000002
.7989	.001302	.000002
.8988	.001233	.000002
1	.001167	.000002

System: 1-propanol + cyclohexane + triethylamine; phases: Liquid
Fixed: Temperature, K = 313.15
Fixed: Pressure, kPa = 101
Property: Mass density, kg/m3 (Liquid); method: Vibrating tube method
Mole fraction of 1-propanol	Mole fraction of triethylamine	Mass density, kg/m3	uncertainty
.6578	.0575	779.77	.02
.6102	.1257	776.37	.02
.5586	.1996	772.33	.02
.492	.295	766.6	.02
.4325	.3803	761.11	.02
.3684	.4721	754.93	.02
.2914	.5825	747.18	.02
.2087	.701	738.79	.02
.1063	.8477	728.55	.02
.4716	.0542	774.64	.02
.4279	.1418	770.91	.02
.3917	.2144	767.24	.02
.3435	.3111	761.77	.02
.2982	.4019	756.22	.02
.251	.4966	750.09	.02
.198	.6029	743.12	.02
.1371	.725	735.15	.02
.0745	.8506	727.21	.02
.2793	.0742	769.59	.02
.2563	.1505	766.24	.02
.2337	.2254	762.5	.02
.2061	.3169	757.44	.02
.1775	.4183	751.39	.02
.1463	.5151	745.48	.02
.1135	.6238	738.9	.02
.0792	.7375	732.25	.02
.0414	.8628	725.37	.02

System: 1-propanol + cyclohexane + triethylamine; phases: Liquid
Fixed: Temperature, K = 303.15
Fixed: Pressure, kPa = 101
Property: Viscosity, Pa*s (Liquid); method: Capillary tube (Ostwald; Ubbelohde) method
Mole fraction of 1-propanol	Mole fraction of triethylamine	Viscosity, Pa*s	uncertainty
.6578	.0575	.001141	.000002
.6102	.1257	.001034	.000002
.5586	.1996	.000928	.000002
.492	.295	.000811	.000002
.4325	.3803	.000714	.000002
.3684	.4721	.000616	.000002
.2914	.5825	.000535	.000002
.2087	.701	.000451	.000002
.1063	.8477	.000381	.000002
.4716	.0542	.000981	.000002
.4279	.1418	.000879	.000002
.3917	.2144	.000801	.000002
.3435	.3111	.000714	.000002
.2982	.4019	.000631	.000002
.251	.4966	.000559	.000002
.198	.6029	.000492	.000002
.1371	.725	.000425	.000002
.0745	.8506	.00037	.000002
.2793	.0742	.000848	.000002
.2563	.1505	.000778	.000002
.2337	.2254	.000708	.000002
.2061	.3169	.00064	.000002
.1775	.4183	.000574	.000002
.1463	.5151	.000518	.000002
.1135	.6238	.000462	.000002
.0792	.7375	.000413	.000002
.0414	.8628	.000363	.000002

System: 1-propanol + tributylamine + cyclohexane; phases: Liquid
Fixed: Temperature, K = 313.15
Fixed: Pressure, kPa = 101
Property: Mass density, kg/m3 (Liquid); method: Vibrating tube method
Mole fraction of 1-propanol	Mole fraction of tributylamine	Mass density, kg/m3	uncertainty
.6683	.0261	781.68	.02
.6257	.0881	780.98	.02
.5898	.1406	780.37	.02
.5529	.1942	779.84	.02
.5016	.269	779.09	.02
.4395	.3595	778.16	.02
.3741	.4549	777.04	.02
.2909	.5761	775.51	.02
.1696	.7529	773.17	.02
.4687	.0555	776.5	.02
.4497	.094	776.49	.02
.4235	.1468	776.42	.02
.3893	.2156	776.27	.02
.3547	.2853	775.96	.02
.3097	.376	775.53	.02
.2545	.4873	774.71	.02
.1935	.6101	773.63	.02
.1146	.769	772.14	.02
.2904	.0337	772.44	.02
.2697	.1024	772.87	.02
.2533	.157	773.09	.02
.2335	.2228	773.11	.02
.2119	.2948	773.08	.02
.202	.3277	773.03	.02
.1869	.378	772.92	.02
.1127	.6251	771.97	.02
.0689	.7707	771.26	.02

System: 1-propanol + tributylamine + cyclohexane; phases: Liquid
Fixed: Temperature, K = 303.15
Fixed: Pressure, kPa = 101
Property: Viscosity, Pa*s (Liquid); method: Capillary tube (Ostwald; Ubbelohde) method
Mole fraction of 1-propanol	Mole fraction of tributylamine	Viscosity, Pa*s	uncertainty
.6683	.0261	.001239	.000002
.6257	.0881	.001261	.000002
.5898	.1406	.001275	.000002
.5529	.1942	.001301	.000002
.5016	.269	.00132	.000002
.4395	.3595	.001351	.000002
.3741	.4549	.001368	.000002
.2909	.5761	.001353	.000002
.1696	.7529	.001282	.000002
.4687	.0555	.001068	.000002
.4497	.094	.001085	.000002
.4235	.1468	.001107	.000002
.3893	.2156	.001151	.000002
.3547	.2853	.001188	.000002
.3097	.376	.001231	.000002
.2545	.4873	.001263	.000002
.1935	.6101	.001275	.000002
.1146	.769	.001232	.000002
.2904	.0337	.000927	.000002
.2697	.1024	.000957	.000002
.2533	.157	.000982	.000002
.2335	.2228	.00103	.000002
.2119	.2948	.001067	.000002
.202	.3277	.001089	.000002
.1869	.378	.00111	.000002
.1127	.6251	.001182	.000002
.0689	.7707	.001182	.000002
