Measured thermophysical data. Thermodynamics of mixtures with strong negative deviations from raoult's law. XIV. density, permittivity, refractive index and viscosity data for the methanol + cyclohexylamine mixture at (293.15-303.15) K
Source: Thermochim. Acta, 2016, 10.1016/j.tca.2016.03.002
Compound 1: methanol, CH4O, purity 99.8%
Compound 2: cyclohexylamine, C6H13N, purity 99%

System: methanol; phases: Liquid
Property: Viscosity, Pa*s (Liquid); method: Capillary tube (Ostwald; Ubbelohde) method
Pressure, kPa	Temperature, K	Viscosity, Pa*s	uncertainty
100	293.15	.000585	
100	298.15	.000545	
100	303.15	.000508	

System: methanol; phases: Liquid
Property: Mass density, kg/m3 (Liquid); method: Vibrating tube method
Pressure, kPa	Temperature, K	Mass density, kg/m3	uncertainty
100	293.15	791.414	
100	298.15	786.716	
100	303.15	782.032	

System: methanol; phases: Liquid
Property: Refractive index (Na D-line) (Liquid); method: Standard Abbe refractometry
Pressure, kPa	Temperature, K	Refractive index (Na D-line)	uncertainty
100	293.15	1.32866	
100	298.15	1.32682	
100	303.15	1.32444	

System: methanol; phases: Liquid
Fixed: Frequency, MHz = 30
Property: Relative permittivity at various frequencies (Liquid); method: Parallel plate capacitor
Pressure, kPa	Temperature, K	Relative permittivity at various frequencies	uncertainty
100	293.15	33.6	
100	298.15	32.62	
100	303.15	31.67	

System: cyclohexylamine; phases: Liquid
Property: Mass density, kg/m3 (Liquid); method: Vibrating tube method
Pressure, kPa	Temperature, K	Mass density, kg/m3	uncertainty
100	293.15	866.86	
100	298.15	862.315	
100	303.15	857.774	

System: cyclohexylamine; phases: Liquid
Property: Viscosity, Pa*s (Liquid); method: Capillary tube (Ostwald; Ubbelohde) method
Pressure, kPa	Temperature, K	Viscosity, Pa*s	uncertainty
100	293.15	.002142	
100	298.15	.001908	
100	303.15	.001697	

System: cyclohexylamine; phases: Liquid
Property: Refractive index (Na D-line) (Liquid); method: Standard Abbe refractometry
Pressure, kPa	Temperature, K	Refractive index (Na D-line)	uncertainty
100	293.15	1.45934	
100	298.15	1.45663	
100	303.15	1.45325	

System: cyclohexylamine; phases: Liquid
Fixed: Frequency, MHz = 30
Property: Relative permittivity at various frequencies (Liquid); method: Parallel plate capacitor
Pressure, kPa	Temperature, K	Relative permittivity at various frequencies	uncertainty
100	293.15	4.65	
100	298.15	4.56	
100	303.15	4.47	

System: methanol + cyclohexylamine; phases: Liquid
Fixed: Pressure, kPa = 100
Property: Mass density, kg/m3 (Liquid); method: Vibrating tube method
Temperature, K	Mole fraction of methanol	Mass density, kg/m3	uncertainty
293.15	.0666	867.932	
293.15	.1108	868.284	
293.15	.2089	869.337	
293.15	.3043	869.454	
293.15	.4097	868.83	
293.15	.4479	868.248	
293.15	.493	867.202	
293.15	.5478	865.137	
293.15	.5961	862.688	
293.15	.659	858.061	
293.15	.7014	853.915	
293.15	.798	841.114	
293.15	.8992	820.891	
293.15	.9503	807.371	
298.15	.0666	863.427	
298.15	.1108	863.705	
298.15	.2089	864.848	
298.15	.3043	864.932	
298.15	.4097	864.276	
298.15	.4479	863.674	
298.15	.493	862.605	
298.15	.5478	860.518	
298.15	.5961	858.069	
298.15	.659	853.437	
298.15	.7014	849.321	
298.15	.798	836.513	
298.15	.8992	816.251	
298.15	.9503	802.691	
303.15	.0666	858.919	
303.15	.1108	859.196	
303.15	.2089	860.385	
303.15	.3043	860.42	
303.15	.4097	859.728	
303.15	.4479	859.094	
303.15	.4931	858.005	
303.15	.5478	855.9	
303.15	.5966	853.451	
303.15	.659	848.818	
303.15	.7014	844.723	
303.15	.798	831.905	
303.15	.8992	811.617	
303.15	.9503	798.008	
293.15	0	866.86	
298.15	0	862.315	
303.15	0	857.774	
293.15	1	791.414	
298.15	1	786.716	
303.15	1	782.032	

System: methanol + cyclohexylamine; phases: Liquid
Fixed: Pressure, kPa = 100
Property: Viscosity, Pa*s (Liquid); method: Capillary tube (Ostwald; Ubbelohde) method
Temperature, K	Mole fraction of methanol	Viscosity, Pa*s	uncertainty
293.15	.0666	.00216	
293.15	.1108	.00217	
293.15	.2089	.00218	
293.15	.3043	.00219	
293.15	.4097	.00216	
293.15	.4479	.00213	
293.15	.493	.00207	
293.15	.5478	.00199	
293.15	.5961	.00189	
293.15	.659	.0017	
293.15	.7014	.00156	
293.15	.798	.00122	
293.15	.8992	.00089	
293.15	.9503	.00072	
298.15	.0666	.00192	
298.15	.1108	.00193	
298.15	.2089	.00194	
298.15	.3043	.00194	
298.15	.4097	.00191	
298.15	.4479	.00188	
298.15	.493	.00183	
298.15	.5478	.00176	
298.15	.5961	.00167	
298.15	.659	.00152	
298.15	.7014	.0014	
298.15	.798	.00111	
298.15	.8992	.00078	
298.15	.9503	.00067	
303.15	.0666	.00171	
303.15	.1108	.00171	
303.15	.2089	.00172	
303.15	.3043	.00172	
303.15	.4097	.00169	
303.15	.4479	.00166	
303.15	.4931	.00162	
303.15	.5478	.00156	
303.15	.5966	.00148	
303.15	.659	.00135	
303.15	.7014	.00126	
303.15	.798	.00104	
303.15	.8992	.00075	
303.15	.9503	.00062	
293.15	0	.002142	
298.15	0	.001908	
303.15	0	.001697	
293.15	1	.000585	
298.15	1	.000545	
303.15	1	.000508	

System: methanol + cyclohexylamine; phases: Liquid
Fixed: Pressure, kPa = 100
Property: Refractive index (Na D-line) (Liquid); method: Standard Abbe refractometry
Temperature, K	Mole fraction of methanol	Refractive index (Na D-line)	uncertainty
293.15	.0702	1.45717	
293.15	.1177	1.45561	
293.15	.2006	1.45245	
293.15	.3049	1.44774	
293.15	.4041	1.44199	
293.15	.4986	1.43478	
293.15	.5392	1.43072	
293.15	.597	1.42424	
293.15	.6609	1.41597	
293.15	.7024	1.40945	
293.15	.7999	1.39047	
293.15	.8572	1.37655	
293.15	.8985	1.36493	
293.15	.9032	1.36365	
293.15	.949	1.34836	
298.15	.0702	1.45462	
298.15	.1177	1.45309	
298.15	.2006	1.45014	
298.15	.3049	1.44542	
298.15	.4041	1.43954	
298.15	.4986	1.43243	
298.15	.5392	1.42852	
298.15	.597	1.42256	
298.15	.6609	1.41393	
298.15	.7024	1.40787	
298.15	.7999	1.38877	
298.15	.8535	1.3759	
298.15	.8572	1.37494	
298.15	.8985	1.36313	
298.15	.949	1.34625	
303.15	.0702	1.45212	
303.15	.1177	1.45064	
303.15	.2006	1.44761	
303.15	.3049	1.4431	
303.15	.4041	1.43715	
303.15	.4986	1.42999	
303.15	.5392	1.42613	
303.15	.597	1.42012	
303.15	.6609	1.41198	
303.15	.7024	1.40569	
303.15	.746	1.39807	
303.15	.7999	1.38677	
303.15	.8572	1.37247	
303.15	.9032	1.35944	
303.15	.949	1.3444	
293.15	0	1.45934	
298.15	0	1.45663	
303.15	0	1.45325	
293.15	1	1.32866	
298.15	1	1.32682	
303.15	1	1.32444	

System: methanol + cyclohexylamine; phases: Liquid
Fixed: Pressure, kPa = 100
Fixed: Frequency, MHz = 30
Property: Relative permittivity at various frequencies (Liquid); method: Parallel plate capacitor
Temperature, K	Mole fraction of methanol	Relative permittivity at various frequencies	uncertainty
293.15	.0702	5.34	
293.15	.1177	5.88	
293.15	.2006	7.01	
293.15	.3049	8.78	
293.15	.4041	10.87	
293.15	.4986	13.26	
293.15	.5392	14.55	
293.15	.597	16.28	
293.15	.6609	18.6	
293.15	.6986	19.95	
293.15	.746	21.72	
293.15	.7997	23.89	
293.15	.8572	26.33	
293.15	.8985	28.32	
293.15	.949	30.74	
298.15	.0702	5.23	
298.15	.1177	5.75	
298.15	.2006	6.84	
298.15	.3049	8.55	
298.15	.4041	10.58	
298.15	.4986	12.88	
298.15	.5392	14.1	
298.15	.597	15.73	
298.15	.6609	18.05	
298.15	.6986	19.34	
298.15	.746	21.14	
298.15	.7997	23.16	
298.15	.8572	25.55	
298.15	.8985	27.5	
298.15	.949	29.87	
303.15	.0702	5.13	
303.15	.1177	5.63	
303.15	.2006	6.68	
303.15	.3049	8.32	
303.15	.4041	10.29	
303.15	.4986	12.47	
303.15	.5392	13.66	
303.15	.597	15.28	
303.15	.6609	17.5	
303.15	.6986	18.73	
303.15	.746	20.47	
303.15	.7997	22.46	
303.15	.8535	24.61	
303.15	.8985	26.7	
303.15	.949	28.96	
293.15	0	4.65	
298.15	0	4.56	
303.15	0	4.47	
293.15	1	33.6	
298.15	1	32.62	
303.15	1	31.67	
