Measured thermophysical data. Volumetric Properties, Viscosities, Refractive Indices and Surface Tensions for Aqueous N, ndimethylpropanolamine  (DMPA) Solutions From 298.15 K to 343.15 K
Source: Thermochim. Acta, 2012, 10.1016/j.tca.2012.05.025
Compound 1: 3-dimethylamino-1-propanol, C5H13NO, purity 99%
Compound 2: water, H2O, purity 99.95%

System: 3-dimethylamino-1-propanol; phases: Liquid
Property: Mass density, kg/m3 (Liquid); method: Vibrating tube method
Temperature, K	Pressure, kPa	Mass density, kg/m3	uncertainty
298.15	101	880.25	.05
303.15	101	876.46	.05
313.15	101	868.42	.05
323.15	101	860.29	.05
333.15	101	852.1	.05
343.15	101	843.77	.05

System: 3-dimethylamino-1-propanol; phases: Liquid
Property: Viscosity, Pa*s (Liquid); method: Capillary tube (Ostwald; Ubbelohde) method
Temperature, K	Pressure, kPa	Viscosity, Pa*s	uncertainty
298.15	101	.005839	.00005839
303.15	101	.004963	.00004963
313.15	101	.004266	.00004266
323.15	101	.003253	.00003253
333.15	101	.002768	.00002768
343.15	101	.00203	.0000203

System: 3-dimethylamino-1-propanol; phases: Liquid
Fixed: Pressure, kPa = 101.325
Property: Refractive index (Na D-line) (Liquid); method: Standard Abbe refractometry
Temperature, K	Refractive index (Na D-line)	uncertainty
333.15	1.42	.0001
293.15	1.4368	.0001
298.15	1.4347	.0001
303.15	1.4326	.0001
313.15	1.4285	.0001
318.15	1.4264	.0001
323.15	1.4243	.0001
328.15	1.4222	.0001
308.15	1.4305	.0001

System: 3-dimethylamino-1-propanol; phases: Liquid, Air at 1 atmosphere
Property: Surface tension liquid-gas, N/m (Liquid); method: roughened platinum plate-detachment
Temperature, K	Surface tension liquid-gas, N/m	uncertainty
298.15	.02901	.00005
303.15	.02928	.00005
308.15	.02888	.00005
313.15	.02847	.00005
318.15	.02813	.00005
323.15	.02763	.00005
333.15	.02681	.00005

System: water; phases: Liquid
Property: Mass density, kg/m3 (Liquid); method: Vibrating tube method
Temperature, K	Pressure, kPa	Mass density, kg/m3	uncertainty
298.15	101	997.04	.05
303.15	101	995.64	.05
313.15	101	992.21	.05
323.15	101	988.03	.05
333.15	101	983.19	.05
343.15	101	977.75	.05

System: water; phases: Liquid
Property: Viscosity, Pa*s (Liquid); method: Capillary tube (Ostwald; Ubbelohde) method
Temperature, K	Pressure, kPa	Viscosity, Pa*s	uncertainty
298.15	101	.000882	.00000882
303.15	101	.000804	.00000804
313.15	101	.000659	.00000659
323.15	101	.000551	.00000551
333.15	101	.00047	.0000047
343.15	101	.000407	.00000407

System: water; phases: Liquid, Air at 1 atmosphere
Property: Surface tension liquid-gas, N/m (Liquid); method: roughened platinum plate-detachment
Temperature, K	Surface tension liquid-gas, N/m	uncertainty
298.15	.07209	.00005
303.15	.07127	.00005
308.15	.07044	.00005
313.15	.06966	.00005
318.15	.06883	.00005
323.15	.06795	.00005
333.15	.06623	.00005

System: water; phases: Liquid
Fixed: Pressure, kPa = 101.325
Property: Refractive index (Na D-line) (Liquid); method: Standard Abbe refractometry
Temperature, K	Refractive index (Na D-line)	uncertainty
293.15	1.333	.0001
298.15	1.3325	.0001
303.15	1.3319	.0001
308.15	1.3314	.0001
313.15	1.3307	.0001
318.15	1.3299	.0001
323.15	1.3291	.0001
328.15	1.3282	.0001
333.15	1.3273	.0001

System: 3-dimethylamino-1-propanol + water; phases: Liquid
Fixed: Pressure, kPa = 101
Property: Mass density, kg/m3 (Liquid); method: Vibrating tube method
Temperature, K	Mole fraction of 3-dimethylamino-1-propanol	Mass density, kg/m3	uncertainty
298.15	0	997.04	.05
298.15	.1002	978.93	.05
298.15	.201	960.36	.05
298.15	.297	943.21	.05
298.15	.4001	929.16	.05
298.15	.5013	917.07	.05
298.15	.6019	907.19	.05
298.15	.6939	899.28	.05
298.15	.8006	891.51	.05
298.15	.8989	885.51	.05
298.15	1	880.25	.05
303.15	0	995.64	.05
303.15	.1002	975.53	.05
303.15	.201	956.53	.05
303.15	.297	939.37	.05
303.15	.4001	925.16	.05
303.15	.5013	913.1	.05
303.15	.6019	903.25	.05
303.15	.6939	895.35	.05
303.15	.8006	887.57	.05
303.15	.8989	881.52	.05
303.15	1	876.46	.05
313.15	0	992.21	.05
313.15	.1002	968.53	.05
313.15	.201	948.48	.05
313.15	.297	931.17	.05
313.15	.4001	916.99	.05
313.15	.5013	905.01	.05
313.15	.6019	895.21	.05
313.15	.6939	887.38	.05
313.15	.8006	879.6	.05
313.15	.8989	873.52	.05
313.15	1	868.42	.05
323.15	0	988.03	.05
323.15	.1002	961.28	.05
323.15	.201	940.25	.05
323.15	.297	922.77	.05
323.15	.4001	908.62	.05
323.15	.5013	896.72	.05
323.15	.6019	887.02	.05
323.15	.6939	879.25	.05
323.15	.8006	871.47	.05
323.15	.8989	865.41	.05
323.15	1	860.29	.05
333.15	0	983.19	.05
333.15	.1002	953.71	.05
333.15	.201	931.78	.05
333.15	.297	914.15	.05
333.15	.4001	900.04	.05
333.15	.5013	888.25	.05
333.15	.6019	878.64	.05
333.15	.6939	870.93	.05
333.15	.8006	863.22	.05
333.15	.8989	857.19	.05
333.15	1	852.1	.05
343.15	0	977.75	.05
343.15	.1002	945.85	.05
343.15	.201	923.1	.05
343.15	.297	905.31	.05
343.15	.4001	891.27	.05
343.15	.5013	879.56	.05
343.15	.6019	870.06	.05
343.15	.6939	862.44	.05
343.15	.8006	854.81	.05
343.15	.8989	848.84	.05
343.15	1	843.77	.05

System: 3-dimethylamino-1-propanol + water; phases: Liquid
Fixed: Pressure, kPa = 101
Property: Viscosity, Pa*s (Liquid); method: Capillary tube (Ostwald; Ubbelohde) method
Temperature, K	Mole fraction of 3-dimethylamino-1-propanol	Viscosity, Pa*s	uncertainty
298.15	0	.000882	.00000882
298.15	.1002	.006617	.00006617
298.15	.201	.014	.00014
298.15	.297	.0196	.000196
298.15	.4001	.0208	.000208
298.15	.5013	.0195	.000195
298.15	.6019	.0151	.000151
298.15	.6939	.0123	.000123
298.15	.8006	.009402	.00009402
298.15	.8989	.007474	.00007474
298.15	1	.005839	.00005839
303.15	0	.000804	.00000804
303.15	.1002	.005319	.00005319
303.15	.201	.0108	.000108
303.15	.297	.0144	.000144
303.15	.4001	.0159	.000159
303.15	.5013	.0156	.000156
303.15	.6019	.0119	.000119
303.15	.6939	.00994	.0000994
303.15	.8006	.007954	.00007954
303.15	.8989	.006226	.00006226
303.15	1	.004963	.00004963
313.15	0	.000659	.00000659
313.15	.1002	.003808	.00003808
313.15	.201	.007433	.00007433
313.15	.297	.0102	.000102
313.15	.4001	.011	.00011
313.15	.5013	.0107	.000107
313.15	.6019	.008899	.00008899
313.15	.6939	.007649	.00007649
313.15	.8006	.006319	.00006319
313.15	.8989	.005192	.00005192
313.15	1	.004266	.00004266
323.15	0	.000551	.00000551
323.15	.1002	.002743	.00002743
323.15	.201	.004975	.00004975
323.15	.297	.006606	.00006606
323.15	.4001	.007162	.00007162
323.15	.5013	.007031	.00007031
323.15	.6019	.006036	.00006036
323.15	.6939	.00528	.0000528
323.15	.8006	.004526	.00004526
323.15	.8989	.003848	.00003848
323.15	1	.003253	.00003253
333.15	0	.00047	.0000047
333.15	.1002	.002169	.00002169
333.15	.201	.003514	.00003514
333.15	.297	.004536	.00004536
333.15	.4001	.004707	.00004707
333.15	.5013	.004797	.00004797
333.15	.6019	.004286	.00004286
333.15	.6939	.003831	.00003831
333.15	.8006	.003369	.00003369
333.15	.8989	.00294	.0000294
333.15	1	.002768	.00002768
343.15	0	.000407	.00000407
343.15	.1002	.001686	.00001686
343.15	.201	.002575	.00002575
343.15	.297	.003262	.00003262
343.15	.4001	.003498	.00003498
343.15	.5013	.003428	.00003428
343.15	.6019	.003147	.00003147
343.15	.6939	.002861	.00002861
343.15	.8006	.002579	.00002579
343.15	.8989	.002322	.00002322
343.15	1	.00203	.0000203

System: 3-dimethylamino-1-propanol + water; phases: Liquid
Fixed: Pressure, kPa = 101
Property: Refractive index (Na D-line) (Liquid); method: Standard Abbe refractometry
Temperature, K	Mole fraction of 3-dimethylamino-1-propanol	Refractive index (Na D-line)	uncertainty
293.15	0	1.333	.0001
293.15	.098	1.3569	.0001
293.15	.197	1.3653	.0001
293.15	.293	1.3763	.0001
293.15	.398	1.4033	.0001
293.15	.5	1.4193	.0001
293.15	.598	1.4284	.0001
293.15	.7	1.4345	.0001
293.15	.795	1.4393	.0001
293.15	.9	1.443	.0001
293.15	1	1.4368	.0001
298.15	0	1.3325	.0001
298.15	.098	1.3562	.0001
298.15	.197	1.3644	.0001
298.15	.293	1.3752	.0001
298.15	.398	1.4018	.0001
298.15	.5	1.4172	.0001
298.15	.598	1.4268	.0001
298.15	.7	1.4329	.0001
298.15	.795	1.4377	.0001
298.15	.9	1.4405	.0001
298.15	1	1.4347	.0001
303.15	0	1.3319	.0001
303.15	.098	1.35534	.0001
303.15	.197	1.3635	.0001
303.15	.293	1.3742	.0001
303.15	.398	1.4004	.0001
303.15	.5	1.4155	.0001
303.15	.598	1.4251	.0001
303.15	.7	1.431	.0001
303.15	.795	1.4359	.0001
303.15	.9	1.439	.0001
303.15	1	1.4326	.0001
308.15	0	1.3314	.0001
308.15	.098	1.3545	.0001
308.15	.197	1.3625	.0001
308.15	.293	1.3731	.0001
308.15	.398	1.3987	.0001
308.15	.5	1.4139	.0001
308.15	.598	1.4233	.0001
308.15	.7	1.4291	.0001
308.15	.795	1.4338	.0001
308.15	.9	1.4369	.0001
308.15	1	1.4305	.0001
313.15	0	1.3307	.0001
313.15	.098	1.3537	.0001
313.15	.197	1.3615	.0001
313.15	.293	1.3719	.0001
313.15	.398	1.3972	.0001
313.15	.5	1.4121	.0001
313.15	.598	1.4216	.0001
313.15	.7	1.4273	.0001
313.15	.795	1.4319	.0001
313.15	.9	1.4349	.0001
313.15	1	1.4285	.0001
318.15	0	1.3299	.0001
318.15	.098	1.3528	.0001
318.15	.197	1.3605	.0001
318.15	.293	1.3708	.0001
318.15	.398	1.3956	.0001
318.15	.5	1.4105	.0001
318.15	.598	1.4199	.0001
318.15	.7	1.4255	.0001
318.15	.795	1.4302	.0001
318.15	.9	1.4324	.0001
318.15	1	1.4264	.0001
323.15	0	1.3291	.0001
323.15	.098	1.3517	.0001
323.15	.197	1.3593	.0001
323.15	.293	1.3696	.0001
323.15	.398	1.3947	.0001
323.15	.5	1.4088	.0001
323.15	.598	1.418	.0001
323.15	.7	1.4239	.0001
323.15	.795	1.4286	.0001
323.15	.9	1.4315	.0001
323.15	1	1.4243	.0001
328.15	0	1.3282	.0001
328.15	.098	1.3506	.0001
328.15	.197	1.3582	.0001
328.15	.293	1.3682	.0001
328.15	.398	1.3925	.0001
328.15	.5	1.4072	.0001
328.15	.598	1.4164	.0001
328.15	.7	1.4226	.0001
328.15	.795	1.427	.0001
328.15	.9	1.4301	.0001
328.15	1	1.4222	.0001
333.15	0	1.3273	.0001
333.15	.098	1.3502	.0001
333.15	.197	1.3571	.0001
333.15	.293	1.3671	.0001
333.15	.398	1.391	.0001
333.15	.5	1.4056	.0001
333.15	.598	1.4146	.0001
333.15	.7	1.4204	.0001
333.15	.795	1.4245	.0001
333.15	.9	1.4278	.0001
333.15	1	1.42	.0001

System: 3-dimethylamino-1-propanol + water; phases: Liquid, Air at 1 atmosphere
Property: Surface tension liquid-gas, N/m (Liquid); method: roughened platinum plate-detachment
Temperature, K	Mole fraction of 3-dimethylamino-1-propanol	Surface tension liquid-gas, N/m	uncertainty
298.15	0	.07209	.001
298.15	.0979	.03693	.001
298.15	.1971	.03521	.001
298.15	.2927	.03339	.001
298.15	.3979	.03202	.001
298.15	.4996	.03104	.001
298.15	.5975	.03056	.001
298.15	.6998	.02987	.001
298.15	.7946	.02933	.001
298.15	.8997	.02822	.001
298.15	1	.02901	.001
303.15	0	.07127	.001
303.15	.0979	.03456	.001
303.15	.1971	.03417	.001
303.15	.2927	.0314	.001
303.15	.3979	.03161	.001
303.15	.4996	.03059	.001
303.15	.5975	.02991	.001
303.15	.6998	.02934	.001
303.15	.7946	.02887	.001
303.15	.8997	.02764	.001
303.15	1	.02928	.001
308.15	0	.07044	.001
308.15	.0979	.03251	.001
308.15	.1971	.03213	.001
308.15	.2927	.03061	.001
308.15	.3979	.03051	.001
308.15	.4996	.0302	.001
308.15	.5975	.0293	.001
308.15	.6998	.02872	.001
308.15	.7946	.02845	.001
308.15	.8997	.02642	.001
308.15	1	.02888	.001
313.15	0	.06966	.001
313.15	.0979	.03202	.001
313.15	.1971	.03126	.001
313.15	.2927	.02979	.001
313.15	.3979	.03012	.001
313.15	.4996	.02933	.001
313.15	.5975	.02876	.001
313.15	.6998	.02823	.001
313.15	.7946	.02782	.001
313.15	.8997	.02623	.001
313.15	1	.02847	.001
318.15	0	.06883	.001
318.15	.0979	.03072	.001
318.15	.1971	.02983	.001
318.15	.2927	.02855	.001
318.15	.3979	.02978	.001
318.15	.4996	.02869	.001
318.15	.5975	.02851	.001
318.15	.6998	.02787	.001
318.15	.7946	.02754	.001
318.15	.8997	.0256	.001
318.15	1	.02813	.001
323.15	0	.06795	.001
323.15	.0979	.0282	.001
323.15	.1971	.02954	.001
323.15	.2927	.02828	.001
323.15	.3979	.02891	.001
323.15	.4996	.02865	.001
323.15	.5975	.02757	.001
323.15	.6998	.02736	.001
323.15	.7946	.0271	.001
323.15	.8997	.02543	.001
323.15	1	.02763	.001
333.15	0	.06623	.001
333.15	.0979	.02675	.001
333.15	.1971	.02832	.001
333.15	.2927	.02756	.001
333.15	.3979	.02791	.001
333.15	.4996	.02754	.001
333.15	.5975	.02674	.001
333.15	.6998	.02636	.001
333.15	.7946	.02632	.001
333.15	.8997	.02476	.001
333.15	1	.02681	.001
