Measured thermophysical data. Volume-related interaction parameters for dilute solutions  of tetramethylurea in normal and heavy water between  278.15 K and 318.15 K
Source: Thermochim. Acta, 2010, 10.1016/j.tca.2009.12.008
Compound 1: N,N,N',N'-tetramethylurea, C5H12N2O
Compound 2: water, H2O
Compound 3: water-d2, D2O, purity 99.9%

System: N,N,N',N'-tetramethylurea; phases: Liquid
Fixed: Pressure, kPa = 101.325
Property: Mass density, kg/m3 (Liquid); method: Vibrating tube method
Temperature, K	Mass density, kg/m3	uncertainty
278.15	980.34	.015
288.15	971.2	.015
298.15	962.04	.015
308.15	952.84	.015
318.15	943.62	.015

System: water; phases: Liquid
Property: Mass density, kg/m3 (Liquid); method: Vibrating tube method
Temperature, K	Pressure, kPa	Mass density, kg/m3	uncertainty
278.15	101	999.965	.015
288.15	101	999.101	.015
298.15	101	997.047	.015
308.15	101	994.035	.015
318.15	101	990.216	.015

System: water-d2; phases: Liquid
Property: Mass density, kg/m3 (Liquid); method: Vibrating tube method
Temperature, K	Pressure, kPa	Mass density, kg/m3	uncertainty
278.15	101	1105.49	.015
288.15	101	1105.75	.015
298.15	101	1104.35	.015
308.15	101	1101.62	.015
318.15	101	1097.82	.015

System: N,N,N',N'-tetramethylurea + water; phases: Liquid
Fixed: Pressure, kPa = 101
Property: Mass density, kg/m3 (Liquid); method: Vibrating tube method
Temperature, K	Molality, mol/kg of N,N,N',N'-tetramethylurea	Mass density, kg/m3	uncertainty
278.15	0	999.965	.015
278.15	.057643	1000.12	.015
278.15	.088271	1000.2	.015
278.15	.13094	1000.32	.015
278.15	.14335	1000.35	.015
278.15	.27635	1000.79	.015
278.15	.4159	1001.29	.015
278.15	.58821	1001.97	.015
278.15	.75921	1002.72	.015
278.15	.97864	1003.73	.015
278.15	1.1038	1004.32	.015
278.15	1.3398	1005.47	.015
278.15	1.3481	1005.51	.015
278.15	1.6776	1007.1	.015
278.15	1.7449	1007.42	.015
288.15	0	999.101	.015
288.15	.057643	999.2	.015
288.15	.088271	999.26	.015
288.15	.13094	999.34	.015
288.15	.14335	999.36	.015
288.15	.27635	999.66	.015
288.15	.4159	1000.02	.015
288.15	.58821	1000.5	.015
288.15	.75921	1001.05	.015
288.15	.97864	1001.79	.015
288.15	1.1038	1002.23	.015
288.15	1.3398	1003.08	.015
288.15	1.3481	1003.12	.015
288.15	1.6776	1004.31	.015
288.15	1.7449	1004.55	.015
298.15	0	997.047	.015
298.15	.057643	997.1	.015
298.15	.088271	997.13	.015
298.15	.13094	997.18	.015
298.15	.14335	997.2	.015
298.15	.27635	997.38	.015
298.15	.4159	997.61	.015
298.15	.58821	997.94	.015
298.15	.75921	998.31	.015
298.15	.97864	998.84	.015
298.15	1.1038	999.15	.015
298.15	1.3398	999.77	.015
298.15	1.3481	999.79	.015
298.15	1.6776	1000.65	.015
298.15	1.7449	1000.82	.015
308.15	0	994.035	.015
308.15	.057643	994.05	.015
308.15	.088271	994.06	.015
308.15	.13094	994.08	.015
308.15	.14335	994.08	.015
308.15	.27635	994.17	.015
308.15	.4159	994.29	.015
308.15	.58821	994.48	.015
308.15	.75921	994.7	.015
308.15	.97864	995.04	.015
308.15	1.1038	995.24	.015
308.15	1.3398	995.64	.015
308.15	1.3481	995.66	.015
308.15	1.6776	996.23	.015
308.15	1.7449	996.35	.015
318.15	0	990.216	.015
318.15	.057643	990.19	.015
318.15	.088271	990.18	.015
318.15	.13094	990.17	.015
318.15	.14335	990.17	.015
318.15	.27635	990.17	.015
318.15	.4159	990.18	.015
318.15	.58821	990.24	.015
318.15	.75921	990.33	.015
318.15	.97864	990.47	.015
318.15	1.1038	990.57	.015
318.15	1.3398	990.79	.015
318.15	1.3481	990.8	.015
318.15	1.6776	991.13	.015
318.15	1.7449	991.2	.015

System: N,N,N',N'-tetramethylurea + water-d2; phases: Liquid
Fixed: Pressure, kPa = 101
Property: Mass density, kg/m3 (Liquid); method: Vibrating tube method
Temperature, K	Molality, mol/kg of N,N,N',N'-tetramethylurea	Mass density, kg/m3	uncertainty
278.15	0	1105.49	.015
278.15	.051515	1105.05	.015
278.15	.084044	1104.78	.015
278.15	.11163	1104.56	.015
278.15	.15893	1104.19	.015
278.15	.22437	1103.7	.015
278.15	.25024	1103.51	.015
278.15	.33514	1102.93	.015
278.15	.45471	1102.18	.015
278.15	.57827	1101.46	.015
278.15	.59794	1101.37	.015
278.15	.85682	1100.11	.015
278.15	1.1486	1098.97	.015
278.15	1.4209	1098.09	.015
278.15	1.7242	1097.25	.015
288.15	0	1105.75	.015
288.15	.051515	1105.24	.015
288.15	.084044	1104.94	.015
288.15	.11163	1104.68	.015
288.15	.15893	1104.24	.015
288.15	.22437	1103.66	.015
288.15	.25024	1103.44	.015
288.15	.33514	1102.74	.015
288.15	.45471	1101.81	.015
288.15	.57827	1100.91	.015
288.15	.59794	1100.78	.015
288.15	.85682	1099.11	.015
288.15	1.1486	1097.48	.015
288.15	1.4209	1096.14	.015
288.15	1.7242	1094.79	.015
298.15	0	1104.35	.015
298.15	.051515	1103.79	.015
298.15	.084044	1103.44	.015
298.15	.11163	1103.15	.015
298.15	.15893	1102.67	.015
298.15	.22437	1102.01	.015
298.15	.25024	1101.76	.015
298.15	.33514	1100.96	.015
298.15	.45471	1099.88	.015
298.15	.57827	1098.83	.015
298.15	.59794	1098.67	.015
298.15	.85682	1096.68	.015
298.15	1.1486	1094.67	.015
298.15	1.4209	1092.97	.015
298.15	1.7242	1091.23	.015
308.15	0	1101.62	.015
308.15	.051515	1101.01	.015
308.15	.084044	1100.64	.015
308.15	.11163	1100.32	.015
308.15	.15893	1099.78	.015
308.15	.22437	1099.07	.015
308.15	.25024	1098.79	.015
308.15	.33514	1097.9	.015
308.15	.45471	1096.7	.015
308.15	.57827	1095.52	.015
308.15	.59794	1095.34	.015
308.15	.85682	1093.07	.015
308.15	1.1486	1090.74	.015
308.15	1.4209	1088.77	.015
308.15	1.7242	1086.72	.015
318.15	0	1097.82	.015
318.15	.051515	1097.17	.015
318.15	.084044	1096.77	.015
318.15	.11163	1096.43	.015
318.15	.15893	1095.85	.015
318.15	.22437	1095.08	.015
318.15	.25024	1094.78	.015
318.15	.33514	1093.81	.015
318.15	.45471	1092.5	.015
318.15	.57827	1091.2	.015
318.15	.59794	1091	.015
318.15	.85682	1088.48	.015
318.15	1.1486	1085.87	.015
318.15	1.4209	1083.64	.015
318.15	1.7242	1081.33	.015
