Measured thermophysical data. Thermochemistry of organic azides revisited
Source: Thermochim. Acta, 2014, 10.1016/j.tca.2014.10.015
Compound 1: 1-azido-4-nitrobenzene, C6H4N4O2
Compound 2: octyl azide, C8H17N3
Compound 3: carbon dioxide, CO2
Compound 4: nitrogen, N2
Compound 5: water, H2O
Compound 6: oxygen, O2
Compound 7: 1-decyl azide, C10H21N3

System: 1-azido-4-nitrobenzene; phases: Crystal, Liquid, Air at 1 atmosphere
Property: Normal melting temperature, K (Crystal); method: DSC/DTA
Normal melting temperature, K	uncertainty
341.4	.5

System: 1-azido-4-nitrobenzene; phases: Crystal, Liquid, Air at 1 atmosphere
Property: Molar enthalpy of transition or fusion, kJ/mol (Crystal); method: DSC
Molar enthalpy of transition or fusion, kJ/mol	uncertainty
21.3	.5

System: 1-azido-4-nitrobenzene; phases: Crystal, Gas
Property: Vapor or sublimation pressure, kPa (Crystal); method: Transpiration method
Temperature, K	Vapor or sublimation pressure, kPa	uncertainty
313.3	.0012	
317.4	.00189	
323.3	.00358	
328.5	.00602	
331.2	.00823	
334.9	.01152	
338.1	.01599	
339.9	.01954	

System: 1-azido-4-nitrobenzene; phases: Liquid, Gas
Property: Vapor or sublimation pressure, kPa (Liquid); method: Transpiration method
Temperature, K	Vapor or sublimation pressure, kPa	uncertainty
345.1	.02847	
350.2	.04236	
355.2	.05858	
360.2	.08279	
365.3	.11338	
370.5	.15041	

System: octyl azide; phases: Liquid
Fixed: Pressure, kPa = 101.325
Property: Mass density, kg/m3 (Liquid); method: Pycnometric method
Temperature, K	Mass density, kg/m3	uncertainty
293	840	10

System: octyl azide; phases: Liquid, Gas
Property: Vapor or sublimation pressure, kPa (Liquid); method: Transpiration method
Temperature, K	Vapor or sublimation pressure, kPa	uncertainty
276.2	.00625	
279.8	.00904	
282.5	.01172	
285.8	.01548	
289.4	.02119	
292.2	.02751	
293.2	.02911	
296.2	.03707	
300.2	.04808	
302.1	.05805	
303.1	.06504	
307	.08345	
310	.10888	
313.9	.13549	
317.9	.18801	
320.9	.24059	
321.8	.2385	
323.9	.2592	
323.9	.26835	
325.8	.3237	
325.8	.32361	
325.8	.31349	

System: 1-decyl azide; phases: Liquid
Fixed: Pressure, kPa = 101.325
Property: Mass density, kg/m3 (Liquid); method: Pycnometric method
Temperature, K	Mass density, kg/m3	uncertainty
293	870	10

System: 1-decyl azide; phases: Liquid, Gas
Property: Vapor or sublimation pressure, kPa (Liquid); method: Transpiration method
Temperature, K	Vapor or sublimation pressure, kPa	uncertainty
299.1	.00431	
304	.00666	
309	.01017	
314	.01489	
318.9	.02152	
324	.03305	
329	.04744	
333.9	.06769	
339	.0914	
344.1	.1347	

Reaction: -1 octyl azide + 8 carbon dioxide + 1.5 nitrogen + 8.5 water + -12.25 oxygen
Property: Specific internal energy of reaction at constant volume, J/g
-36403.7

Reaction: -1 1-decyl azide + 10 carbon dioxide + 1.5 nitrogen + 10.5 water + -15.25 oxygen
Property: Specific internal energy of reaction at constant volume, J/g
-37950
