Measured thermophysical data. Solubility of capecitabine, docetaxel, and 5-fluorouracil in supercritical carbon dioxide: Data and  the best correlation
Source: Thermochim. Acta, 2012, 10.1016/j.tca.2012.09.010
Compound 1: docetaxel, C43H53NO14, purity 99%
Compound 2: capecitabine, C15H22FN3O6, purity 98%
Compound 3: carbon dioxide, CO2, purity 99.99%

System: carbon dioxide + docetaxel; phases: Fluid (supercritical or subcritical phases), Crystal
Property: Mole fraction of docetaxel (Fluid (supercritical or subcritical phases)); method: absorbance
Temperature, K	Pressure, kPa	Mole fraction of docetaxel	uncertainty
308	15200	.000037	.00000222
308	18200	.000053	.00000318
308	21200	.000058	.00000348
308	24300	.000062	.00000372
308	27300	.000066	.00000396
308	30400	.000068	.00000408
308	33400	.000071	.00000426
308	35400	.000072	.00000432
318	21200	.000093	.00000558
318	24300	.000103	.00000618
318	27300	.000114	.00000684
318	15200	.000084	.00000504
318	30400	.000121	.00000726
318	18200	.000079	.00000474
318	33400	.000128	.00000768
318	35400	.000153	.00000918
328	24300	.000159	.00000954
328	27300	.000196	.00001176
328	15200	.000066	.00000396
328	21200	.000134	.00000804
328	30400	.000214	.00001284
328	33400	.00023	.0000138
328	18200	.000103	.00000618
328	35400	.000284	.00001704
338	24300	.000244	.00001464
338	15200	.000113	.00000678
338	30400	.000372	.00002232
338	33400	.000406	.00002436
338	21200	.000177	.00001062
338	18200	.000121	.00000726
338	27300	.000335	.0000201
338	35400	.000503	.00003018
348	21200	.000221	.00001326
348	30400	.000531	.00003186
348	33400	.000668	.00004008
348	18200	.000139	.00000834
348	27300	.000452	.00002712
348	24300	.000323	.00001938
348	15200	.000062	.00000372
348	35400	.000702	.00004212

System: carbon dioxide + capecitabine; phases: Fluid (supercritical or subcritical phases), Crystal
Property: Mole fraction of capecitabine (Fluid (supercritical or subcritical phases)); method: absorbance
Temperature, K	Pressure, kPa	Mole fraction of capecitabine	uncertainty
308	15200	.0000076	.000000456
308	18200	.0000118	.000000708
308	21200	.0000146	.000000876
308	24300	.0000196	.000001176
308	27300	.0000222	.000001332
308	30400	.0000249	.000001494
308	33400	.0000285	.00000171
308	35400	.0000302	.000001812
318	15200	.0000084	.000000504
318	18200	.0000138	.000000828
318	21200	.0000212	.000001272
318	24300	.0000272	.000001632
318	27300	.0000373	.000002238
318	30400	.0000418	.000002508
318	33400	.0000514	.000003084
318	35400	.0000571	.000003426
328	15200	.0000037	.000000222
328	18200	.0000125	.00000075
328	21200	.0000228	.000001368
328	24300	.0000335	.00000201
328	27300	.0000449	.000002694
328	30400	.000057	.00000342
328	33400	.0000738	.000004428
328	35400	.0000842	.000005052
338	15200	.0000027	.000000162
338	18200	.0000095	.00000057
338	21200	.0000233	.000001398
338	24300	.0000383	.000002298
338	27300	.0000475	.00000285
338	30400	.0000775	.00000465
338	33400	.0001	.000006
338	35400	.000123	.00000738
348	15200	.0000032	.000000192
348	18200	.000009	.00000054
348	21200	.0000197	.000001182
348	24300	.000033	.00000198
348	27300	.0000505	.00000303
348	30400	.0000838	.000005028
348	33400	.0001177	.000007062
348	35400	.0001588	.000009528
