Measured thermophysical data. Thermodynamic study of Binary Mixtures of Tricyclo [5.2.1.0(2.6)] Decane with N-Methylpiperazine  or Triethylamine at T = (298.15 to 323.15) K
Source: Thermochim. Acta, 2012, 10.1016/j.tca.2012.06.011
Compound 1: exo-trimethylenenorbornane, C10H16, purity 98%
Compound 2: piperazine, N-methyl-, C5H12N2, purity 99.8%
Compound 3: N,N-diethylethanamine, C6H15N, purity 99%

System: exo-trimethylenenorbornane; phases: Liquid
Property: Mass density, kg/m3 (Liquid); method: Vibrating tube method
Temperature, K	Pressure, kPa	Mass density, kg/m3	uncertainty
298.15	101	931.29	.05
303.15	101	927.38	.05
308.15	101	923.45	.05
313.15	101	919.54	.05
323.15	101	911.7	.05
308.15	101	923.46	.05

System: exo-trimethylenenorbornane; phases: Liquid
Property: Viscosity, Pa*s (Liquid); method: Capillary tube (Ostwald; Ubbelohde) method
Temperature, K	Pressure, kPa	Viscosity, Pa*s	uncertainty
298.15	101	.0028	.000014
303.15	101	.002549	.000012745
308.15	101	.002332	.00001166
313.15	101	.002124	.00001062
323.15	101	.001811	.000009055

System: piperazine, N-methyl-; phases: Liquid
Property: Mass density, kg/m3 (Liquid); method: Vibrating tube method
Temperature, K	Pressure, kPa	Mass density, kg/m3	uncertainty
298.15	101	899.28	.05
303.15	101	894.9	.05
308.15	101	890.5	.05
313.15	101	886.07	.05
323.15	101	877.28	.05

System: piperazine, N-methyl-; phases: Liquid
Property: Viscosity, Pa*s (Liquid); method: Capillary tube (Ostwald; Ubbelohde) method
Temperature, K	Pressure, kPa	Viscosity, Pa*s	uncertainty
298.15	101	.001854	.00000927
303.15	101	.001583	.000007915
308.15	101	.001409	.000007045
313.15	101	.001258	.00000629
323.15	101	.001064	.00000532

System: N,N-diethylethanamine; phases: Liquid
Property: Mass density, kg/m3 (Liquid); method: Vibrating tube method
Temperature, K	Pressure, kPa	Mass density, kg/m3	uncertainty
298.15	101	724.21	.05
303.15	101	719.54	.05
308.15	101	714.84	.05
313.15	101	710.1	.05
323.15	101	700.71	.05

System: N,N-diethylethanamine; phases: Liquid
Property: Viscosity, Pa*s (Liquid); method: Capillary tube (Ostwald; Ubbelohde) method
Temperature, K	Pressure, kPa	Viscosity, Pa*s	uncertainty
298.15	101	.000366	.00000183
303.15	101	.00034	.0000017
308.15	101	.000334	.00000167
313.15	101	.000331	.000001655
323.15	101	.000298	.00000149

System: piperazine, N-methyl- + exo-trimethylenenorbornane; phases: Liquid
Fixed: Pressure, kPa = 101
Property: Mass density, kg/m3 (Liquid); method: Vibrating tube method
Temperature, K	Mole fraction of piperazine, N-methyl-	Mass density, kg/m3	uncertainty
298.15	0	931.29	.05
298.15	.1337	925.63	.05
298.15	.2543	920.97	.05
298.15	.3678	916.92	.05
298.15	.4768	913.25	.05
298.15	.577	910.05	.05
298.15	.672	907.32	.05
298.15	.76	904.59	.05
298.15	.8407	902.15	.05
298.15	.9242	900.27	.05
298.15	1	899.28	.05
303.15	0	927.38	.05
303.15	.1337	921.65	.05
303.15	.2543	916.91	.05
303.15	.3678	912.79	.05
303.15	.4768	909.05	.05
303.15	.577	905.8	.05
303.15	.672	903.04	.05
303.15	.76	900.27	.05
303.15	.8407	897.92	.05
303.15	.9242	895.92	.05
303.15	1	894.9	.05
308.15	0	923.45	.05
308.15	.1337	917.65	.05
308.15	.2543	912.83	.05
308.15	.3678	908.63	.05
308.15	.4768	904.83	.05
308.15	.577	901.53	.05
308.15	.672	898.72	.05
308.15	.76	895.93	.05
308.15	.8407	893.59	.05
308.15	.9242	891.51	.05
308.15	1	890.5	.05
313.15	0	919.54	.05
313.15	.1337	913.66	.05
313.15	.2543	908.76	.05
313.15	.3678	904.48	.05
313.15	.4768	900.62	.05
313.15	.577	897.26	.05
313.15	.672	894.4	.05
313.15	.76	891.58	.05
313.15	.8407	889.24	.05
313.15	.9242	887.11	.05
313.15	1	886.07	.05
323.15	0	911.7	.05
323.15	.1337	905.68	.05
323.15	.2543	900.62	.05
323.15	.3678	896.19	.05
323.15	.4768	892.2	.05
323.15	.577	888.74	.05
323.15	.672	885.79	.05
323.15	.76	882.9	.05
323.15	.8407	880.55	.05
323.15	.9242	878.34	.05
323.15	1	877.28	.05

System: piperazine, N-methyl- + exo-trimethylenenorbornane; phases: Liquid
Fixed: Pressure, kPa = 101
Property: Viscosity, Pa*s (Liquid); method: Capillary tube (Ostwald; Ubbelohde) method
Temperature, K	Mole fraction of piperazine, N-methyl-	Viscosity, Pa*s	uncertainty
298.15	0	.0028	.000014
298.15	.1337	.002432	.00001216
298.15	.2543	.002247	.000011235
298.15	.3678	.002125	.000010625
298.15	.4768	.002016	.00001008
298.15	.577	.001943	.000009715
298.15	.672	.001921	.000009605
298.15	.76	.001893	.000009465
298.15	.8407	.001894	.00000947
298.15	.9242	.001877	.000009385
298.15	1	.001854	.00000927
303.15	0	.002549	.000012745
303.15	.1337	.002214	.00001107
303.15	.2543	.002051	.000010255
303.15	.3678	.001925	.000009625
303.15	.4768	.001822	.00000911
303.15	.577	.001756	.00000878
303.15	.672	.001708	.00000854
303.15	.76	.001681	.000008405
303.15	.8407	.001656	.00000828
303.15	.9242	.001632	.00000816
303.15	1	.001583	.000007915
308.15	0	.002332	.00001166
308.15	.1337	.002021	.000010105
308.15	.2543	.001868	.00000934
308.15	.3678	.001752	.00000876
308.15	.4768	.001655	.000008275
308.15	.577	.001583	.000007915
308.15	.672	.001545	.000007725
308.15	.76	.001512	.00000756
308.15	.8407	.001502	.00000751
308.15	.9242	.001467	.000007335
308.15	1	.001409	.000007045
313.15	0	.002124	.00001062
313.15	.1337	.001844	.00000922
313.15	.2543	.001694	.00000847
313.15	.3678	.001583	.000007915
313.15	.4768	.001492	.00000746
313.15	.577	.001435	.000007175
313.15	.672	.001399	.000006995
313.15	.76	.001362	.00000681
313.15	.8407	.00135	.00000675
313.15	.9242	.001318	.00000659
313.15	1	.001258	.00000629
323.15	0	.001811	.000009055
323.15	.1337	.001574	.00000787
323.15	.2543	.001452	.00000726
323.15	.3678	.001351	.000006755
323.15	.4768	.001281	.000006405
323.15	.577	.001237	.000006185
323.15	.672	.001195	.000005975
323.15	.76	.001162	.00000581
323.15	.8407	.001154	.00000577
323.15	.9242	.001116	.00000558
323.15	1	.001064	.00000532

System: N,N-diethylethanamine + exo-trimethylenenorbornane; phases: Liquid
Fixed: Pressure, kPa = 101
Property: Mass density, kg/m3 (Liquid); method: Vibrating tube method
Temperature, K	Mole fraction of N,N-diethylethanamine	Mass density, kg/m3	uncertainty
298.15	0	931.29	.05
298.15	.1347	906.47	.05
298.15	.2521	883.66	.05
298.15	.365	861.16	.05
298.15	.4709	839.56	.05
298.15	.5711	818.66	.05
298.15	.6683	798.2	.05
298.15	.7585	778.5	.05
298.15	.8414	759.95	.05
298.15	.9136	743.67	.05
298.15	1	724.21	.05
303.15	0	927.38	.05
303.15	.1347	902.17	.05
303.15	.2521	879.54	.05
303.15	.365	856.98	.05
303.15	.4709	835.31	.05
303.15	.5711	814.33	.05
303.15	.6683	793.7	.05
303.15	.7585	773.97	.05
303.15	.8414	755.41	.05
303.15	.9136	739.07	.05
303.15	1	719.54	.05
308.15	0	923.46	.05
308.15	.1347	898.15	.05
308.15	.2521	875.44	.05
308.15	.365	852.8	.05
308.15	.4709	831.04	.05
308.15	.5711	809.98	.05
308.15	.6683	789.27	.05
308.15	.7585	769.46	.05
308.15	.8414	750.85	.05
308.15	.9136	734.45	.05
308.15	1	714.84	.05
313.15	0	919.54	.05
313.15	.1347	894.12	.05
313.15	.2521	871.32	.05
313.15	.365	848.59	.05
313.15	.4709	826.75	.05
313.15	.5711	805.62	.05
313.15	.6683	784.85	.05
313.15	.7585	764.95	.05
313.15	.8414	746.25	.05
313.15	.9136	729.79	.05
313.15	1	710.1	.05
323.15	0	911.7	.05
323.15	.1347	885.86	.05
323.15	.2521	863.09	.05
323.15	.365	840.22	.05
323.15	.4709	818.22	.05
323.15	.5711	796.93	.05
323.15	.6683	775.97	.05
323.15	.7585	755.83	.05
323.15	.8414	737.14	.05
323.15	.9136	720.56	.05
323.15	1	700.71	.05

System: N,N-diethylethanamine + exo-trimethylenenorbornane; phases: Liquid
Fixed: Pressure, kPa = 101
Property: Viscosity, Pa*s (Liquid); method: Capillary tube (Ostwald; Ubbelohde) method
Temperature, K	Mole fraction of N,N-diethylethanamine	Viscosity, Pa*s	uncertainty
298.15	0	.0028	.000014
298.15	.1347	.002034	.00001017
298.15	.2521	.001535	.000007675
298.15	.365	.001188	.00000594
298.15	.4709	.000961	.000004805
298.15	.5711	.000779	.000003895
298.15	.6683	.000653	.000003265
298.15	.7585	.00055	.00000275
298.15	.8414	.000476	.00000238
298.15	.9136	.000419	.000002095
298.15	1	.000366	.00000183
303.15	0	.002549	.000012745
303.15	.1347	.001871	.000009355
303.15	.2521	.001421	.000007105
303.15	.365	.001109	.000005545
303.15	.4709	.000893	.000004465
303.15	.5711	.000738	.00000369
303.15	.6683	.000618	.00000309
303.15	.7585	.000524	.00000262
303.15	.8414	.000455	.000002275
303.15	.9136	.000399	.000001995
303.15	1	.00034	.0000017
308.15	0	.002332	.00001166
308.15	.1347	.001714	.00000857
308.15	.2521	.001324	.00000662
308.15	.365	.001035	.000005175
308.15	.4709	.000829	.000004145
308.15	.5711	.000691	.000003455
308.15	.6683	.000583	.000002915
308.15	.7585	.000503	.000002515
308.15	.8414	.000433	.000002165
308.15	.9136	.00038	.0000019
308.15	1	.000334	.00000167
313.15	0	.002124	.00001062
313.15	.1347	.00157	.00000785
313.15	.2521	.001217	.000006085
313.15	.365	.000955	.000004775
313.15	.4709	.00077	.00000385
313.15	.5711	.000649	.000003245
313.15	.6683	.000547	.000002735
313.15	.7585	.000463	.000002315
313.15	.8414	.000406	.00000203
313.15	.9136	.000368	.00000184
313.15	1	.000331	.000001655
323.15	0	.001811	.000009055
323.15	.1347	.00136	.0000068
323.15	.2521	.001063	.000005315
323.15	.365	.000842	.00000421
323.15	.4709	.00069	.00000345
323.15	.5711	.000578	.00000289
323.15	.6683	.000492	.00000246
323.15	.7585	.000431	.000002155
323.15	.8414	.000373	.000001865
323.15	.9136	.000327	.000001635
323.15	1	.000298	.00000149
