Measured thermophysical data. Thermal behavior of 1,3,5-trinitroso-1,3,5-triazinane and its melt-castable mixtures with cyclic nitramines
Source: Thermochim. Acta, 2015, 10.1016/j.tca.2015.07.010
Compound 1: RDX, C3H6N6O6
Compound 2: TNOHX, C3H6N6O3
Compound 3: CL-20, C6H6N12O12

System: RDX; phases: Crystal, Liquid, Air at 1 atmosphere
Property: Triple point temperature, K (Crystal); method: DSC/DTA
Triple point temperature, K	uncertainty
478.95	

System: TNOHX; phases: Crystal 2, Crystal 1, Air at 1 atmosphere
Property: Triple point temperature, K (Crystal 2); method: DSC/DTA
Triple point temperature, K	uncertainty
369.25	

System: TNOHX; phases: Crystal 1, Liquid, Air at 1 atmosphere
Property: Triple point temperature, K (Crystal 1); method: DSC/DTA
Triple point temperature, K	uncertainty
380.15	

System: CL-20; phases: Crystal 2, Crystal 1, Air at 1 atmosphere
Property: Triple point temperature, K (Crystal 2); method: DSC/DTA
Triple point temperature, K	uncertainty
432.75	

System: CL-20; phases: Crystal 2, Crystal 1, Air at 1 atmosphere
Property: Molar enthalpy of transition or fusion, kJ/mol (Crystal 2); method: DSC
Molar enthalpy of transition or fusion, kJ/mol	uncertainty
5.433500448	
