Measured thermophysical data. Silver incorporated microencapsulation of n-hexadecane and noctadecane appropriate for dynamic thermal management in textiles
Source: Thermochim. Acta, 2015, 10.1016/j.tca.2015.05.015
Compound 1: n-hexadecane, C16H34, purity 95%
Compound 2: n-octadecane, C18H38, purity 95%

System: n-hexadecane; phases: Crystal, Liquid, Air at 1 atmosphere
Property: Molar enthalpy of transition or fusion, kJ/mol (Crystal); method: DSC
Molar enthalpy of transition or fusion, kJ/mol	uncertainty
50.04349636	1.0008699272

System: n-hexadecane; phases: Crystal, Liquid, Air at 1 atmosphere
Property: Normal melting temperature, K (Crystal); method: DSC/DTA
Normal melting temperature, K	uncertainty
290	

System: n-octadecane; phases: Crystal, Liquid, Air at 1 atmosphere
Property: Molar enthalpy of transition or fusion, kJ/mol (Crystal); method: DSC
Molar enthalpy of transition or fusion, kJ/mol	uncertainty
59.29717656	1.1859435312

System: n-octadecane; phases: Crystal, Liquid, Air at 1 atmosphere
Property: Normal melting temperature, K (Crystal); method: DSC/DTA
Normal melting temperature, K	uncertainty
298	
