Measured thermophysical data. Thermodynamic and spectroscopic properties of spinel with the formula Li4/3Ti5/3O4
Source: Thermochim. Acta, 2013, 10.1016/j.tca.2013.02.019
Compound 1: Li4Ti5O12, Li4O12Ti5, purity 99%

System: Li4Ti5O12; phases: Crystal
Fixed: Pressure, kPa = 101.325
Property: Mass density, kg/m3 (Crystal); method: X-ray diffraction
Temperature, K	Mass density, kg/m3	uncertainty
298	3483	
373	3472	
473	3461	
573	3447	
673	3433	
773	3419	
873	3400	
973	3383	
1073	3362	
1173	3343	

System: Li4Ti5O12; phases: Crystal
Fixed: Pressure, kPa = 101.325
Property: Molar heat capacity at constant pressure, J/K/mol (Crystal); method: Vacuum adiabatic calorimetry
Temperature, K	Molar heat capacity at constant pressure, J/K/mol	uncertainty
6.16	.486	
6.61	.564	
7.42	.654	
7.57	.642	
8.01	.618	
8.43	.492	
8.72	.474	
9.2	.399	
9.39	.354	
9.9	.2145	
10.04	.2139	
10.56	.2013	
10.66	.198	
11.15	.2001	
11.25	.213	
11.69	.2679	
11.8	.2856	
12.19	.384	
13.39	.669	
13.71	.732	
16.29	1.5099	
18.79	2.445	
21.53	4.041	
6.4	.564	
7.2	.642	
7.52	.669	
8.14	.552	
8.17	.54	
9.02	.378	
9.04	.36	
9.82	.2235	
10.53	.198	
11.88	.309	
13.49	.717	
16.16	1.482	
18.89	2.5125	
21.18	3.75	
23.64	5.544	
26.61	8.046	
28.53	9.78	
31.8	12.84	
34.16	14.919	
36.74	17.16	
39.31	19.461	
41.88	22.101	
44.45	24.9	
47.02	27.711	
49.58	30.69	
52.14	33.81	
54.87	37.2	
57.22	40.2	
59.81	43.5	
62.79	47.79	
64.9	50.79	
67.45	54.6	
69.8	58.41	
72.51	62.19	
75.04	66.6	
77.54	70.71	
80.04	75.39	
82.53	79.8	
85.01	84	
87.48	88.5	
89.86	92.61	
92.35	97.11	
94.85	101.7	
97.29	106.11	
79.09	73.41	
81.82	78.57	
83.82	82.14	
85.83	85.5	
87.83	89.01	
89.82	93.12	
91.82	96	
93.81	99.78	
95.8	103.35	
97.78	107.04	
99.76	110.88	
102.23	116.49	
105.2	121.83	
108.17	127.59	
111.15	133.38	
114.14	139.14	
117.15	144.09	
120.15	149.82	
123.15	155.49	
126.15	161.13	
129.16	166.92	
132.17	172.68	
135.19	178.29	
138.21	183.81	
141.23	189.42	
144.25	194.85	
147.28	200.4	
150.31	205.92	
153.35	211.32	
156.38	216.6	
159.42	221.79	
162.46	226.83	
165.53	232.23	
168.57	236.82	
171.61	241.71	
174.64	246.57	
177.68	251.49	
180.72	256.11	
183.76	260.58	
186.79	265.2	
189.83	269.76	
192.87	273.96	
195.9	278.22	
198.93	282.39	
202.46	287.73	
206.5	293.07	
210.53	298.38	
214.57	303.6	
218.63	309.3	
222.66	313.5	
226.69	318.6	
230.72	323.1	
234.74	327.9	
238.76	332.4	
242.78	336.6	
246.79	340.8	
250.8	345	
254.8	348.9	
258.8	353.1	
262.79	357	
266.79	359.7	
270.76	363.3	
274.73	367.2	
278.69	371.1	
282.61	375.3	
286.55	378.3	
290.48	381.6	
294.4	384.9	
298.31	387.6	
302.8	392.4	
308	395.1	
313.16	398.4	
318.29	401.4	
323.38	405.3	
328.46	408.9	
333.55	412.2	

System: Li4Ti5O12; phases: Crystal
Fixed: Pressure, kPa = 101.325
Property: Molar heat capacity at constant pressure, J/K/mol (Crystal); method: Vacuum adiabatic calorimetry
Temperature, K	Molar heat capacity at constant pressure, J/K/mol	uncertainty
1	.0465	
2	.093	
3	.15	
4	.219	
5	.309	
6	.459	
7	.63	
8	.585	
9	.402	
10	.2295	
11	.2181	
12	.345	
13	.552	
14	.822	
15	1.11	
20	3.12	
25	6.66	
30	11.16	
35	15.66	
40	20.16	
45	25.47	
50	31.26	
60	43.89	
70	58.47	
80	75.18	
90	92.85	
100	111.72	
110	130.8	
120	149.82	
130	168.63	
140	187.17	
150	205.26	
160	222.75	
170	239.37	
180	255.03	
190	269.85	
200	284.07	
210	297.9	
220	310.5	
230	322.5	
240	333.9	
250	344.1	
260	354	
270	363.3	
273.15	366	
280	372.3	
290	381.3	
298.15	388.2	
300	389.7	
310	396.6	
320	403.5	
330	410.4	
340	417.3	
350	424.2	
400	453.3	
450	473.4	
500	487.5	
550	500.7	
600	511.2	
650	516.6	
670	518.7	

System: Li4Ti5O12; phases: Crystal
Fixed: Pressure, kPa = 101.325
Property: Molar enthalpy, kJ/mol (Crystal); method: Vacuum adiabatic calorimetry
Temperature, K	Molar enthalpy, kJ/mol	uncertainty
3	.0003	
4	.0003	
5	.0006	
6	.0009	
7	.0015	
8	.0021	
9	.0024	
10	.003	
11	.0033	
12	.0033	
13	.0039	
14	.0045	
15	.0057	
20	.0156	
25	.0396	
30	.0837	
35	.1521	
40	.2421	
45	.3555	
50	.4956	
60	.8721	
70	1.38	
80	2.0496	
90	2.8869	
100	3.915	
110	5.121	
120	6.528	
130	8.118	
140	9.9	
150	11.859	
160	14.004	
170	16.311	
180	18.789	
190	21.411	
200	24.183	
210	27.09	
220	30.12	
230	33.3	
240	36.57	
250	39.96	
260	43.47	
270	47.04	
273.15	48.21	
280	50.73	
290	54.48	
298.15	57.63	
300	58.35	
310	62.28	
320	66.27	
330	70.35	
340	74.52	
350	78.69	
400	100.71	
450	123.87	
500	147.93	
550	172.62	
600	197.94	
650	223.65	
670	234	

System: Li4Ti5O12; phases: Crystal
Fixed: Pressure, kPa = 101.325
Property: Molar entropy, J/K/mol (Crystal); method: Vacuum adiabatic calorimetry
Temperature, K	Molar entropy, J/K/mol	uncertainty
3	.0501	
4	.1005	
5	.1635	
6	.2268	
7	.312	
8	.3969	
9	.4428	
10	.4884	
11	.5103	
12	.5322	
13	.5751	
14	.6177	
15	.6918	
20	1.2489	
25	2.3049	
30	3.9	
35	5.979	
40	8.364	
45	11.034	
50	13.995	
60	20.796	
70	28.617	
80	37.5	
90	47.37	
100	58.14	
110	69.66	
120	81.87	
130	94.59	
140	107.79	
150	121.32	
160	135.12	
170	149.13	
180	163.26	
190	177.45	
200	191.64	
210	205.86	
220	219.99	
230	234.06	
240	248.04	
250	261.87	
260	275.55	
270	289.08	
273.15	293.31	
280	302.4	
290	315.6	
298.15	326.4	
300	328.8	
310	341.7	
320	354.3	
330	366.9	
340	379.2	
350	391.5	
400	450	
450	504.6	
500	555.3	
550	602.4	
600	646.5	
650	687.6	
670	703.2	
