Measured thermophysical data. Temperature-dependent behavior of enthalpies and heat capacities of solution in water for  thiourea and its N,N'-dimethylsubstituted derivative
Source: Thermochim. Acta, 2013, 10.1016/j.tca.2013.02.003
Compound 1: thiourea, CH4N2S, purity 99%
Compound 2: thiourea, N,N'-dimethyl-, C3H8N2S, purity 99%
Compound 3: water, H2O, purity 99.5%

System: thiourea + water; phases: Liquid
Fixed: Pressure, kPa = 101
Property: Molar enthalpy of solution, kJ/mol (Liquid); method: Isoperibol calorimetry
Temperature, K	Molality, mol/kg of thiourea	Molar enthalpy of solution, kJ/mol	uncertainty
278.15	.0316	22.99	.06
279.15	.0191	22.94	.08
283.15	.0237	22.77	.1
288.15	.0358	22.66	.08
293.15	.0328	22.64	.12
298.15	.0244	22.69	.07
303.15	.032	22.75	.06
308.15	.0378	22.82	.09
313.15	.0288	22.9	.08

System: thiourea + water; phases: Liquid
Fixed: Temperature, K = 298.15
Fixed: Pressure, kPa = 101.3
Property: Molar enthalpy of dilution, kJ/mol (Liquid); method: Isoperibol calorimetry
Initial molality of solute, mol/kg	Final molality of solute, mol/kg	Molar enthalpy of dilution, kJ/mol	uncertainty
.4652	.00577	.0002249	.000011245
.4652	.00672	.0002248	.00001124
.95904	.01065	.0006005	.000030025
.95904	.01358	.0007518	.00003759
1.5012	.0153	.0015004	.00007502
1.5012	.0186	.001798	.0000899
1.9414	.0192	.002238	.0001119
1.9414	.0238	.0026947	.000134735

System: thiourea, N,N'-dimethyl- + water; phases: Liquid
Fixed: Pressure, kPa = 101
Property: Molar enthalpy of solution, kJ/mol (Liquid); method: Isoperibol calorimetry
Temperature, K	Molality, mol/kg of thiourea, N,N'-dimethyl-	Molar enthalpy of solution, kJ/mol	uncertainty
278.15	.0272	11.57	.07
279.15	.0152	11.7	.02
283.15	.0306	12.13	.08
288.15	.0264	12.74	.07
298.15	.0249	13.87	.07
313.15	.0284	15.59	.08

System: thiourea, N,N'-dimethyl- + water; phases: Liquid
Fixed: Temperature, K = 298.15
Fixed: Pressure, kPa = 101.3
Property: Molar enthalpy of dilution, kJ/mol (Liquid); method: Isoperibol calorimetry
Initial molality of solute, mol/kg	Final molality of solute, mol/kg	Molar enthalpy of dilution, kJ/mol	uncertainty
.51985	.00694	.0002012	.00001006
.51985	.00708	.0002001	.000010005
1.01991	.00987	.0006505	.000032525
1.01991	.01343	.000823	.00004115
1.5354	.0188	.0016387	.000081935
1.5354	.0208	.0017481	.000087405
