Measured thermophysical data. Structural, analytical and DSC references to resolution of 2-methoxy-2-phenylacetic acid with chiral 1-cyclohexylethylamines through gas-antisolvent precipitation
Source: Thermochim. Acta, 2017, 10.1016/j.tca.2016.11.017
Compound 1: (S)-2-methoxy-2-phenylacetic acid, C9H10O3
Compound 2: (RS)-2-methoxy-2-phenylacetic acid, C9H10O3
Compound 3: (S)-1-cyclohexylethan-1-aminium (S)-2-methoxy-2-phenylacetate, C17H27NO3
Compound 4: (R)-1-cyclohexylethan-1-aminium (S)-2-methoxy-2-phenylacetate, C17H27NO3

System: (S)-2-methoxy-2-phenylacetic acid; phases: Crystal
Fixed: Pressure, kPa = 101.325
Property: Mass density, kg/m3 (Crystal); method: X-ray diffraction
Temperature, K	Mass density, kg/m3	uncertainty
103	1311	

System: (S)-2-methoxy-2-phenylacetic acid; phases: Crystal, Liquid, Air at 1 atmosphere
Property: Normal melting temperature, K (Crystal); method: DSC/DTA
Normal melting temperature, K	uncertainty
342.45	

System: (S)-2-methoxy-2-phenylacetic acid; phases: Crystal, Liquid, Air at 1 atmosphere
Property: Molar enthalpy of transition or fusion, kJ/mol (Crystal); method: DSC
Molar enthalpy of transition or fusion, kJ/mol	uncertainty
18.88	1.888

System: (RS)-2-methoxy-2-phenylacetic acid; phases: Crystal, Liquid, Air at 1 atmosphere
Property: Normal melting temperature, K (Crystal); method: DSC/DTA
Normal melting temperature, K	uncertainty
343.75	

System: (RS)-2-methoxy-2-phenylacetic acid; phases: Crystal, Liquid, Air at 1 atmosphere
Property: Molar enthalpy of transition or fusion, kJ/mol (Crystal); method: DSC
Molar enthalpy of transition or fusion, kJ/mol	uncertainty
25.11	2.511

System: (S)-1-cyclohexylethan-1-aminium (S)-2-methoxy-2-phenylacetate; phases: Crystal
Fixed: Pressure, kPa = 101.325
Property: Mass density, kg/m3 (Crystal); method: X-ray diffraction
Temperature, K	Mass density, kg/m3	uncertainty
103	1149	

System: (S)-1-cyclohexylethan-1-aminium (S)-2-methoxy-2-phenylacetate; phases: Crystal 1, Liquid, Air at 1 atmosphere
Property: Normal melting temperature, K (Crystal 1); method: DSC/DTA
Normal melting temperature, K	uncertainty
436.05	

System: (S)-1-cyclohexylethan-1-aminium (S)-2-methoxy-2-phenylacetate; phases: Crystal 2, Liquid, Air at 1 atmosphere
Property: Normal melting temperature, K (Crystal 2); method: DSC/DTA
Normal melting temperature, K	uncertainty
439.45	

System: (S)-1-cyclohexylethan-1-aminium (S)-2-methoxy-2-phenylacetate; phases: Crystal 1, Liquid, Air at 1 atmosphere
Property: Molar enthalpy of transition or fusion, kJ/mol (Crystal 1); method: DSC
Molar enthalpy of transition or fusion, kJ/mol	uncertainty
30.57	3.057

System: (S)-1-cyclohexylethan-1-aminium (S)-2-methoxy-2-phenylacetate; phases: Crystal 2, Liquid, Air at 1 atmosphere
Property: Molar enthalpy of transition or fusion, kJ/mol (Crystal 2); method: DSC
Molar enthalpy of transition or fusion, kJ/mol	uncertainty
38.32	3.832

System: (R)-1-cyclohexylethan-1-aminium (S)-2-methoxy-2-phenylacetate; phases: Crystal, Liquid, Air at 1 atmosphere
Property: Normal melting temperature, K (Crystal); method: DSC/DTA
Normal melting temperature, K	uncertainty
460.55	

System: (R)-1-cyclohexylethan-1-aminium (S)-2-methoxy-2-phenylacetate; phases: Crystal, Liquid, Air at 1 atmosphere
Property: Molar enthalpy of transition or fusion, kJ/mol (Crystal); method: DSC
Molar enthalpy of transition or fusion, kJ/mol	uncertainty
45.59	4.559
