Measured thermophysical data. Calorimetric and theoretical determination of the concentration dependent enthalpy change around CaBr2.6H2O
Source: Thermochim. Acta, 2015, 10.1016/j.tca.2015.03.027
Compound 1: calcium bromide hexahydrate, Br2CaH12O6, purity 98%
Compound 2: calcium dibromide, Br2Ca, purity 98%
Compound 3: water, H2O, purity 99%

System: calcium bromide hexahydrate; phases: Crystal, Liquid, Air at 1 atmosphere
Property: Normal melting temperature, K (Crystal); method: DSC/DTA
Normal melting temperature, K	uncertainty
307.15	1

System: calcium bromide hexahydrate; phases: Crystal, Liquid, Air at 1 atmosphere
Property: Molar enthalpy of transition or fusion, kJ/mol (Crystal); method: DSC
Molar enthalpy of transition or fusion, kJ/mol	uncertainty
43.763628328	

System: calcium bromide hexahydrate; phases: Crystal
Fixed: Pressure, kPa = 101.325
Property: Molar heat capacity at constant pressure, J/K/mol (Crystal); method: Small sample (50 mg) scanning calorimetry
Temperature, K	Molar heat capacity at constant pressure, J/K/mol	uncertainty
290	363.4136624	18.17068312

System: water + calcium dibromide; phases: Liquid
Fixed: Pressure, kPa = 96
Fixed: Mass fraction of calcium dibromide = .649
Property: Molar heat capacity at constant pressure, J/K/mol (Liquid); method: Small sample (50 mg) scanning calorimetry
Temperature, K	Molar heat capacity at constant pressure, J/K/mol	uncertainty
320	75.6698827770097	3.78349413885048
