Measured thermophysical data. A SAXS-WAXS study of the endothermic transitions in amorphous or supercooled liquid itraconazole
Source: Thermochim. Acta, 2016, 10.1016/j.tca.2016.10.004
Compound 1: Itraconazole, C35H38Cl2N8O4, purity 99%

System: Itraconazole; phases: Nematic liquid crystal, Liquid, Air at 1 atmosphere
Property: Triple point temperature, K (Nematic liquid crystal); method: DSC
Triple point temperature, K	uncertainty
362.15	.100000000000023

System: Itraconazole; phases: Nematic liquid crystal, Liquid crystal of unknown type, Air at 1 atmosphere
Property: Triple point temperature, K (Nematic liquid crystal); method: DSC
Triple point temperature, K	uncertainty
346.85	.100000000000023
