Measured thermophysical data. Thermal analysis and heat capacities of pyridinium and imidazolium  ionic liquids
Source: Thermochim. Acta, 2013, 10.1016/j.tca.2013.05.007
Compound 1: 1-ethyl-3-methylpyridinium bis(trifluoromethanesulfonyl)imide, C10H12F6N2O4S2, purity 99%
Compound 2: 3-methyl-1-propylpyridinium bis(trifluoromethylsulfonyl)imide, C11H14F6N2O4S2, purity 99%
Compound 3: 1-butyl-3-methylpyridinium bis(trifluoromethylsulfonyl)imide, C12H16F6N2O4S2, purity 99%
Compound 4: 1-butyl-3-methylpyridinium trifluoromethanesulfonate, C11H16F3NO3S, purity 99%
Compound 5: 1-butyl-3-methylimidazolium trifluoromethanesulfonate, C9H15F3N2O3S, purity 99%
Compound 6: 1-butyl-3-methylimidazolium dicyanamide, C10H15N5, purity 98%

System: 1-ethyl-3-methylpyridinium bis(trifluoromethanesulfonyl)imide; phases: Crystal, Liquid, Air at 1 atmosphere
Property: Normal melting temperature, K (Crystal); method: DSC/DTA
Normal melting temperature, K	uncertainty
272	

System: 1-ethyl-3-methylpyridinium bis(trifluoromethanesulfonyl)imide; phases: Liquid
Fixed: Pressure, kPa = 101.325
Property: Molar heat capacity at constant pressure, J/K/mol (Liquid); method: Large sample (1 g) DSC
Temperature, K	Molar heat capacity at constant pressure, J/K/mol	uncertainty
293.15	484	24.2
294.15	486	24.3
295.15	487	24.35
296.15	489	24.45
297.15	490	24.5
298.15	491	24.55
299.15	493	24.65
300.15	494	24.7
301.15	495	24.75
302.15	496	24.8
303.15	497	24.85
304.15	498	24.9
305.15	499	24.95
306.15	500	25
307.15	501	25.05
308.15	502	25.1
309.15	502	25.1
310.15	503	25.15
311.15	504	25.2
312.15	505	25.25
313.15	506	25.3
314.15	507	25.35
315.15	507	25.35
316.15	508	25.4
317.15	509	25.45
318.15	510	25.5
319.15	510	25.5
320.15	511	25.55
321.15	512	25.6
322.15	513	25.65
323.15	514	25.7
324.15	514	25.7
325.15	515	25.75
326.15	516	25.8
327.15	517	25.85
328.15	518	25.9
329.15	519	25.95
330.15	519	25.95
331.15	520	26
332.15	521	26.05
333.15	522	26.1

System: 3-methyl-1-propylpyridinium bis(trifluoromethylsulfonyl)imide; phases: Glass, Liquid, Air at 1 atmosphere
Property: Triple point temperature, K (Glass); method: DSC/DTA
Triple point temperature, K	uncertainty
185	1

System: 3-methyl-1-propylpyridinium bis(trifluoromethylsulfonyl)imide; phases: Liquid
Fixed: Pressure, kPa = 101.325
Property: Molar heat capacity at constant pressure, J/K/mol (Liquid); method: Large sample (1 g) DSC
Temperature, K	Molar heat capacity at constant pressure, J/K/mol	uncertainty
293.15	510	25.5
294.15	511	25.55
295.15	513	25.65
296.15	514	25.7
297.15	516	25.8
298.15	517	25.85
299.15	518	25.9
300.15	519	25.95
301.15	520	26
302.15	521	26.05
303.15	522	26.1
304.15	523	26.15
305.15	524	26.2
306.15	525	26.25
307.15	526	26.3
308.15	527	26.35
309.15	528	26.4
310.15	529	26.45
311.15	530	26.5
312.15	531	26.55
313.15	532	26.6
314.15	532	26.6
315.15	533	26.65
316.15	534	26.7
317.15	535	26.75
318.15	536	26.8
319.15	536	26.8
320.15	537	26.85
321.15	538	26.9
322.15	539	26.95
323.15	540	27
324.15	541	27.05
325.15	541	27.05
326.15	542	27.1
327.15	543	27.15
328.15	544	27.2
329.15	545	27.25
330.15	546	27.3
331.15	547	27.35
332.15	548	27.4
333.15	549	27.45

System: 1-butyl-3-methylpyridinium bis(trifluoromethylsulfonyl)imide; phases: Glass, Liquid, Air at 1 atmosphere
Property: Triple point temperature, K (Glass); method: DSC/DTA
Triple point temperature, K	uncertainty
188	1

System: 1-butyl-3-methylpyridinium bis(trifluoromethylsulfonyl)imide; phases: Liquid
Fixed: Pressure, kPa = 101.325
Property: Molar heat capacity at constant pressure, J/K/mol (Liquid); method: Large sample (1 g) DSC
Temperature, K	Molar heat capacity at constant pressure, J/K/mol	uncertainty
293.15	541	27.05
294.15	542	27.1
295.15	544	27.2
296.15	546	27.3
297.15	547	27.35
298.15	548	27.4
299.15	550	27.5
300.15	551	27.55
301.15	552	27.6
302.15	553	27.65
303.15	554	27.7
304.15	555	27.75
305.15	556	27.8
306.15	557	27.85
307.15	558	27.9
308.15	559	27.95
309.15	560	28
310.15	561	28.05
311.15	562	28.1
312.15	563	28.15
313.15	564	28.2
314.15	564	28.2
315.15	565	28.25
316.15	566	28.3
317.15	567	28.35
318.15	568	28.4
319.15	569	28.45
320.15	570	28.5
321.15	570	28.5
322.15	571	28.55
323.15	572	28.6
324.15	573	28.65
325.15	574	28.7
326.15	575	28.75
327.15	576	28.8
328.15	577	28.85
329.15	578	28.9
330.15	579	28.95
331.15	580	29
332.15	581	29.05
333.15	582	29.1

System: 1-butyl-3-methylpyridinium trifluoromethanesulfonate; phases: Metastable crystal, Liquid, Air at 1 atmosphere
Property: Normal melting temperature, K (Metastable crystal); method: DSC/DTA
Normal melting temperature, K	uncertainty
267	

System: 1-butyl-3-methylpyridinium trifluoromethanesulfonate; phases: Crystal 1, Liquid, Air at 1 atmosphere
Property: Normal melting temperature, K (Crystal 1); method: DSC/DTA
Normal melting temperature, K	uncertainty
303	

System: 1-butyl-3-methylpyridinium trifluoromethanesulfonate; phases: Glass, Liquid, Air at 1 atmosphere
Property: Triple point temperature, K (Glass); method: DSC/DTA
Triple point temperature, K	uncertainty
197	1

System: 1-butyl-3-methylpyridinium trifluoromethanesulfonate; phases: Liquid
Fixed: Pressure, kPa = 101.325
Property: Molar heat capacity at constant pressure, J/K/mol (Liquid); method: Large sample (1 g) DSC
Temperature, K	Molar heat capacity at constant pressure, J/K/mol	uncertainty
323.15	461	23.05
324.15	462	23.1
325.15	464	23.2
326.15	465	23.25
327.15	467	23.35
328.15	468	23.4
329.15	469	23.45
330.15	471	23.55
331.15	472	23.6
332.15	473	23.65
333.15	474	23.7
334.15	475	23.75
335.15	476	23.8
336.15	478	23.9
337.15	479	23.95
338.15	480	24
339.15	481	24.05
340.15	482	24.1
341.15	483	24.15
342.15	485	24.25
343.15	486	24.3
344.15	487	24.35
345.15	488	24.4
346.15	489	24.45
347.15	490	24.5
348.15	491	24.55
349.15	492	24.6
350.15	493	24.65
351.15	494	24.7
352.15	495	24.75
353.15	496	24.8

System: 1-butyl-3-methylimidazolium trifluoromethanesulfonate; phases: Crystal, Liquid, Air at 1 atmosphere
Property: Normal melting temperature, K (Crystal); method: DSC/DTA
Normal melting temperature, K	uncertainty
285	

System: 1-butyl-3-methylimidazolium trifluoromethanesulfonate; phases: Liquid
Fixed: Pressure, kPa = 101.325
Property: Molar heat capacity at constant pressure, J/K/mol (Liquid); method: Large sample (1 g) DSC
Temperature, K	Molar heat capacity at constant pressure, J/K/mol	uncertainty
323.15	456	22.8
324.15	457	22.85
325.15	458	22.9
326.15	459	22.95
327.15	460	23
328.15	461	23.05
329.15	462	23.1
330.15	463	23.15
331.15	464	23.2
332.15	465	23.25
333.15	466	23.3
334.15	467	23.35
335.15	467	23.35
336.15	468	23.4
337.15	469	23.45
338.15	470	23.5
339.15	471	23.55
340.15	472	23.6
341.15	473	23.65
342.15	474	23.7
343.15	475	23.75
344.15	476	23.8
345.15	477	23.85
346.15	477	23.85
347.15	478	23.9
348.15	479	23.95
349.15	480	24
350.15	481	24.05
351.15	481	24.05
352.15	482	24.1
353.15	483	24.15

System: 1-butyl-3-methylimidazolium dicyanamide; phases: Crystal 2, Crystal 1, Gas
Property: Triple point temperature, K (Crystal 2); method: DSC/DTA
Triple point temperature, K	uncertainty
225	

System: 1-butyl-3-methylimidazolium dicyanamide; phases: Crystal 1, Liquid, Air at 1 atmosphere
Property: Normal melting temperature, K (Crystal 1); method: DSC/DTA
Normal melting temperature, K	uncertainty
267	

System: 1-butyl-3-methylimidazolium dicyanamide; phases: Glass, Liquid, Air at 1 atmosphere
Property: Triple point temperature, K (Glass); method: DSC/DTA
Triple point temperature, K	uncertainty
181	1

System: 1-butyl-3-methylimidazolium dicyanamide; phases: Liquid
Fixed: Pressure, kPa = 101.325
Property: Molar heat capacity at constant pressure, J/K/mol (Liquid); method: Large sample (1 g) DSC
Temperature, K	Molar heat capacity at constant pressure, J/K/mol	uncertainty
293.15	372	18.6
294.15	373	18.65
295.15	374	18.7
296.15	375	18.75
297.15	375	18.75
298.15	376	18.8
299.15	377	18.85
300.15	377	18.85
301.15	378	18.9
302.15	378	18.9
303.15	379	18.95
304.15	379	18.95
305.15	380	19
306.15	380	19
307.15	381	19.05
308.15	381	19.05
309.15	382	19.1
310.15	382	19.1
311.15	382	19.1
312.15	383	19.15
313.15	383	19.15
314.15	384	19.2
315.15	384	19.2
316.15	384	19.2
317.15	385	19.25
318.15	385	19.25
319.15	385	19.25
320.15	386	19.3
321.15	386	19.3
322.15	387	19.35
323.15	387	19.35
324.15	388	19.4
325.15	388	19.4
326.15	388	19.4
327.15	389	19.45
328.15	389	19.45
329.15	390	19.5
330.15	390	19.5
331.15	391	19.55
332.15	391	19.55
333.15	392	19.6
