Measured thermophysical data. Physicochemical and thermodynamic characterization of N-alkyl-N-methylpyrrolidinium bromides and its aqueous solutions
Source: Thermochim. Acta, 2014, 10.1016/j.tca.2014.05.028
Compound 1: N-propyl-N-methylpyrrolidinium bromide, C8H18BrN, purity 98%
Compound 2: N-butyl-N-methylpyrrolidinium bromide, C9H20BrN, purity 97%
Compound 3: N-pentyl-N-methylpyrrolidinium bromide, C10H22BrN, purity 99%
Compound 4: water, H2O, purity 99.8%

System: N-propyl-N-methylpyrrolidinium bromide; phases: Crystal 2, Crystal 1, Air at 1 atmosphere
Property: Triple point temperature, K (Crystal 2); method: DSC/DTA
Triple point temperature, K	uncertainty
465.12	.1

System: N-propyl-N-methylpyrrolidinium bromide; phases: Crystal 2, Crystal 1, Air at 1 atmosphere
Property: Molar enthalpy of transition or fusion, kJ/mol (Crystal 2); method: DSC/DTA
Molar enthalpy of transition or fusion, kJ/mol	uncertainty
2.92	

System: N-propyl-N-methylpyrrolidinium bromide; phases: Crystal 1, Liquid, Air at 1 atmosphere
Property: Triple point temperature, K (Crystal 1); method: DSC/DTA
Triple point temperature, K	uncertainty
476.68	.1

System: N-propyl-N-methylpyrrolidinium bromide; phases: Crystal 1, Liquid, Gas
Property: Molar enthalpy of transition or fusion, kJ/mol (Crystal 1); method: DSC/DTA
Molar enthalpy of transition or fusion, kJ/mol	uncertainty
10.85	

System: N-propyl-N-methylpyrrolidinium bromide; phases: Liquid
Property: Mass density, kg/m3 (Liquid); method: Vibrating tube method
Temperature, K	Pressure, kPa	Mass density, kg/m3	uncertainty
298.15	101	1259.96	.1
303.15	101	1255.92	.1
308.15	101	1251.9	.1
313.15	101	1247.91	.1
318.15	101	1243.94	.1
323.15	101	1240	.1
328.15	101	1236.08	.1
333.15	101	1232.19	.1
338.15	101	1228.32	.1
343.15	101	1224.48	.1

System: N-butyl-N-methylpyrrolidinium bromide; phases: Crystal, Liquid, Air at 1 atmosphere
Property: Triple point temperature, K (Crystal); method: DSC/DTA
Triple point temperature, K	uncertainty
487.67	.1

System: N-butyl-N-methylpyrrolidinium bromide; phases: Crystal, Liquid, Gas
Property: Molar enthalpy of transition or fusion, kJ/mol (Crystal); method: DSC/DTA
Molar enthalpy of transition or fusion, kJ/mol	uncertainty
13.12	

System: N-butyl-N-methylpyrrolidinium bromide; phases: Liquid
Property: Mass density, kg/m3 (Liquid); method: Vibrating tube method
Temperature, K	Pressure, kPa	Mass density, kg/m3	uncertainty
298.15	101	1221.19	.1
303.15	101	1217.27	.1
308.15	101	1213.38	.1
313.15	101	1209.51	.1
318.15	101	1205.66	.1
323.15	101	1201.84	.1
328.15	101	1198.05	.1
333.15	101	1194.28	.1
338.15	101	1190.53	.1
343.15	101	1186.8	.1

System: N-pentyl-N-methylpyrrolidinium bromide; phases: Crystal 2, Crystal 1, Air at 1 atmosphere
Property: Triple point temperature, K (Crystal 2); method: DSC/DTA
Triple point temperature, K	uncertainty
326.85	.1

System: N-pentyl-N-methylpyrrolidinium bromide; phases: Crystal 2, Crystal 1, Air at 1 atmosphere
Property: Molar enthalpy of transition or fusion, kJ/mol (Crystal 2); method: DSC/DTA
Molar enthalpy of transition or fusion, kJ/mol	uncertainty
1.95	

System: N-pentyl-N-methylpyrrolidinium bromide; phases: Crystal 1, Liquid, Air at 1 atmosphere
Property: Triple point temperature, K (Crystal 1); method: DSC/DTA
Triple point temperature, K	uncertainty
431.55	.1

System: N-pentyl-N-methylpyrrolidinium bromide; phases: Crystal 1, Liquid, Gas
Property: Molar enthalpy of transition or fusion, kJ/mol (Crystal 1); method: DSC/DTA
Molar enthalpy of transition or fusion, kJ/mol	uncertainty
8.97	

System: N-pentyl-N-methylpyrrolidinium bromide; phases: Liquid
Property: Mass density, kg/m3 (Liquid); method: Vibrating tube method
Temperature, K	Pressure, kPa	Mass density, kg/m3	uncertainty
298.15	101	1188.96	.1
303.15	101	1185.14	.1
308.15	101	1181.35	.1
313.15	101	1177.58	.1
318.15	101	1173.84	.1
323.15	101	1170.12	.1
328.15	101	1166.42	.1
333.15	101	1162.75	.1
338.15	101	1159.1	.1
343.15	101	1155.48	.1

System: water; phases: Liquid
Property: Mass density, kg/m3 (Liquid); method: Vibrating tube method
Temperature, K	Pressure, kPa	Mass density, kg/m3	uncertainty
298.15	101	997.06	.1
303.15	101	995.65	.1
308.15	101	994.01	.1
313.15	101	992.15	.1
318.15	101	990.14	.1
323.15	101	987.93	.1
328.15	101	985.61	.1
333.15	101	983.17	.1
338.15	101	980.3	.1
343.15	101	978.1	.1

System: water; phases: Liquid, Gas
Property: Vapor or sublimation pressure, kPa (Liquid); method: Ebulliometric method (Recirculating still)
Temperature, K	Vapor or sublimation pressure, kPa	uncertainty
338.15	25	.5
348.15	38.4	.5
358.15	57.8	.5
368.15	84.4	.5

System: water; phases: Liquid
Property: Viscosity, Pa*s (Liquid); method: Falling or rolling sphere viscometry
Temperature, K	Pressure, kPa	Viscosity, Pa*s	uncertainty
298.15	101	.00089	.0000267
303.15	101	.000805	.00002415
308.15	101	.000713	.00002139
313.15	101	.000647	.00001941
318.15	101	.000597	.00001791
323.15	101	.000549	.00001647
328.15	101	.000505	.00001515
333.15	101	.000465	.00001395
338.15	101	.000437	.00001311
343.15	101	.000401	.00001203

System: water + N-propyl-N-methylpyrrolidinium bromide; phases: Liquid
Fixed: Pressure, kPa = 101
Property: Mass density, kg/m3 (Liquid); method: Vibrating tube method
Temperature, K	Mole fraction of N-propyl-N-methylpyrrolidinium bromide	Mass density, kg/m3	uncertainty
298.15	0	997.06	.1
298.15	.0315	1060.85	.1
298.15	.0664	1111.9	.1
298.15	.0983	1147.67	.1
298.15	.1376	1178.4	.1
298.15	.1685	1196.91	.1
298.15	.2138	1217.36	.1
298.15	.2382	1225.96	.1
298.15	.27	1235.84	.1
298.15	.3143	1245.39	.1
298.15	.3535	1251.89	.1
298.15	1	1259.96	.1
303.15	0	995.65	.1
303.15	.0315	1058.76	.1
303.15	.0664	1109.17	.1
303.15	.0983	1144.55	.1
303.15	.1376	1175.05	.1
303.15	.1685	1193.47	.1
303.15	.2138	1213.89	.1
303.15	.2382	1222.51	.1
303.15	.27	1232.42	.1
303.15	.3143	1242.02	.1
303.15	.3535	1248.57	.1
303.15	1	1255.92	.1
308.15	0	994.01	.1
308.15	.0315	1056.5	.1
308.15	.0664	1106.34	.1
308.15	.0983	1141.38	.1
308.15	.1376	1171.66	.1
308.15	.1685	1190.01	.1
308.15	.2138	1210.41	.1
308.15	.2382	1219.05	.1
308.15	.27	1228.99	.1
308.15	.3143	1238.64	.1
308.15	.3535	1245.24	.1
308.15	1	1251.9	.1
313.15	0	992.15	.1
313.15	.0315	1054.11	.1
313.15	.0664	1103.44	.1
313.15	.0983	1138.15	.1
313.15	.1376	1168.23	.1
313.15	.1685	1186.52	.1
313.15	.2138	1206.9	.1
313.15	.2382	1215.56	.1
313.15	.27	1225.54	.1
313.15	.3143	1235.25	.1
313.15	.3535	1241.91	.1
313.15	1	1247.91	.1
318.15	0	990.14	.1
318.15	.0315	1051.58	.1
318.15	.0664	1100.44	.1
318.15	.0983	1134.88	.1
318.15	.1376	1164.78	.1
318.15	.1685	1183	.1
318.15	.2138	1203.37	.1
318.15	.2382	1212.05	.1
318.15	.27	1222.08	.1
318.15	.3143	1231.85	.1
318.15	.3535	1238.59	.1
318.15	1	1243.94	.1
323.15	0	987.93	.1
323.15	.0315	1048.87	.1
323.15	.0664	1097.37	.1
323.15	.0983	1131.54	.1
323.15	.1376	1161.28	.1
323.15	.1685	1179.46	.1
323.15	.2138	1199.83	.1
323.15	.2382	1208.53	.1
323.15	.27	1218.61	.1
323.15	.3143	1228.44	.1
323.15	.3535	1235.27	.1
323.15	1	1240	.1
328.15	0	985.61	.1
328.15	.0315	1045.65	.1
328.15	.0664	1094.2	.1
328.15	.0983	1128.16	.1
328.15	.1376	1157.76	.1
328.15	.1685	1175.88	.1
328.15	.2138	1196.26	.1
328.15	.2382	1205	.1
328.15	.27	1215.12	.1
328.15	.3143	1225.02	.1
328.15	.3535	1231.95	.1
328.15	1	1236.08	.1
333.15	0	983.17	.1
333.15	.0315	1041.46	.1
333.15	.0664	1090.9	.1
333.15	.0983	1124.72	.1
333.15	.1376	1154.2	.1
333.15	.1685	1172.28	.1
333.15	.2138	1192.68	.1
333.15	.2382	1201.44	.1
333.15	.27	1211.61	.1
333.15	.3143	1221.59	.1
333.15	.3535	1228.68	.1
333.15	1	1232.19	.1
338.15	0	980.3	.1
338.15	.0315	1036.23	.1
338.15	.0664	1087.31	.1
338.15	.0983	1121.23	.1
338.15	.1376	1150.6	.1
338.15	.1685	1168.66	.1
338.15	.2138	1189.07	.1
338.15	.2382	1197.87	.1
338.15	.27	1208.09	.1
338.15	.3143	1218.14	.1
338.15	.3535	1225.35	.1
338.15	1	1228.32	.1
343.15	0	978.1	.1
343.15	.0315	1030.46	.1
343.15	.0664	1083.03	.1
343.15	.0983	1117.67	.1
343.15	.1376	1146.98	.1
343.15	.1685	1165.01	.1
343.15	.2138	1185.45	.1
343.15	.2382	1194.28	.1
343.15	.27	1204.56	.1
343.15	.3143	1214.68	.1
343.15	.3535	1221.99	.1
343.15	1	1224.48	.1

System: water + N-propyl-N-methylpyrrolidinium bromide; phases: Liquid
Fixed: Pressure, kPa = 101
Property: Viscosity, Pa*s (Liquid); method: Falling or rolling sphere viscometry
Temperature, K	Mole fraction of N-propyl-N-methylpyrrolidinium bromide	Viscosity, Pa*s	uncertainty
298.15	0	.00089	.0000267
298.15	.0315	.001604	.00004812
298.15	.0664	.002896	.00008688
298.15	.0983	.005311	.00015933
298.15	.1376	.008527	.00025581
298.15	.1685	.01241	.0003723
298.15	.2138	.02056	.0006168
298.15	.2382	.02601	.0007803
298.15	.27	.03547	.0010641
298.15	.3143	.0507	.001521
298.15	.3535	.06994	.0020982
303.15	0	.000805	.00002415
303.15	.0315	.001412	.00004236
303.15	.0664	.0025	.000075
303.15	.0983	.004504	.00013512
303.15	.1376	.007082	.00021246
303.15	.1685	.0102	.000306
303.15	.2138	.01641	.0004923
303.15	.2382	.02059	.0006177
303.15	.27	.02762	.0008286
303.15	.3143	.03902	.0011706
303.15	.3535	.05325	.0015975
308.15	0	.000713	.00002139
308.15	.0315	.001216	.00003648
308.15	.0664	.002115	.00006345
308.15	.0983	.003451	.00010353
308.15	.1376	.005766	.00017298
308.15	.1685	.008237	.00024711
308.15	.2138	.01297	.0003891
308.15	.2382	.01615	.0004845
308.15	.27	.02143	.0006429
308.15	.3143	.02975	.0008925
308.15	.3535	.04025	.0012075
313.15	0	.000647	.00001941
313.15	.0315	.001077	.00003231
313.15	.0664	.001841	.00005523
313.15	.0983	.002994	.00008982
313.15	.1376	.004851	.00014553
313.15	.1685	.00689	.0002067
313.15	.2138	.01066	.0003198
313.15	.2382	.01314	.0003942
313.15	.27	.01724	.0005172
313.15	.3143	.02361	.0007083
313.15	.3535	.03153	.0009459
318.15	0	.000597	.00001791
318.15	.0315	.000972	.00002916
318.15	.0664	.001633	.00004899
318.15	.0983	.002652	.00007956
318.15	.1376	.00416	.0001248
318.15	.1685	.005833	.00017499
318.15	.2138	.008968	.00026904
318.15	.2382	.01098	.0003294
318.15	.27	.01427	.0004281
318.15	.3143	.01929	.0005787
318.15	.3535	.02542	.0007626
323.15	0	.000549	.00001647
323.15	.0315	.000865	.00002595
323.15	.0664	.001431	.00004293
323.15	.0983	.002372	.00007116
323.15	.1376	.003542	.00010626
323.15	.1685	.004937	.00014811
323.15	.2138	.00749	.0002247
323.15	.2382	.00911	.0002733
323.15	.27	.01175	.0003525
323.15	.3143	.01569	.0004707
323.15	.3535	.02044	.0006132
328.15	0	.000505	.00001515
328.15	.0315	.000771	.00002313
328.15	.0664	.001254	.00003762
328.15	.0983	.002085	.00006255
328.15	.1376	.003021	.00009063
328.15	.1685	.004183	.00012549
328.15	.2138	.006287	.00018861
328.15	.2382	.007586	.00022758
328.15	.27	.009732	.00029196
328.15	.3143	.01285	.0003855
328.15	.3535	.01654	.0004962
333.15	0	.000465	.00001395
333.15	.0315	.000695	.00002085
333.15	.0664	.001112	.00003336
333.15	.0983	.001841	.00005523
333.15	.1376	.00261	.0000783
333.15	.1685	.003597	.00010791
333.15	.2138	.005348	.00016044
333.15	.2382	.006425	.00019275
333.15	.27	.008189	.00024567
333.15	.3143	.01073	.0003219
333.15	.3535	.0137	.000411
338.15	0	.000437	.00001311
338.15	.0315	.00064	.0000192
338.15	.0664	.00101	.0000303
338.15	.0983	.001651	.00004953
338.15	.1376	.002311	.00006933
338.15	.1685	.003174	.00009522
338.15	.2138	.004677	.00014031
338.15	.2382	.005592	.00016776
338.15	.27	.007083	.00021249
338.15	.3143	.009191	.00027573
338.15	.3535	.01165	.0003495
343.15	0	.000401	.00001203
343.15	.0315	.000574	.00001722
343.15	.0664	.000881	.00002643
343.15	.0983	.001326	.00003978
343.15	.1376	.001931	.00005793
343.15	.1685	.002763	.00008289
343.15	.2138	.004018	.00012054
343.15	.2382	.004784	.00014352
343.15	.27	.006011	.00018033
343.15	.3143	.007777	.00023331
343.15	.3535	.009762	.00029286

System: water + N-propyl-N-methylpyrrolidinium bromide; phases: Liquid, Gas
Property: Vapor or sublimation pressure, kPa (Liquid); method: Ebulliometric method (Recirculating still)
Temperature, K	Mole fraction of N-propyl-N-methylpyrrolidinium bromide	Vapor or sublimation pressure, kPa	uncertainty
338.15	0	25	.5
338.15	.005	25	.5
338.15	.008	24.7	.5
338.15	.013	24.5	.5
338.15	.02	24.3	.5
338.15	.031	23.9	.5
338.15	.042	23.7	.5
338.15	.054	23.1	.5
338.15	.068	22.4	.5
338.15	.08	22	.5
338.15	.097	20.9	.5
338.15	.111	20.1	.5
338.15	.124	19.5	.5
338.15	.141	18.6	.5
338.15	.157	17.8	.5
338.15	.187	16.5	.5
348.15	0	38.4	.5
348.15	.005	38.4	.5
348.15	.008	38.1	.5
348.15	.013	37.7	.5
348.15	.02	37.4	.5
348.15	.031	36.7	.5
348.15	.041	36.1	.5
348.15	.055	35.4	.5
348.15	.07	34.2	.5
348.15	.082	33.5	.5
348.15	.096	32.4	.5
348.15	.111	30.8	.5
348.15	.124	29.8	.5
348.15	.141	28.4	.5
348.15	.155	27.3	.5
348.15	.186	24.4	.5
358.15	0	57.8	.5
358.15	.004	57.5	.5
358.15	.008	57.1	.5
358.15	.013	56.6	.5
358.15	.02	56	.5
358.15	.032	55	.5
358.15	.042	54.1	.5
358.15	.055	53	.5
358.15	.07	51.3	.5
358.15	.081	50.1	.5
358.15	.098	47.9	.5
358.15	.112	46	.5
358.15	.124	44.7	.5
358.15	.142	42.4	.5
358.15	.158	40.4	.5
358.15	.186	36.4	.5
368.15	0	84.4	.5
368.15	.005	83.9	.5
368.15	.008	83.4	.5
368.15	.013	82.6	.5
368.15	.02	81.9	.5
368.15	.031	80.3	.5
368.15	.042	79.1	.5
368.15	.055	77.3	.5
368.15	.069	74.9	.5
368.15	.081	73.1	.5
368.15	.097	70	.5
368.15	.111	67.3	.5
368.15	.124	65	.5
368.15	.141	61.6	.5
368.15	.156	59.1	.5
368.15	.186	52.9	.5

System: water + N-butyl-N-methylpyrrolidinium bromide; phases: Liquid
Fixed: Pressure, kPa = 101
Property: Mass density, kg/m3 (Liquid); method: Vibrating tube method
Temperature, K	Mole fraction of N-butyl-N-methylpyrrolidinium bromide	Mass density, kg/m3	uncertainty
298.15	0	997.06	.1
298.15	.0265	1049.2	.1
298.15	.0561	1093.18	.1
298.15	.0871	1125.96	.1
298.15	.1283	1156.08	.1
298.15	.1645	1174.63	.1
298.15	.2074	1190.42	.1
298.15	.2525	1202.66	.1
298.15	.28	1208.32	.1
298.15	.3012	1212.16	.1
298.15	.3254	1215.99	.1
298.15	1	1221.19	.1
303.15	0	995.65	.1
303.15	.0265	1047.05	.1
303.15	.0561	1090.36	.1
303.15	.0871	1122.7	.1
303.15	.1283	1152.59	.1
303.15	.1645	1171.08	.1
303.15	.2074	1186.89	.1
303.15	.2525	1199.19	.1
303.15	.28	1204.89	.1
303.15	.3012	1208.76	.1
303.15	.3254	1212.62	.1
303.15	1	1217.27	.1
308.15	0	994.01	.1
308.15	.0265	1044.76	.1
308.15	.0561	1087.45	.1
308.15	.0871	1119.39	.1
308.15	.1283	1149.06	.1
308.15	.1645	1167.5	.1
308.15	.2074	1183.35	.1
308.15	.2525	1195.71	.1
308.15	.28	1201.45	.1
308.15	.3012	1205.35	.1
308.15	.3254	1209.25	.1
308.15	1	1213.38	.1
313.15	0	992.15	.1
313.15	.0265	1042.32	.1
313.15	.0561	1084.45	.1
313.15	.0871	1116.03	.1
313.15	.1283	1145.49	.1
313.15	.1645	1163.9	.1
313.15	.2074	1179.78	.1
313.15	.2525	1192.21	.1
313.15	.28	1198	.1
313.15	.3012	1201.93	.1
313.15	.3254	1205.87	.1
313.15	1	1209.51	.1
318.15	0	990.14	.1
318.15	.0265	1039.75	.1
318.15	.0561	1081.37	.1
318.15	.0871	1112.61	.1
318.15	.1283	1141.9	.1
318.15	.1645	1160.28	.1
318.15	.2074	1176.2	.1
318.15	.2525	1188.7	.1
318.15	.28	1194.53	.1
318.15	.3012	1198.5	.1
318.15	.3254	1202.48	.1
318.15	1	1205.66	.1
323.15	0	987.93	.1
323.15	.0265	1037.05	.1
323.15	.0561	1078.21	.1
323.15	.0871	1109.15	.1
323.15	.1283	1138.27	.1
323.15	.1645	1156.64	.1
323.15	.2074	1172.59	.1
323.15	.2525	1185.17	.1
323.15	.28	1191.05	.1
323.15	.3012	1195.06	.1
323.15	.3254	1199.08	.1
323.15	1	1201.84	.1
328.15	0	985.61	.1
328.15	.0265	1034.23	.1
328.15	.0561	1074.97	.1
328.15	.0871	1105.64	.1
328.15	.1283	1134.62	.1
328.15	.1645	1152.97	.1
328.15	.2074	1168.97	.1
328.15	.2525	1181.63	.1
328.15	.28	1187.55	.1
328.15	.3012	1191.6	.1
328.15	.3254	1195.67	.1
328.15	1	1198.05	.1
333.15	0	983.17	.1
333.15	.0265	1031.32	.1
333.15	.0561	1071.61	.1
333.15	.0871	1102.07	.1
333.15	.1283	1130.94	.1
333.15	.1645	1149.27	.1
333.15	.2074	1165.34	.1
333.15	.2525	1178.06	.1
333.15	.28	1184.04	.1
333.15	.3012	1188.13	.1
333.15	.3254	1192.25	.1
333.15	1	1194.28	.1
338.15	0	980.3	.1
338.15	.0265	1028.4	.1
338.15	.0561	1068.07	.1
338.15	.0871	1098.46	.1
338.15	.1283	1127.23	.1
338.15	.1645	1145.56	.1
338.15	.2074	1161.68	.1
338.15	.2525	1174.49	.1
338.15	.28	1180.52	.1
338.15	.3012	1184.65	.1
338.15	.3254	1188.82	.1
338.15	1	1190.53	.1
343.15	0	978.1	.1
343.15	.0265	1024.59	.1
343.15	.0561	1065.42	.1
343.15	.0871	1094.8	.1
343.15	.1283	1123.48	.1
343.15	.1645	1141.82	.1
343.15	.2074	1158	.1
343.15	.2525	1170.9	.1
343.15	.28	1176.99	.1
343.15	.3012	1181.16	.1
343.15	.3254	1185.37	.1
343.15	1	1186.8	.1

System: water + N-butyl-N-methylpyrrolidinium bromide; phases: Liquid
Fixed: Pressure, kPa = 101
Property: Viscosity, Pa*s (Liquid); method: Falling or rolling sphere viscometry
Temperature, K	Mole fraction of N-butyl-N-methylpyrrolidinium bromide	Viscosity, Pa*s	uncertainty
298.15	0	.00089	.0000267
298.15	.0265	.00164	.0000492
298.15	.0561	.002906	.00008718
298.15	.0871	.0049	.000147
298.15	.1283	.008897	.00026691
298.15	.1645	.01384	.0004152
298.15	.2074	.02221	.0006663
298.15	.2525	.03628	.0010884
298.15	.28	.04498	.0013494
298.15	.3012	.0547	.001641
298.15	.3254	.06764	.0020292
303.15	0	.000805	.00002415
303.15	.0265	.001444	.00004332
303.15	.0561	.0025	.000075
303.15	.0871	.004146	.00012438
303.15	.1283	.007398	.00022194
303.15	.1645	.01127	.0003381
303.15	.2074	.01769	.0005307
303.15	.2525	.0276	.000828
303.15	.28	.03467	.0010401
303.15	.3012	.04165	.0012495
303.15	.3254	.05114	.0015342
308.15	0	.000713	.00002139
308.15	.0265	.00124	.0000372
308.15	.0561	.00211	.0000633
308.15	.0871	.003445	.00010335
308.15	.1283	.006041	.00018123
308.15	.1645	.009049	.00027147
308.15	.2074	.01387	.0004161
308.15	.2525	.02122	.0006366
308.15	.28	.02645	.0007935
308.15	.3012	.0315	.000945
308.15	.3254	.0384	.001152
313.15	0	.000647	.00001941
313.15	.0265	.001099	.00003297
313.15	.0561	.001833	.00005499
313.15	.0871	.002945	.00008835
313.15	.1283	.005106	.00015318
313.15	.1645	.00753	.0002259
313.15	.2074	.01135	.0003405
313.15	.2525	.01702	.0005106
313.15	.28	.02097	.0006291
313.15	.3012	.0248	.000744
313.15	.3254	.03002	.0009006
318.15	0	.000597	.00001791
318.15	.0265	.000987	.00002961
318.15	.0561	.001621	.00004863
318.15	.0871	.002579	.00007737
318.15	.1283	.004399	.00013197
318.15	.1645	.0064	.000192
318.15	.2074	.009501	.00028503
318.15	.2525	.01403	.0004209
318.15	.28	.01712	.0005136
318.15	.3012	.0201	.000603
318.15	.3254	.0241	.000723
323.15	0	.000549	.00001647
323.15	.0265	.000879	.00002637
323.15	.0561	.00142	.0000426
323.15	.0871	.002234	.00006702
323.15	.1283	.003762	.00011286
323.15	.1645	.005403	.00016209
323.15	.2074	.007915	.00023745
323.15	.2525	.01149	.0003447
323.15	.28	.01389	.0004167
323.15	.3012	.01627	.0004881
323.15	.3254	.01934	.0005802
328.15	0	.000505	.00001515
328.15	.0265	.000782	.00002346
328.15	.0561	.001244	.00003732
328.15	.0871	.001935	.00005805
328.15	.1283	.00323	.0000969
328.15	.1645	.004572	.00013716
328.15	.2074	.006602	.00019806
328.15	.2525	.009462	.00028386
328.15	.28	.01138	.0003414
328.15	.3012	.01325	.0003975
328.15	.3254	.01564	.0004692
333.15	0	.000465	.00001395
333.15	.0265	.000705	.00002115
333.15	.0561	.0011	.000033
333.15	.0871	.001701	.00005103
333.15	.1283	.002817	.00008451
333.15	.1645	.003923	.00011769
333.15	.2074	.005554	.00016662
333.15	.2525	.007969	.00023907
333.15	.28	.00948	.0002844
333.15	.3012	.01097	.0003291
333.15	.3254	.01289	.0003867
338.15	0	.000437	.00001311
338.15	.0265	.000649	.00001947
338.15	.0561	.000997	.00002991
338.15	.0871	.001536	.00004608
338.15	.1283	.002525	.00007575
338.15	.1645	.003462	.00010386
338.15	.2074	.00489	.0001467
338.15	.2525	.006876	.00020628
338.15	.28	.008118	.00024354
338.15	.3012	.009372	.00028116
338.15	.3254	.01094	.0003282
343.15	0	.000401	.00001203
343.15	.0265	.000586	.00001758
343.15	.0561	.000887	.00002661
343.15	.0871	.001366	.00004098
343.15	.1283	.002229	.00006687
343.15	.1645	.003005	.00009015
343.15	.2074	.004186	.00012558
343.15	.2525	.005839	.00017517
343.15	.28	.006858	.00020574
343.15	.3012	.007882	.00023646
343.15	.3254	.009135	.00027405

System: water + N-butyl-N-methylpyrrolidinium bromide; phases: Liquid, Gas
Property: Vapor or sublimation pressure, kPa (Liquid); method: Ebulliometric method (Recirculating still)
Temperature, K	Mole fraction of N-butyl-N-methylpyrrolidinium bromide	Vapor or sublimation pressure, kPa	uncertainty
338.15	0	25	.5
338.15	.006	24.5	.5
338.15	.021	24.2	.5
338.15	.032	23.9	.5
338.15	.042	23.6	.5
338.15	.056	23	.5
338.15	.068	22.7	.5
338.15	.083	21.8	.5
338.15	.099	21	.5
338.15	.116	20.2	.5
338.15	.132	19.3	.5
338.15	.151	18.5	.5
338.15	.178	16.7	.5
348.15	0	38.4	.5
348.15	.006	37.9	.5
348.15	.021	37.3	.5
348.15	.033	36.7	.5
348.15	.042	36.3	.5
348.15	.055	35.4	.5
348.15	.068	34.6	.5
348.15	.083	33.6	.5
348.15	.101	32.2	.5
348.15	.115	31.1	.5
348.15	.132	29.8	.5
348.15	.151	28.1	.5
348.15	.178	25.8	.5
348.15	.196	24.5	.5
348.15	.217	22.6	.5
348.15	.242	20.4	.5
358.15	0	57.8	.5
358.15	.006	57.2	.5
358.15	.021	55.9	.5
358.15	.032	55.1	.5
358.15	.042	54.3	.5
358.15	.055	53.1	.5
358.15	.068	51.8	.5
358.15	.083	50.3	.5
358.15	.101	48.1	.5
358.15	.116	46.4	.5
358.15	.133	44.4	.5
358.15	.152	42	.5
358.15	.177	38.9	.5
358.15	.195	36.8	.5
358.15	.212	34.5	.5
358.15	.242	30.5	.5
368.15	0	84.4	.5
368.15	.006	83.5	.5
368.15	.021	81.8	.5
368.15	.031	80.5	.5
368.15	.042	79.3	.5
368.15	.055	77.6	.5
368.15	.068	75.6	.5
368.15	.084	73.2	.5
368.15	.1	70.5	.5
368.15	.116	67.7	.5
368.15	.132	64.7	.5
368.15	.15	61	.5
368.15	.178	56.5	.5
368.15	.196	53	.5
368.15	.217	48.9	.5
368.15	.241	44.2	.5

System: water + N-pentyl-N-methylpyrrolidinium bromide; phases: Liquid
Fixed: Pressure, kPa = 101
Property: Mass density, kg/m3 (Liquid); method: Vibrating tube method
Temperature, K	Mole fraction of N-pentyl-N-methylpyrrolidinium bromide	Mass density, kg/m3	uncertainty
298.15	0	997.06	.1
298.15	.0313	1054.87	.1
298.15	.0592	1089.64	.1
298.15	.0944	1119.19	.1
298.15	.1301	1139.59	.1
298.15	.1566	1150.73	.1
298.15	.1964	1163.63	.1
298.15	.2468	1175.13	.1
298.15	.3028	1184.58	.1
298.15	.3503	1190.28	.1
298.15	.4097	1195.59	.1
298.15	.445	1198.37	.1
298.15	1	1188.96	.1
303.15	0	995.65	.1
303.15	.0313	1052.43	.1
303.15	.0592	1086.59	.1
303.15	.0944	1115.78	.1
303.15	.1301	1136.1	.1
303.15	.1566	1147.25	.1
303.15	.1964	1160.15	.1
303.15	.2468	1171.69	.1
303.15	.3028	1181.21	.1
303.15	.3503	1186.96	.1
303.15	.4097	1192.35	.1
303.15	.445	1195.15	.1
303.15	1	1185.14	.1
308.15	0	994.01	.1
308.15	.0313	1049.86	.1
308.15	.0592	1083.44	.1
308.15	.0944	1112.34	.1
308.15	.1301	1132.57	.1
308.15	.1566	1143.72	.1
308.15	.1964	1156.64	.1
308.15	.2468	1168.24	.1
308.15	.3028	1177.83	.1
308.15	.3503	1183.64	.1
308.15	.4097	1189.09	.1
308.15	.445	1191.92	.1
308.15	1	1181.35	.1
313.15	0	992.15	.1
313.15	.0313	1047.17	.1
313.15	.0592	1080.23	.1
313.15	.0944	1108.85	.1
313.15	.1301	1129.01	.1
313.15	.1566	1140.17	.1
313.15	.1964	1153.12	.1
313.15	.2468	1164.79	.1
313.15	.3028	1174.44	.1
313.15	.3503	1180.31	.1
313.15	.4097	1185.82	.1
313.15	.445	1188.67	.1
313.15	1	1177.58	.1
318.15	0	990.14	.1
318.15	.0313	1044.36	.1
318.15	.0592	1076.94	.1
318.15	.0944	1105.32	.1
318.15	.1301	1125.43	.1
318.15	.1566	1136.58	.1
318.15	.1964	1149.57	.1
318.15	.2468	1161.33	.1
318.15	.3028	1171.04	.1
318.15	.3503	1176.97	.1
318.15	.4097	1182.56	.1
318.15	.445	1185.43	.1
318.15	1	1173.84	.1
323.15	0	987.93	.1
323.15	.0313	1041.42	.1
323.15	.0592	1073.59	.1
323.15	.0944	1101.75	.1
323.15	.1301	1121.81	.1
323.15	.1566	1132.97	.1
323.15	.1964	1146.01	.1
323.15	.2468	1157.86	.1
323.15	.3028	1167.63	.1
323.15	.3503	1173.62	.1
323.15	.4097	1179.3	.1
323.15	.445	1182.19	.1
323.15	1	1170.12	.1
328.15	0	985.61	.1
328.15	.0313	1038.21	.1
328.15	.0592	1070.18	.1
328.15	.0944	1098.14	.1
328.15	.1301	1118.16	.1
328.15	.1566	1129.34	.1
328.15	.1964	1142.42	.1
328.15	.2468	1154.37	.1
328.15	.3028	1164.2	.1
328.15	.3503	1170.27	.1
328.15	.4097	1176.04	.1
328.15	.445	1178.95	.1
328.15	1	1166.42	.1
333.15	0	983.17	.1
333.15	.0313	1034.52	.1
333.15	.0592	1066.7	.1
333.15	.0944	1094.49	.1
333.15	.1301	1114.49	.1
333.15	.1566	1125.68	.1
333.15	.1964	1138.81	.1
333.15	.2468	1150.85	.1
333.15	.3028	1160.77	.1
333.15	.3503	1166.91	.1
333.15	.4097	1172.78	.1
333.15	.445	1175.7	.1
333.15	1	1162.75	.1
338.15	0	980.3	.1
338.15	.0313	1031.9	.1
338.15	.0592	1063.16	.1
338.15	.0944	1090.8	.1
338.15	.1301	1110.78	.1
338.15	.1566	1121.99	.1
338.15	.1964	1135.18	.1
338.15	.2468	1147.32	.1
338.15	.3028	1157.32	.1
338.15	.3503	1163.54	.1
338.15	.4097	1169.46	.1
338.15	.445	1172.45	.1
338.15	1	1159.1	.1
343.15	0	978.1	.1
343.15	.0313	1026.38	.1
343.15	.0592	1059.56	.1
343.15	.0944	1087.07	.1
343.15	.1301	1107.04	.1
343.15	.1566	1118.28	.1
343.15	.1964	1131.53	.1
343.15	.2468	1143.76	.1
343.15	.3028	1153.87	.1
343.15	.3503	1160.16	.1
343.15	.4097	1166.21	.1
343.15	.445	1169.19	.1
343.15	1	1155.48	.1

System: water + N-pentyl-N-methylpyrrolidinium bromide; phases: Liquid
Fixed: Pressure, kPa = 101
Property: Viscosity, Pa*s (Liquid); method: Falling or rolling sphere viscometry
Temperature, K	Mole fraction of N-pentyl-N-methylpyrrolidinium bromide	Viscosity, Pa*s	uncertainty
298.15	0	.00089	.0000267
298.15	.0313	.001987	.00005961
298.15	.0592	.003402	.00010206
298.15	.0944	.006013	.00018039
298.15	.1301	.01008	.0003024
298.15	.1566	.0142	.000426
298.15	.1964	.02259	.0006777
298.15	.2468	.03827	.0011481
298.15	.3028	.06643	.0019929
298.15	.3503	.10255	.0030765
298.15	.4097	.17543	.0052629
298.15	.445	.24118	.0072354
303.15	0	.000805	.00002415
303.15	.0313	.001728	.00005184
303.15	.0592	.002903	.00008709
303.15	.0944	.005036	.00015108
303.15	.1301	.008404	.00025212
303.15	.1566	.01161	.0003483
303.15	.1964	.01805	.0005415
303.15	.2468	.02976	.0008928
303.15	.3028	.05036	.0015108
303.15	.3503	.07683	.0023049
303.15	.4097	.12864	.0038592
303.15	.445	.17372	.0052116
308.15	0	.000713	.00002139
308.15	.0313	.001469	.00004407
308.15	.0592	.002433	.00007299
308.15	.0944	.004142	.00012426
308.15	.1301	.006871	.00020613
308.15	.1566	.009343	.00028029
308.15	.1964	.01422	.0004266
308.15	.2468	.02283	.0006849
308.15	.3028	.03783	.0011349
308.15	.3503	.05694	.0017082
308.15	.4097	.09353	.0028059
308.15	.445	.12468	.0037404
313.15	0	.000647	.00001941
313.15	.0313	.001288	.00003864
313.15	.0592	.002104	.00006312
313.15	.0944	.003523	.00010569
313.15	.1301	.005794	.00017382
313.15	.1566	.007793	.00023379
313.15	.1964	.01162	.0003486
313.15	.2468	.01825	.0005475
313.15	.3028	.02954	.0008862
313.15	.3503	.04393	.0013179
313.15	.4097	.07078	.0021234
313.15	.445	.09443	.0028329
318.15	0	.000597	.00001791
318.15	.0313	.001152	.00003456
318.15	.0592	.001849	.00005547
318.15	.0944	.003055	.00009165
318.15	.1301	.00498	.0001494
318.15	.1566	.006632	.00019896
318.15	.1964	.009734	.00029202
318.15	.2468	.01499	.0004497
318.15	.3028	.02375	.0007125
318.15	.3503	.03502	.0010506
318.15	.4097	.05519	.0016557
318.15	.445	.07304	.0021912
323.15	0	.000549	.00001647
323.15	.0313	.001018	.00003054
323.15	.0592	.00161	.0000483
323.15	.0944	.00262	.0000786
323.15	.1301	.004239	.00012717
323.15	.1566	.005594	.00016782
323.15	.1964	.008098	.00024294
323.15	.2468	.01224	.0003672
323.15	.3028	.01902	.0005706
323.15	.3503	.02761	.0008283
323.15	.4097	.04302	.0012906
323.15	.445	.05606	.0016818
328.15	0	.000505	.00001515
328.15	.0313	.000901	.00002703
328.15	.0592	.001406	.00004218
328.15	.0944	.002253	.00006759
328.15	.1301	.003594	.00010782
328.15	.1566	.004737	.00014211
328.15	.1964	.006779	.00020337
328.15	.2468	.0101	.000303
328.15	.3028	.01538	.0004614
328.15	.3503	.02207	.0006621
328.15	.4097	.03382	.0010146
328.15	.445	.04384	.0013152
333.15	0	.000465	.00001395
333.15	.0313	.000806	.00002418
333.15	.0592	.001238	.00003714
333.15	.0944	.001961	.00005883
333.15	.1301	.003084	.00009252
333.15	.1566	.004048	.00012144
333.15	.1964	.005734	.00017202
333.15	.2468	.008449	.00025347
333.15	.3028	.01268	.0003804
333.15	.3503	.01816	.0005448
333.15	.4097	.02716	.0008148
333.15	.445	.03505	.0010515
338.15	0	.000437	.00001311
338.15	.0313	.000735	.00002205
338.15	.0592	.001117	.00003351
338.15	.0944	.00175	.0000525
338.15	.1301	.002707	.00008121
338.15	.1566	.003551	.00010653
338.15	.1964	.004983	.00014949
338.15	.2468	.007259	.00021777
338.15	.3028	.01076	.0003228
338.15	.3503	.01524	.0004572
338.15	.4097	.02253	.0006759
338.15	.445	.02848	.0008544
343.15	0	.000401	.00001203
343.15	.0313	.000661	.00001983
343.15	.0592	.000991	.00002973
343.15	.0944	.001532	.00004596
343.15	.1301	.002328	.00006984
343.15	.1566	.003039	.00009117
343.15	.1964	.004253	.00012759
343.15	.2468	.006138	.00018414
343.15	.3028	.009006	.00027018
343.15	.3503	.01252	.0003756
343.15	.4097	.01843	.0005529
343.15	.445	.0229	.000687

System: water + N-pentyl-N-methylpyrrolidinium bromide; phases: Liquid, Gas
Property: Vapor or sublimation pressure, kPa (Liquid); method: Ebulliometric method (Recirculating still)
Temperature, K	Mole fraction of N-pentyl-N-methylpyrrolidinium bromide	Vapor or sublimation pressure, kPa	uncertainty
338.15	0	25	.1
338.15	.012	24.5	.1
338.15	.027	24.2	.1
338.15	.041	23.8	.1
338.15	.058	23.3	.1
338.15	.07	22.9	.1
338.15	.086	22.1	.1
338.15	.096	21.8	.1
338.15	.114	20.8	.1
338.15	.136	19.4	.1
338.15	.161	18.2	.1
338.15	.186	17.2	.1
348.15	0	38.4	.1
348.15	.012	37.8	.1
348.15	.027	37.2	.1
348.15	.041	36.5	.1
348.15	.058	35.7	.1
348.15	.07	35	.1
348.15	.086	33.9	.1
348.15	.096	33.2	.1
348.15	.114	31.8	.1
348.15	.137	29.7	.1
348.15	.161	28	.1
348.15	.186	26.1	.1
348.15	.213	23.7	.1
358.15	0	57.8	.1
358.15	.012	56.8	.1
358.15	.026	55.6	.1
358.15	.041	54.7	.1
358.15	.057	53.5	.1
358.15	.069	52.5	.1
358.15	.086	50.8	.1
358.15	.096	49.6	.1
358.15	.114	47.7	.1
358.15	.135	44.5	.1
358.15	.159	42	.1
358.15	.185	38.7	.1
358.15	.215	35.8	.1
358.15	.248	32.5	.1
368.15	0	84.4	.1
368.15	.012	82.7	.1
368.15	.026	81.3	.1
368.15	.041	79.8	.1
368.15	.056	78.1	.1
368.15	.069	76.5	.1
368.15	.086	74.2	.1
368.15	.096	72.4	.1
368.15	.114	69.1	.1
368.15	.136	64.9	.1
368.15	.157	60.6	.1
368.15	.183	56.5	.1
368.15	.215	52.2	.1
368.15	.248	47.1	.1
368.15	.295	40.1	.1
