Measured thermophysical data. Enthalpies of vaporization of N,N-dialkyl monamides at 298.15K
Source: Thermochim. Acta, 2009, 10.1016/j.tca.2009.05.007
Compound 1: N,N-dimethylformamide, C3H7NO, purity 99%
Compound 2: N,N-dimethylacetamide, C4H9NO, purity 99%
Compound 3: N,N-diethylacetamide, C6H13NO, purity 99%
Compound 4: N,N-dibutyloctanamide, C16H33NO, purity 98%
Compound 5: N,N-dihexylhexanamide, C18H37NO, purity 98%
Compound 6: N,N-dihexyloctanamide, C20H41NO, purity 98%
Compound 7: N,N-di-2-ethylhexylisobutyramide, C20H41NO, purity 98%
Compound 8: hexanamide, N,N-dioctyl-, C22H45NO, purity 98%

System: N,N-dimethylformamide; phases: Liquid, Gas
Property: Molar enthalpy of vaporization or sublimation, kJ/mol (Liquid); method: Correlation gas chromatography
Temperature, K	Molar enthalpy of vaporization or sublimation, kJ/mol	uncertainty
298.15	46.65	.45

System: N,N-dimethylacetamide; phases: Liquid, Gas
Property: Molar enthalpy of vaporization or sublimation, kJ/mol (Liquid); method: Correlation gas chromatography
Temperature, K	Molar enthalpy of vaporization or sublimation, kJ/mol	uncertainty
298.15	50.66	.67

System: N,N-diethylacetamide; phases: Liquid, Gas
Property: Molar enthalpy of vaporization or sublimation, kJ/mol (Liquid); method: Correlation gas chromatography
Temperature, K	Molar enthalpy of vaporization or sublimation, kJ/mol	uncertainty
298.15	53.7	.44

System: N,N-dibutyloctanamide; phases: Liquid, Gas
Property: Molar enthalpy of vaporization or sublimation, kJ/mol (Liquid); method: Correlation gas chromatography
Temperature, K	Molar enthalpy of vaporization or sublimation, kJ/mol	uncertainty
298.15	75.58	.72

System: N,N-dihexylhexanamide; phases: Liquid, Gas
Property: Molar enthalpy of vaporization or sublimation, kJ/mol (Liquid); method: Correlation gas chromatography
Temperature, K	Molar enthalpy of vaporization or sublimation, kJ/mol	uncertainty
298.15	80.44	1.6

System: N,N-dihexyloctanamide; phases: Liquid, Gas
Property: Molar enthalpy of vaporization or sublimation, kJ/mol (Liquid); method: Correlation gas chromatography
Temperature, K	Molar enthalpy of vaporization or sublimation, kJ/mol	uncertainty
298.15	82.89	.09

System: N,N-di-2-ethylhexylisobutyramide; phases: Liquid, Gas
Property: Molar enthalpy of vaporization or sublimation, kJ/mol (Liquid); method: Correlation gas chromatography
Temperature, K	Molar enthalpy of vaporization or sublimation, kJ/mol	uncertainty
298.15	79.08	.9

System: hexanamide, N,N-dioctyl-; phases: Liquid, Gas
Property: Molar enthalpy of vaporization or sublimation, kJ/mol (Liquid); method: Correlation gas chromatography
Temperature, K	Molar enthalpy of vaporization or sublimation, kJ/mol	uncertainty
298.15	88.08	.99
