Measured thermophysical data. Enthalpies of solution and enthalpies of solvation of chloro- and nitro-substituted benzenes in 1-butyl-3-methyl imidazolium based ionic liquids at 298.15 K: Additivity of group contributions
Source: Thermochim. Acta, 2016, 10.1016/j.tca.2016.10.006
Compound 1: 1-butyl-3-methylimidazolium tetrafluoroborate, C8H15BF4N2, purity 98%
Compound 2: 1-butyl-3-methylimidazolium trifluoromethanesulfonate, C9H15F3N2O3S, purity 98%
Compound 3: 1-butyl-3-methylimidazolium bis(trifluoromethylsulfonyl)imide, C10H15F6N3O4S2, purity 98%
Compound 4: benzene, C6H6, purity 98%
Compound 5: nitrobenzene, C6H5NO2, purity 98%
Compound 6: chlorobenzene, C6H5Cl, purity 98%
Compound 7: 1,2-dichlorobenzene, C6H4Cl2, purity 98%
Compound 8: 1,3-dichlorobenzene, C6H4Cl2, purity 98%
Compound 9: 1,4-dichlorobenzene, C6H4Cl2, purity 98%
Compound 10: 1-chloro-2-nitrobenzene, C6H4ClNO2, purity 98%
Compound 11: 1-chloro-3-nitrobenzene, C6H4ClNO2, purity 98%
Compound 12: 1-chloro-4-nitrobenzene, C6H4ClNO2, purity 98%
Compound 13: 1,2-dinitrobenzene, C6H4N2O4, purity 98%
Compound 14: 1,3-dinitrobenzene, C6H4N2O4, purity 98%
Compound 15: 1,4-dinitrobenzene, C6H4N2O4, purity 98%

System: benzene + 1-butyl-3-methylimidazolium bis(trifluoromethylsulfonyl)imide; phases: Liquid
Fixed: Pressure, kPa = 100
Fixed: Temperature, K = 298.15
Property: Molar enthalpy of solution, kJ/mol (Liquid); method: Titration calorimetry
Mole fraction of benzene	Molar enthalpy of solution, kJ/mol	uncertainty
0	-.85	

System: chlorobenzene + 1-butyl-3-methylimidazolium bis(trifluoromethylsulfonyl)imide; phases: Liquid
Fixed: Pressure, kPa = 100
Fixed: Temperature, K = 298.15
Property: Molar enthalpy of solution, kJ/mol (Liquid); method: Titration calorimetry
Mole fraction of chlorobenzene	Molar enthalpy of solution, kJ/mol	uncertainty
0	-4.55	

System: nitrobenzene + 1-butyl-3-methylimidazolium bis(trifluoromethylsulfonyl)imide; phases: Liquid
Fixed: Pressure, kPa = 100
Fixed: Temperature, K = 298.15
Property: Molar enthalpy of solution, kJ/mol (Liquid); method: Titration calorimetry
Mole fraction of nitrobenzene	Molar enthalpy of solution, kJ/mol	uncertainty
0	-3.23	

System: 1,2-dichlorobenzene + 1-butyl-3-methylimidazolium bis(trifluoromethylsulfonyl)imide; phases: Liquid
Fixed: Pressure, kPa = 100
Fixed: Temperature, K = 298.15
Property: Molar enthalpy of solution, kJ/mol (Liquid); method: Titration calorimetry
Mole fraction of 1,2-dichlorobenzene	Molar enthalpy of solution, kJ/mol	uncertainty
0	-3.62	

System: 1,3-dichlorobenzene + 1-butyl-3-methylimidazolium bis(trifluoromethylsulfonyl)imide; phases: Liquid
Fixed: Pressure, kPa = 100
Fixed: Temperature, K = 298.15
Property: Molar enthalpy of solution, kJ/mol (Liquid); method: Titration calorimetry
Mole fraction of 1,3-dichlorobenzene	Molar enthalpy of solution, kJ/mol	uncertainty
0	-5.11	

System: 1,4-dichlorobenzene + 1-butyl-3-methylimidazolium bis(trifluoromethylsulfonyl)imide; phases: Liquid
Fixed: Pressure, kPa = 100
Fixed: Temperature, K = 298.15
Property: Molar enthalpy of solution, kJ/mol (Liquid); method: Power-compensation calorimetry
Mole fraction of 1,4-dichlorobenzene	Molar enthalpy of solution, kJ/mol	uncertainty
0	12.11	

System: 1-chloro-2-nitrobenzene + 1-butyl-3-methylimidazolium bis(trifluoromethylsulfonyl)imide; phases: Liquid
Fixed: Pressure, kPa = 100
Fixed: Temperature, K = 298.15
Property: Molar enthalpy of solution, kJ/mol (Liquid); method: Power-compensation calorimetry
Mole fraction of 1-chloro-2-nitrobenzene	Molar enthalpy of solution, kJ/mol	uncertainty
0	15.2	

System: 1-chloro-3-nitrobenzene + 1-butyl-3-methylimidazolium bis(trifluoromethylsulfonyl)imide; phases: Liquid
Fixed: Pressure, kPa = 100
Fixed: Temperature, K = 298.15
Property: Molar enthalpy of solution, kJ/mol (Liquid); method: Power-compensation calorimetry
Mole fraction of 1-chloro-3-nitrobenzene	Molar enthalpy of solution, kJ/mol	uncertainty
0	16.03	

System: 1-chloro-4-nitrobenzene + 1-butyl-3-methylimidazolium bis(trifluoromethylsulfonyl)imide; phases: Liquid
Fixed: Pressure, kPa = 100
Fixed: Temperature, K = 298.15
Property: Molar enthalpy of solution, kJ/mol (Liquid); method: Power-compensation calorimetry
Mole fraction of 1-chloro-4-nitrobenzene	Molar enthalpy of solution, kJ/mol	uncertainty
0	9.68	

System: 1,2-dinitrobenzene + 1-butyl-3-methylimidazolium bis(trifluoromethylsulfonyl)imide; phases: Liquid
Fixed: Pressure, kPa = 100
Fixed: Temperature, K = 298.15
Property: Molar enthalpy of solution, kJ/mol (Liquid); method: Power-compensation calorimetry
Mole fraction of 1,2-dinitrobenzene	Molar enthalpy of solution, kJ/mol	uncertainty
0	16.69	

System: 1,3-dinitrobenzene + 1-butyl-3-methylimidazolium bis(trifluoromethylsulfonyl)imide; phases: Liquid
Fixed: Pressure, kPa = 100
Fixed: Temperature, K = 298.15
Property: Molar enthalpy of solution, kJ/mol (Liquid); method: Power-compensation calorimetry
Mole fraction of 1,3-dinitrobenzene	Molar enthalpy of solution, kJ/mol	uncertainty
0	8.22	

System: 1,4-dinitrobenzene + 1-butyl-3-methylimidazolium bis(trifluoromethylsulfonyl)imide; phases: Liquid
Fixed: Pressure, kPa = 100
Fixed: Temperature, K = 298.15
Property: Molar enthalpy of solution, kJ/mol (Liquid); method: Power-compensation calorimetry
Mole fraction of 1,4-dinitrobenzene	Molar enthalpy of solution, kJ/mol	uncertainty
0	14	

System: chlorobenzene + 1-butyl-3-methylimidazolium tetrafluoroborate; phases: Liquid
Fixed: Pressure, kPa = 100
Fixed: Temperature, K = 298.15
Property: Molar enthalpy of solution, kJ/mol (Liquid); method: Titration calorimetry
Mole fraction of chlorobenzene	Molar enthalpy of solution, kJ/mol	uncertainty
0	-5.31	

System: nitrobenzene + 1-butyl-3-methylimidazolium tetrafluoroborate; phases: Liquid
Fixed: Pressure, kPa = 100
Fixed: Temperature, K = 298.15
Property: Molar enthalpy of solution, kJ/mol (Liquid); method: Titration calorimetry
Mole fraction of nitrobenzene	Molar enthalpy of solution, kJ/mol	uncertainty
0	-3.51	

System: 1,2-dichlorobenzene + 1-butyl-3-methylimidazolium tetrafluoroborate; phases: Liquid
Fixed: Pressure, kPa = 100
Fixed: Temperature, K = 298.15
Property: Molar enthalpy of solution, kJ/mol (Liquid); method: Titration calorimetry
Mole fraction of 1,2-dichlorobenzene	Molar enthalpy of solution, kJ/mol	uncertainty
0	-4.11	

System: 1,3-dichlorobenzene + 1-butyl-3-methylimidazolium tetrafluoroborate; phases: Liquid
Fixed: Pressure, kPa = 100
Fixed: Temperature, K = 298.15
Property: Molar enthalpy of solution, kJ/mol (Liquid); method: Titration calorimetry
Mole fraction of 1,3-dichlorobenzene	Molar enthalpy of solution, kJ/mol	uncertainty
0	-6.01	

System: 1,4-dichlorobenzene + 1-butyl-3-methylimidazolium tetrafluoroborate; phases: Liquid
Fixed: Pressure, kPa = 100
Fixed: Temperature, K = 298.15
Property: Molar enthalpy of solution, kJ/mol (Liquid); method: Power-compensation calorimetry
Mole fraction of 1,4-dichlorobenzene	Molar enthalpy of solution, kJ/mol	uncertainty
0	11.06	

System: 1-chloro-2-nitrobenzene + 1-butyl-3-methylimidazolium tetrafluoroborate; phases: Liquid
Fixed: Pressure, kPa = 100
Fixed: Temperature, K = 298.15
Property: Molar enthalpy of solution, kJ/mol (Liquid); method: Power-compensation calorimetry
Mole fraction of 1-chloro-2-nitrobenzene	Molar enthalpy of solution, kJ/mol	uncertainty
0	13.26	

System: 1-chloro-3-nitrobenzene + 1-butyl-3-methylimidazolium tetrafluoroborate; phases: Liquid
Fixed: Pressure, kPa = 100
Fixed: Temperature, K = 298.15
Property: Molar enthalpy of solution, kJ/mol (Liquid); method: Power-compensation calorimetry
Mole fraction of 1-chloro-3-nitrobenzene	Molar enthalpy of solution, kJ/mol	uncertainty
0	13.21	

System: 1-chloro-4-nitrobenzene + 1-butyl-3-methylimidazolium tetrafluoroborate; phases: Liquid
Fixed: Pressure, kPa = 100
Fixed: Temperature, K = 298.15
Property: Molar enthalpy of solution, kJ/mol (Liquid); method: Power-compensation calorimetry
Mole fraction of 1-chloro-4-nitrobenzene	Molar enthalpy of solution, kJ/mol	uncertainty
0	7.29	

System: 1,2-dinitrobenzene + 1-butyl-3-methylimidazolium tetrafluoroborate; phases: Liquid
Fixed: Pressure, kPa = 100
Fixed: Temperature, K = 298.15
Property: Molar enthalpy of solution, kJ/mol (Liquid); method: Power-compensation calorimetry
Mole fraction of 1,2-dinitrobenzene	Molar enthalpy of solution, kJ/mol	uncertainty
0	13.17	

System: 1,3-dinitrobenzene + 1-butyl-3-methylimidazolium tetrafluoroborate; phases: Liquid
Fixed: Pressure, kPa = 100
Fixed: Temperature, K = 298.15
Property: Molar enthalpy of solution, kJ/mol (Liquid); method: Power-compensation calorimetry
Mole fraction of 1,3-dinitrobenzene	Molar enthalpy of solution, kJ/mol	uncertainty
0	5.85	

System: 1,4-dinitrobenzene + 1-butyl-3-methylimidazolium tetrafluoroborate; phases: Liquid
Fixed: Pressure, kPa = 100
Fixed: Temperature, K = 298.15
Property: Molar enthalpy of solution, kJ/mol (Liquid); method: Power-compensation calorimetry
Mole fraction of 1,4-dinitrobenzene	Molar enthalpy of solution, kJ/mol	uncertainty
0	13.19	

System: chlorobenzene + 1-butyl-3-methylimidazolium trifluoromethanesulfonate; phases: Liquid
Fixed: Pressure, kPa = 100
Fixed: Temperature, K = 298.15
Property: Molar enthalpy of solution, kJ/mol (Liquid); method: Titration calorimetry
Mole fraction of chlorobenzene	Molar enthalpy of solution, kJ/mol	uncertainty
0	-5.37	

System: nitrobenzene + 1-butyl-3-methylimidazolium trifluoromethanesulfonate; phases: Liquid
Fixed: Pressure, kPa = 100
Fixed: Temperature, K = 298.15
Property: Molar enthalpy of solution, kJ/mol (Liquid); method: Titration calorimetry
Mole fraction of nitrobenzene	Molar enthalpy of solution, kJ/mol	uncertainty
0	-4.12	

System: 1,2-dichlorobenzene + 1-butyl-3-methylimidazolium trifluoromethanesulfonate; phases: Liquid
Fixed: Pressure, kPa = 100
Fixed: Temperature, K = 298.15
Property: Molar enthalpy of solution, kJ/mol (Liquid); method: Titration calorimetry
Mole fraction of 1,2-dichlorobenzene	Molar enthalpy of solution, kJ/mol	uncertainty
0	-4.87	

System: 1,3-dichlorobenzene + 1-butyl-3-methylimidazolium trifluoromethanesulfonate; phases: Liquid
Fixed: Pressure, kPa = 100
Fixed: Temperature, K = 298.15
Property: Molar enthalpy of solution, kJ/mol (Liquid); method: Titration calorimetry
Mole fraction of 1,3-dichlorobenzene	Molar enthalpy of solution, kJ/mol	uncertainty
0	-6.2	

System: 1,4-dichlorobenzene + 1-butyl-3-methylimidazolium trifluoromethanesulfonate; phases: Liquid
Fixed: Pressure, kPa = 100
Fixed: Temperature, K = 298.15
Property: Molar enthalpy of solution, kJ/mol (Liquid); method: Power-compensation calorimetry
Mole fraction of 1,4-dichlorobenzene	Molar enthalpy of solution, kJ/mol	uncertainty
0	9.54	

System: 1-chloro-2-nitrobenzene + 1-butyl-3-methylimidazolium trifluoromethanesulfonate; phases: Liquid
Fixed: Pressure, kPa = 100
Fixed: Temperature, K = 298.15
Property: Molar enthalpy of solution, kJ/mol (Liquid); method: Power-compensation calorimetry
Mole fraction of 1-chloro-2-nitrobenzene	Molar enthalpy of solution, kJ/mol	uncertainty
0	12.68	

System: 1-chloro-3-nitrobenzene + 1-butyl-3-methylimidazolium trifluoromethanesulfonate; phases: Liquid
Fixed: Pressure, kPa = 100
Fixed: Temperature, K = 298.15
Property: Molar enthalpy of solution, kJ/mol (Liquid); method: Power-compensation calorimetry
Mole fraction of 1-chloro-3-nitrobenzene	Molar enthalpy of solution, kJ/mol	uncertainty
0	13.24	

System: 1-chloro-4-nitrobenzene + 1-butyl-3-methylimidazolium trifluoromethanesulfonate; phases: Liquid
Fixed: Pressure, kPa = 100
Fixed: Temperature, K = 298.15
Property: Molar enthalpy of solution, kJ/mol (Liquid); method: Power-compensation calorimetry
Mole fraction of 1-chloro-4-nitrobenzene	Molar enthalpy of solution, kJ/mol	uncertainty
0	7.46	

System: 1,2-dinitrobenzene + 1-butyl-3-methylimidazolium trifluoromethanesulfonate; phases: Liquid
Fixed: Pressure, kPa = 100
Fixed: Temperature, K = 298.15
Property: Molar enthalpy of solution, kJ/mol (Liquid); method: Power-compensation calorimetry
Mole fraction of 1,2-dinitrobenzene	Molar enthalpy of solution, kJ/mol	uncertainty
0	11.88	

System: 1,3-dinitrobenzene + 1-butyl-3-methylimidazolium trifluoromethanesulfonate; phases: Liquid
Fixed: Pressure, kPa = 100
Fixed: Temperature, K = 298.15
Property: Molar enthalpy of solution, kJ/mol (Liquid); method: Power-compensation calorimetry
Mole fraction of 1,3-dinitrobenzene	Molar enthalpy of solution, kJ/mol	uncertainty
0	3.74	

System: 1,4-dinitrobenzene + 1-butyl-3-methylimidazolium trifluoromethanesulfonate; phases: Liquid
Fixed: Pressure, kPa = 100
Fixed: Temperature, K = 298.15
Property: Molar enthalpy of solution, kJ/mol (Liquid); method: Power-compensation calorimetry
Mole fraction of 1,4-dinitrobenzene	Molar enthalpy of solution, kJ/mol	uncertainty
0	9.22	
