Measured thermophysical data. Determination of the solubility, dissolution enthalpy and entropy of 3-pentadecylphenyl acrylate  in different organic solvents
Source: Thermochim. Acta, 2012, 10.1016/j.tca.2012.06.025
Compound 1: 3-pentadecylphenyl acrylate, C24H38O2
Compound 2: toluene, C7H8, purity 99%
Compound 3: dichloromethane, CH2Cl2, purity 99%
Compound 4: heptane, C7H16, purity 99%
Compound 5: acetone, C3H6O, purity 99%
Compound 6: n-butyl alcohol, C4H10O, purity 99%
Compound 7: ethyl ethanoate, C4H8O2, purity 99%

System: toluene + 3-pentadecylphenyl acrylate; phases: Liquid, Crystal
Fixed: Pressure, kPa = 101
Property: Mole fraction of 3-pentadecylphenyl acrylate (Liquid); method: laser detection
Temperature, K	Mole fraction of 3-pentadecylphenyl acrylate	uncertainty
273.15	.1274	.008918
275.15	.1386	.009702
277.15	.1528	.010696
279.15	.1673	.011711
281.15	.1841	.012887
283.15	.2102	.014714
285.15	.2345	.016415
287.15	.2639	.018473
289.15	.2993	.020951
291.15	.332	.02324
293.15	.3704	.025928
295.15	.4054	.028378
297.15	.4365	.030555

System: dichloromethane + 3-pentadecylphenyl acrylate; phases: Liquid, Crystal
Fixed: Pressure, kPa = 101
Property: Mole fraction of 3-pentadecylphenyl acrylate (Liquid); method: laser detection
Temperature, K	Mole fraction of 3-pentadecylphenyl acrylate	uncertainty
273.15	.06775	.0047425
275.15	.07804	.0054628
277.15	.09015	.0063105
279.15	.09951	.0069657
281.15	.1103	.007721
283.15	.1254	.008778
285.15	.1445	.010115
287.15	.1636	.011452
289.15	.1856	.012992
291.15	.2086	.014602
293.15	.2377	.016639
295.15	.2735	.019145
297.15	.3086	.021602

System: heptane + 3-pentadecylphenyl acrylate; phases: Liquid, Crystal
Fixed: Pressure, kPa = 101
Property: Mole fraction of 3-pentadecylphenyl acrylate (Liquid); method: laser detection
Temperature, K	Mole fraction of 3-pentadecylphenyl acrylate	uncertainty
273.15	.02599	.0018193
275.15	.0305	.002135
277.15	.03539	.0024773
279.15	.04016	.0028112
281.15	.0454	.003178
283.15	.05185	.0036295
285.15	.06	.0042
287.15	.06782	.0047474
289.15	.0784	.005488
291.15	.08853	.0061971
293.15	.1014	.007098
295.15	.1179	.008253
297.15	.1335	.009345

System: acetone + 3-pentadecylphenyl acrylate; phases: Liquid, Crystal
Fixed: Pressure, kPa = 101
Property: Mole fraction of 3-pentadecylphenyl acrylate (Liquid); method: laser detection
Temperature, K	Mole fraction of 3-pentadecylphenyl acrylate	uncertainty
273.15	.0104	.000728
275.15	.01228	.0008596
277.15	.01431	.0010017
279.15	.01629	.0011403
281.15	.01856	.0012992
283.15	.02143	.0015001
285.15	.02527	.0017689
287.15	.02901	.0020307
289.15	.03364	.0023548
291.15	.03843	.0026901
293.15	.04488	.0031416
295.15	.05241	.0036687
297.15	.05977	.0041839

System: n-butyl alcohol + 3-pentadecylphenyl acrylate; phases: Liquid, Crystal
Fixed: Pressure, kPa = 101
Property: Mole fraction of 3-pentadecylphenyl acrylate (Liquid); method: laser detection
Temperature, K	Mole fraction of 3-pentadecylphenyl acrylate	uncertainty
273.15	.006101	.00042707
275.15	.007173	.00050211
277.15	.008432	.00059024
279.15	.009653	.00067571
281.15	.01107	.0007749
283.15	.01272	.0008904
285.15	.01497	.0010479
287.15	.01754	.0012278
289.15	.02003	.0014021
291.15	.0231	.001617
293.15	.02795	.0019565
295.15	.03267	.0022869
297.15	.03849	.0026943

System: ethyl ethanoate + 3-pentadecylphenyl acrylate; phases: Liquid, Crystal
Fixed: Pressure, kPa = 101
Property: Mole fraction of 3-pentadecylphenyl acrylate (Liquid); method: laser detection
Temperature, K	Mole fraction of 3-pentadecylphenyl acrylate	uncertainty
273.15	.01469	.0010283
275.15	.01739	.0012173
277.15	.02018	.0014126
279.15	.02293	.0016051
281.15	.02605	.0018235
283.15	.03013	.0021091
285.15	.03556	.0024892
287.15	.04045	.0028315
289.15	.04725	.0033075
291.15	.05377	.0037639
293.15	.06182	.0043274
295.15	.07215	.0050505
297.15	.08104	.0056728
