Measured thermophysical data. Thermodynamics of ketone + amine mixtures Part IV. Volumetric and speed of  sound data at (293.15; 298.15 and 303.15 K) for 2-butanone +dipropylamine,  +dibutylamine or +triethylamine systems
Source: Thermochim. Acta, 2011, 10.1016/j.tca.2010.09.004
Compound 1: 2-butanone, C4H8O
Compound 2: dipropylamine, C6H15N
Compound 3: dibutylamine, C8H19N
Compound 4: triethylamine, C6H15N

System: 2-butanone; phases: Liquid
Fixed: Pressure, kPa = 101.325
Property: Mass density, kg/m3 (Liquid); method: Vibrating tube method
Temperature, K	Mass density, kg/m3	uncertainty
293.15	805.351	
298.15	800.077	
303.15	794.779	

System: 2-butanone; phases: Liquid
Fixed: Pressure, kPa = 101.325
Property: Speed of sound, m/s (Liquid); method: Sing-around technique in a fixed-path interferometer
Temperature, K	Speed of sound, m/s	uncertainty
293.15	1212.3	
298.15	1191	
303.15	1170.8	

System: dipropylamine; phases: Liquid
Fixed: Pressure, kPa = 101.325
Property: Mass density, kg/m3 (Liquid); method: Vibrating tube method
Temperature, K	Mass density, kg/m3	uncertainty
293.15	738.188	
298.15	733.683	
303.15	729.087	

System: dipropylamine; phases: Liquid
Fixed: Pressure, kPa = 101.325
Property: Speed of sound, m/s (Liquid); method: Sing-around technique in a fixed-path interferometer
Temperature, K	Speed of sound, m/s	uncertainty
293.15	1209.2	
298.15	1187.7	
303.15	1167.1	

System: dibutylamine; phases: Liquid
Fixed: Pressure, kPa = 101.325
Property: Mass density, kg/m3 (Liquid); method: Vibrating tube method
Temperature, K	Mass density, kg/m3	uncertainty
293.15	759.571	
298.15	755.457	
303.15	751.329	

System: dibutylamine; phases: Liquid
Fixed: Pressure, kPa = 101.325
Property: Speed of sound, m/s (Liquid); method: Sing-around technique in a fixed-path interferometer
Temperature, K	Speed of sound, m/s	uncertainty
293.15	1261.2	
298.15	1241.3	
303.15	1222.5	

System: triethylamine; phases: Liquid
Fixed: Pressure, kPa = 101.325
Property: Mass density, kg/m3 (Liquid); method: Vibrating tube method
Temperature, K	Mass density, kg/m3	uncertainty
293.15	727.515	
298.15	722.822	
303.15	718.201	

System: triethylamine; phases: Liquid
Fixed: Pressure, kPa = 101.325
Property: Speed of sound, m/s (Liquid); method: Sing-around technique in a fixed-path interferometer
Temperature, K	Speed of sound, m/s	uncertainty
293.15	1132.77	
298.15	1111.1	
303.15	1090.7	

System: 2-butanone + dipropylamine; phases: Liquid
Fixed: Pressure, kPa = 101.325
Property: Mass density, kg/m3 (Liquid); method: Vibrating tube method
Temperature, K	Mole fraction of 2-butanone	Mass density, kg/m3	uncertainty
293.15	.0539	740.359	
293.15	.1021	742.443	
293.15	.1497	744.612	
293.15	.1982	746.936	
293.15	.2459	749.311	
293.15	.2983	752.034	
293.15	.3504	754.874	
293.15	.4012	757.757	
293.15	.4495	760.619	
293.15	.5068	764.2	
293.15	.5551	767.388	
293.15	.6014	770.563	
293.15	.6568	774.567	
293.15	.6968	777.603	
293.15	.7555	782.275	
293.15	.8009	786.111	
293.15	.8573	791.158	
293.15	.901	795.276	
293.15	.9479	799.908	
298.15	.0592	736.042	
298.15	.1027	737.924	
298.15	.1509	740.108	
298.15	.2001	742.441	
298.15	.2446	744.623	
298.15	.2958	747.263	
298.15	.3545	750.41	
298.15	.4003	753	
298.15	.4625	756.591	
298.15	.5006	759.04	
298.15	.5539	762.376	
298.15	.5992	765.587	
298.15	.6474	769.011	
298.15	.6987	772.61	
298.15	.7531	777.151	
298.15	.8048	781.469	
298.15	.8557	785.991	
298.15	.9041	790.463	
298.15	.9471	794.714	
303.15	.0658	731.678	
303.15	.0988	733.107	
303.15	.1106	733.626	
303.15	.2146	738.432	
303.15	.2595	740.626	
303.15	.3098	743.197	
303.15	.363	746.053	
303.15	.4131	748.859	
303.15	.457	751.472	
303.15	.5154	755.069	
303.15	.5554	757.601	
303.15	.6081	761.161	
303.15	.6657	765.248	
303.15	.7041	768.129	
303.15	.7517	771.855	
303.15	.8032	776.094	
303.15	.8513	780.312	
303.15	.8958	784.355	
303.15	.9448	789.085	

System: 2-butanone + dipropylamine; phases: Liquid
Fixed: Pressure, kPa = 101.325
Property: Speed of sound, m/s (Liquid); method: Sing-around technique in a fixed-path interferometer
Temperature, K	Mole fraction of 2-butanone	Speed of sound, m/s	uncertainty
293.15	.0539	1208.02	
293.15	.1021	1207.27	
293.15	.1497	1206.7	
293.15	.1982	1206.17	
293.15	.2459	1205.69	
293.15	.2983	1205.17	
293.15	.3504	1204.86	
293.15	.4012	1204.58	
293.15	.4495	1204.35	
293.15	.5068	1204.3	
293.15	.5551	1204.38	
293.15	.6014	1204.49	
293.15	.6568	1204.76	
293.15	.6968	1205.12	
293.15	.7555	1205.87	
293.15	.8009	1206.59	
293.15	.8573	1207.83	
293.15	.901	1208.9	
293.15	.9479	1210.29	
298.15	.0592	1186.64	
298.15	.1027	1185.88	
298.15	.1509	1185.19	
298.15	.2001	1184.66	
298.15	.2446	1184.17	
298.15	.2958	1183.84	
298.15	.3545	1183.33	
298.15	.4003	1183.16	
298.15	.4625	1182.49	
298.15	.5006	1182.88	
298.15	.5539	1182.71	
298.15	.5992	1183.16	
298.15	.6474	1183.43	
298.15	.6987	1183.49	
298.15	.7531	1184.56	
298.15	.8048	1185.36	
298.15	.8557	1186.62	
298.15	.9041	1188.02	
298.15	.9471	1189.12	
303.15	.0658	1165.92	
303.15	.0988	1165.4	
303.15	.1106	1165.23	
303.15	.2146	1164.09	
303.15	.2595	1163.49	
303.15	.3098	1163.09	
303.15	.363	1162.78	
303.15	.4131	1162.5	
303.15	.457	1162.37	
303.15	.5154	1162.3	
303.15	.5554	1162.39	
303.15	.6081	1162.63	
303.15	.6657	1163.01	
303.15	.7041	1163.52	
303.15	.7517	1163.99	
303.15	.8032	1164.84	
303.15	.8513	1166.07	
303.15	.8958	1166.99	
303.15	.9448	1168.6	

System: 2-butanone + dibutylamine; phases: Liquid
Fixed: Pressure, kPa = 101.325
Property: Mass density, kg/m3 (Liquid); method: Vibrating tube method
Temperature, K	Mole fraction of 2-butanone	Mass density, kg/m3	uncertainty
293.15	.0568	760.739	
293.15	.1152	762.014	
293.15	.1488	762.814	
293.15	.1968	764.024	
293.15	.2539	765.57	
293.15	.3056	767.093	
293.15	.3564	768.675	
293.15	.4105	770.501	
293.15	.4545	772.103	
293.15	.5005	773.872	
293.15	.5553	776.145	
293.15	.6022	778.277	
293.15	.6554	780.87	
293.15	.7036	783.444	
293.15	.7554	786.435	
293.15	.8022	789.404	
293.15	.8598	793.411	
293.15	.9001	796.544	
293.15	.9513	800.881	
298.15	.0681	756.775	
298.15	.1038	757.539	
298.15	.1625	758.95	
298.15	.2034	759.972	
298.15	.2603	761.475	
298.15	.3112	762.929	
298.15	.3523	764.175	
298.15	.3937	765.506	
298.15	.442	767.105	
298.15	.5018	769.396	
298.15	.5455	771.147	
298.15	.6036	773.698	
298.15	.6514	775.963	
298.15	.7003	778.472	
298.15	.7473	781.05	
298.15	.7978	784.142	
298.15	.8456	787.356	
298.15	.9022	791.581	
298.15	.9482	795.385	
303.15	.0621	752.548	
303.15	.1098	753.539	
303.15	.1666	754.759	
303.15	.2074	755.736	
303.15	.2593	757.08	
303.15	.309	758.454	
303.15	.3551	759.79	
303.15	.4045	761.368	
303.15	.4566	763.133	
303.15	.4957	764.551	
303.15	.5402	766.282	
303.15	.6005	768.842	
303.15	.6493	771.091	
303.15	.7004	773.646	
303.15	.7486	776.288	
303.15	.8005	779.398	
303.15	.8456	782.362	
303.15	.899	786.254	
303.15	.953	790.578	

System: 2-butanone + dibutylamine; phases: Liquid
Fixed: Pressure, kPa = 101.325
Property: Speed of sound, m/s (Liquid); method: Sing-around technique in a fixed-path interferometer
Temperature, K	Mole fraction of 2-butanone	Speed of sound, m/s	uncertainty
293.15	.0568	1258.16	
293.15	.1152	1254.96	
293.15	.1488	1252.9	
293.15	.1968	1250.3	
293.15	.2539	1247.19	
293.15	.3056	1244.42	
293.15	.3564	1241.62	
293.15	.4105	1238.72	
293.15	.4545	1236.36	
293.15	.5005	1233.96	
293.15	.5553	1231.06	
293.15	.6022	1228.89	
293.15	.6554	1225.75	
293.15	.7036	1223.35	
293.15	.7554	1220.79	
293.15	.8022	1218.72	
293.15	.8598	1216.34	
293.15	.9001	1214.96	
293.15	.9513	1213.5	
298.15	.0681	1237.35	
298.15	.1038	1235.31	
298.15	.1625	1232.05	
298.15	.2034	1229.94	
298.15	.2603	1226.66	
298.15	.3112	1223.83	
298.15	.3523	1221.6	
298.15	.3937	1219.44	
298.15	.442	1216.58	
298.15	.5018	1213.32	
298.15	.5455	1211	
298.15	.6036	1207.71	
298.15	.6514	1205.23	
298.15	.7003	1202.7	
298.15	.7473	1200.27	
298.15	.7978	1197.91	
298.15	.8456	1195.86	
298.15	.9022	1193.73	
298.15	.9482	1192.26	
303.15	.0621	1218.87	
303.15	.1098	1216.11	
303.15	.1666	1212.59	
303.15	.2074	1210.29	
303.15	.2593	1207.25	
303.15	.309	1204.69	
303.15	.3551	1201.97	
303.15	.4045	1199.3	
303.15	.4566	1196.39	
303.15	.4957	1194.07	
303.15	.5402	1191.57	
303.15	.6005	1188.2	
303.15	.6493	1185.58	
303.15	.7004	1182.87	
303.15	.7486	1180.45	
303.15	.8005	1177.89	
303.15	.8456	1175.94	
303.15	.899	1173.7	
303.15	.953	1171.96	

System: 2-butanone + triethylamine; phases: Liquid
Fixed: Pressure, kPa = 101.325
Property: Mass density, kg/m3 (Liquid); method: Vibrating tube method
Temperature, K	Mole fraction of 2-butanone	Mass density, kg/m3	uncertainty
293.15	.0684	730.666	
293.15	.1169	733.08	
293.15	.1627	735.417	
293.15	.2218	738.705	
293.15	.2686	741.43	
293.15	.3141	744.214	
293.15	.3549	746.818	
293.15	.4154	750.867	
293.15	.4636	754.264	
293.15	.5054	757.343	
293.15	.5572	761.332	
293.15	.61	765.576	
293.15	.6519	769.122	
293.15	.7051	773.808	
293.15	.7603	778.962	
293.15	.8057	783.447	
293.15	.8586	788.929	
293.15	.9019	793.679	
293.15	.9451	798.586	
298.15	.0709	725.999	
298.15	.1149	728.152	
298.15	.158	730.378	
298.15	.2181	733.668	
298.15	.261	736.151	
298.15	.3203	739.738	
298.15	.3605	742.292	
298.15	.4159	745.987	
298.15	.4607	749.113	
298.15	.5106	752.756	
298.15	.5701	757.323	
298.15	.6039	760.048	
298.15	.66	764.735	
298.15	.7122	769.362	
298.15	.7604	773.883	
298.15	.8023	777.983	
298.15	.8437	782.252	
298.15	.8921	787.444	
298.15	.9456	793.453	
303.15	.0686	721.221	
303.15	.1149	723.47	
303.15	.1643	726.011	
303.15	.2101	728.487	
303.15	.2639	731.565	
303.15	.3102	734.326	
303.15	.3502	736.816	
303.15	.3869	739.189	
303.15	.45	743.482	
303.15	.5081	747.667	
303.15	.5652	752.023	
303.15	.6051	755.192	
303.15	.6561	759.446	
303.15	.7087	764.061	
303.15	.763	769.188	
303.15	.7945	772.2	
303.15	.8542	778.238	
303.15	.8987	783.012	
303.15	.95	788.818	

System: 2-butanone + triethylamine; phases: Liquid
Fixed: Pressure, kPa = 101.325
Property: Speed of sound, m/s (Liquid); method: Sing-around technique in a fixed-path interferometer
Temperature, K	Mole fraction of 2-butanone	Speed of sound, m/s	uncertainty
293.15	.0684	1134.48	
293.15	.1169	1136.03	
293.15	.1627	1137.96	
293.15	.2218	1140.6	
293.15	.2686	1142.96	
293.15	.3141	1145.52	
293.15	.3549	1147.86	
293.15	.4154	1151.74	
293.15	.4636	1155.05	
293.15	.5054	1158.17	
293.15	.5572	1162.26	
293.15	.61	1166.74	
293.15	.6519	1170.56	
293.15	.7051	1175.66	
293.15	.7603	1181.38	
293.15	.8057	1186.51	
293.15	.8586	1192.76	
293.15	.9019	1198.33	
293.15	.9451	1204.1	
298.15	.0709	1112.73	
298.15	.1149	1114.19	
298.15	.158	1115.89	
298.15	.2181	1118.52	
298.15	.261	1120.74	
298.15	.3203	1123.91	
298.15	.3605	1126.28	
298.15	.4159	1129.87	
298.15	.4607	1132.99	
298.15	.5106	1136.68	
298.15	.5701	1141.48	
298.15	.6039	1144.46	
298.15	.66	1149.45	
298.15	.7122	1154.62	
298.15	.7604	1159.77	
298.15	.8023	1164.44	
298.15	.8437	1169.62	
298.15	.8921	1175.66	
298.15	.9456	1182.84	
303.15	.0686	1092.17	
303.15	.1149	1093.65	
303.15	.1643	1095.56	
303.15	.2101	1097.57	
303.15	.2639	1100.29	
303.15	.3102	1102.73	
303.15	.3502	1105.13	
303.15	.3869	1107.37	
303.15	.45	1111.65	
303.15	.5081	1115.97	
303.15	.5652	1120.58	
303.15	.6051	1124.04	
303.15	.6561	1128.72	
303.15	.7087	1134.02	
303.15	.763	1139.97	
303.15	.7945	1143.48	
303.15	.8542	1150.54	
303.15	.8987	1156.33	
303.15	.95	1163.38	
