Measured thermophysical data. Solubility and solution thermodynamics of 2,5-thiophenedicarboxylic acid in (water + ethanol) binary solvent mixtures
Source: Thermochim. Acta, 2014, 10.1016/j.tca.2014.08.002
Compound 1: 2,5-thiophenedicarboxylic acid, C6H4O4S, purity 98%
Compound 2: ethanol, C2H6O, purity 99.7%
Compound 3: water, H2O

System: ethanol + 2,5-thiophenedicarboxylic acid + water; phases: Liquid, Crystal
Fixed: Pressure, kPa = 101
Property: Mole fraction of 2,5-thiophenedicarboxylic acid (Liquid); method: Phase equilibration
Temperature, K	Solvent: Mole fraction of ethanol	Mole fraction of 2,5-thiophenedicarboxylic acid	uncertainty
278.15	0	.0000552	.000000552
278.15	.052	.000126	.00000126
278.15	.117	.000423	.00000423
278.15	.202	.00122	.0000122
278.15	.316	.00274	.0000274
278.15	.481	.00466	.0000466
278.15	.735	.00738	.0000738
278.15	1	.0123	.000123
283.15	0	.0000679	.000000679
283.15	.052	.000151	.00000151
283.15	.117	.000507	.00000507
283.15	.202	.00145	.0000145
283.15	.316	.00322	.0000322
283.15	.481	.00543	.0000543
283.15	.735	.00862	.0000862
283.15	1	.0136	.000136
288.15	0	.0000882	.000000882
288.15	.052	.000183	.00000183
288.15	.117	.000606	.00000606
288.15	.202	.00171	.0000171
288.15	.316	.00375	.0000375
288.15	.481	.00633	.0000633
288.15	.735	.01	.0001
288.15	1	.0151	.000151
293.15	0	.000114	.00000114
293.15	.052	.000221	.00000221
293.15	.117	.00072	.0000072
293.15	.202	.00201	.0000201
293.15	.316	.00438	.0000438
293.15	.481	.00734	.0000734
293.15	.735	.0117	.000117
293.15	1	.0168	.000168
298.15	0	.000146	.00000146
298.15	.052	.000266	.00000266
298.15	.117	.000855	.00000855
298.15	.202	.00234	.0000234
298.15	.316	.00507	.0000507
298.15	.481	.00847	.0000847
298.15	.735	.0135	.000135
298.15	1	.0188	.000188
303.15	0	.000185	.00000185
303.15	.052	.00032	.0000032
303.15	.117	.00101	.0000101
303.15	.202	.00273	.0000273
303.15	.316	.00585	.0000585
303.15	.481	.00975	.0000975
303.15	.735	.0155	.000155
303.15	1	.0215	.000215
308.15	0	.000233	.00000233
308.15	.052	.000383	.00000383
308.15	.117	.00119	.0000119
308.15	.202	.00316	.0000316
308.15	.316	.00671	.0000671
308.15	.481	.0112	.000112
308.15	.735	.0177	.000177
308.15	1	.0243	.000243
313.15	0	.000291	.00000291
313.15	.052	.000457	.00000457
313.15	.117	.00138	.0000138
313.15	.202	.00365	.0000365
313.15	.316	.00767	.0000767
313.15	.481	.0127	.000127
313.15	.735	.0202	.000202
313.15	1	.0277	.000277
318.15	0	.000363	.00000363
318.15	.052	.000542	.00000542
318.15	.117	.00161	.0000161
318.15	.202	.00419	.0000419
318.15	.316	.00873	.0000873
318.15	.481	.0144	.000144
318.15	.735	.023	.00023
318.15	1	.0317	.000317
323.15	0	.000448	.00000448
323.15	.052	.000638	.00000638
323.15	.117	.00186	.0000186
323.15	.202	.0048	.000048
323.15	.316	.00991	.0000991
323.15	.481	.0164	.000164
323.15	.735	.026	.00026
323.15	1	.0369	.000369
328.15	0	.000549	.00000549
328.15	.052	.000751	.00000751
328.15	.117	.00215	.0000215
328.15	.202	.00548	.0000548
328.15	.316	.0112	.000112
328.15	.481	.0184	.000184
328.15	.735	.0293	.000293
328.15	1	.0434	.000434
333.15	0	.00067	.0000067
333.15	.052	.000878	.00000878
333.15	.117	.00248	.0000248
333.15	.202	.00623	.0000623
333.15	.316	.0127	.000127
333.15	.481	.0207	.000207
333.15	.735	.033	.00033
333.15	1	.0515	.000515

System: 2,5-thiophenedicarboxylic acid + water; phases: Liquid, Crystal
Property: Mole fraction of 2,5-thiophenedicarboxylic acid (Liquid); method: Phase equilibration
Temperature, K	Pressure, kPa	Mole fraction of 2,5-thiophenedicarboxylic acid	uncertainty
278.15	101	.0000552	.000000552
283.15	101	.0000679	.000000679
288.15	101	.0000882	.000000882
293.15	101	.000114	.00000114
298.15	101	.000146	.00000146
303.15	101	.000185	.00000185
308.15	101	.000233	.00000233
313.15	101	.000291	.00000291
318.15	101	.000363	.00000363
323.15	101	.000448	.00000448
328.15	101	.000549	.00000549
333.15	101	.00067	.0000067

System: ethanol + 2,5-thiophenedicarboxylic acid; phases: Liquid, Crystal
Property: Mole fraction of 2,5-thiophenedicarboxylic acid (Liquid); method: Phase equilibration
Temperature, K	Pressure, kPa	Mole fraction of 2,5-thiophenedicarboxylic acid	uncertainty
278.15	101	.0123	.000123
283.15	101	.0136	.000136
288.15	101	.0151	.000151
293.15	101	.0168	.000168
298.15	101	.0188	.000188
303.15	101	.0215	.000215
308.15	101	.0243	.000243
313.15	101	.0277	.000277
318.15	101	.0317	.000317
323.15	101	.0369	.000369
328.15	101	.0434	.000434
333.15	101	.0515	.000515
