Measured thermophysical data. Measurement and correlation of saturated vapor pressure of  2,4,6,8,10-pentamethylcyclopentasiloxane by means of  an inclined ebulliometer
Source: Thermochim. Acta, 2009, 10.1016/j.tca.2008.11.005
Compound 1: 2,4,6,8,10-pentamethylcyclopentasiloxane, C5H20O5Si5
Compound 2: ethanol, C2H6O

System: 2,4,6,8,10-pentamethylcyclopentasiloxane; phases: Liquid, Gas
Property: Vapor or sublimation pressure, kPa (Liquid); method: Ebulliometric method (Recirculating still)
Temperature, K	Vapor or sublimation pressure, kPa	uncertainty
330.8	1.325	
348.03	3.325	
357.45	5.325	
364.75	7.325	
370.73	9.325	
375.49	11.325	
378.23	13.325	
381.78	15.325	
385.02	17.325	
387.96	19.325	
390.75	21.325	
393.18	23.325	
395.46	25.325	
397.89	27.325	
399.92	29.325	
401.9	31.325	
403.77	33.325	
405.7	35.325	
407.22	37.325	
408.94	39.325	
410.46	41.325	
411.98	43.325	
413.4	45.325	
414.87	47.325	
416.19	49.325	
417.55	51.325	
423.53	61.325	
429.06	71.325	
433.77	81.325	
437.93	91.325	

System: ethanol; phases: Liquid, Gas
Property: Vapor or sublimation pressure, kPa (Liquid); method: Ebulliometric method (Recirculating still)
Temperature, K	Vapor or sublimation pressure, kPa	uncertainty
303.95	11.325	
315.75	21.325	
323.5	31.325	
329.35	41.325	
334.05	51.325	
338.05	61.325	
341.65	71.325	
344.75	81.325	
347.55	91.325	
350.15	101.325	
