Measured thermophysical data. Solid-liquid equilibria of indole binary systems
Source: Thermochim. Acta, 2016, 10.1016/j.tca.2016.10.003
Compound 1: indole, C8H7N, purity 99%
Compound 2: n-eicosane, C20H42, purity 99%
Compound 3: n-tetracosane, C24H50, purity 99%
Compound 4: pentacontane, C50H102, purity 97%

System: indole; phases: Crystal, Liquid, Air at 1 atmosphere
Property: Normal melting temperature, K (Crystal); method: DSC/DTA
Normal melting temperature, K	uncertainty
325.52	.2

System: indole; phases: Crystal, Liquid, Air at 1 atmosphere
Property: Molar enthalpy of transition or fusion, kJ/mol (Crystal); method: DSC
Molar enthalpy of transition or fusion, kJ/mol	uncertainty
12.15	.729

System: n-eicosane; phases: Crystal, Liquid, Air at 1 atmosphere
Property: Normal melting temperature, K (Crystal); method: DSC/DTA
Normal melting temperature, K	uncertainty
310.05	.2

System: n-eicosane; phases: Crystal, Liquid, Air at 1 atmosphere
Property: Molar enthalpy of transition or fusion, kJ/mol (Crystal); method: DSC
Molar enthalpy of transition or fusion, kJ/mol	uncertainty
68.8	4.128

System: n-tetracosane; phases: Crystal 1, Liquid, Air at 1 atmosphere
Property: Normal melting temperature, K (Crystal 1); method: DSC/DTA
Normal melting temperature, K	uncertainty
324.1	.2

System: n-tetracosane; phases: Crystal 2, Crystal 1, Air at 1 atmosphere
Property: Triple point temperature, K (Crystal 2); method: DSC
Triple point temperature, K	uncertainty
321.6	.2

System: n-tetracosane; phases: Crystal 1, Liquid, Air at 1 atmosphere
Property: Molar enthalpy of transition or fusion, kJ/mol (Crystal 1); method: DSC
Molar enthalpy of transition or fusion, kJ/mol	uncertainty
51.35	3.081

System: n-tetracosane; phases: Crystal 2, Crystal 1, Air at 1 atmosphere
Property: Molar enthalpy of transition or fusion, kJ/mol (Crystal 2); method: DSC
Molar enthalpy of transition or fusion, kJ/mol	uncertainty
29.18	1.7508

System: pentacontane; phases: Crystal, Liquid, Air at 1 atmosphere
Property: Normal melting temperature, K (Crystal); method: DSC/DTA
Normal melting temperature, K	uncertainty
364.95	.2

System: pentacontane; phases: Crystal, Liquid, Air at 1 atmosphere
Property: Molar enthalpy of transition or fusion, kJ/mol (Crystal); method: DSC
Molar enthalpy of transition or fusion, kJ/mol	uncertainty
195.34	11.7204

System: n-eicosane + indole; phases: Liquid, Crystal
Fixed: Pressure, kPa = 100
Property: Solid-liquid equilibrium temperature, K (Liquid); method: DSC/DTA
Mole fraction of indole	Solid-liquid equilibrium temperature, K	uncertainty
0	310.05	
.1802	307.8	
.2701	306.5	
.3625	304.9	

System: n-eicosane + indole; phases: Liquid, Crystal
Fixed: Pressure, kPa = 100
Property: Solid-liquid equilibrium temperature, K (Liquid); method: DSC/DTA
Mole fraction of indole	Solid-liquid equilibrium temperature, K	uncertainty
.5535	313.2	
.644	317.3	
.7349	320.9	
.8211	324	
.9105	324.9	
1	325.52	

System: indole + n-tetracosane; phases: Liquid, Crystal 1
Fixed: Pressure, kPa = 100
Property: Solid-liquid equilibrium temperature, K (Liquid); method: DSC/DTA
Mole fraction of indole	Solid-liquid equilibrium temperature, K	uncertainty
0	324.1	
.1746	321.7	

System: indole + n-tetracosane; phases: Liquid, Crystal 2
Fixed: Pressure, kPa = 100
Property: Solid-liquid equilibrium temperature, K (Liquid); method: DSC/DTA
Mole fraction of indole	Solid-liquid equilibrium temperature, K	uncertainty
.2649	320.3	
.3649	318.5	
.4534	316.6	
.5545	314.2	

System: indole + n-tetracosane; phases: Liquid, Crystal
Fixed: Pressure, kPa = 100
Property: Solid-liquid equilibrium temperature, K (Liquid); method: DSC/DTA
Mole fraction of indole	Solid-liquid equilibrium temperature, K	uncertainty
.7289	320.6	
.8194	323.9	
.9092	324.9	
1	325.52	

System: indole + pentacontane; phases: Liquid, Crystal
Fixed: Pressure, kPa = 100
Property: Solid-liquid equilibrium temperature, K (Liquid); method: DSC/DTA
Mole fraction of indole	Solid-liquid equilibrium temperature, K	uncertainty
0	364.95	
.1102	363.1	
.1988	361.5	
.2999	359.4	
.3974	357.1	
.4932	354.5	
.599	351.1	
.7008	346.8	
.7961	341.5	
