Measured thermophysical data. Liquid-liquid equilibrium phase behavior of iminazolium-based ionic liquid aqueous two-phase  systems composed of 1-alkyl-3-methyl imidazolium tetrafluoroborate and different electrolytes ZnSO4,  MgSO4 and Li2SO4 at 298.15 K: Experimental and correlation
Source: Thermochim. Acta, 2013, 10.1016/j.tca.2013.01.014
Compound 1: [EMIM][BF4], C6H11BF4N2, purity 99%
Compound 2: [BMIM][BF4], C8H15BF4N2, purity 99%
Compound 3: zinc sulfate, O4SZn, purity 99%
Compound 4: sulfuric acid, magnesium salt (1:1), MgO4S, purity 99%
Compound 5: lithium sulfate, Li2O4S, purity 99%
Compound 6: water, H2O, purity 99.9%

System: water + zinc sulfate + [EMIM][BF4]; phases: Liquid mixture 1, Liquid mixture 2
Fixed: Temperature, K = 298.15
Fixed: Pressure, kPa = 101
Property: Mass fraction of zinc sulfate (Liquid mixture 1); method: Titration method
Mass fraction of [EMIM][BF4]	Mass fraction of zinc sulfate	uncertainty
.7591	.002	.001
.6619	.0035	.001
.5956	.0064	.001
.5655	.0088	.001
.5476	.0106	.001
.5129	.0147	.001
.4835	.0188	.001
.456	.0239	.001
.4382	.0277	.001
.4129	.0331	.001
.3962	.0383	.001
.3807	.043	.001
.3554	.0505	.001
.3412	.056	.001
.322	.0641	.001
.3028	.0714	.001
.2869	.0781	.001
.2736	.0831	.001
.2554	.0909	.001
.2432	.0958	.001
.2272	.1039	.001
.2117	.1116	.001
.198	.1169	.001
.1861	.1234	.001
.1736	.1307	.001
.1636	.136	.001
.1524	.1423	.001
.1456	.1468	.001
.1362	.1538	.001
.1278	.16	.001
.1122	.1728	.001
.1051	.1789	.001
.0984	.1854	.001
.0928	.1906	.001
.0867	.1974	.001
.0803	.2048	.001

System: water + zinc sulfate + [EMIM][BF4]; phases: Liquid mixture 1, Liquid mixture 2
Property: Mass fraction of zinc sulfate (Liquid mixture 1); method: Index of refraction calibration data
Property: Mass fraction of zinc sulfate (Liquid mixture 2); method: Index of refraction calibration data
Property: Mass fraction of [EMIM][BF4] (Liquid mixture 2); method: Index of refraction calibration data
Temperature, K	Pressure, kPa	Mass fraction of [EMIM][BF4]	Mass fraction of zinc sulfate	uncertainty	Mass fraction of zinc sulfate	uncertainty	Mass fraction of [EMIM][BF4]	uncertainty
298.15	100	.6989	.0028	.0002	.2535	.0002	.0303	.0002
298.15	100	.74	.0018	.0002	.2775	.0002	.0187	.0002
298.15	100	.7722	.0014	.0002	.2923	.0002	.0136	.0002
298.15	100	.7874	.001	.0002	.2971	.0002	.0122	.0002

System: sulfuric acid, magnesium salt (1:1) + water + [EMIM][BF4]; phases: Liquid mixture 1, Liquid mixture 2
Fixed: Temperature, K = 298.15
Fixed: Pressure, kPa = 101
Property: Mass fraction of sulfuric acid, magnesium salt (1:1) (Liquid mixture 1); method: Titration method
Mass fraction of [EMIM][BF4]	Mass fraction of sulfuric acid, magnesium salt (1:1)	uncertainty
.7185	.0019	.001
.6533	.0036	.001
.6075	.0061	.001
.5674	.0088	.001
.5447	.0108	.001
.504	.0145	.001
.4835	.0175	.001
.4606	.0211	.001
.4401	.0254	.001
.4141	.0303	.001
.3959	.0347	.001
.3784	.0389	.001
.3668	.0422	.001
.3454	.0464	.001
.327	.052	.001
.3152	.0548	.001
.3057	.0574	.001
.2887	.0628	.001
.2703	.0685	.001
.2615	.0713	.001
.2553	.0744	.001
.2438	.0781	.001
.2377	.0787	.001
.2295	.0833	.001
.2197	.0862	.001
.2077	.0905	.001
.1943	.096	.001
.1823	.1011	.001
.1757	.1031	.001
.1697	.1066	.001
.1547	.1128	.001

System: sulfuric acid, magnesium salt (1:1) + water + [EMIM][BF4]; phases: Liquid mixture 2, Liquid mixture 1
Property: Mass fraction of [EMIM][BF4] (Liquid mixture 2); method: Index of refraction calibration data
Property: Mass fraction of [EMIM][BF4] (Liquid mixture 1); method: Index of refraction calibration data
Property: Mass fraction of sulfuric acid, magnesium salt (1:1) (Liquid mixture 1); method: Index of refraction calibration data
Temperature, K	Pressure, kPa	Mass fraction of sulfuric acid, magnesium salt (1:1)	Mass fraction of [EMIM][BF4]	uncertainty	Mass fraction of [EMIM][BF4]	uncertainty	Mass fraction of sulfuric acid, magnesium salt (1:1)	uncertainty
298.15	100	.223	.0137	.0002	.7613	.0002	.001	.0002
298.15	100	.2157	.0172	.0002	.736	.0002	.0014	.0002
298.15	100	.2288	.0119	.0002	.7751	.0002	.0008	.0002
298.15	100	.2359	.0096	.0002	.7951	.0002	.0005	.0002

System: water + lithium sulfate + [EMIM][BF4]; phases: Liquid mixture 1, Liquid mixture 2
Fixed: Temperature, K = 298.15
Fixed: Pressure, kPa = 101
Property: Mass fraction of lithium sulfate (Liquid mixture 1); method: Titration method
Mass fraction of [EMIM][BF4]	Mass fraction of lithium sulfate	uncertainty
.7105	.0062	.001
.6794	.0084	.001
.6487	.0102	.001
.6098	.0137	.001
.5588	.0189	.001
.5397	.0207	.001
.5201	.0232	.001
.4873	.0286	.001
.4501	.0344	.001
.4229	.0377	.001
.4025	.0413	.001
.3853	.0453	.001
.3682	.0485	.001
.3409	.0544	.001
.3286	.0572	.001
.3127	.0594	.001
.3059	.0621	.001
.2875	.0658	.001
.2683	.0702	.001
.2575	.0732	.001
.2423	.077	.001
.2265	.0812	.001
.2176	.0844	.001
.2097	.0864	.001
.1977	.0906	.001
.1834	.0954	.001
.1757	.0987	.001
.1647	.1033	.001
.1552	.1076	.001
.1536	.1076	.001
.1424	.1131	.001
.1301	.1202	.001
.1209	.125	.001

System: water + lithium sulfate + [EMIM][BF4]; phases: Liquid mixture 2, Liquid mixture 1
Property: Mass fraction of lithium sulfate (Liquid mixture 2); method: Index of refraction calibration data
Property: Mass fraction of [EMIM][BF4] (Liquid mixture 1); method: Index of refraction calibration data
Property: Mass fraction of lithium sulfate (Liquid mixture 1); method: Index of refraction calibration data
Temperature, K	Pressure, kPa	Mass fraction of [EMIM][BF4]	Mass fraction of lithium sulfate	uncertainty	Mass fraction of [EMIM][BF4]	uncertainty	Mass fraction of lithium sulfate	uncertainty
298.15	100	.06	.16	.0002	.7254	.0002	.005	.0002
298.15	100	.045	.1745	.0002	.8069	.0002	.0021	.0002
298.15	100	.0393	.1809	.0002	.8325	.0002	.0014	.0002
298.15	100	.0355	.186	.0002	.8655	.0002	.0007	.0002

System: water + zinc sulfate + [BMIM][BF4]; phases: Liquid mixture 1, Liquid mixture 2
Fixed: Temperature, K = 298.15
Fixed: Pressure, kPa = 101
Property: Mass fraction of zinc sulfate (Liquid mixture 1); method: Titration method
Mass fraction of [BMIM][BF4]	Mass fraction of zinc sulfate	uncertainty
.8919	.0012	.001
.864	.0017	.001
.8046	.0021	.001
.7223	.0028	.001
.6566	.0034	.001
.6263	.0035	.001
.5875	.0045	.001
.5594	.0057	.001
.5198	.0078	.001
.4956	.0091	.001
.4728	.01	.001
.4264	.0131	.001
.3984	.0152	.001
.351	.02	.001
.3344	.022	.001
.3029	.0267	.001
.2809	.0298	.001
.2559	.0343	.001
.2314	.0395	.001
.2126	.046	.001
.1931	.0522	.001
.1727	.0594	.001
.1648	.0629	.001
.1558	.0677	.001
.1475	.0724	.001
.1402	.0764	.001
.1335	.0801	.001
.1264	.0853	.001
.1202	.0899	.001
.1104	.0969	.001
.1031	.1039	.001
.0973	.1088	.001
.0937	.1187	.001
.0848	.1276	.001
.0799	.1326	.001
.0751	.1392	.001

System: water + zinc sulfate + [BMIM][BF4]; phases: Liquid mixture 2, Liquid mixture 1
Property: Mass fraction of zinc sulfate (Liquid mixture 2); method: Index of refraction calibration data
Property: Mass fraction of [BMIM][BF4] (Liquid mixture 1); method: Index of refraction calibration data
Property: Mass fraction of zinc sulfate (Liquid mixture 1); method: Index of refraction calibration data
Temperature, K	Pressure, kPa	Mass fraction of [BMIM][BF4]	Mass fraction of zinc sulfate	uncertainty	Mass fraction of [BMIM][BF4]	uncertainty	Mass fraction of zinc sulfate	uncertainty
298.15	100	.1055	.1046	.0002	.6909	.0002	.0033	.0002
298.15	100	.0977	.1097	.0002	.7231	.0002	.0028	.0002
298.15	100	.0871	.1181	.0002	.7664	.0002	.0023	.0002
298.15	100	.0789	.125	.0002	.8061	.0002	.0019	.0002

System: sulfuric acid, magnesium salt (1:1) + water + [BMIM][BF4]; phases: Liquid mixture 1, Liquid mixture 2
Fixed: Temperature, K = 298.15
Fixed: Pressure, kPa = 101
Property: Mass fraction of sulfuric acid, magnesium salt (1:1) (Liquid mixture 1); method: Titration method
Mass fraction of [BMIM][BF4]	Mass fraction of sulfuric acid, magnesium salt (1:1)	uncertainty
.7562	.001	.001
.685	.0016	.001
.6751	.0019	.001
.6472	.0024	.001
.6209	.003	.001
.5674	.0042	.001
.5348	.0054	.001
.5137	.0066	.001
.4934	.0074	.001
.4564	.0093	.001
.4251	.0112	.001
.3894	.0135	.001
.3626	.0155	.001
.3334	.0179	.001
.3137	.0199	.001
.2891	.0224	.001
.2673	.0242	.001
.251	.0261	.001
.2326	.0291	.001
.2319	.029	.001
.2085	.0343	.001
.193	.0367	.001
.1708	.0436	.001
.1596	.0477	.001
.1499	.0515	.001
.1421	.0553	.001
.1355	.0584	.001
.1235	.0641	.001
.1171	.0684	.001
.107	.0743	.001
.1011	.0787	.001
.0954	.0829	.001
.0899	.0882	.001
.0855	.0918	.001
.0809	.0963	.001

System: sulfuric acid, magnesium salt (1:1) + water + [BMIM][BF4]; phases: Liquid mixture 2, Liquid mixture 1
Property: Mass fraction of [BMIM][BF4] (Liquid mixture 2); method: Index of refraction calibration data
Property: Mass fraction of [BMIM][BF4] (Liquid mixture 1); method: Index of refraction calibration data
Property: Mass fraction of sulfuric acid, magnesium salt (1:1) (Liquid mixture 1); method: Index of refraction calibration data
Temperature, K	Pressure, kPa	Mass fraction of sulfuric acid, magnesium salt (1:1)	Mass fraction of [BMIM][BF4]	uncertainty	Mass fraction of [BMIM][BF4]	uncertainty	Mass fraction of sulfuric acid, magnesium salt (1:1)	uncertainty
298.15	100	.1112	.0757	.0002	.7304	.0002	.0011	.0002
298.15	100	.1154	.0741	.0002	.7497	.0002	.0009	.0002
298.15	100	.1205	.0725	.0002	.7653	.0002	.0007	.0002
298.15	100	.1251	.0717	.0002	.7845	.0002	.0005	.0002

System: water + lithium sulfate + [BMIM][BF4]; phases: Liquid mixture 1, Liquid mixture 2
Fixed: Temperature, K = 298.15
Fixed: Pressure, kPa = 101
Property: Mass fraction of lithium sulfate (Liquid mixture 1); method: Titration method
Mass fraction of [BMIM][BF4]	Mass fraction of lithium sulfate	uncertainty
.7604	.0025	.001
.6854	.0038	.001
.6481	.0049	.001
.6188	.0054	.001
.5914	.006	.001
.5588	.007	.001
.5324	.0076	.001
.478	.0094	.001
.4397	.0104	.001
.399	.0121	.001
.372	.0135	.001
.3499	.0148	.001
.3117	.0178	.001
.2818	.021	.001
.2573	.0227	.001
.2374	.026	.001
.2212	.0272	.001
.2105	.0294	.001
.194	.032	.001
.1763	.0364	.001
.1631	.0395	.001
.1523	.0444	.001
.1335	.051	.001
.124	.0546	.001
.1177	.0585	.001
.1119	.062	.001
.102	.0682	.001
.0962	.0719	.001
.087	.0797	.001
.0792	.0865	.001
.0713	.0941	.001
.0679	.0974	.001
.0644	.1016	.001
.0598	.108	.001
.0563	.113	.001
.0513	.1211	.001

System: water + lithium sulfate + [BMIM][BF4]; phases: Liquid mixture 2, Liquid mixture 1
Property: Mass fraction of [BMIM][BF4] (Liquid mixture 2); method: Index of refraction calibration data
Property: Mass fraction of [BMIM][BF4] (Liquid mixture 1); method: Index of refraction calibration data
Property: Mass fraction of lithium sulfate (Liquid mixture 1); method: Index of refraction calibration data
Temperature, K	Pressure, kPa	Mass fraction of lithium sulfate	Mass fraction of [BMIM][BF4]	uncertainty	Mass fraction of [BMIM][BF4]	uncertainty	Mass fraction of lithium sulfate	uncertainty
298.15	100	.134	.0533	.0002	.8478	.0002	.0015	.0002
298.15	100	.141	.0517	.0002	.8915	.0002	.0011	.0002
298.15	100	.1507	.05	.0002	.9275	.0002	.0009	.0002
298.15	100	.154	.0495	.0002	.945	.0002	.0008	.0002
