Measured thermophysical data. Volumetric and viscometric studies on L-ascorbic acid, nicotinic acid, thiamine hydrochloride and  pyridoxine hydrochloride in water at temperatures (288.15 to 318.15) K and at atmospheric pressure
Source: Thermochim. Acta, 2013, 10.1016/j.tca.2012.10.017
Compound 1: water, H2O, purity 99.9%
Compound 2: L-(+)-ascorbic acid, C6H8O6, purity 99%
Compound 3: 3-pyridinecarboxylic acid, C6H5NO2, purity 99%
Compound 4: thiamine hydrochloride, C12H18Cl2N4OS, purity 98%
Compound 5: 4,5-bis(hydroxymethyl)-3-hydroxy-2-methylpyridine hydrochloride, C8H12ClNO3, purity 98%

System: water; phases: Liquid
Fixed: Pressure, kPa = 101.325
Property: Viscosity, Pa*s (Liquid); method: Capillary tube (Ostwald; Ubbelohde) method
Temperature, K	Viscosity, Pa*s	uncertainty
288.15	.0011382	.000002

System: water; phases: Liquid
Property: Speed of sound, m/s (Liquid); method: Sing-around technique in a fixed-path interferometer
Temperature, K	Pressure, kPa	Speed of sound, m/s	uncertainty
288.15	101	1466.87	.02
298.15	101	1497.13	.02
308.15	101	1519.8	.02
318.15	101	1536.42	.02

System: L-(+)-ascorbic acid + water; phases: Liquid
Fixed: Pressure, kPa = 101
Property: Mass density, kg/m3 (Liquid); method: Vibrating tube method
Temperature, K	Molality, mol/kg of L-(+)-ascorbic acid	Mass density, kg/m3	uncertainty
288.15	.10863	1006.822	.0037
288.15	.15753	1010.227	.0037
288.15	.23085	1015.262	.0037
288.15	.34674	1023.054	.0037
288.15	.40087	1026.634	.0037
288.15	.42321	1028.099	.0037
298.15	.10863	1004.595	.0037
298.15	.15753	1007.935	.0037
298.15	.23085	1012.88	.0037
298.15	.2809	1016.213	.0037
298.15	.34674	1020.544	.0037
298.15	.40087	1024.062	.0037
298.15	.42321	1025.502	.0037
308.15	.14855	1004.189	.0037
308.15	.18845	1006.852	.0037
308.15	.24788	1010.766	.0037
308.15	.28641	1013.279	.0037
308.15	.33167	1016.194	.0037
308.15	.45617	1024.074	.0037
318.15	.10863	997.606	.0037
318.15	.15753	1000.864	.0037
318.15	.23085	1005.685	.0037
318.15	.2809	1008.933	.0037
318.15	.34674	1013.155	.0037
318.15	.40087	1016.581	.0037
318.15	.42321	1017.983	.0037

System: L-(+)-ascorbic acid + water; phases: Liquid
Fixed: Pressure, kPa = 101
Property: Speed of sound, m/s (Liquid); method: Sing-around technique in a fixed-path interferometer
Temperature, K	Molality, mol/kg of L-(+)-ascorbic acid	Speed of sound, m/s	uncertainty
288.15	0	1466.87	.02
288.15	.05644	1469.55	.02
288.15	.1176	1472.38	.02
288.15	.22124	1477.3	.02
288.15	.46728	1489	.02
288.15	.62058	1496.01	.02
298.15	0	1497.13	.02
298.15	.05644	1499.39	.02
298.15	.1176	1501.79	.02
298.15	.22124	1505.89	.02
298.15	.46728	1515.96	.02
298.15	.62058	1521.78	.02
308.15	0	1519.8	.02
308.15	.05644	1521.77	.02
308.15	.1176	1523.92	.02
308.15	.22124	1527.43	.02
308.15	.46728	1535.96	.02
308.15	.62058	1540.95	.02
318.15	0	1536.42	.02
318.15	.05644	1537.97	.02
318.15	.1176	1539.67	.02
318.15	.22124	1542.67	.02
318.15	.46728	1549.82	.02
318.15	.62058	1554.32	.02

System: L-(+)-ascorbic acid + water; phases: Liquid
Fixed: Pressure, kPa = 101
Property: Viscosity, Pa*s (Liquid); method: Capillary tube (Ostwald; Ubbelohde) method
Temperature, K	Molality, mol/kg of L-(+)-ascorbic acid	Viscosity, Pa*s	uncertainty
288.15	.04264	.0011612	.000002
288.15	.30113	.0012821	.000002
288.15	.0926	.0011812	.000002
288.15	.34657	.001305	.000002
288.15	.15455	.0012112	.000002
288.15	.56063	.001419	.000002
298.15	.04264	.0009075	.000002
298.15	.30113	.0009979	.000002
298.15	.0926	.0009245	.000002
298.15	.34657	.0010156	.000002
298.15	.15455	.0009451	.000002
298.15	.56063	.0011002	.000002
308.15	.04264	.0007308	.000002
308.15	.30113	.0008018	.000002
308.15	.0926	.0007425	.000002
308.15	.34657	.0008139	.000002
308.15	.15455	.0007609	.000002
308.15	.56063	.0008791	.000002
318.15	.04264	.0006078	.000002
318.15	.0926	.0006147	.000002
318.15	.15455	.0006296	.000002
318.15	.34657	.0006736	.000002
318.15	.56063	.000725	.000002

System: 3-pyridinecarboxylic acid + water; phases: Liquid
Fixed: Pressure, kPa = 101
Property: Mass density, kg/m3 (Liquid); method: Vibrating tube method
Temperature, K	Molality, mol/kg of 3-pyridinecarboxylic acid	Mass density, kg/m3	uncertainty
288.15	.04229	1000.922	.0037
288.15	.06491	1001.868	.0037
288.15	.07233	1002.175	.0037
288.15	.08396	1002.65	.0037
288.15	.0995	1003.28	.0037
288.15	.10443	1003.479	.0037
298.15	.04229	998.813	.0037
298.15	.06491	999.73	.0037
298.15	.07233	1000.033	.0037
298.15	.08396	1000.494	.0037
298.15	.0995	1001.122	.0037
298.15	.10443	1001.306	.0037
308.15	.04229	995.78	.0037
308.15	.06491	996.668	.0037
308.15	.07233	996.956	.0037
308.15	.08396	997.404	.0037
308.15	.0995	998.005	.0037
318.15	.04229	991.911	.0037
318.15	.06491	992.791	.0037
318.15	.07233	993.076	.0037
318.15	.08396	993.521	.0037
318.15	.0995	994.118	.0037

System: 3-pyridinecarboxylic acid + water; phases: Liquid
Fixed: Pressure, kPa = 101
Property: Speed of sound, m/s (Liquid); method: Sing-around technique in a fixed-path interferometer
Temperature, K	Molality, mol/kg of 3-pyridinecarboxylic acid	Speed of sound, m/s	uncertainty
288.15	.00853	1467.26	.02
288.15	.01678	1467.66	.02
288.15	.03185	1468.68	.02
288.15	.03973	1469.28	.02
288.15	.06135	1470.94	.02
298.15	.00853	1497.5	.02
298.15	.01678	1497.82	.02
298.15	.03185	1498.69	.02
298.15	.03973	1499.16	.02
298.15	.06135	1500.96	.02
308.15	.00853	1520.18	.02
308.15	.01678	1520.52	.02
308.15	.03185	1521.3	.02
308.15	.03973	1521.76	.02
308.15	.06135	1523.58	.02

System: 3-pyridinecarboxylic acid + water; phases: Liquid
Fixed: Pressure, kPa = 101
Property: Viscosity, Pa*s (Liquid); method: Capillary tube (Ostwald; Ubbelohde) method
Temperature, K	Molality, mol/kg of 3-pyridinecarboxylic acid	Viscosity, Pa*s	uncertainty
288.15	.02818	.0011455	.000002
288.15	.07229	.0011563	.000002
288.15	.04345	.0011511	.000002
288.15	.08988	.001161	.000002
288.15	.06409	.0011553	.000002
288.15	.10885	.0011628	.000002
298.15	.02818	.0008966	.000002
298.15	.07229	.0009053	.000002
298.15	.04345	.0009016	.000002
298.15	.08988	.0009109	.000002
298.15	.06409	.0009042	.000002
298.15	.10885	.0009106	.000002
308.15	.02818	.0007239	.000002
308.15	.07229	.0007321	.000002
308.15	.04345	.0007275	.000002
308.15	.08988	.0007347	.000002
308.15	.06409	.0007288	.000002
308.15	.10885	.0007385	.000002
318.15	.04345	.000602	.000002
318.15	.08988	.0006081	.000002
318.15	.06409	.0006035	.000002
318.15	.10885	.00061	.000002
318.15	.07229	.0006046	.000002

System: thiamine hydrochloride + water; phases: Liquid
Fixed: Pressure, kPa = 101
Property: Mass density, kg/m3 (Liquid); method: Vibrating tube method
Temperature, K	Molality, mol/kg of thiamine hydrochloride	Mass density, kg/m3	uncertainty
288.15	.0562	1004.735	.0037
288.15	.122	1011.089	.0037
288.15	.19337	1017.776	.0037
288.15	.24685	1022.613	.0037
288.15	.34244	1030.946	.0037
298.15	.0562	1002.59	.0037
298.15	.122	1008.848	.0037
298.15	.19337	1015.445	.0037
298.15	.24685	1020.214	.0037
298.15	.34244	1028.407	.0037
308.15	.0562	999.569	.0037
308.15	.122	1005.748	.0037
308.15	.19337	1012.284	.0037
308.15	.24685	1016.985	.0037
308.15	.34244	1025.093	.0037
318.15	.0562	995.723	.0037
318.15	.122	1001.913	.0037
318.15	.19337	1008.412	.0037
318.15	.24685	1013.07	.0037
318.15	.34244	1021.173	.0037

System: thiamine hydrochloride + water; phases: Liquid
Fixed: Pressure, kPa = 101
Property: Speed of sound, m/s (Liquid); method: Sing-around technique in a fixed-path interferometer
Temperature, K	Molality, mol/kg of thiamine hydrochloride	Speed of sound, m/s	uncertainty
288.15	.02676	1472.55	.02
288.15	.08228	1481.58	.02
288.15	.10868	1486.28	.02
288.15	.14732	1493.02	.02
288.15	.17865	1498.54	.02
298.15	.02676	1502.12	.02
298.15	.08228	1510.52	.02
298.15	.10868	1514.8	.02
298.15	.14732	1520.92	.02
298.15	.17865	1525.95	.02
308.15	.02676	1524.67	.02
308.15	.08228	1532.58	.02
308.15	.10868	1536.46	.02
308.15	.14732	1542.09	.02
308.15	.17865	1546.63	.02
318.15	.02676	1541.02	.02
318.15	.08228	1548.09	.02
318.15	.10868	1551.81	.02
318.15	.14732	1557.17	.02
318.15	.17865	1561.45	.02

System: thiamine hydrochloride + water; phases: Liquid
Fixed: Pressure, kPa = 101
Property: Viscosity, Pa*s (Liquid); method: Capillary tube (Ostwald; Ubbelohde) method
Temperature, K	Molality, mol/kg of thiamine hydrochloride	Viscosity, Pa*s	uncertainty
288.15	.09216	.0012221	.000002
288.15	.21331	.0013289	.000002
288.15	.09425	.0012222	.000002
288.15	.23923	.0013599	.000002
288.15	.14018	.001275	.000002
288.15	.29269	.0014067	.000002
308.15	.09216	.0007726	.000002
308.15	.21331	.000837	.000002
308.15	.09425	.0007711	.000002
308.15	.23923	.0008515	.000002
308.15	.14018	.0008005	.000002
308.15	.29269	.0008799	.000002
318.15	.09216	.0006377	.000002
318.15	.21331	.0006919	.000002
318.15	.09425	.0006389	.000002
318.15	.23923	.000703	.000002
318.15	.14018	.0006591	.000002
318.15	.29269	.0007256	.000002
298.15	.09216	.0009532	.000002
298.15	.21331	.0010342	.000002
298.15	.09425	.0009545	.000002
298.15	.23923	.0010549	.000002
298.15	.14018	.0009786	.000002
298.15	.29269	.0010968	.000002

System: 4,5-bis(hydroxymethyl)-3-hydroxy-2-methylpyridine hydrochloride + water; phases: Liquid
Fixed: Pressure, kPa = 101
Property: Mass density, kg/m3 (Liquid); method: Vibrating tube method
Temperature, K	Molality, mol/kg of 4,5-bis(hydroxymethyl)-3-hydroxy-2-methylpyridine hydrochloride	Mass density, kg/m3	uncertainty
288.15	.05476	1002.471	.0037
288.15	.07584	1003.741	.0037
288.15	.1332	1007.149	.0037
288.15	.26986	1015.027	.0037
288.15	.41139	1022.862	.0037
298.15	.14116	1005.348	.0037
298.15	.3038	1014.466	.0037
298.15	.33553	1016.189	.0037
298.15	.36918	1018.019	.0037
298.15	.41194	1020.294	.0037
308.15	.05476	997.3	.0037
308.15	.07584	998.53	.0037
308.15	.1332	1001.831	.0037
308.15	.26986	1009.464	.0037
308.15	.41139	1017.054	.0037
318.15	.05476	993.443	.0037
318.15	.07584	994.659	.0037
318.15	.1332	997.928	.0037
318.15	.26986	1005.477	.0037
318.15	.41139	1012.969	.0037

System: 4,5-bis(hydroxymethyl)-3-hydroxy-2-methylpyridine hydrochloride + water; phases: Liquid
Fixed: Pressure, kPa = 101
Property: Speed of sound, m/s (Liquid); method: Sing-around technique in a fixed-path interferometer
Temperature, K	Molality, mol/kg of 4,5-bis(hydroxymethyl)-3-hydroxy-2-methylpyridine hydrochloride	Speed of sound, m/s	uncertainty
288.15	.10812	1477.47	.02
288.15	.16386	1482.28	.02
288.15	.25557	1490.54	.02
288.15	.39014	1502.49	.02
288.15	.41676	1504.68	.02
298.15	.10812	1506.55	.02
298.15	.16386	1510.81	.02
298.15	.25557	1518.1	.02
298.15	.39094	1528.54	.02
298.15	.41676	1530.58	.02
308.15	.10812	1528.23	.02
308.15	.16386	1532.07	.02
308.15	.25557	1538.9	.02
308.15	.39094	1549.15	.02
308.15	.41676	1551.11	.02
318.15	.10812	1543.92	.02
318.15	.16386	1547.31	.02
318.15	.25557	1553.62	.02
318.15	.39094	1562.62	.02
318.15	.41676	1564.39	.02

System: 4,5-bis(hydroxymethyl)-3-hydroxy-2-methylpyridine hydrochloride + water; phases: Liquid
Fixed: Pressure, kPa = 101
Property: Viscosity, Pa*s (Liquid); method: Capillary tube (Ostwald; Ubbelohde) method
Temperature, K	Molality, mol/kg of 4,5-bis(hydroxymethyl)-3-hydroxy-2-methylpyridine hydrochloride	Viscosity, Pa*s	uncertainty
288.15	.045	.0011552	.000002
288.15	.21878	.0012423	.000002
288.15	.11278	.0011877	.000002
288.15	.26528	.0012604	.000002
288.15	.13849	.0012015	.000002
288.15	.37249	.001316	.000002
298.15	.045	.0009087	.000002
298.15	.21878	.0009708	.000002
298.15	.11278	.0009328	.000002
298.15	.26528	.0009841	.000002
298.15	.13849	.0009415	.000002
298.15	.37249	.0010295	.000002
308.15	.045	.0007361	.000002
308.15	.21878	.0007829	.000002
308.15	.11278	.0007519	.000002
308.15	.26528	.0007924	.000002
308.15	.13849	.0007601	.000002
308.15	.37249	.000828	.000002
318.15	.045	.0006072	.000002
318.15	.21878	.000649	.000002
318.15	.11278	.0006236	.000002
318.15	.26528	.0006605	.000002
318.15	.13849	.0006303	.000002
318.15	.37249	.0006863	.000002
