Measured thermophysical data. Experimental measurements and modelling of volumetric properties, refractive  index and viscosity of selected binary systems with butyl lactate at 288.15 to 323.15  K and atmospheric pressure. New UNIFAC-VISCO interaction parameters.
Source: Thermochim. Acta, 2013, 10.1016/j.tca.2013.03.025
Compound 1: lactic acid, butyl ester, C7H14O3, purity 97%
Compound 2: n-propyl alcohol, C3H8O, purity 99.5%
Compound 3: 1,2-dihydroxypropane, C3H8O2, purity 99.5%
Compound 4: 1,3-propanediol, C3H8O2, purity 99%

System: lactic acid, butyl ester; phases: Liquid
Property: Mass density, kg/m3 (Liquid); method: Vibrating tube method
Temperature, K	Pressure, kPa	Mass density, kg/m3	uncertainty
288.15	101	987.269	.01
293.15	101	982.366	.01
298.15	101	977.448	.01
303.15	101	972.515	.01
308.15	101	967.567	.01
313.15	101	962.603	.01
318.15	101	957.624	.01
323.15	101	952.631	.01

System: lactic acid, butyl ester; phases: Liquid
Fixed: Pressure, kPa = 101.325
Property: Refractive index (Na D-line) (Liquid); method: Standard Abbe refractometry
Temperature, K	Refractive index (Na D-line)	uncertainty
288.15	1.42379	.00005
293.15	1.42152	.00005
298.15	1.41925	.00005
303.15	1.41697	.00005
308.15	1.41469	.00005
313.15	1.4124	.00005
318.15	1.41005	.00005
323.15	1.40778	.00005
308.15	1.4147	.00005
313.15	1.41241	.00005
318.15	1.41006	.00005

System: lactic acid, butyl ester; phases: Liquid
Property: Viscosity, Pa*s (Liquid); method: Concentric cylinders viscometry
Temperature, K	Pressure, kPa	Viscosity, Pa*s	uncertainty
288.15	101	.0046284	.0000185136
293.15	101	.0038803	.0000155212
298.15	101	.0033067	.0000132268
303.15	101	.0028503	.0000114012
308.15	101	.0024808	.0000099232
313.15	101	.0021812	.0000087248
318.15	101	.0019346	.0000077384
323.15	101	.0017276	.0000069104
303.15	101	.0028603	.0000114412

System: n-propyl alcohol; phases: Liquid
Property: Mass density, kg/m3 (Liquid); method: Vibrating tube method
Temperature, K	Pressure, kPa	Mass density, kg/m3	uncertainty
288.15	101	807.752	.01
293.15	101	803.767	.01
298.15	101	799.755	.01
303.15	101	795.717	.01
308.15	101	791.638	.01
313.15	101	787.521	.01
318.15	101	783.357	.01
323.15	101	779.137	.01

System: n-propyl alcohol; phases: Liquid
Fixed: Pressure, kPa = 101.325
Property: Refractive index (Na D-line) (Liquid); method: Standard Abbe refractometry
Temperature, K	Refractive index (Na D-line)	uncertainty
288.15	1.38751	.00005
293.15	1.38543	.00005
298.15	1.3834	.00005
303.15	1.38137	.00005
308.15	1.37918	.00005
313.15	1.37702	.00005
318.15	1.37482	.00005
323.15	1.37262	.00005

System: n-propyl alcohol; phases: Liquid
Property: Viscosity, Pa*s (Liquid); method: Concentric cylinders viscometry
Temperature, K	Pressure, kPa	Viscosity, Pa*s	uncertainty
288.15	101	.0025139	.0000100556
293.15	101	.0022085	.000008834
298.15	101	.0019503	.0000078012
303.15	101	.001727	.000006908
308.15	101	.0015419	.0000061676
313.15	101	.0013783	.0000055132
318.15	101	.0012365	.000004946
323.15	101	.0011241	.0000044964

System: 1,2-dihydroxypropane; phases: Liquid
Property: Mass density, kg/m3 (Liquid); method: Vibrating tube method
Temperature, K	Pressure, kPa	Mass density, kg/m3	uncertainty
288.15	101	1039.871	.01
293.15	101	1036.247	.01
298.15	101	1032.558	.01
303.15	101	1028.881	.01
308.15	101	1025.137	.01
313.15	101	1021.351	.01
318.15	101	1017.524	.01
323.15	101	1013.656	.01

System: 1,2-dihydroxypropane; phases: Liquid
Fixed: Pressure, kPa = 101.325
Property: Refractive index (Na D-line) (Liquid); method: Standard Abbe refractometry
Temperature, K	Refractive index (Na D-line)	uncertainty
288.15	1.43437	.00005
293.15	1.4327	.00005
298.15	1.43102	.00005
303.15	1.42934	.00005
308.15	1.42764	.00005
313.15	1.42591	.00005
318.15	1.4242	.00005
323.15	1.42246	.00005

System: 1,2-dihydroxypropane; phases: Liquid
Property: Viscosity, Pa*s (Liquid); method: Concentric cylinders viscometry
Temperature, K	Pressure, kPa	Viscosity, Pa*s	uncertainty
288.15	101	.08254	.00033016
293.15	101	.05962	.00023848
298.15	101	.044026	.000176104
303.15	101	.033164	.000132656
308.15	101	.025446	.000101784
313.15	101	.019854	.000079416
318.15	101	.015731	.000062924
323.15	101	.012641	.000050564

System: 1,3-propanediol; phases: Liquid
Property: Mass density, kg/m3 (Liquid); method: Vibrating tube method
Temperature, K	Pressure, kPa	Mass density, kg/m3	uncertainty
288.15	101	1055.96	.01
293.15	101	1052.864	.01
298.15	101	1049.753	.01
303.15	101	1046.635	.01
308.15	101	1043.497	.01
313.15	101	1040.347	.01
318.15	101	1037.175	.01
323.15	101	1033.981	.01

System: 1,3-propanediol; phases: Liquid
Fixed: Pressure, kPa = 101.325
Property: Refractive index (Na D-line) (Liquid); method: Standard Abbe refractometry
Temperature, K	Refractive index (Na D-line)	uncertainty
288.15	1.44072	.00005
293.15	1.43932	.00005
298.15	1.43793	.00005
303.15	1.43653	.00005
308.15	1.43512	.00005
313.15	1.43374	.00005
318.15	1.43232	.00005
323.15	1.43087	.00005

System: 1,3-propanediol; phases: Liquid
Property: Viscosity, Pa*s (Liquid); method: Concentric cylinders viscometry
Temperature, K	Pressure, kPa	Viscosity, Pa*s	uncertainty
288.15	101	.066712	.000266848
293.15	101	.052018	.000208072
298.15	101	.041112	.000164448
303.15	101	.032887	.000131548
308.15	101	.026614	.000106456
313.15	101	.021762	.000087048
318.15	101	.017966	.000071864
323.15	101	.014969	.000059876

System: n-propyl alcohol + lactic acid, butyl ester; phases: Liquid
Fixed: Pressure, kPa = 101
Property: Mass density, kg/m3 (Liquid); method: Vibrating tube method
Temperature, K	Mole fraction of lactic acid, butyl ester	Mass density, kg/m3	uncertainty
288.15	0	807.752	.01
288.15	.1	841.535	.01
288.15	.2	869.447	.01
288.15	.3001	892.853	.01
288.15	.3998	912.61	.01
288.15	.5	929.664	.01
288.15	.5999	944.359	.01
288.15	.7001	957.317	.01
288.15	.7996	968.544	.01
288.15	.8998	978.506	.01
288.15	1	987.269	.01
293.15	0	803.767	.01
293.15	.1	837.385	.01
293.15	.2	865.152	.01
293.15	.3001	888.44	.01
293.15	.3998	908.086	.01
293.15	.5	925.055	.01
293.15	.5999	939.67	.01
293.15	.7001	952.563	.01
293.15	.7996	963.731	.01
293.15	.8998	973.646	.01
293.15	1	982.366	.01
298.15	0	799.755	.01
298.15	.1	833.207	.01
298.15	.2	860.837	.01
298.15	.3001	883.997	.01
298.15	.3998	903.535	.01
298.15	.5	920.415	.01
298.15	.5999	934.96	.01
298.15	.7001	947.782	.01
298.15	.7996	958.893	.01
298.15	.8998	968.763	.01
298.15	1	977.448	.01
303.15	0	795.717	.01
303.15	.1	828.994	.01
303.15	.2	856.474	.01
303.15	.3001	879.517	.01
303.15	.3998	898.955	.01
303.15	.5	915.748	.01
303.15	.5999	930.218	.01
303.15	.7001	942.977	.01
303.15	.7996	954.036	.01
303.15	.8998	963.865	.01
303.15	1	972.515	.01
308.15	0	791.638	.01
308.15	.1	824.744	.01
308.15	.2	852.093	.01
308.15	.3001	875.001	.01
308.15	.3998	894.346	.01
308.15	.5	911.045	.01
308.15	.5999	925.444	.01
308.15	.7001	938.146	.01
308.15	.7996	949.162	.01
308.15	.8998	958.949	.01
308.15	1	967.567	.01
313.15	0	787.521	.01
313.15	.1	820.45	.01
313.15	.2	847.649	.01
313.15	.3001	870.443	.01
313.15	.3998	889.684	.01
313.15	.5	906.306	.01
313.15	.5999	920.642	.01
313.15	.7001	933.287	.01
313.15	.7996	944.258	.01
313.15	.8998	954.012	.01
313.15	1	962.603	.01
318.15	0	783.357	.01
318.15	.1	816.108	.01
318.15	.2	843.16	.01
318.15	.3001	865.84	.01
318.15	.3998	884.981	.01
318.15	.5	901.531	.01
318.15	.5999	915.803	.01
318.15	.7001	928.398	.01
318.15	.7996	939.33	.01
318.15	.8998	949.054	.01
318.15	1	957.624	.01
323.15	0	779.137	.01
323.15	.1	811.714	.01
323.15	.2	838.623	.01
323.15	.3001	861.188	.01
323.15	.3998	880.239	.01
323.15	.5	896.715	.01
323.15	.5999	910.93	.01
323.15	.7001	923.482	.01
323.15	.7996	934.378	.01
323.15	.8998	944.076	.01
323.15	1	952.631	.01

System: n-propyl alcohol + lactic acid, butyl ester; phases: Liquid
Fixed: Pressure, kPa = 101
Property: Refractive index (Na D-line) (Liquid); method: Standard Abbe refractometry
Temperature, K	Mole fraction of lactic acid, butyl ester	Refractive index (Na D-line)	uncertainty
288.15	0	1.38751	.00005
288.15	.1	1.39449	.00005
288.15	.2	1.4003	.00005
288.15	.3001	1.4052	.00005
288.15	.3998	1.40922	.00005
288.15	.5	1.41285	.00005
288.15	.5999	1.41543	.00005
288.15	.7001	1.41816	.00005
288.15	.7996	1.42021	.00005
288.15	.8998	1.42209	.00005
288.15	1	1.42379	.00005
293.15	0	1.38543	.00005
293.15	.1	1.39238	.00005
293.15	.2	1.39818	.00005
293.15	.3001	1.40305	.00005
293.15	.3998	1.40704	.00005
293.15	.5	1.41067	.00005
293.15	.5999	1.41321	.00005
293.15	.7001	1.41593	.00005
293.15	.7996	1.41798	.00005
293.15	.8998	1.41984	.00005
293.15	1	1.42152	.00005
298.15	0	1.3834	.00005
298.15	.1	1.39028	.00005
298.15	.2	1.39605	.00005
298.15	.3001	1.40088	.00005
298.15	.3998	1.40485	.00005
298.15	.5	1.40846	.00005
298.15	.5999	1.41101	.00005
298.15	.7001	1.41369	.00005
298.15	.7996	1.41572	.00005
298.15	.8998	1.41758	.00005
298.15	1	1.41925	.00005
303.15	0	1.38137	.00005
303.15	.1	1.38813	.00005
303.15	.2	1.39389	.00005
303.15	.3001	1.3987	.00005
303.15	.3998	1.40265	.00005
303.15	.5	1.40623	.00005
303.15	.5999	1.40877	.00005
303.15	.7001	1.41144	.00005
303.15	.7996	1.41346	.00005
303.15	.8998	1.4153	.00005
303.15	1	1.41697	.00005
308.15	0	1.37918	.00005
308.15	.1	1.38599	.00005
308.15	.2	1.3917	.00005
308.15	.3001	1.39651	.00005
308.15	.3998	1.40042	.00005
308.15	.5	1.40398	.00005
308.15	.5999	1.40652	.00005
308.15	.7001	1.40919	.00005
308.15	.7996	1.4112	.00005
308.15	.8998	1.41304	.00005
308.15	1	1.41469	.00005
313.15	0	1.37702	.00005
313.15	.1	1.38382	.00005
313.15	.2	1.38951	.00005
313.15	.3001	1.39427	.00005
313.15	.3998	1.3982	.00005
313.15	.5	1.4017	.00005
313.15	.5999	1.40425	.00005
313.15	.7001	1.40691	.00005
313.15	.7996	1.40893	.00005
313.15	.8998	1.41077	.00005
313.15	1	1.4124	.00005
318.15	0	1.37482	.00005
318.15	.1	1.3816	.00005
318.15	.2	1.38726	.00005
318.15	.3001	1.39198	.00005
318.15	.3998	1.39591	.00005
318.15	.5	1.39938	.00005
318.15	.5999	1.40195	.00005
318.15	.7001	1.40455	.00005
318.15	.7996	1.40658	.00005
318.15	.8998	1.40842	.00005
318.15	1	1.41005	.00005
323.15	0	1.37262	.00005
323.15	.1	1.37938	.00005
323.15	.2	1.38505	.00005
323.15	.3001	1.38973	.00005
323.15	.3998	1.39364	.00005
323.15	.5	1.3971	.00005
323.15	.5999	1.39967	.00005
323.15	.7001	1.40228	.00005
323.15	.7996	1.40433	.00005
323.15	.8998	1.40617	.00005
323.15	1	1.40778	.00005

System: n-propyl alcohol + lactic acid, butyl ester; phases: Liquid
Fixed: Pressure, kPa = 101
Property: Viscosity, Pa*s (Liquid); method: Concentric cylinders viscometry
Temperature, K	Mole fraction of lactic acid, butyl ester	Viscosity, Pa*s	uncertainty
288.15	0	.0025139	.0000100556
288.15	.1	.0026325	.00001053
288.15	.2	.0027865	.000011146
288.15	.3001	.0029788	.0000119152
288.15	.3998	.0031897	.0000127588
288.15	.5	.0034056	.0000136224
288.15	.5999	.0036227	.0000144908
288.15	.7001	.0038299	.0000153196
288.15	.7996	.0040399	.0000161596
288.15	.8998	.0042873	.0000171492
288.15	1	.0046284	.0000185136
293.15	0	.0022085	.000008834
293.15	.1	.0023053	.0000092212
293.15	.2	.0024309	.0000097236
293.15	.3001	.0025843	.0000103372
293.15	.3998	.0027507	.0000110028
293.15	.5	.0029211	.0000116844
293.15	.5999	.003092	.000012368
293.15	.7001	.0032575	.00001303
293.15	.7996	.0034262	.0000137048
293.15	.8998	.0036215	.000014486
293.15	1	.0038803	.0000155212
298.15	0	.0019503	.0000078012
298.15	.1	.0020339	.0000081356
298.15	.2	.0021473	.0000085892
298.15	.3001	.0022774	.0000091096
298.15	.3998	.002413	.000009652
298.15	.5	.0025483	.0000101932
298.15	.5999	.0026794	.0000107176
298.15	.7001	.0028096	.0000112384
298.15	.7996	.0029455	.000011782
298.15	.8998	.0031041	.0000124164
298.15	1	.0033067	.0000132268
303.15	0	.001727	.000006908
303.15	.1	.0017964	.0000071856
303.15	.2	.001888	.000007552
303.15	.3001	.001994	.000007976
303.15	.3998	.0021053	.0000084212
303.15	.5	.002219	.000008876
303.15	.5999	.0023284	.0000093136
303.15	.7001	.0024388	.0000097552
303.15	.7996	.0025535	.000010214
303.15	.8998	.0026853	.0000107412
303.15	1	.0028503	.0000114012
308.15	0	.0015419	.0000061676
308.15	.1	.0016025	.00000641
308.15	.2	.0016791	.0000067164
308.15	.3001	.0017685	.000007074
308.15	.3998	.0018621	.0000074484
308.15	.5	.0019569	.0000078276
308.15	.5999	.0020504	.0000082016
308.15	.7001	.002143	.000008572
308.15	.7996	.0022382	.0000089528
308.15	.8998	.0023462	.0000093848
308.15	1	.0024808	.0000099232
313.15	0	.0013783	.0000055132
313.15	.1	.0014309	.0000057236
313.15	.2	.0015003	.0000060012
313.15	.3001	.0015786	.0000063144
313.15	.3998	.0016588	.0000066352
313.15	.5	.0017387	.0000069548
313.15	.5999	.0018183	.0000072732
313.15	.7001	.0018985	.000007594
313.15	.7996	.0019822	.0000079288
313.15	.8998	.0020749	.0000082996
313.15	1	.0021812	.0000087248
318.15	0	.0012365	.000004946
318.15	.1	.0012867	.0000051468
318.15	.2	.001349	.000005396
318.15	.3001	.0014175	.00000567
318.15	.3998	.0014862	.0000059448
318.15	.5	.0015541	.0000062164
318.15	.5999	.001623	.000006492
318.15	.7001	.001693	.000006772
318.15	.7996	.0017664	.0000070656
318.15	.8998	.0018465	.000007386
318.15	1	.0019346	.0000077384
323.15	0	.0011241	.0000044964
323.15	.1	.0011686	.0000046744
323.15	.2	.0012223	.0000048892
323.15	.3001	.0012801	.0000051204
323.15	.3998	.0013388	.0000053552
323.15	.5	.001398	.000005592
323.15	.5999	.0014576	.0000058304
323.15	.7001	.0015192	.0000060768
323.15	.7996	.0015835	.000006334
323.15	.8998	.0016529	.0000066116
323.15	1	.0017276	.0000069104

System: 1,2-dihydroxypropane + lactic acid, butyl ester; phases: Liquid
Fixed: Pressure, kPa = 101
Property: Mass density, kg/m3 (Liquid); method: Vibrating tube method
Temperature, K	Mole fraction of lactic acid, butyl ester	Mass density, kg/m3	uncertainty
288.15	0	1039.871	.01
288.15	.0999	1028.938	.01
288.15	.2	1020.524	.01
288.15	.3	1014.006	.01
288.15	.3999	1008.689	.01
288.15	.4998	1004.107	.01
288.15	.6	999.883	.01
288.15	.6996	996.116	.01
288.15	.7999	992.836	.01
288.15	.9	990.017	.01
288.15	1	987.269	.01
293.15	0	1036.247	.01
293.15	.0999	1025.086	.01
293.15	.2	1016.489	.01
293.15	.3	1009.813	.01
293.15	.3999	1004.362	.01
293.15	.4998	999.672	.01
293.15	.6	995.344	.01
293.15	.6996	991.481	.01
293.15	.7999	988.111	.01
293.15	.9	985.199	.01
293.15	1	982.366	.01
298.15	0	1032.558	.01
298.15	.0999	1021.188	.01
298.15	.2	1012.415	.01
298.15	.3	1005.654	.01
298.15	.3999	1000.002	.01
298.15	.4998	995.208	.01
298.15	.6	990.768	.01
298.15	.6996	986.821	.01
298.15	.7999	983.363	.01
298.15	.9	980.366	.01
298.15	1	977.448	.01
303.15	0	1028.881	.01
303.15	.0999	1017.295	.01
303.15	.2	1008.342	.01
303.15	.3	1001.422	.01
303.15	.3999	995.637	.01
303.15	.4998	990.737	.01
303.15	.6	986.189	.01
303.15	.6996	982.143	.01
303.15	.7999	978.595	.01
303.15	.9	975.512	.01
303.15	1	972.515	.01
308.15	0	1025.137	.01
308.15	.0999	1013.343	.01
308.15	.2	1004.225	.01
308.15	.3	997.153	.01
308.15	.3999	991.238	.01
308.15	.4998	986.236	.01
308.15	.6	981.583	.01
308.15	.6996	977.444	.01
308.15	.7999	973.812	.01
308.15	.9	970.644	.01
308.15	1	967.567	.01
313.15	0	1021.351	.01
313.15	.0999	1009.36	.01
313.15	.2	1000.073	.01
313.15	.3	992.852	.01
313.15	.3999	986.813	.01
313.15	.4998	981.71	.01
313.15	.6	976.954	.01
313.15	.6996	972.719	.01
313.15	.7999	969.003	.01
313.15	.9	965.755	.01
313.15	1	962.603	.01
318.15	0	1017.524	.01
318.15	.0999	1005.342	.01
318.15	.2	995.893	.01
318.15	.3	988.531	.01
318.15	.3999	982.364	.01
318.15	.4998	977.162	.01
318.15	.6	972.304	.01
318.15	.6996	967.975	.01
318.15	.7999	964.179	.01
318.15	.9	960.848	.01
318.15	1	957.624	.01
323.15	0	1013.656	.01
323.15	.0999	1001.286	.01
323.15	.2	991.678	.01
323.15	.3	984.178	.01
323.15	.3999	978.01	.01
323.15	.4998	972.59	.01
323.15	.6	967.647	.01
323.15	.6996	963.208	.01
323.15	.7999	959.336	.01
323.15	.9	955.922	.01
323.15	1	952.631	.01

System: 1,2-dihydroxypropane + lactic acid, butyl ester; phases: Liquid
Fixed: Pressure, kPa = 101
Property: Refractive index (Na D-line) (Liquid); method: Standard Abbe refractometry
Temperature, K	Mole fraction of lactic acid, butyl ester	Refractive index (Na D-line)	uncertainty
288.15	0	1.43437	.00005
288.15	.0999	1.43214	.00005
288.15	.2	1.43049	.00005
288.15	.3	1.42918	.00005
288.15	.3999	1.42809	.00005
288.15	.4998	1.42709	.00005
288.15	.6	1.42629	.00005
288.15	.6996	1.42548	.00005
288.15	.7999	1.42482	.00005
288.15	.9	1.42412	.00005
288.15	1	1.42379	.00005
293.15	0	1.4327	.00005
293.15	.0999	1.43038	.00005
293.15	.2	1.42865	.00005
293.15	.3	1.42726	.00005
293.15	.3999	1.42611	.00005
293.15	.4998	1.42506	.00005
293.15	.6	1.42421	.00005
293.15	.6996	1.42336	.00005
293.15	.7999	1.42266	.00005
293.15	.9	1.42191	.00005
293.15	1	1.42152	.00005
298.15	0	1.43102	.00005
298.15	.0999	1.42861	.00005
298.15	.2	1.42683	.00005
298.15	.3	1.42535	.00005
298.15	.3999	1.42414	.00005
298.15	.4998	1.42303	.00005
298.15	.6	1.42211	.00005
298.15	.6996	1.42124	.00005
298.15	.7999	1.42048	.00005
298.15	.9	1.4197	.00005
298.15	1	1.41925	.00005
303.15	0	1.42934	.00005
303.15	.0999	1.42682	.00005
303.15	.2	1.42494	.00005
303.15	.3	1.4234	.00005
303.15	.3999	1.42214	.00005
303.15	.4998	1.42099	.00005
303.15	.6	1.42002	.00005
303.15	.6996	1.4191	.00005
303.15	.7999	1.41831	.00005
303.15	.9	1.41749	.00005
303.15	1	1.41697	.00005
308.15	0	1.42764	.00005
308.15	.0999	1.42503	.00005
308.15	.2	1.42307	.00005
308.15	.3	1.42146	.00005
308.15	.3999	1.42013	.00005
308.15	.4998	1.41894	.00005
308.15	.6	1.4179	.00005
308.15	.6996	1.41696	.00005
308.15	.7999	1.41611	.00005
308.15	.9	1.41528	.00005
308.15	1	1.4147	.00005
313.15	0	1.42591	.00005
313.15	.0999	1.42323	.00005
313.15	.2	1.42118	.00005
313.15	.3	1.4195	.00005
313.15	.3999	1.41814	.00005
313.15	.4998	1.41687	.00005
313.15	.6	1.41575	.00005
313.15	.6996	1.41482	.00005
313.15	.7999	1.41392	.00005
313.15	.9	1.41307	.00005
313.15	1	1.41241	.00005
318.15	0	1.4242	.00005
318.15	.0999	1.42143	.00005
318.15	.2	1.41927	.00005
318.15	.3	1.41751	.00005
318.15	.3999	1.41605	.00005
318.15	.4998	1.41479	.00005
318.15	.6	1.41365	.00005
318.15	.6996	1.41265	.00005
318.15	.7999	1.41169	.00005
318.15	.9	1.41083	.00005
318.15	1	1.41006	.00005
323.15	0	1.42246	.00005
323.15	.0999	1.41962	.00005
323.15	.2	1.4173	.00005
323.15	.3	1.41556	.00005
323.15	.3999	1.41404	.00005
323.15	.4998	1.41275	.00005
323.15	.6	1.41156	.00005
323.15	.6996	1.41049	.00005
323.15	.7999	1.4095	.00005
323.15	.9	1.40859	.00005
323.15	1	1.40778	.00005

System: 1,2-dihydroxypropane + lactic acid, butyl ester; phases: Liquid
Fixed: Pressure, kPa = 101
Property: Viscosity, Pa*s (Liquid); method: Concentric cylinders viscometry
Temperature, K	Mole fraction of lactic acid, butyl ester	Viscosity, Pa*s	uncertainty
288.15	0	.08254	.00033016
288.15	.0999	.049572	.000198288
288.15	.2	.032758	.000131032
288.15	.3	.022444	.000089776
288.15	.3999	.016492	.000065968
288.15	.4998	.012499	.000049996
288.15	.6	.0096615	.000038646
288.15	.6996	.0077543	.0000310172
288.15	.7999	.0063573	.0000254292
288.15	.9	.0053515	.000021406
288.15	1	.0046284	.0000185136
293.15	0	.05962	.00023848
293.15	.0999	.036744	.000146976
293.15	.2	.02482	.00009928
293.15	.3	.017349	.000069396
293.15	.3999	.012963	.000051852
293.15	.4998	.0099633	.0000398532
293.15	.6	.0078144	.0000312576
293.15	.6996	.0063254	.0000253016
293.15	.7999	.0052563	.0000210252
293.15	.9	.0044537	.0000178148
293.15	1	.0038803	.0000155212
298.15	0	.044026	.000176104
298.15	.0999	.027808	.000111232
298.15	.2	.019179	.000076716
298.15	.3	.013585	.00005434
298.15	.3999	.010302	.000041208
298.15	.4998	.0080835	.000032334
298.15	.6	.0063927	.0000255708
298.15	.6996	.0052517	.0000210068
298.15	.7999	.0043939	.0000175756
298.15	.9	.0037721	.0000150884
298.15	1	.0033067	.0000132268
303.15	0	.033164	.000132656
303.15	.0999	.021445	.00008578
303.15	.2	.015081	.000060324
303.15	.3	.010864	.000043456
303.15	.3999	.0084205	.000033682
303.15	.4998	.0066058	.0000264232
303.15	.6	.0053388	.0000213552
303.15	.6996	.0044257	.0000177028
303.15	.7999	.0037407	.0000149628
303.15	.9	.0032258	.0000129032
303.15	1	.0028603	.0000114412
308.15	0	.025446	.000101784
308.15	.0999	.016821	.000067284
308.15	.2	.01205	.0000482
308.15	.3	.0088865	.000035546
308.15	.3999	.0069348	.0000277392
308.15	.4998	.0055416	.0000221664
308.15	.6	.0045057	.0000180228
308.15	.6996	.0037724	.0000150896
308.15	.7999	.0032116	.0000128464
308.15	.9	.0027965	.000011186
308.15	1	.0024808	.0000099232
313.15	0	.019854	.000079416
313.15	.0999	.013403	.000053612
313.15	.2	.0097664	.0000390656
313.15	.3	.0073166	.0000292664
313.15	.3999	.0057722	.0000230888
313.15	.4998	.0046659	.0000186636
313.15	.6	.003848	.000015392
313.15	.6996	.0032504	.0000130016
313.15	.7999	.0027914	.0000111656
313.15	.9	.0024492	.0000097968
313.15	1	.0021812	.0000087248
318.15	0	.015731	.000062924
318.15	.0999	.010832	.000043328
318.15	.2	.0080206	.0000320824
318.15	.3	.0060988	.0000243952
318.15	.3999	.0048727	.0000194908
318.15	.4998	.0039817	.0000159268
318.15	.6	.0033192	.0000132768
318.15	.6996	.0028284	.0000113136
318.15	.7999	.0024488	.0000097952
318.15	.9	.0021625	.00000865
318.15	1	.0019346	.0000077384
323.15	0	.012641	.000050564
323.15	.0999	.0088635	.000035454
323.15	.2	.0066653	.0000266612
323.15	.3	.0051409	.0000205636
323.15	.3999	.0041585	.000016634
323.15	.4998	.0034349	.0000137396
323.15	.6	.0028893	.0000115572
323.15	.6996	.0024833	.0000099332
323.15	.7999	.0021658	.0000086632
323.15	.9	.0019244	.0000076976
323.15	1	.0017276	.0000069104

System: lactic acid, butyl ester + 1,3-propanediol; phases: Liquid
Fixed: Pressure, kPa = 101
Property: Mass density, kg/m3 (Liquid); method: Vibrating tube method
Temperature, K	Mole fraction of lactic acid, butyl ester	Mass density, kg/m3	uncertainty
288.15	0	1055.96	.01
288.15	.0999	1046.523	.01
288.15	.2	1037.839	.01
288.15	.3001	1029.395	.01
288.15	.4	1022.244	.01
288.15	.4999	1015.447	.01
288.15	.5999	1009.199	.01
288.15	.6996	1003.51	.01
288.15	.8001	997.914	.01
288.15	.9	992.76	.01
288.15	1	987.269	.01
293.15	0	1052.864	.01
293.15	.0999	1043.165	.01
293.15	.2	1034.24	.01
293.15	.3001	1025.575	.01
293.15	.4	1018.229	.01
293.15	.4999	1011.247	.01
293.15	.5999	1004.844	.01
293.15	.6996	999.008	.01
293.15	.8001	993.26	.01
293.15	.9	987.976	.01
293.15	1	982.366	.01
298.15	0	1049.753	.01
298.15	.0999	1039.794	.01
298.15	.2	1030.622	.01
298.15	.3001	1021.732	.01
298.15	.4	1014.191	.01
298.15	.4999	1007.026	.01
298.15	.5999	1000.466	.01
298.15	.6996	994.488	.01
298.15	.8001	988.587	.01
298.15	.9	983.173	.01
298.15	1	977.448	.01
303.15	0	1046.635	.01
303.15	.0999	1036.408	.01
303.15	.2	1026.987	.01
303.15	.3001	1017.873	.01
303.15	.4	1010.137	.01
303.15	.4999	1002.788	.01
303.15	.5999	996.07	.01
303.15	.6996	989.946	.01
303.15	.8001	983.896	.01
303.15	.9	978.359	.01
303.15	1	972.515	.01
308.15	0	1043.497	.01
308.15	.0999	1033	.01
308.15	.2	1023.327	.01
308.15	.3001	1013.991	.01
308.15	.4	1006.058	.01
308.15	.4999	998.523	.01
308.15	.5999	991.652	.01
308.15	.6996	985.382	.01
308.15	.8001	979.183	.01
308.15	.9	973.522	.01
308.15	1	967.567	.01
313.15	0	1040.347	.01
313.15	.0999	1029.573	.01
313.15	.2	1019.648	.01
313.15	.3001	1010.091	.01
313.15	.4	1001.956	.01
313.15	.4999	994.239	.01
313.15	.5999	987.21	.01
313.15	.6996	980.794	.01
313.15	.8001	974.453	.01
313.15	.9	968.668	.01
313.15	1	962.603	.01
318.15	0	1037.175	.01
318.15	.0999	1026.126	.01
318.15	.2	1015.946	.01
318.15	.3001	1006.158	.01
318.15	.4	997.828	.01
318.15	.4999	989.925	.01
318.15	.5999	982.743	.01
318.15	.6996	976.184	.01
318.15	.8001	969.697	.01
318.15	.9	963.791	.01
318.15	1	957.624	.01
323.15	0	1033.981	.01
323.15	.0999	1022.652	.01
323.15	.2	1012.213	.01
323.15	.3001	1002.198	.01
323.15	.4	993.673	.01
323.15	.4999	985.589	.01
323.15	.5999	978.248	.01
323.15	.6996	971.548	.01
323.15	.8001	964.924	.01
323.15	.9	958.899	.01
323.15	1	952.631	.01

System: lactic acid, butyl ester + 1,3-propanediol; phases: Liquid
Fixed: Pressure, kPa = 101
Property: Refractive index (Na D-line) (Liquid); method: Standard Abbe refractometry
Temperature, K	Mole fraction of lactic acid, butyl ester	Refractive index (Na D-line)	uncertainty
288.15	0	1.44072	.00005
288.15	.0999	1.43875	.00005
288.15	.2	1.43674	.00005
288.15	.3001	1.43484	.00005
288.15	.4	1.43308	.00005
288.15	.4999	1.43138	.00005
288.15	.5999	1.42969	.00005
288.15	.6996	1.42809	.00005
288.15	.8001	1.42652	.00005
288.15	.9	1.4251	.00005
288.15	1	1.42379	.00005
293.15	0	1.43932	.00005
293.15	.0999	1.43724	.00005
293.15	.2	1.4351	.00005
293.15	.3001	1.43311	.00005
293.15	.4	1.43126	.00005
293.15	.4999	1.42947	.00005
293.15	.5999	1.4277	.00005
293.15	.6996	1.42602	.00005
293.15	.8001	1.42438	.00005
293.15	.9	1.4229	.00005
293.15	1	1.42152	.00005
298.15	0	1.43793	.00005
298.15	.0999	1.43568	.00005
298.15	.2	1.43346	.00005
298.15	.3001	1.43136	.00005
298.15	.4	1.42942	.00005
298.15	.4999	1.42754	.00005
298.15	.5999	1.42569	.00005
298.15	.6996	1.42396	.00005
298.15	.8001	1.42225	.00005
298.15	.9	1.4207	.00005
298.15	1	1.41925	.00005
303.15	0	1.43653	.00005
303.15	.0999	1.43417	.00005
303.15	.2	1.4318	.00005
303.15	.3001	1.4296	.00005
303.15	.4	1.42758	.00005
303.15	.4999	1.42563	.00005
303.15	.5999	1.42369	.00005
303.15	.6996	1.42187	.00005
303.15	.8001	1.4201	.00005
303.15	.9	1.4185	.00005
303.15	1	1.41697	.00005
308.15	0	1.43512	.00005
308.15	.0999	1.43265	.00005
308.15	.2	1.43015	.00005
308.15	.3001	1.42783	.00005
308.15	.4	1.42571	.00005
308.15	.4999	1.42367	.00005
308.15	.5999	1.42167	.00005
308.15	.6996	1.4198	.00005
308.15	.8001	1.41796	.00005
308.15	.9	1.41629	.00005
308.15	1	1.4147	.00005
313.15	0	1.43374	.00005
313.15	.0999	1.43112	.00005
313.15	.2	1.42848	.00005
313.15	.3001	1.42606	.00005
313.15	.4	1.42385	.00005
313.15	.4999	1.42173	.00005
313.15	.5999	1.41964	.00005
313.15	.6996	1.4177	.00005
313.15	.8001	1.41579	.00005
313.15	.9	1.41408	.00005
313.15	1	1.41241	.00005
318.15	0	1.43232	.00005
318.15	.0999	1.4296	.00005
318.15	.2	1.42681	.00005
318.15	.3001	1.42426	.00005
318.15	.4	1.42197	.00005
318.15	.4999	1.41977	.00005
318.15	.5999	1.41759	.00005
318.15	.6996	1.41556	.00005
318.15	.8001	1.41358	.00005
318.15	.9	1.41183	.00005
318.15	1	1.41006	.00005
323.15	0	1.43087	.00005
323.15	.0999	1.42813	.00005
323.15	.2	1.42537	.00005
323.15	.3001	1.42267	.00005
323.15	.4	1.42009	.00005
323.15	.4999	1.41772	.00005
323.15	.5999	1.41555	.00005
323.15	.6996	1.41347	.00005
323.15	.8001	1.41153	.00005
323.15	.9	1.40962	.00005
323.15	1	1.40778	.00005

System: lactic acid, butyl ester + 1,3-propanediol; phases: Liquid
Fixed: Pressure, kPa = 101
Property: Viscosity, Pa*s (Liquid); method: Concentric cylinders viscometry
Temperature, K	Mole fraction of lactic acid, butyl ester	Viscosity, Pa*s	uncertainty
288.15	0	.066712	.000266848
288.15	.0999	.055218	.000220872
288.15	.2	.041919	.000167676
288.15	.3001	.031271	.000125084
288.15	.4	.022906	.000091624
288.15	.4999	.016946	.000067784
288.15	.5999	.012657	.000050628
288.15	.6996	.0095963	.0000383852
288.15	.8001	.0073731	.0000294924
288.15	.9	.0056291	.0000225164
288.15	1	.0046284	.0000185136
293.15	0	.052018	.000208072
293.15	.0999	.042992	.000171968
293.15	.2	.032726	.000130904
293.15	.3001	.024468	.000097872
293.15	.4	.018134	.000072536
293.15	.4999	.013542	.000054168
293.15	.5999	.01021	.00004084
293.15	.6996	.007805	.00003122
293.15	.8001	.006064	.000024256
293.15	.9	.0046858	.0000187432
293.15	1	.0038803	.0000155212
298.15	0	.041112	.000164448
298.15	.0999	.03394	.00013576
298.15	.2	.025915	.00010366
298.15	.3001	.019588	.000078352
298.15	.4	.014513	.000058052
298.15	.4999	.010957	.000043828
298.15	.5999	.0083555	.000033422
298.15	.6996	.0064439	.0000257756
298.15	.8001	.0050562	.0000202248
298.15	.9	.0039573	.0000158292
298.15	1	.0033067	.0000132268
303.15	0	.032887	.000131548
303.15	.0999	.027137	.000108548
303.15	.2	.020796	.000083184
303.15	.3001	.01582	.00006328
303.15	.4	.011856	.000047424
303.15	.4999	.0089836	.0000359344
303.15	.5999	.0069186	.0000276744
303.15	.6996	.0054053	.0000216212
303.15	.8001	.0042856	.0000171424
303.15	.9	.003386	.000013544
303.15	1	.0028603	.0000114412
308.15	0	.026614	.000106456
308.15	.0999	.021954	.000087816
308.15	.2	.01689	.00006756
308.15	.3001	.012931	.000051724
308.15	.4	.009744	.000038976
308.15	.4999	.0074907	.0000299628
308.15	.5999	.0058053	.0000232212
308.15	.6996	.0045807	.0000183228
308.15	.8001	.0036667	.0000146668
308.15	.9	.0029285	.000011714
308.15	1	.0024808	.0000099232
313.15	0	.021762	.000087048
313.15	.0999	.017954	.000071816
313.15	.2	.013867	.000055468
313.15	.3001	.010687	.000042748
313.15	.4	.0081236	.0000324944
313.15	.4999	.0062991	.0000251964
313.15	.5999	.004926	.000019704
313.15	.6996	.0039225	.00001569
313.15	.8001	.0031706	.0000126824
313.15	.9	.0025576	.0000102304
313.15	1	.0021812	.0000087248
318.15	0	.017966	.000071864
318.15	.0999	.01483	.00005932
318.15	.2	.011498	.000045992
318.15	.3001	.0089158	.0000356632
318.15	.4	.00684	.00002736
318.15	.4999	.0053505	.000021402
318.15	.5999	.0042209	.0000168836
318.15	.6996	.0033909	.0000135636
318.15	.8001	.0027676	.0000110704
318.15	.9	.0022533	.0000090132
318.15	1	.0019346	.0000077384
323.15	0	.014969	.000059876
323.15	.0999	.012365	.00004946
323.15	.2	.0096271	.0000385084
323.15	.3001	.0075188	.0000300752
323.15	.4	.0058129	.0000232516
323.15	.4999	.0045863	.0000183452
323.15	.5999	.0036498	.0000145992
323.15	.6996	.0029577	.0000118308
323.15	.8001	.0024352	.0000097408
323.15	.9	.0020019	.0000080076
323.15	1	.0017276	.0000069104
