Measured thermophysical data. Experimental thermochemical study of two polymethylpyrazine  N,N -dioxide derivatives
Source: Thermochim. Acta, 2006
Compound 1: 2,3,5-trimethylpyrazine-1,4-dioxide, C7H14N2O2
Compound 2: 2,3,5,6-tetramethylpyrazine-1,4-dioxide, C8H16N2O2
Compound 3: carbon dioxide, CO2
Compound 4: nitrogen, N2
Compound 5: water, H2O
Compound 6: oxygen, O2

Reaction: -1 2,3,5-trimethylpyrazine-1,4-dioxide + 7 carbon dioxide + 1 nitrogen + 7 water + -9.5 oxygen
Property: Specific internal energy of reaction at constant volume, J/g
-26671.84

Reaction: -1 2,3,5,6-tetramethylpyrazine-1,4-dioxide + 8 carbon dioxide + 1 nitrogen + 8 water + -11 oxygen
Property: Specific internal energy of reaction at constant volume, J/g
-28266.29
