Measured thermophysical data. Thermo-physical examination: Synthesized 2-furano-4(3H)-quinazolinone and open quinazolinone (diamide) anticancer analogs with sodium dodecyl sulfate
Source: Thermochim. Acta, 2013, 10.1016/j.tca.2013.09.013
Compound 1: sodium dodecyl sulfate, C12H25NaO4S, purity 99%
Compound 2: ethanol, C2H6O, purity 99.5%
Compound 3: 3-[[(2-chlorophenyl)methylene]amino]-2-(2-furanyl)-4(3H)-quinazolinone, C19H12ClN3O2, purity 98%
Compound 4: N-[2-[[[4-(aminosulfonyl)phenyl]amino]carbonyl]phenyl]-2-furancarboxamide, C18H15N3O5S, purity 98%

System: 3-[[(2-chlorophenyl)methylene]amino]-2-(2-furanyl)-4(3H)-quinazolinone; phases: Crystal, Liquid, Air at 1 atmosphere
Property: Normal melting temperature, K (Crystal); method: Unspecified
Normal melting temperature, K	uncertainty
203	

System: N-[2-[[[4-(aminosulfonyl)phenyl]amino]carbonyl]phenyl]-2-furancarboxamide; phases: Crystal, Liquid, Air at 1 atmosphere
Property: Normal melting temperature, K (Crystal); method: Unspecified
Normal melting temperature, K	uncertainty
189	
