Measured thermophysical data. Solubility of C02 in dialkylimidazolium dialkylphosphate ionic liquids
Source: Thermochim. Acta, 2009, 10.1016/j.tca.2009.04.022
Compound 1: carbon dioxide, CO2
Compound 2: 1-ethyl-3-methylimidazolium diethylphosphate, C10H21N2O4P
Compound 3: 1-butyl-3-methylimidazolium dibutylphosphate, C16H33N2O4P
Compound 4: 1-butyl-3-methylimidazolium bis[(trifluoromethyl)sulfonyl]imide, C10H15F6N3O4S2
Compound 5: 1-butyl-3-methylimidazolium tetrafluoroborate, C8H15BF4N2
Compound 6: 1,3-dimethylimidazolium dimethylphosphate, C7H15N2O4P
Compound 7: 1-ethyl-3-methylimidazolium ethyl sulfate, C8H16N2O4S

System: 1-ethyl-3-methylimidazolium diethylphosphate; phases: Liquid
Fixed: Pressure, kPa = 101.325
Property: Mass density, kg/m3 (Liquid); method: Pycnometric method
Temperature, K	Mass density, kg/m3	uncertainty
313.15	1138.6	
323.15	1132.1	
333.15	1125.5	

System: 1-butyl-3-methylimidazolium dibutylphosphate; phases: Liquid
Fixed: Pressure, kPa = 101.325
Property: Mass density, kg/m3 (Liquid); method: Pycnometric method
Temperature, K	Mass density, kg/m3	uncertainty
313.15	1040	
323.15	1033.7	
333.15	1027.1	

System: 1-butyl-3-methylimidazolium bis[(trifluoromethyl)sulfonyl]imide; phases: Liquid
Fixed: Pressure, kPa = 101.325
Property: Mass density, kg/m3 (Liquid); method: Pycnometric method
Temperature, K	Mass density, kg/m3	uncertainty
313.15	1423.6	
323.15	1414.1	
333.15	1404.6	

System: 1-butyl-3-methylimidazolium tetrafluoroborate; phases: Liquid
Fixed: Pressure, kPa = 101.325
Property: Mass density, kg/m3 (Liquid); method: Pycnometric method
Temperature, K	Mass density, kg/m3	uncertainty
313.15	1189.9	
323.15	1182.8	
333.15	1175.7	

System: 1,3-dimethylimidazolium dimethylphosphate; phases: Liquid
Fixed: Pressure, kPa = 101.325
Property: Mass density, kg/m3 (Liquid); method: Pycnometric method
Temperature, K	Mass density, kg/m3	uncertainty
313.15	1251	
323.15	1244.4	
333.15	1238	

System: 1-ethyl-3-methylimidazolium ethyl sulfate; phases: Liquid
Fixed: Pressure, kPa = 101.325
Property: Mass density, kg/m3 (Liquid); method: Pycnometric method
Temperature, K	Mass density, kg/m3	uncertainty
313.15	1230.2	
323.15	1224.2	
333.15	1218.2	

System: carbon dioxide + 1-butyl-3-methylimidazolium dibutylphosphate; phases: Liquid, Gas
Fixed: Mole fraction of carbon dioxide = 0
Property: Henry's Law constant (mole fraction scale), kPa of carbon dioxide (Liquid); method: estimated from slope of isotherm linear fit of fugacity vs mole fraction
Temperature, K	Henry's Law constant (mole fraction scale), kPa of carbon dioxide	uncertainty
313.15	4980	20
323.15	5760	20
333.15	6850	30

System: carbon dioxide + 1-butyl-3-methylimidazolium dibutylphosphate; phases: Liquid, Gas
Property: Vapor or sublimation pressure, kPa (Liquid); method: Isochoric PVT apparatus
Temperature, K	Mole fraction of carbon dioxide	Vapor or sublimation pressure, kPa	uncertainty
313.15	.00426	22.34	
313.15	.00849	43.57	
313.15	.01412	71.98	
313.15	.02056	103.28	
313.15	.02979	149.96	
313.15	.03529	175.4	
323.15	.00372	22.41	
323.15	.00773	44.88	
323.15	.01255	72.53	
323.15	.01782	103.84	
323.15	.02519	145	
323.15	.02984	173.2	
333.15	.00317	23.03	
333.15	.00619	44.26	
333.15	.01049	72.05	
333.15	.01497	103.15	
333.15	.01965	136.17	
333.15	.02471	168.71	

System: carbon dioxide + 1-ethyl-3-methylimidazolium diethylphosphate; phases: Liquid, Gas
Fixed: Mole fraction of carbon dioxide = 0
Property: Henry's Law constant (mole fraction scale), kPa of carbon dioxide (Liquid); method: estimated from slope of isotherm linear fit of fugacity vs mole fraction
Temperature, K	Henry's Law constant (mole fraction scale), kPa of carbon dioxide	uncertainty
313.15	6990	30
323.15	8120	40
333.15	9660	20

System: carbon dioxide + 1-ethyl-3-methylimidazolium diethylphosphate; phases: Liquid, Gas
Property: Vapor or sublimation pressure, kPa (Liquid); method: Isochoric PVT apparatus
Temperature, K	Mole fraction of carbon dioxide	Vapor or sublimation pressure, kPa	uncertainty
313.15	.00328	23.79	
313.15	.00631	44.47	
313.15	.01025	71.71	
313.15	.01457	102.59	
313.15	.02138	147.96	
313.15	.02475	174.64	
313.15	.02666	189.05	
323.15	.00307	25.72	
323.15	.00563	46.13	
323.15	.00865	72.53	
323.15	.01241	103.63	
323.15	.01833	148.79	
323.15	.0213	175.2	
323.15	.0234	189.12	
333.15	.00422	41.23	
333.15	.00896	86.32	
333.15	.01156	111.14	
333.15	.0137	131.41	
333.15	.01619	157.75	
333.15	.01852	179.95	
333.15	.01962	192.09	
333.15	.02041	198.84	

System: carbon dioxide + 1,3-dimethylimidazolium dimethylphosphate; phases: Liquid, Gas
Fixed: Mole fraction of carbon dioxide = 0
Property: Henry's Law constant (mole fraction scale), kPa of carbon dioxide (Liquid); method: estimated from slope of isotherm linear fit of fugacity vs mole fraction
Temperature, K	Henry's Law constant (mole fraction scale), kPa of carbon dioxide	uncertainty
313.15	10640	120
323.15	12720	30
333.15	15220	150

System: carbon dioxide + 1,3-dimethylimidazolium dimethylphosphate; phases: Liquid, Gas
Property: Vapor or sublimation pressure, kPa (Liquid); method: Isochoric PVT apparatus
Temperature, K	Mole fraction of carbon dioxide	Vapor or sublimation pressure, kPa	uncertainty
313.15	.00459	48.81	
313.15	.00913	92.94	
313.15	.01347	144.86	
313.15	.01597	173.13	
323.15	.004	51.85	
323.15	.00741	94.6	
323.15	.01142	146.17	
323.15	.01361	173.95	
333.15	.00346	56.26	
333.15	.00629	97.91	
333.15	.00977	148.31	
333.15	.01148	174.64	
