Measured thermophysical data. Anchoring transition driven by short range ordering in calamitic-discotic composites
Source: Thermochim. Acta, 2015, 10.1016/j.tca.2015.08.007
Compound 1: 4'-pentoxy-4-cyanobiphenyl, C18H19NO, purity 97.5%
Compound 2: N'-(3,4,5-tris(decyloxy)benzylidene)-4-((3,4,5-tris(decyloxy)benzylidene)amino)benzohydrazide, C81H137N3O7, purity 95%

System: 4'-pentoxy-4-cyanobiphenyl; phases: Nematic liquid crystal, Liquid, Air at 1 atmosphere
Property: Triple point temperature, K (Nematic liquid crystal); method: Visual observation
Triple point temperature, K	uncertainty
339.75	

System: N'-(3,4,5-tris(decyloxy)benzylidene)-4-((3,4,5-tris(decyloxy)benzylidene)amino)benzohydrazide; phases: Liquid crystal of unknown type, Liquid, Air at 1 atmosphere
Property: Triple point temperature, K (Liquid crystal of unknown type); method: Visual observation
Triple point temperature, K	uncertainty
385.85	
