Measured thermophysical data. Solute-Solvent and Solvent-Solvent Interactions of Menthol in Isopropyl Alcohol and its Binary  Mixtures with Methyl Salicylate by Volumetric, Viscometric, Interferometric and Refractive  Index Techniques.
Source: Thermochim. Acta, 2010, 10.1016/j.tca.2009.12.001
Compound 1: 2-propanol, C3H8O
Compound 2: methyl salicylate, C8H8O3
Compound 3: cis-1,3,trans-1,4-menthol, C10H20O

System: 2-propanol; phases: Liquid
Property: Mass density, kg/m3 (Liquid); method: Pycnometric method
Temperature, K	Pressure, kPa	Mass density, kg/m3	uncertainty
303.15	101	777.1	
313.15	101	768.4	
323.15	101	756	

System: 2-propanol; phases: Liquid
Property: Viscosity, Pa*s (Liquid); method: Capillary tube (Ostwald; Ubbelohde) method
Temperature, K	Pressure, kPa	Viscosity, Pa*s	uncertainty
303.15	101	.001747	.0000002
313.15	101	.0013296	.0000002
323.15	101	.0010029	.0000002

System: 2-propanol; phases: Liquid
Fixed: Pressure, kPa = 101.325
Property: Refractive index (Na D-line) (Liquid); method: Standard Abbe refractometry
Temperature, K	Refractive index (Na D-line)	uncertainty
303.15	1.3736	.0002

System: 2-propanol; phases: Liquid
Property: Speed of sound, m/s (Liquid); method: Linear variable-path acoustic interferometer
Temperature, K	Pressure, kPa	Speed of sound, m/s	uncertainty
303.15	101	1130.6	

System: 2-propanol + methyl salicylate; phases: Liquid
Fixed: Pressure, kPa = 101
Property: Mass density, kg/m3 (Liquid); method: Pycnometric method
Temperature, K	Mass fraction of methyl salicylate	Mass density, kg/m3	uncertainty
303.15	0	777.1	
313.15	0	768.4	
323.15	0	756	
303.15	.05	790.9	
313.15	.05	782.8	
323.15	.05	770.3	
303.15	.1	805.3	
313.15	.1	794.3	
323.15	.1	785.1	
303.15	.15	822.4	
313.15	.15	812	
323.15	.15	799.3	

System: 2-propanol + methyl salicylate; phases: Liquid
Fixed: Pressure, kPa = 101
Property: Viscosity, Pa*s (Liquid); method: Capillary tube (Ostwald; Ubbelohde) method
Temperature, K	Mass fraction of methyl salicylate	Viscosity, Pa*s	uncertainty
303.15	0	.001747	.0000002
313.15	0	.0013296	.0000002
323.15	0	.0010029	.0000002
303.15	.05	.0017981	.0000002
313.15	.05	.0013786	.0000002
323.15	.05	.0010485	.0000002
303.15	.1	.0018464	.0000002
313.15	.1	.0014369	.0000002
323.15	.1	.0011027	.0000002
303.15	.15	.0019614	.0000002
313.15	.15	.00156	.0000002
323.15	.15	.0012274	.0000002

System: 2-propanol + methyl salicylate; phases: Liquid
Fixed: Pressure, kPa = 101
Property: Refractive index (Na D-line) (Liquid); method: Standard Abbe refractometry
Temperature, K	Mass fraction of methyl salicylate	Refractive index (Na D-line)	uncertainty
303.15	0	1.3736	.0002
303.15	.05	1.3791	.0002
303.15	.1	1.3852	.0002
303.15	.15	1.3912	.0002

System: 2-propanol + methyl salicylate; phases: Liquid
Fixed: Pressure, kPa = 101
Property: Speed of sound, m/s (Liquid); method: Linear variable-path acoustic interferometer
Temperature, K	Mass fraction of methyl salicylate	Speed of sound, m/s	uncertainty
303.15	0	1130.6	
303.15	.05	1146.8	
303.15	.1	1170.6	
303.15	.15	1197.7	

System: 2-propanol + cis-1,3,trans-1,4-menthol + methyl salicylate; phases: Liquid
Fixed: Pressure, kPa = 101
Property: Mass density, kg/m3 (Liquid); method: Pycnometric method
Temperature, K	Solvent: Mass fraction of methyl salicylate	Amount concentration (molarity), mol/dm3 of cis-1,3,trans-1,4-menthol	Mass density, kg/m3	uncertainty
303.15	0	.025	777.6	
303.15	0	.035	777.8	
303.15	0	.045	778	
303.15	0	.055	778.3	
303.15	0	.075	778.8	
303.15	0	.085	779.1	
313.15	0	.0247	768.8	
313.15	0	.0346	769	
313.15	0	.0445	769.2	
313.15	0	.0544	769.5	
313.15	0	.0742	770	
313.15	0	.084	770.3	
323.15	0	.0243	756.4	
323.15	0	.034	756.6	
323.15	0	.0438	756.8	
323.15	0	.0535	757.1	
323.15	0	.073	757.7	
323.15	0	.0827	758	
303.15	.05	.025	791.4	
303.15	.05	.035	791.7	
303.15	.05	.045	791.9	
303.15	.05	.055	792.2	
303.15	.05	.075	792.7	
303.15	.05	.085	793	
313.15	.05	.0247	783.2	
313.15	.05	.0346	783.5	
313.15	.05	.0445	783.7	
313.15	.05	.0544	784	
313.15	.05	.0741	784.6	
313.15	.05	.084	784.9	
323.15	.05	.0243	770.7	
323.15	.05	.034	770.9	
323.15	.05	.0438	771.1	
323.15	.05	.0535	771.4	
323.15	.05	.0729	771.9	
323.15	.05	.0827	772.1	
303.15	.1	.025	805.8	
303.15	.1	.035	806	
303.15	.1	.045	806.2	
303.15	.1	.055	806.5	
303.15	.1	.075	806.9	
303.15	.1	.085	807.2	
313.15	.1	.0247	794.8	
313.15	.1	.0345	795	
313.15	.1	.0444	795.2	
313.15	.1	.0543	795.5	
313.15	.1	.074	796	
313.15	.1	.0839	796.3	
323.15	.1	.0244	785.5	
323.15	.1	.0341	785.8	
323.15	.1	.0439	786	
323.15	.1	.0536	786.2	
323.15	.1	.0731	786.8	
323.15	.1	.0829	787.1	
303.15	.15	.025	822.8	
303.15	.15	.035	823	
303.15	.15	.045	823.2	
303.15	.15	.055	823.5	
303.15	.15	.075	823.8	
303.15	.15	.085	824	
313.15	.15	.0247	812.5	
313.15	.15	.0346	812.7	
313.15	.15	.0444	812.9	
313.15	.15	.0543	813.2	
313.15	.15	.0741	813.7	
313.15	.15	.084	814	
323.15	.15	.0243	799.7	
323.15	.15	.034	799.9	
323.15	.15	.0437	800.1	
323.15	.15	.0535	800.3	
323.15	.15	.0729	800.7	
323.15	.15	.0826	801	

System: 2-propanol + cis-1,3,trans-1,4-menthol + methyl salicylate; phases: Liquid
Fixed: Pressure, kPa = 101
Property: Viscosity, Pa*s (Liquid); method: Capillary tube (Ostwald; Ubbelohde) method
Temperature, K	Solvent: Mass fraction of methyl salicylate	Amount concentration (molarity), mol/dm3 of cis-1,3,trans-1,4-menthol	Viscosity, Pa*s	uncertainty
303.15	0	.025	.0017572	.0000002
303.15	0	.035	.0017613	.0000002
303.15	0	.045	.0017659	.0000002
303.15	0	.055	.0017713	.0000002
303.15	0	.075	.0017812	.0000002
303.15	0	.085	.0017851	.0000002
313.15	0	.0247	.0013401	.0000002
313.15	0	.0346	.0013443	.0000002
313.15	0	.0445	.0013493	.0000002
313.15	0	.0544	.0013545	.0000002
313.15	0	.0742	.0013638	.0000002
313.15	0	.084	.0013684	.0000002
323.15	0	.0243	.0010121	.0000002
323.15	0	.034	.001017	.0000002
323.15	0	.0438	.0010215	.0000002
323.15	0	.0535	.0010258	.0000002
323.15	0	.073	.0010342	.0000002
323.15	0	.0827	.0010388	.0000002
303.15	.05	.025	.0018073	.0000002
303.15	.05	.035	.001811	.0000002
303.15	.05	.045	.0018145	.0000002
303.15	.05	.055	.00182	.0000002
303.15	.05	.075	.0018282	.0000002
303.15	.05	.085	.0018329	.0000002
313.15	.05	.0247	.0013879	.0000002
313.15	.05	.0346	.0013922	.0000002
313.15	.05	.0445	.0013966	.0000002
313.15	.05	.0544	.0014014	.0000002
313.15	.05	.0741	.0014097	.0000002
313.15	.05	.084	.0014138	.0000002
323.15	.05	.0243	.0010567	.0000002
323.15	.05	.034	.0010603	.0000002
323.15	.05	.0438	.0010642	.0000002
323.15	.05	.0535	.0010682	.0000002
323.15	.05	.0729	.0010754	.0000002
323.15	.05	.0827	.0010795	.0000002
303.15	.1	.025	.0018631	.0000002
303.15	.1	.035	.0018675	.0000002
303.15	.1	.045	.0018728	.0000002
303.15	.1	.055	.0018794	.0000002
303.15	.1	.075	.0018878	.0000002
303.15	.1	.085	.0018937	.0000002
313.15	.1	.0247	.0014511	.0000002
313.15	.1	.0345	.0014572	.0000002
313.15	.1	.0444	.0014605	.0000002
313.15	.1	.0543	.0014673	.0000002
313.15	.1	.074	.0014767	.0000002
313.15	.1	.0839	.0014821	.0000002
323.15	.1	.0244	.0011281	.0000002
323.15	.1	.0341	.0011328	.0000002
323.15	.1	.0439	.0011362	.0000002
323.15	.1	.0536	.0011414	.0000002
323.15	.1	.0731	.0011501	.0000002
323.15	.1	.0829	.0011535	.0000002
303.15	.15	.025	.0019763	.0000002
303.15	.15	.035	.0019818	.0000002
303.15	.15	.045	.0019859	.0000002
303.15	.15	.055	.0019905	.0000002
303.15	.15	.075	.0019991	.0000002
303.15	.15	.085	.0020034	.0000002
313.15	.15	.0247	.0015752	.0000002
313.15	.15	.0346	.0015806	.0000002
313.15	.15	.0444	.0015846	.0000002
313.15	.15	.0543	.0015909	.0000002
313.15	.15	.0741	.0016003	.0000002
313.15	.15	.084	.0016047	.0000002
323.15	.15	.0243	.0012408	.0000002
323.15	.15	.034	.0012451	.0000002
323.15	.15	.0437	.00125	.0000002
323.15	.15	.0535	.0012538	.0000002
323.15	.15	.0729	.0012634	.0000002
323.15	.15	.0826	.0012683	.0000002

System: 2-propanol + cis-1,3,trans-1,4-menthol + methyl salicylate; phases: Liquid
Fixed: Pressure, kPa = 101
Fixed: Temperature, K = 303.15
Property: Refractive index (Na D-line) (Liquid); method: Standard Abbe refractometry
Solvent: Mass fraction of methyl salicylate	Molality, mol/kg of cis-1,3,trans-1,4-menthol	Refractive index (Na D-line)	uncertainty
0	.0323	1.3741	.0002
0	.0453	1.3744	.0002
0	.0584	1.3747	.0002
0	.0715	1.375	.0002
0	.0978	1.3755	.0002
0	.111	1.3757	.0002
.05	.0317	1.3796	.0002
.05	.0445	1.3799	.0002
.05	.0573	1.3801	.0002
.05	.0702	1.3803	.0002
.05	.096	1.3807	.0002
.05	.109	1.3809	.0002
.1	.0312	1.3852	.0002
.1	.0437	1.3858	.0002
.1	.0563	1.3861	.0002
.1	.0689	1.3865	.0002
.1	.0943	1.387	.0002
.1	.1071	1.3872	.0002
.15	.0305	1.392	.0002
.15	.0428	1.3924	.0002
.15	.0551	1.3928	.0002
.15	.0675	1.3932	.0002
.15	.0924	1.3937	.0002
.15	.1048	1.394	.0002

System: 2-propanol + cis-1,3,trans-1,4-menthol + methyl salicylate; phases: Liquid
Fixed: Pressure, kPa = 101
Fixed: Temperature, K = 303.15
Property: Speed of sound, m/s (Liquid); method: Linear variable-path acoustic interferometer
Solvent: Mass fraction of methyl salicylate	Molality, mol/kg of cis-1,3,trans-1,4-menthol	Speed of sound, m/s	uncertainty
0	.0323	1135.7	
0	.0453	1138.2	
0	.0584	1141.2	
0	.0715	1144.4	
0	.0978	1151.1	
0	.111	1154.2	
.05	.0317	1152	
.05	.0445	1154.7	
.05	.0573	1157.3	
.05	.0702	1160.4	
.05	.096	1166.8	
.05	.109	1170.3	
.1	.0312	1176.4	
.1	.0437	1178.8	
.1	.0563	1181.7	
.1	.0689	1184.6	
.1	.0943	1191.2	
.1	.1071	1194.9	
.15	.0305	1203.4	
.15	.0428	1205.6	
.15	.0551	1208.2	
.15	.0675	1210.8	
.15	.0924	1216.7	
.15	.1048	1219.7	

System: 2-propanol + cis-1,3,trans-1,4-menthol; phases: Liquid
Property: Refractive index (Na D-line) (Liquid); method: Standard Abbe refractometry
Molality, mol/kg of cis-1,3,trans-1,4-menthol	Pressure, kPa	Temperature, K	Refractive index (Na D-line)	uncertainty
.0323	101	303.15	1.3741	.0002
.0453	101	303.15	1.3744	.0002
.0584	101	303.15	1.3747	.0002
.0715	101	303.15	1.375	.0002
.0978	101	303.15	1.3755	.0002
.111	101	303.15	1.3757	.0002

System: 2-propanol + cis-1,3,trans-1,4-menthol; phases: Liquid
Property: Speed of sound, m/s (Liquid); method: Linear variable-path acoustic interferometer
Molality, mol/kg of cis-1,3,trans-1,4-menthol	Pressure, kPa	Temperature, K	Speed of sound, m/s	uncertainty
.0323	101	303.15	1135.7	
.0453	101	303.15	1138.2	
.0584	101	303.15	1141.2	
.0715	101	303.15	1144.4	
.0978	101	303.15	1151.1	
.111	101	303.15	1154.2	

System: 2-propanol + cis-1,3,trans-1,4-menthol; phases: Liquid
Property: Mass density, kg/m3 (Liquid); method: Pycnometric method
Temperature, K	Amount concentration (molarity), mol/dm3 of cis-1,3,trans-1,4-menthol	Pressure, kPa	Mass density, kg/m3	uncertainty
303.15	.025	101	777.6	
303.15	.035	101	777.8	
303.15	.045	101	778	
303.15	.055	101	778.3	
303.15	.075	101	778.8	
303.15	.085	101	779.1	
313.15	.0247	101	768.8	
313.15	.0346	101	769	
313.15	.0445	101	769.2	
313.15	.0544	101	769.5	
313.15	.0742	101	770	
313.15	.084	101	770.3	
323.15	.0243	101	756.4	
323.15	.034	101	756.6	
323.15	.0438	101	756.8	
323.15	.0535	101	757.1	
323.15	.073	101	757.7	
323.15	.0827	101	758	

System: 2-propanol + cis-1,3,trans-1,4-menthol; phases: Liquid
Property: Viscosity, Pa*s (Liquid); method: Capillary tube (Ostwald; Ubbelohde) method
Temperature, K	Amount concentration (molarity), mol/dm3 of cis-1,3,trans-1,4-menthol	Pressure, kPa	Viscosity, Pa*s	uncertainty
303.15	.025	101	.0017572	.0000002
303.15	.035	101	.0017613	.0000002
303.15	.045	101	.0017659	.0000002
303.15	.055	101	.0017713	.0000002
303.15	.075	101	.0017812	.0000002
303.15	.085	101	.0017851	.0000002
313.15	.0247	101	.0013401	.0000002
313.15	.0346	101	.0013443	.0000002
313.15	.0445	101	.0013493	.0000002
313.15	.0544	101	.0013545	.0000002
313.15	.0742	101	.0013638	.0000002
313.15	.084	101	.0013684	.0000002
323.15	.0243	101	.0010121	.0000002
323.15	.034	101	.001017	.0000002
323.15	.0438	101	.0010215	.0000002
323.15	.0535	101	.0010258	.0000002
323.15	.073	101	.0010342	.0000002
323.15	.0827	101	.0010388	.0000002
