Measured thermophysical data. Thermo physico-chemical investigations on A-Te-O (A = Cr, Fe, Ni) system
Source: Thermochim. Acta, 2014, 10.1016/j.tca.2014.03.016
Compound 1: chromium(III) tellurate(VI) (Cr2TeO6), Cr2O6Te, purity 97%
Compound 2: iron(III) tellurate(VI) (Fe2TeO6), Fe2O6Te, purity 97%
Compound 3: nickel(II) tellurate(VI) (Ni3TeO6), Ni3O6Te, purity 97%
Compound 4: oxygen, O2
Compound 5: ferric oxide, Fe2O3
Compound 6: tellurium dioxide, O2Te
Compound 7: nickel monoxide, NiO

System: chromium(III) tellurate(VI) (Cr2TeO6); phases: Crystal
Fixed: Pressure, kPa = 101.325
Property: Molar heat capacity at constant pressure, J/K/mol (Crystal); method: Small sample (50 mg) scanning calorimetry
Temperature, K	Molar heat capacity at constant pressure, J/K/mol	uncertainty
300	160.94	3.2188
350	177.45	3.549
400	186.57	3.7314
450	194.05	3.881
500	199.57	3.9914
550	205.33	4.1066
600	208.67	4.1734
650	211.82	4.2364
700	213.07	4.2614
750	216.54	4.3308
800	218.89	4.3778
850	220.65	4.413
870	222.27	4.4454

System: iron(III) tellurate(VI) (Fe2TeO6); phases: Crystal
Fixed: Pressure, kPa = 101.325
Property: Mass density, kg/m3 (Crystal); method: X-ray diffraction
Temperature, K	Mass density, kg/m3	uncertainty
298	5790	
373	5780	
473	5770	
573	5750	
673	5740	
773	5720	
873	5710	
973	5690	

System: iron(III) tellurate(VI) (Fe2TeO6); phases: Crystal
Fixed: Pressure, kPa = 101.325
Property: Molar heat capacity at constant pressure, J/K/mol (Crystal); method: Small sample (50 mg) scanning calorimetry
Temperature, K	Molar heat capacity at constant pressure, J/K/mol	uncertainty
300	164.88	3.2976
350	180.01	3.6002
400	188.35	3.767
450	193.96	3.8792
500	198.43	3.9686
550	202.65	4.053
600	205.64	4.1128
650	207.82	4.1564
700	209.66	4.1932
750	211.87	4.2374
800	213.32	4.2664
850	214.19	4.2838
870	214.62	4.2924

System: nickel(II) tellurate(VI) (Ni3TeO6); phases: Crystal
Fixed: Pressure, kPa = 101.325
Property: Mass density, kg/m3 (Crystal); method: X-ray diffraction
Temperature, K	Mass density, kg/m3	uncertainty
298	6410	
373	6390	
473	6370	
573	6350	
673	6330	
773	6320	
873	6300	
923	6290	

System: nickel(II) tellurate(VI) (Ni3TeO6); phases: Crystal
Fixed: Pressure, kPa = 101.325
Property: Molar heat capacity at constant pressure, J/K/mol (Crystal); method: Small sample (50 mg) scanning calorimetry
Temperature, K	Molar heat capacity at constant pressure, J/K/mol	uncertainty
300	191.72	3.8344
350	208.25	4.165
400	219.82	4.3964
450	227.17	4.5434
500	234.41	4.6882
550	238.89	4.7778
600	242.03	4.8406
650	244.65	4.893
700	249.82	4.9964
750	255.84	5.1168
800	260.05	5.201
850	261.79	5.2358
870	262.6	5.252

Reaction: 1 ferric oxide + 1 tellurium dioxide + -1 iron(III) tellurate(VI) (Fe2TeO6) + 0.5 oxygen
Property: Molar Gibbs energy of reaction, kJ/mol
949	128.9
950	126.0
950	128.8
989	113.5
1004	109.1
1018	106.5
1024	102.1
1026	106.6
1033	102.9
1040	98.9
1052	97.0
1053	95.9

Reaction: 3 nickel monoxide + 1 tellurium dioxide + -1 nickel(II) tellurate(VI) (Ni3TeO6) + 0.5 oxygen
Property: Molar Gibbs energy of reaction, kJ/mol
942	138.7
944	137.1
961	133.9
969	129.4
974	130.6
980	127.0
987	121.7
1006	119.9
1034	112.7
1042	106.3
1059	102.9
