Measured thermophysical data. Effect of protic ionic liquid on the volumetric properties of ribose in aqueous solutions
Source: Thermochim. Acta, 2015, 10.1016/j.tca.2015.04.023
Compound 1: D-(-)-ribose, C5H10O5, purity 98%
Compound 2: 3-hydroxypropylammonium acetate, C5H13NO3
Compound 3: water, H2O

System: D-(-)-ribose + water + 3-hydroxypropylammonium acetate; phases: Liquid
Fixed: Pressure, kPa = 100
Property: Mass density, kg/m3 (Liquid); method: Vibrating tube method
Solvent: Molality, mol/kg of 3-hydroxypropylammonium acetate	Temperature, K	Molality, mol/kg of D-(-)-ribose	Mass density, kg/m3	uncertainty
.1	298.15	.04777	1001.772	.05
.1	298.15	.06606	1002.755	.05
.1	298.15	.08562	1003.8	.05
.1	298.15	.10625	1004.896	.05
.1	298.15	.11218	1005.209	.05
.1	298.15	.15045	1007.221	.05
.1	303.15	.04777	1000.346	.05
.1	303.15	.06606	1001.32	.05
.1	303.15	.08562	1002.356	.05
.1	303.15	.10625	1003.441	.05
.1	303.15	.11218	1003.752	.05
.1	303.15	.15045	1005.744	.05
.1	308.15	.04777	998.703	.05
.1	308.15	.06606	999.669	.05
.1	308.15	.08562	1000.697	.05
.1	308.15	.10625	1001.775	.05
.1	308.15	.11218	1002.083	.05
.1	308.15	.15045	1004.06	.05
.1	313.15	.04777	996.859	.05
.1	313.15	.06606	997.817	.05
.1	313.15	.08562	998.837	.05
.1	313.15	.10625	999.907	.05
.1	313.15	.11218	1000.212	.05
.1	313.15	.15045	1002.174	.05
.1	318.15	.04777	994.833	.05
.1	318.15	.06606	995.784	.05
.1	318.15	.08562	996.797	.05
.1	318.15	.10625	997.858	.05
.1	318.15	.11218	998.161	.05
.1	318.15	.15045	1000.112	.05
.2	298.15	.04857	1003.74	.05
.2	298.15	.0651	1004.626	.05
.2	298.15	.09531	1006.236	.05
.2	298.15	.10824	1006.92	.05
.2	298.15	.12582	1007.848	.05
.2	298.15	.16896	1010.105	.05
.2	303.15	.04857	1002.295	.05
.2	303.15	.0651	1003.171	.05
.2	303.15	.09531	1004.762	.05
.2	303.15	.10824	1005.438	.05
.2	303.15	.12582	1006.354	.05
.2	303.15	.16896	1008.581	.05
.2	308.15	.04857	1000.641	.05
.2	308.15	.0651	1001.509	.05
.2	308.15	.09531	1003.084	.05
.2	308.15	.10824	1003.753	.05
.2	308.15	.12582	1004.657	.05
.2	308.15	.16896	1006.855	.05
.2	313.15	.04857	998.787	.05
.2	313.15	.0651	999.648	.05
.2	313.15	.09531	1001.211	.05
.2	313.15	.10824	1001.874	.05
.2	313.15	.12582	1002.773	.05
.2	313.15	.16896	1004.96	.05
.2	318.15	.04857	996.755	.05
.2	318.15	.0651	997.608	.05
.2	318.15	.09531	999.156	.05
.2	318.15	.10824	999.814	.05
.2	318.15	.12582	1000.705	.05
.2	318.15	.16896	1002.87	.05
.3	298.15	.05215	1005.855	.05
.3	298.15	.06399	1006.486	.05
.3	298.15	.078	1007.232	.05
.3	298.15	.09574	1008.173	.05
.3	298.15	.13323	1010.143	.05
.3	298.15	.19782	1013.49	.05
.3	303.15	.05215	1004.395	.05
.3	303.15	.06399	1005.022	.05
.3	303.15	.078	1005.761	.05
.3	303.15	.09574	1006.693	.05
.3	303.15	.13323	1008.648	.05
.3	303.15	.19782	1011.97	.05
.3	308.15	.05215	1002.731	.05
.3	308.15	.06399	1003.353	.05
.3	308.15	.078	1004.086	.05
.3	308.15	.09574	1005.011	.05
.3	308.15	.13323	1006.951	.05
.3	308.15	.19782	1010.248	.05
.3	313.15	.05215	1000.865	.05
.3	313.15	.06399	1001.481	.05
.3	313.15	.078	1002.205	.05
.3	313.15	.09574	1003.119	.05
.3	313.15	.13323	1005.038	.05
.3	313.15	.19782	1008.295	.05
.3	318.15	.05215	998.827	.05
.3	318.15	.06399	999.438	.05
.3	318.15	.078	1000.157	.05
.3	318.15	.09574	1001.064	.05
.3	318.15	.13323	1002.969	.05
.3	318.15	.19782	1006.206	.05
.4	298.15	.04765	1007.533	.05
.4	298.15	.07949	1009.225	.05
.4	298.15	.08976	1009.768	.05
.4	298.15	.09589	1010.09	.05
.4	298.15	.12877	1011.813	.05
.4	298.15	.19621	1015.295	.05
.4	303.15	.04765	1006.059	.05
.4	303.15	.07949	1007.733	.05
.4	303.15	.08976	1008.27	.05
.4	303.15	.09589	1008.587	.05
.4	303.15	.12877	1010.291	.05
.4	303.15	.19621	1013.733	.05
.4	308.15	.04765	1004.379	.05
.4	308.15	.07949	1006.032	.05
.4	308.15	.08976	1006.561	.05
.4	308.15	.09589	1006.871	.05
.4	308.15	.12877	1008.546	.05
.4	308.15	.19621	1011.914	.05
.4	313.15	.04765	1002.654	.05
.4	313.15	.07949	1004.295	.05
.4	313.15	.08976	1004.822	.05
.4	313.15	.09589	1005.135	.05
.4	313.15	.12877	1006.806	.05
.4	313.15	.19621	1010.176	.05
.4	318.15	.04765	1000.47	.05
.4	318.15	.07949	1002.097	.05
.4	318.15	.08976	1002.618	.05
.4	318.15	.09589	1002.928	.05
.4	318.15	.12877	1004.583	.05
.4	318.15	.19621	1007.925	.05

System: D-(-)-ribose + water + 3-hydroxypropylammonium acetate; phases: Liquid
Fixed: Pressure, kPa = 101.3
Fixed: Frequency, MHz = 3
Property: Speed of sound, m/s (Liquid); method: Sing-around technique in a fixed-path interferometer
Solvent: Molality, mol/kg of 3-hydroxypropylammonium acetate	Temperature, K	Molality, mol/kg of D-(-)-ribose	Speed of sound, m/s	uncertainty
.1	298.15	.04777	1508.77	.5
.1	298.15	.06606	1509.69	.5
.1	298.15	.08562	1510.67	.5
.1	298.15	.10625	1511.72	.5
.1	298.15	.11218	1512.02	.5
.1	298.15	.15045	1513.95	.5
.1	303.15	.04777	1520.22	.5
.1	303.15	.06606	1521.04	.5
.1	303.15	.08562	1521.91	.5
.1	303.15	.10625	1522.83	.5
.1	303.15	.11218	1523.09	.5
.1	303.15	.15045	1524.81	.5
.1	308.15	.04777	1530.42	.5
.1	308.15	.06606	1531.23	.5
.1	308.15	.08562	1532.1	.5
.1	308.15	.10625	1533.02	.5
.1	308.15	.11218	1533.29	.5
.1	308.15	.15045	1534.99	.5
.1	313.15	.04777	1538.94	.5
.1	313.15	.06606	1539.69	.5
.1	313.15	.08562	1540.49	.5
.1	313.15	.10625	1541.34	.5
.1	313.15	.11218	1541.58	.5
.1	313.15	.15045	1543.16	.5
.1	318.15	.04777	1546.1	.5
.1	318.15	.06606	1546.81	.5
.1	318.15	.08562	1547.56	.5
.1	318.15	.10625	1548.36	.5
.1	318.15	.11218	1548.59	.5
.1	318.15	.15045	1550.06	.5
.2	298.15	.04857	1518.21	.5
.2	298.15	.0651	1519.06	.5
.2	298.15	.09531	1520.6	.5
.2	298.15	.10824	1521.26	.5
.2	298.15	.12582	1522.16	.5
.2	298.15	.16896	1524.37	.5
.2	303.15	.04857	1529.28	.5
.2	303.15	.0651	1530.06	.5
.2	303.15	.09531	1531.48	.5
.2	303.15	.10824	1532.08	.5
.2	303.15	.12582	1532.91	.5
.2	303.15	.16896	1534.95	.5
.2	308.15	.04857	1539.02	.5
.2	308.15	.0651	1539.77	.5
.2	308.15	.09531	1541.13	.5
.2	308.15	.10824	1541.72	.5
.2	308.15	.12582	1542.52	.5
.2	308.15	.16896	1544.48	.5
.2	313.15	.04857	1547.16	.5
.2	313.15	.0651	1547.83	.5
.2	313.15	.09531	1549.07	.5
.2	313.15	.10824	1549.6	.5
.2	313.15	.12582	1550.32	.5
.2	313.15	.16896	1552.09	.5
.2	318.15	.04857	1553.98	.5
.2	318.15	.0651	1554.62	.5
.2	318.15	.09531	1555.79	.5
.2	318.15	.10824	1556.29	.5
.2	318.15	.12582	1556.98	.5
.2	318.15	.16896	1558.66	.5
.3	298.15	.05215	1527.38	.5
.3	298.15	.06399	1527.99	.5
.3	298.15	.078	1528.72	.5
.3	298.15	.09574	1529.63	.5
.3	298.15	.13323	1531.57	.5
.3	298.15	.19782	1534.92	.5
.3	303.15	.05215	1537.92	.5
.3	303.15	.06399	1538.46	.5
.3	303.15	.078	1539.1	.5
.3	303.15	.09574	1539.91	.5
.3	303.15	.13323	1541.61	.5
.3	303.15	.19782	1544.57	.5
.3	308.15	.05215	1547.34	.5
.3	308.15	.06399	1547.87	.5
.3	308.15	.078	1548.49	.5
.3	308.15	.09574	1549.28	.5
.3	308.15	.13323	1550.94	.5
.3	308.15	.19782	1553.8	.5
.3	313.15	.05215	1555.13	.5
.3	313.15	.06399	1555.6	.5
.3	313.15	.078	1556.17	.5
.3	313.15	.09574	1556.89	.5
.3	313.15	.13323	1558.4	.5
.3	313.15	.19782	1561.03	.5
.3	318.15	.05215	1561.61	.5
.3	318.15	.06399	1562.05	.5
.3	318.15	.078	1562.58	.5
.3	318.15	.09574	1563.25	.5
.3	318.15	.13323	1564.67	.5
.3	318.15	.19782	1567.12	.5
.4	298.15	.04765	1535.67	.5
.4	298.15	.07949	1537.3	.5
.4	298.15	.08976	1537.83	.5
.4	298.15	.09589	1538.14	.5
.4	298.15	.12877	1539.84	.5
.4	298.15	.19621	1543.32	.5
.4	303.15	.04765	1545.85	.5
.4	303.15	.07949	1547.29	.5
.4	303.15	.08976	1547.75	.5
.4	303.15	.09589	1548.03	.5
.4	303.15	.12877	1549.51	.5
.4	303.15	.19621	1552.58	.5
.4	308.15	.04765	1554.93	.5
.4	308.15	.07949	1556.34	.5
.4	308.15	.08976	1556.79	.5
.4	308.15	.09589	1557.07	.5
.4	308.15	.12877	1558.54	.5
.4	308.15	.19621	1561.6	.5
.4	313.15	.04765	1562.38	.5
.4	313.15	.07949	1563.63	.5
.4	313.15	.08976	1564.03	.5
.4	313.15	.09589	1564.28	.5
.4	313.15	.12877	1565.58	.5
.4	313.15	.19621	1568.26	.5
.4	318.15	.04765	1568.57	.5
.4	318.15	.07949	1569.75	.5
.4	318.15	.08976	1570.13	.5
.4	318.15	.09589	1570.35	.5
.4	318.15	.12877	1571.58	.5
.4	318.15	.19621	1574.12	.5
