Measured thermophysical data. Effects of alkyl group and temperature on the interactions between furfural and alcohol: Insight from density and sound velocity studies
Source: Thermochim. Acta, 2015, 10.1016/j.tca.2014.11.009
Compound 1: furfural, C5H4O2, purity 99%
Compound 2: ethanol, C2H6O, purity 99%
Compound 3: 1-butanol, C4H10O, purity 99%
Compound 4: 2-butanol, C4H10O, purity 99%

System: furfural; phases: Liquid
Property: Mass density, kg/m3 (Liquid); method: Vibrating tube method
Temperature, K	Pressure, kPa	Mass density, kg/m3	uncertainty
283.15	100	1169.93	.05
293.15	100	1159.33	.05
303.15	100	1148.69	.05
313.15	100	1138.01	.05

System: furfural; phases: Liquid
Fixed: Frequency, MHz = 3
Property: Speed of sound, m/s (Liquid); method: Sing-around technique in a fixed-path interferometer
Temperature, K	Pressure, kPa	Speed of sound, m/s	uncertainty
283.15	100	1495.4	.5
293.15	100	1458.8	.5
303.15	100	1422.5	.5
313.15	100	1386.5	.5

System: ethanol; phases: Liquid
Property: Mass density, kg/m3 (Liquid); method: Vibrating tube method
Temperature, K	Pressure, kPa	Mass density, kg/m3	uncertainty
283.15	100	798.51	.05
293.15	100	789.99	.05
303.15	100	781.38	.05
313.15	100	772.64	.05

System: ethanol; phases: Liquid
Fixed: Frequency, MHz = 3
Property: Speed of sound, m/s (Liquid); method: Sing-around technique in a fixed-path interferometer
Temperature, K	Pressure, kPa	Speed of sound, m/s	uncertainty
283.15	100	1197.3	.5
293.15	100	1162.5	.5
303.15	100	1128.3	.5
313.15	100	1094.6	.5

System: 1-butanol; phases: Liquid
Property: Mass density, kg/m3 (Liquid); method: Vibrating tube method
Temperature, K	Pressure, kPa	Mass density, kg/m3	uncertainty
283.15	100	817.21	.05
293.15	100	809.65	.05
303.15	100	802	.05
313.15	100	794.21	.05

System: 1-butanol; phases: Liquid
Fixed: Frequency, MHz = 3
Property: Speed of sound, m/s (Liquid); method: Sing-around technique in a fixed-path interferometer
Temperature, K	Pressure, kPa	Speed of sound, m/s	uncertainty
283.15	100	1291.4	.5
293.15	100	1257.5	.5
303.15	100	1223.6	.5
313.15	100	1190.2	.5

System: 2-butanol; phases: Liquid
Property: Mass density, kg/m3 (Liquid); method: Vibrating tube method
Temperature, K	Pressure, kPa	Mass density, kg/m3	uncertainty
283.15	100	815.39	.05
293.15	100	807.34	.05
303.15	100	798.99	.05
313.15	100	790.28	.05

System: 2-butanol; phases: Liquid
Fixed: Frequency, MHz = 3
Property: Speed of sound, m/s (Liquid); method: Sing-around technique in a fixed-path interferometer
Temperature, K	Pressure, kPa	Speed of sound, m/s	uncertainty
283.15	100	1268.4	.5
293.15	100	1232.4	.5
303.15	100	1196.1	.5
313.15	100	1159.5	.5

System: ethanol + furfural; phases: Liquid
Fixed: Pressure, kPa = 100
Property: Mass density, kg/m3 (Liquid); method: Vibrating tube method
Temperature, K	Mole fraction of furfural	Mass density, kg/m3	uncertainty
283.15	0	798.51	.05
283.15	.0486	825.34	.05
283.15	.0995	852.29	.05
283.15	.15	877.44	.05
283.15	.2	901.29	.05
283.15	.25	924.5	.05
283.15	.3001	946.91	.05
283.15	.4501	1007.43	.05
283.15	.6501	1076.56	.05
283.15	.7007	1091.79	.05
283.15	.7498	1105.77	.05
283.15	.8003	1119.65	.05
283.15	.8503	1132.81	.05
283.15	.9004	1145.37	.05
283.15	.9498	1157.85	.05
283.15	1	1169.93	.05
293.15	0	789.99	.05
293.15	.0486	816.58	.05
293.15	.0995	843.29	.05
293.15	.15	868.21	.05
293.15	.2	891.88	.05
293.15	.25	914.91	.05
293.15	.3001	937.18	.05
293.15	.4501	997.35	.05
293.15	.6501	1066.08	.05
293.15	.7007	1081.25	.05
293.15	.7498	1095.26	.05
293.15	.8003	1109.04	.05
293.15	.8503	1122.12	.05
293.15	.9004	1134.68	.05
293.15	.9498	1147.23	.05
293.15	1	1159.33	.05
303.15	0	781.38	.05
303.15	.0486	807.7	.05
303.15	.0995	834.16	.05
303.15	.15	858.83	.05
303.15	.2	882.29	.05
303.15	.25	905.24	.05
303.15	.3001	927.3	.05
303.15	.4501	987.26	.05
303.15	.6501	1055.65	.05
303.15	.7007	1070.76	.05
303.15	.7498	1084.63	.05
303.15	.8003	1098.47	.05
303.15	.8503	1111.5	.05
303.15	.9004	1124.08	.05
303.15	.9498	1136.49	.05
303.15	1	1148.69	.05
313.15	0	772.64	.05
313.15	.0486	798.67	.05
313.15	.0995	824.83	.05
313.15	.15	849.37	.05
313.15	.2	872.64	.05
313.15	.25	895.34	.05
313.15	.3001	917.42	.05
313.15	.4501	977.03	.05
313.15	.6501	1045.07	.05
313.15	.7007	1060.22	.05
313.15	.7498	1074.13	.05
313.15	.8003	1087.81	.05
313.15	.8503	1100.88	.05
313.15	.9004	1113.48	.05
313.15	.9498	1125.72	.05
313.15	1	1138.01	.05

System: ethanol + furfural; phases: Liquid
Fixed: Pressure, kPa = 100
Fixed: Frequency, MHz = 3
Property: Speed of sound, m/s (Liquid); method: Sing-around technique in a fixed-path interferometer
Temperature, K	Mole fraction of furfural	Speed of sound, m/s	uncertainty
283.15	0	1197.3	.5
283.15	.0486	1221.8	.5
283.15	.0995	1245.2	.5
283.15	.15	1265.6	.5
283.15	.2	1284.6	.5
283.15	.25	1302.7	.5
283.15	.3001	1320.2	.5
283.15	.4501	1367.1	.5
283.15	.6501	1421.3	.5
283.15	.7007	1433.5	.5
283.15	.7498	1444.7	.5
283.15	.8003	1455.7	.5
283.15	.8503	1466.4	.5
283.15	.9004	1476.6	.5
283.15	.9498	1486.3	.5
283.15	1	1495.4	.5
293.15	0	1162.5	.5
293.15	.0486	1187.2	.5
293.15	.0995	1210.4	.5
293.15	.15	1230.5	.5
293.15	.2	1249.7	.5
293.15	.25	1267.7	.5
293.15	.3001	1285.2	.5
293.15	.4501	1331.9	.5
293.15	.6501	1385.7	.5
293.15	.7007	1398	.5
293.15	.7498	1409.1	.5
293.15	.8003	1419.9	.5
293.15	.8503	1430.6	.5
293.15	.9004	1440.3	.5
293.15	.9498	1450.1	.5
293.15	1	1458.8	.5
303.15	0	1128.3	.5
303.15	.0486	1152.6	.5
303.15	.0995	1175.6	.5
303.15	.15	1195.7	.5
303.15	.2	1214.8	.5
303.15	.25	1232.8	.5
303.15	.3001	1250.3	.5
303.15	.4501	1296.9	.5
303.15	.6501	1350.4	.5
303.15	.7007	1362.5	.5
303.15	.7498	1373.4	.5
303.15	.8003	1384.2	.5
303.15	.8503	1394.6	.5
303.15	.9004	1404.2	.5
303.15	.9498	1413.8	.5
303.15	1	1422.5	.5
313.15	0	1094.6	.5
313.15	.0486	1118.5	.5
313.15	.0995	1141.2	.5
313.15	.15	1161.2	.5
313.15	.2	1180.2	.5
313.15	.25	1198.2	.5
313.15	.3001	1215.7	.5
313.15	.4501	1262.3	.5
313.15	.6501	1315.4	.5
313.15	.7007	1327.2	.5
313.15	.7498	1338	.5
313.15	.8003	1348.8	.5
313.15	.8503	1358.8	.5
313.15	.9004	1368.5	.5
313.15	.9498	1377.8	.5
313.15	1	1386.5	.5

System: 1-butanol + furfural; phases: Liquid
Fixed: Pressure, kPa = 100
Property: Mass density, kg/m3 (Liquid); method: Vibrating tube method
Temperature, K	Mole fraction of furfural	Mass density, kg/m3	uncertainty
283.15	0	817.21	.05
283.15	.0501	833.74	.05
283.15	.1	850.14	.05
283.15	.15	866.88	.05
283.15	.1999	883.58	.05
283.15	.2499	900.71	.05
283.15	.3	917.89	.05
283.15	.4	953.02	.05
283.15	.45	970.58	.05
283.15	.5	988.52	.05
283.15	.5473	1005.5	.05
283.15	.6999	1060.86	.05
283.15	.8	1097.24	.05
283.15	.8497	1115.11	.05
283.15	.8999	1133.5	.05
283.15	1	1169.93	.05
293.15	0	809.65	.05
293.15	.0501	825.93	.05
293.15	.1	842.12	.05
293.15	.15	858.65	.05
293.15	.1999	875.14	.05
293.15	.2499	892.12	.05
293.15	.3	909.1	.05
293.15	.4	943.94	.05
293.15	.45	961.33	.05
293.15	.5	979.14	.05
293.15	.5473	995.94	.05
293.15	.6999	1050.92	.05
293.15	.8	1087.06	.05
293.15	.8497	1104.87	.05
293.15	.8999	1123.12	.05
293.15	1	1159.33	.05
303.15	0	802	.05
303.15	.0501	818	.05
303.15	.1	833.98	.05
303.15	.15	850.29	.05
303.15	.1999	866.67	.05
303.15	.2499	883.46	.05
303.15	.3	900.31	.05
303.15	.4	934.84	.05
303.15	.45	952.08	.05
303.15	.5	969.78	.05
303.15	.5473	986.39	.05
303.15	.6999	1041.03	.05
303.15	.8	1076.9	.05
303.15	.8497	1094.66	.05
303.15	.8999	1112.74	.05
303.15	1	1148.69	.05
313.15	0	794.21	.05
313.15	.0501	809.97	.05
313.15	.1	825.71	.05
313.15	.15	841.84	.05
313.15	.1999	858.15	.05
313.15	.2499	874.76	.05
313.15	.3	891.55	.05
313.15	.4	925.74	.05
313.15	.45	942.85	.05
313.15	.5	960.42	.05
313.15	.5473	976.86	.05
313.15	.6999	1031.18	.05
313.15	.8	1066.74	.05
313.15	.8497	1084.43	.05
313.15	.8999	1102.3	.05
313.15	1	1138.01	.05

System: 1-butanol + furfural; phases: Liquid
Fixed: Pressure, kPa = 100
Fixed: Frequency, MHz = 3
Property: Speed of sound, m/s (Liquid); method: Sing-around technique in a fixed-path interferometer
Temperature, K	Mole fraction of furfural	Speed of sound, m/s	uncertainty
283.15	0	1291.4	.5
283.15	.0501	1301.8	.5
283.15	.1	1310.6	.5
283.15	.15	1319.6	.5
283.15	.1999	1328.7	.5
283.15	.2499	1337.3	.5
283.15	.3	1346.9	.5
283.15	.4	1365.5	.5
283.15	.45	1375.2	.5
283.15	.5	1385.7	.5
283.15	.5473	1395.8	.5
283.15	.6999	1429.8	.5
283.15	.8	1452.2	.5
283.15	.8497	1463.1	.5
283.15	.8999	1474.2	.5
283.15	1	1495.4	.5
293.15	0	1257.5	.5
293.15	.0501	1267.2	.5
293.15	.1	1275.9	.5
293.15	.15	1285	.5
293.15	.1999	1293.9	.5
293.15	.2499	1302.9	.5
293.15	.3	1312.1	.5
293.15	.4	1330.9	.5
293.15	.45	1340.7	.5
293.15	.5	1351	.5
293.15	.5473	1361	.5
293.15	.6999	1394.6	.5
293.15	.8	1416.4	.5
293.15	.8497	1427.1	.5
293.15	.8999	1438.1	.5
293.15	1	1458.8	.5
303.15	0	1223.6	.5
303.15	.0501	1233	.5
303.15	.1	1241.6	.5
303.15	.15	1250.5	.5
303.15	.1999	1259.3	.5
303.15	.2499	1268.4	.5
303.15	.3	1277.6	.5
303.15	.4	1296.4	.5
303.15	.45	1306.1	.5
303.15	.5	1316.3	.5
303.15	.5473	1326.2	.5
303.15	.6999	1359.3	.5
303.15	.8	1380.7	.5
303.15	.8497	1391.3	.5
303.15	.8999	1401.9	.5
303.15	1	1422.5	.5
313.15	0	1190.2	.5
313.15	.0501	1199.2	.5
313.15	.1	1207.7	.5
313.15	.15	1216.4	.5
313.15	.1999	1225.2	.5
313.15	.2499	1234.2	.5
313.15	.3	1243.3	.5
313.15	.4	1262.1	.5
313.15	.45	1271.7	.5
313.15	.5	1281.9	.5
313.15	.5473	1291.7	.5
313.15	.6999	1324.3	.5
313.15	.8	1345.3	.5
313.15	.8497	1355.7	.5
313.15	.8999	1366.2	.5
313.15	1	1386.5	.5

System: 2-butanol + furfural; phases: Liquid
Fixed: Pressure, kPa = 100
Property: Mass density, kg/m3 (Liquid); method: Vibrating tube method
Temperature, K	Mole fraction of furfural	Mass density, kg/m3	uncertainty
283.15	0	815.39	.05
283.15	.0501	831.27	.05
283.15	.1001	847.35	.05
283.15	.1507	863.92	.05
283.15	.2001	880.27	.05
283.15	.3001	913.96	.05
283.15	.3501	931.13	.05
283.15	.4001	948.49	.05
283.15	.4501	966.01	.05
283.15	.5	983.65	.05
283.15	.55	1001.41	.05
283.15	.6	1019.4	.05
283.15	.6501	1037.63	.05
283.15	.8001	1093.43	.05
283.15	.8999	1131.48	.05
283.15	1	1169.93	.05
293.15	0	807.34	.05
293.15	.0501	822.97	.05
293.15	.1001	838.83	.05
293.15	.1507	855.21	.05
293.15	.2001	871.37	.05
293.15	.3001	904.72	.05
293.15	.3501	921.74	.05
293.15	.4001	938.98	.05
293.15	.4501	956.37	.05
293.15	.5	973.9	.05
293.15	.55	991.58	.05
293.15	.6	1009.48	.05
293.15	.6501	1027.6	.05
293.15	.8001	1083.14	.05
293.15	.8999	1121	.05
293.15	1	1159.33	.05
303.15	0	798.99	.05
303.15	.0501	814.4	.05
303.15	.1001	830.06	.05
303.15	.1507	846.24	.05
303.15	.2001	862.24	.05
303.15	.3001	895.3	.05
303.15	.3501	912.18	.05
303.15	.4001	929.33	.05
303.15	.4501	946.59	.05
303.15	.5	964.03	.05
303.15	.55	981.69	.05
303.15	.6	999.51	.05
303.15	.6501	1017.53	.05
303.15	.8001	1072.78	.05
303.15	.8999	1110.45	.05
303.15	1	1148.69	.05
313.15	0	790.28	.05
313.15	.0501	805.5	.05
313.15	.1001	820.99	.05
313.15	.1507	837.01	.05
313.15	.2001	852.86	.05
313.15	.3001	885.68	.05
313.15	.3501	902.46	.05
313.15	.4001	919.51	.05
313.15	.4501	936.66	.05
313.15	.5	954.03	.05
313.15	.55	971.7	.05
313.15	.6	989.44	.05
313.15	.6501	1007.37	.05
313.15	.8001	1062.25	.05
313.15	.8999	1099.81	.05
313.15	1	1138.01	.05

System: 2-butanol + furfural; phases: Liquid
Fixed: Pressure, kPa = 100
Fixed: Frequency, MHz = 3
Property: Speed of sound, m/s (Liquid); method: Sing-around technique in a fixed-path interferometer
Temperature, K	Mole fraction of furfural	Speed of sound, m/s	uncertainty
283.15	0	1268.4	.5
283.15	.0501	1279.1	.5
283.15	.1001	1289.1	.5
283.15	.1507	1299.3	.5
283.15	.2001	1309.5	.5
283.15	.3001	1330.4	.5
283.15	.3501	1341.2	.5
283.15	.4001	1352	.5
283.15	.4501	1363.4	.5
283.15	.5	1375.1	.5
283.15	.55	1387.3	.5
283.15	.6	1399.4	.5
283.15	.6501	1411.8	.5
283.15	.8001	1448.5	.5
283.15	.8999	1472.1	.5
283.15	1	1495.4	.5
293.15	0	1232.4	.5
293.15	.0501	1242.7	.5
293.15	.1001	1252.7	.5
293.15	.1507	1263.1	.5
293.15	.2001	1273.3	.5
293.15	.3001	1294.4	.5
293.15	.3501	1305.4	.5
293.15	.4001	1316.4	.5
293.15	.4501	1327.8	.5
293.15	.5	1339.4	.5
293.15	.55	1351.4	.5
293.15	.6	1363.4	.5
293.15	.6501	1375.7	.5
293.15	.8001	1412	.5
293.15	.8999	1435.7	.5
293.15	1	1458.8	.5
303.15	0	1196.1	.5
303.15	.0501	1206.1	.5
303.15	.1001	1216.1	.5
303.15	.1507	1226.6	.5
303.15	.2001	1236.9	.5
303.15	.3001	1258.3	.5
303.15	.3501	1269.3	.5
303.15	.4001	1280.4	.5
303.15	.4501	1291.9	.5
303.15	.5	1303.5	.5
303.15	.55	1315.5	.5
303.15	.6	1327.4	.5
303.15	.6501	1339.6	.5
303.15	.8001	1375.6	.5
303.15	.8999	1399.2	.5
303.15	1	1422.5	.5
313.15	0	1159.5	.5
313.15	.0501	1169.4	.5
313.15	.1001	1179.5	.5
313.15	.1507	1190	.5
313.15	.2001	1200.5	.5
313.15	.3001	1222.1	.5
313.15	.3501	1233.2	.5
313.15	.4001	1244.1	.5
313.15	.4501	1256	.5
313.15	.5	1267.6	.5
313.15	.55	1279.6	.5
313.15	.6	1291.5	.5
313.15	.6501	1303.6	.5
313.15	.8001	1339.5	.5
313.15	.8999	1363.1	.5
313.15	1	1386.5	.5
