Measured thermophysical data. Crystal structure determination and thermal behavior upon melting of p-synephrine
Source: Thermochim. Acta, 2016, 10.1016/j.tca.2016.03.010
Compound 1: synephrine, C9H13NO2, purity 98%

System: synephrine; phases: Crystal, Liquid, Air at 1 atmosphere
Property: Normal melting temperature, K (Crystal); method: DSC/DTA
Normal melting temperature, K	uncertainty
472.95	1.30000000000001

System: synephrine; phases: Crystal, Liquid, Air at 1 atmosphere
Property: Molar enthalpy of transition or fusion, kJ/mol (Crystal); method: DSC
Molar enthalpy of transition or fusion, kJ/mol	uncertainty
57	3

System: synephrine; phases: Crystal
Fixed: Pressure, kPa = 101.325
Property: Mass density, kg/m3 (Crystal); method: X-ray diffraction
Temperature, K	Mass density, kg/m3	uncertainty
294	1256	1
