Measured thermophysical data. A DSC study of the NaNO3 KNO3 system using an innovative  encapsulation technique
Source: Thermochim. Acta, 2010, 10.1016/j.tca.2010.06.003
Compound 1: sodium nitrate, NNaO3, purity 99.999%
Compound 2: nitric acid potassium salt, KNO3, purity 99.994%

System: sodium nitrate; phases: Crystal 2, Crystal 1, Air at 1 atmosphere
Property: Triple point temperature, K (Crystal 2); method: DSC/DTA
Triple point temperature, K	uncertainty
545.5	

System: nitric acid potassium salt; phases: Crystal 2, Crystal 1, Air at 1 atmosphere
Property: Triple point temperature, K (Crystal 2); method: DSC/DTA
Triple point temperature, K	uncertainty
405.6	

System: sodium nitrate + nitric acid potassium salt; phases: Crystal, Crystal, Liquid, Air at 1 atmosphere
Fixed: Pressure, kPa = 101.325
Property: Eutectic temperature, K (Crystal); method: DSC/DTA
Eutectic temperature, K	uncertainty
496.5	3

System: sodium nitrate + nitric acid potassium salt; phases: Crystal, Crystal, Liquid, Air at 1 atmosphere
Fixed: Pressure, kPa = 101.325
Property: Eutectic composition: mole fraction of nitric acid potassium salt (Crystal); method: Other
Eutectic composition: mole fraction of nitric acid potassium salt	uncertainty
.51	.02

System: sodium nitrate + nitric acid potassium salt; phases: Liquid, Crystal
Fixed: Pressure, kPa = 101
Property: Solid-liquid equilibrium temperature, K (Liquid); method: DSC/DTA
Mole fraction of nitric acid potassium salt	Solid-liquid equilibrium temperature, K	uncertainty
0	579.6	
.027	574.7	
.038	573.2	
.069	576.9	
.096	574.1	
.103	572.2	
.143	568	
.203	562.8	
.257	554.2	
.313	532.1	
.345	522.6	
.36	523	
.425	509.2	
.46	508.2	
.481	496.4	

System: sodium nitrate + nitric acid potassium salt; phases: Liquid, Crystal
Fixed: Pressure, kPa = 101
Property: Solid-liquid equilibrium temperature, K (Liquid); method: DSC/DTA
Mole fraction of nitric acid potassium salt	Solid-liquid equilibrium temperature, K	uncertainty
.481	496.4	
.6	514.8	
.653	526	
.697	534.4	
.801	567.4	
.818	575.4	
.85	579.8	
.877	581.5	
.899	590.6	
.949	602.9	
1	606.8	

System: sodium nitrate + nitric acid potassium salt; phases: Crystal, Liquid
Fixed: Pressure, kPa = 101
Property: Solid-liquid equilibrium temperature, K (Crystal); method: DSC/DTA
Mole fraction of nitric acid potassium salt	Solid-liquid equilibrium temperature, K	uncertainty
.096	503.5	
.103	501.2	
.85	500.3	
.877	535.5	
.899	551.1	
.949	563.8	
