Measured thermophysical data. Thermodynamic functions of magnesium gallate MgGa2O4 in thetemperature range 0-1200 K
Source: Thermochim. Acta, 2016, 10.1016/j.tca.2016.08.015
Compound 1: magnesium gallate, Ga2MgO4, purity 99%

System: magnesium gallate; phases: Crystal
Fixed: Pressure, kPa = 101.325
Property: Molar heat capacity at constant pressure, J/K/mol (Crystal); method: Vacuum adiabatic calorimetry
Temperature, K	Molar heat capacity at constant pressure, J/K/mol	uncertainty
2	.00073	
3	.00248	
4	.00587	
6	.0198	
8	.047	
10	.0918	
15	.31	
20	.737	
25	1.433	
30	2.465	
35	3.868	
40	5.642	
45	7.752	
50	10.15	
55	12.76	
60	15.53	
65	18.42	
70	21.39	
75	24.42	
80	27.49	
85	30.6	
90	33.71	
95	36.85	
100	39.99	
110	46.27	
120	52.51	
130	58.67	
140	64.68	
150	70.52	
160	76.15	
170	81.55	
180	86.69	
190	91.59	
200	96.22	
210	100.6	
220	104.7	
230	108.6	
240	112.2	
250	115.6	
260	118.8	
270	121.8	
280	124.6	
290	127.3	
300	129.8	
310	132.1	
320	134.2	
330	136.3	
340	138.2	
350	140	
360	141.7	
364	142.3	

System: magnesium gallate; phases: Crystal
Fixed: Pressure, kPa = 101.325
Property: Molar entropy, J/K/mol (Crystal); method: Other
Temperature, K	Molar entropy, J/K/mol	uncertainty
2	.00026	
3	.00086	
4	.002	
6	.00668	
8	.0158	
10	.0307	
15	.104	
20	.245	
25	.479	
30	.826	
35	1.307	
40	1.935	
45	2.718	
50	3.657	
55	4.745	
60	5.973	
65	7.329	
70	8.802	
75	10.38	
80	12.06	
85	13.82	
90	15.65	
95	17.56	
100	19.53	
110	23.63	
120	27.93	
130	32.38	
140	36.95	
150	41.61	
160	46.34	
170	51.12	
180	55.93	
190	60.75	
200	65.56	
210	70.37	
220	75.14	
230	79.88	
240	84.58	
250	89.23	
260	93.83	
270	98.37	
280	102.9	
290	107.3	
300	111.6	
310	115.9	
320	120.2	
330	124.3	
340	128.4	
350	132.4	
360	136.4	
364	138	

System: magnesium gallate; phases: Crystal
Fixed: Pressure, kPa = 101.325
Property: Molar enthalpy, kJ/mol (Crystal); method: Other
Temperature, K	Molar enthalpy, kJ/mol	uncertainty
2	.00000044	
3	.00000204	
4	.00000622	
6	.0000305	
8	.0000954	
10	.000232	
15	.001167	
20	.003687	
25	.00899	
30	.01859	
35	.03427	
40	.0579	
45	.09126	
50	.1359	
55	.1931	
60	.2637	
65	.3486	
70	.4481	
75	.5626	
80	.6924	
85	.8376	
90	.9983	
95	1.175	
100	1.367	
110	1.798	
120	2.292	
130	2.848	
140	3.465	
150	4.141	
160	4.875	
170	5.663	
180	6.505	
190	7.396	
200	8.336	
210	9.32	
220	10.347	
230	11.413	
240	12.518	
250	13.657	
260	14.829	
270	16.033	
280	17.266	
290	18.525	
300	19.811	
310	21.12	
320	22.452	
330	23.804	
340	25.177	
350	26.568	
360	27.976	
364	28.545	

System: magnesium gallate; phases: Crystal
Fixed: Pressure, kPa = 101.325
Property: Molar heat capacity at constant pressure, J/K/mol (Crystal); method: Small sample (50 mg) scanning calorimetry
Temperature, K	Molar heat capacity at constant pressure, J/K/mol	uncertainty
364	142.3	
370	143.4	
400	148	
450	153.8	
500	157.9	
550	160.9	
600	163.2	
650	165	
700	166.4	
750	167.6	
800	168.5	
850	169.3	
900	169.9	
950	170.4	
1000	170.9	
1050	171.2	
1100	171.6	
1150	171.9	
1200	172.1	

System: magnesium gallate; phases: Crystal
Fixed: Pressure, kPa = 101.325
Property: Molar entropy, J/K/mol (Crystal); method: Other
Temperature, K	Molar entropy, J/K/mol	uncertainty
364	138	
370	140.2	
400	151.6	
450	169.4	
500	185.8	
550	201	
600	215.1	
650	228.3	
700	240.6	
750	252.1	
800	262.9	
850	273.2	
900	282.9	
950	292.1	
1000	300.8	
1050	309.1	
1100	317.1	
1150	324.8	
1200	332.1	

System: magnesium gallate; phases: Crystal
Fixed: Pressure, kPa = 101.325
Property: Molar enthalpy, kJ/mol (Crystal); method: Other
Temperature, K	Molar enthalpy, kJ/mol	uncertainty
364	28.545	
370	29.374	
400	33.749	
450	41.303	
500	49.102	
550	57.077	
600	65.184	
650	73.393	
700	81.681	
750	90.033	
800	98.435	
850	106.88	
900	115.358	
950	123.866	
1000	132.399	
1050	140.952	
1100	149.522	
1150	158.108	
1200	166.707	

System: magnesium gallate; phases: Crystal
Fixed: Pressure, kPa = 101.325
Property: Molar heat capacity at constant pressure, J/K/mol (Crystal); method: Vacuum adiabatic calorimetry
Temperature, K	Molar heat capacity at constant pressure, J/K/mol	uncertainty
6.93	.108	
7.42	.135	
8.04	.151	
8.68	.168	
9.33	.166	
10.01	.1636	
10.7	.1887	
11.4	.2226	
12.11	.2777	
12.84	.3383	
13.62	.3514	
14.37	.3593	
15.13	.393	
15.9	.4084	
16.68	.477	
17.46	.5564	
18.25	.6136	
19.03	.6785	
19.82	.7756	
21.14	.9463	
22.62	1.114	
24.09	1.325	
25.57	1.557	
27.07	1.853	
28.57	2.181	
30.09	2.58	
31.62	3.046	
33.16	3.528	
34.71	3.892	
36.27	4.482	
37.83	5.101	
39.4	5.667	
40.98	6.214	
42.57	6.897	
44.16	7.49	
45.79	8.179	
47.39	8.919	
49	9.655	
50.62	10.44	
52.24	11.24	
53.86	12.03	
55.49	12.88	
57.12	13.75	
58.75	14.62	
60.38	15.58	
62.02	16.57	
63.66	17.57	
65.3	18.59	
66.95	19.55	
68.6	20.52	
70.25	21.51	
72.13	22.58	
74.18	23.84	
76.24	25.18	
78.3	26.62	
80.36	27.95	
82.43	29.13	
84.5	30.1	
86.57	31.54	
88.64	33.22	
90.71	34.4	
92.78	35.64	
94.86	36.88	
96.94	38.07	
99.02	39.28	
101.71	41.09	
105.02	43.16	
108.35	45.22	
111.66	47.21	
114.98	49.29	
102.85	41.83	
106.12	43.85	
109.39	45.85	
112.67	47.9	
115.95	49.88	
119.24	51.92	
122.53	53.9	
125.82	55.9	
129.12	57.87	
132.41	59.84	
135.71	61.88	
139.01	63.86	
142.31	65.8	
145.61	67.8	
148.92	69.78	
152.22	71.73	
155.53	73.65	
158.83	75.57	
162.14	77.46	
165.45	79.3	
168.75	81.09	
172.06	82.91	
175.37	84.65	
178.68	86.38	
181.98	88.02	
185.29	89.6	
188.6	91.19	
191.9	92.72	
195.2	94.23	
198.51	95.7	
202.22	97.45	
206.34	99.14	
210.46	100.8	
214.59	102.2	
218.7	103.9	
222.8	105.5	
226.9	107.1	
230.94	108.6	
235.05	110.2	
239.2	111.8	
243.3	113.4	
247.4	115	
251.49	116.3	
255.57	117.5	
259.64	118.8	
263.7	120	
267.76	121.2	
271.81	122.3	
275.84	123.4	
279.87	124.5	
283.89	125.5	
287.87	126.5	
291.86	127.5	
295.72	128.5	
299.65	129.5	
304.11	130.5	
310.48	132.2	
317.88	133.9	
325.24	135.5	
332.55	136.8	
339.83	138.4	
347.06	140	

System: magnesium gallate; phases: Crystal
Fixed: Pressure, kPa = 101.325
Property: Molar heat capacity at constant pressure, J/K/mol (Crystal); method: Small sample (50 mg) scanning calorimetry
Temperature, K	Molar heat capacity at constant pressure, J/K/mol	uncertainty
321.9	132.5	
326.9	133.9	
331.9	135.2	
336.9	136.4	
341.9	137.6	
346.9	138.7	
351.9	139.8	
356.9	140.8	
361.9	141.8	
366.9	142.8	
371.9	143.7	
376.9	144.6	
381.9	145.4	
386.9	146.2	
391.9	147	
396.9	147.7	
401.9	148.4	
406.9	149.1	
411.9	149.8	
416.9	150.4	
421.9	151.1	
426.9	151.6	
431.9	152.2	
436.9	152.8	
441.9	153.3	
446.9	153.8	
451.9	154.3	
456.9	154	
461.9	154.2	
466.9	154.7	
471.9	155.2	
476.9	155.8	
481.9	156.2	
486.9	156.7	
491.9	157.1	
496.9	157.5	
501.9	157.9	
506.9	158.3	
511.9	158.6	
516.9	159	
521.9	159.4	
526.9	159.8	
531.9	160.3	
536.9	160.7	
541.9	161.1	
546.9	161.5	
551.9	161.9	
556.9	162.2	
561.9	162.4	
566.9	162.8	
571.9	163.1	
576.9	163.4	
581.9	163.7	
586.9	164	
591.9	164.2	
596.9	164	
601.9	164.2	
606.9	164.3	
611.9	164.5	
616.9	164.6	
621.9	164.7	
626.9	164.8	
631.9	164.9	
636.9	165	
641.9	165.1	
646.9	165.2	
651.9	165.3	
656.9	165.4	
661.9	165.5	
666.9	165.6	
671.9	165.8	
676.9	165.9	
681.9	166	
686.9	166.2	
691.9	166.3	
696.9	166.4	
701.9	166.5	
706.9	166.6	
711.9	166.7	
716.9	166.8	
721.9	166.9	
726.9	167	
731.9	167	
736.9	167	
741.9	167	
746.9	167	
751.9	167.1	
756.9	167.2	
761.9	167.2	
766.9	167.3	
771.9	167.4	
776.9	167.5	
781.9	167.6	
786.9	167.7	
791.9	167.8	
796.9	167.9	
801.9	168.5	
806.9	168.6	
811.9	168.7	
816.9	168.7	
821.9	168.8	
826.9	168.8	
831.9	168.9	
836.9	169	
841.9	169	
846.9	169.1	
851.9	169.1	
856.9	169.2	
861.9	169.2	
866.9	169.3	
871.9	169.3	
876.9	169.4	
881.9	169.4	
886.9	169.5	
891.9	168.3	
896.9	168.4	
901.9	168.5	
906.9	168.7	
911.9	168.8	
916.9	168.9	
921.9	169.1	
926.9	169.3	
931.9	169.5	
936.9	169.7	
941.9	169.9	
946.9	170	
951.9	170.2	
956.9	170.3	
961.9	170.3	
966.9	170.2	
971.9	170.3	
976.9	170.3	
981.9	170.4	
986.9	170.4	
991.9	170.5	
996.9	170.6	
1001.9	170.6	
1006.9	170.6	
1011.9	170.5	
1016.9	170.5	
1021.9	170.5	
1026.9	170.5	
1031.9	170.5	
1036.9	170.5	
1041.9	170.5	
1046.9	170.6	
1051.9	170.6	
1056.9	170.6	
1061.9	170.7	
1066.9	170.8	
1071.9	170.9	
1076.9	171.1	
1081.9	171.3	
1086.9	171.6	
1091.9	171.8	
1096.9	172	
1101.9	172.2	
1106.9	172.3	
1111.9	172.4	
1116.9	172.4	
1121.9	172.5	
1126.9	172.5	
1131.9	172.6	
1136.9	172.7	
1141.9	172.8	
1146.9	172.9	
1151.9	173	
1156.9	173	
1161.9	173	
1166.9	173	
1171.9	172.9	
1176.9	172.8	
1181.9	172.8	
1186.9	172.7	
1191.9	172.7	
1196.9	172.6	
1201.9	172.5	
