Measured thermophysical data. Experimental measurement and phase equilibria calculation for ternary systems of carbon dioxide+ toluene + naphthalene and carbon dioxide+ ethanol + acridine, applicable for fine particle production in GAS process
Source: Thermochim. Acta, 2016, 10.1016/j.tca.2016.06.007
Compound 1: toluene, C7H8, purity 99.9%
Compound 2: ethanol, C2H6O, purity 99.9%
Compound 3: naphthalene, C10H8, purity 99.95%
Compound 4: acridine, C13H9N, purity 99.95%
Compound 5: carbon dioxide, CO2, purity 99.9%

System: naphthalene + toluene + carbon dioxide; phases: Liquid, Crystal
Property: Mole fraction of naphthalene (Liquid); method: Chromatography
Temperature, K	Pressure, kPa	Mole fraction of carbon dioxide	Mole fraction of naphthalene	uncertainty
298.15	960	.1846	.2564	
298.15	1500	.2065	.2542	
298.15	2000	.2396	.2496	
298.15	2510	.2824	.2449	
298.15	2950	.3232	.2353	
298.15	3280	.3576	.227	
298.15	3520	.3799	.2224	
298.15	3900	.4153	.2129	
298.15	4420	.4858	.1836	
298.15	4990	.5949	.1283	
298.15	5370	.6987	.0932	
298.15	5840	.9198	.0211	
298.15	6120	.9712	.0096	
308.15	1140	.0908	.3381	
308.15	1860	.1338	.3312	
308.15	2340	.1823	.3163	
308.15	2810	.2108	.3043	
308.15	3450	.2723	.2886	
308.15	4170	.3496	.2661	
308.15	4650	.4154	.245	
308.15	5310	.4911	.2262	
308.15	5980	.5669	.1878	
308.15	6570	.6802	.1261	
308.15	6810	.8592	.0342	
308.15	7180	.9214	.0198	
308.15	7560	.9884	.0085	

System: naphthalene + toluene + carbon dioxide; phases: Liquid, Gas
Property: Vapor or sublimation pressure, kPa (Liquid); method: Closed cell (Static) method
Temperature, K	Mole fraction of carbon dioxide	Mole fraction of naphthalene	Vapor or sublimation pressure, kPa	uncertainty
298.15	.1846	.2564	960	
298.15	.2065	.2542	1500	
298.15	.2396	.2496	2000	
298.15	.2824	.2449	2510	
298.15	.3232	.2353	2950	
298.15	.3576	.227	3280	
298.15	.3799	.2224	3520	
298.15	.4153	.2129	3900	
298.15	.4858	.1836	4420	
298.15	.5949	.1283	4990	
298.15	.6987	.0932	5370	
298.15	.9198	.0211	5840	
298.15	.9712	.0096	6120	
308.15	.0908	.3381	1140	
308.15	.1338	.3312	1860	
308.15	.1823	.3163	2340	
308.15	.2108	.3043	2810	
308.15	.2723	.2886	3450	
308.15	.3496	.2661	4170	
308.15	.4154	.245	4650	
308.15	.4911	.2262	5310	
308.15	.5669	.1878	5980	
308.15	.6802	.1261	6570	
308.15	.8592	.0342	6810	
308.15	.9214	.0198	7180	
308.15	.9884	.0085	7560	

System: ethanol + carbon dioxide + acridine; phases: Liquid, Crystal
Property: Mole fraction of acridine (Liquid); method: Chromatography
Temperature, K	Pressure, kPa	Mole fraction of carbon dioxide	Mole fraction of acridine	uncertainty
298.15	1510	.176	.2881	
298.15	2200	.2653	.2815	
298.15	2960	.3548	.279	
298.15	3290	.3944	.2778	
298.15	3700	.446	.2659	
298.15	4270	.521	.2555	
298.15	5090	.6258	.2412	
298.15	5560	.6983	.2097	
298.15	5810	.7696	.1557	
298.15	6060	.9623	.0177	
298.15	6290	.985	.0038	
298.15	6400	.9967	.0015	
308.15	2450	.1604	.2913	
308.15	3500	.2234	.2988	
308.15	4370	.2766	.3024	
308.15	5160	.3243	.307	
308.15	5630	.3513	.3089	
308.15	6260	.3913	.3078	
308.15	6690	.4268	.3035	
308.15	7200	.9157	.0107	
308.15	7630	.9815	.003	
308.15	8010	.9914	.0021	
318.15	2580	.0911	.4216	
318.15	3850	.1591	.4714	
318.15	5240	.2506	.4933	
318.15	6090	.3061	.4977	
318.15	7250	.4288	.4965	
318.15	7660	.4916	.476	
318.15	8280	.7187	.2611	
318.15	8940	.9921	.0009	

System: ethanol + carbon dioxide + acridine; phases: Liquid, Gas
Property: Vapor or sublimation pressure, kPa (Liquid); method: Closed cell (Static) method
Temperature, K	Mole fraction of carbon dioxide	Mole fraction of acridine	Vapor or sublimation pressure, kPa	uncertainty
298.15	.176	.2881	1510	
298.15	.2653	.2815	2200	
298.15	.3548	.279	2960	
298.15	.3944	.2778	3290	
298.15	.446	.2659	3700	
298.15	.521	.2555	4270	
298.15	.6258	.2412	5090	
298.15	.6983	.2097	5560	
298.15	.7696	.1557	5810	
298.15	.9623	.0177	6060	
298.15	.985	.0038	6290	
298.15	.9967	.0015	6400	
308.15	.1604	.2913	2450	
308.15	.2234	.2988	3500	
308.15	.2766	.3024	4370	
308.15	.3243	.307	5160	
308.15	.3513	.3089	5630	
308.15	.3913	.3078	6260	
308.15	.4268	.3035	6690	
308.15	.9157	.0107	7200	
308.15	.9815	.003	7630	
308.15	.9914	.0021	8010	
318.15	.0911	.4216	2580	
318.15	.1591	.4714	3850	
318.15	.2506	.4933	5240	
318.15	.3061	.4977	6090	
318.15	.4288	.4965	7250	
318.15	.4916	.476	7660	
318.15	.7187	.2611	8280	
318.15	.9921	.0009	8940	
