Measured thermophysical data. Acetamidobenzoic acid isomers: Studying sublimation and fusion processes and their connection with crystal structures
Source: Thermochim. Acta, 2014, 10.1016/j.tca.2014.03.019
Compound 1: 2-acetamidobenzoic acid, C9H9NO3, purity 99%
Compound 2: 3-(acetylamino)benzoic acid, C9H9NO3, purity 98%
Compound 3: 4-acetamidobenzoic acid, C9H9NO3, purity 98%

System: 2-acetamidobenzoic acid; phases: Crystal, Liquid, Gas
Property: Molar enthalpy of transition or fusion, kJ/mol (Crystal); method: DSC/DTA
Molar enthalpy of transition or fusion, kJ/mol	uncertainty
49.4	.2

System: 2-acetamidobenzoic acid; phases: Crystal, Liquid, Air at 1 atmosphere
Property: Normal melting temperature, K (Crystal); method: DSC/DTA
Normal melting temperature, K	uncertainty
458.4	.2

System: 2-acetamidobenzoic acid; phases: Crystal, Gas
Property: Vapor or sublimation pressure, kPa (Crystal); method: Transpiration method
Temperature, K	Vapor or sublimation pressure, kPa	uncertainty
344.7	.0000166	
351.3	.0000337	
357.3	.0000558	
363.5	.000111	
363.8	.000116	
366.2	.000138	
369.7	.000235	
371	.000243	
373.5	.000289	
377.4	.000555	
380	.000571	
383.8	.000948	
387.2	.00117	
390.4	.00152	
393.5	.00198	

System: 3-(acetylamino)benzoic acid; phases: Crystal, Liquid, Gas
Property: Molar enthalpy of transition or fusion, kJ/mol (Crystal); method: DSC/DTA
Molar enthalpy of transition or fusion, kJ/mol	uncertainty
39.4	.2

System: 3-(acetylamino)benzoic acid; phases: Crystal, Liquid, Air at 1 atmosphere
Property: Normal melting temperature, K (Crystal); method: DSC/DTA
Normal melting temperature, K	uncertainty
518.2	.2

System: 3-(acetylamino)benzoic acid; phases: Crystal, Gas
Property: Vapor or sublimation pressure, kPa (Crystal); method: Transpiration method
Temperature, K	Vapor or sublimation pressure, kPa	uncertainty
407.2	.0000267	
410.9	.0000467	
414.1	.0000562	
416.6	.0000627	
420.9	.000102	
423.6	.000114	
426.8	.000148	
427.3	.000187	
430.6	.000246	
433	.000315	
434.8	.000374	
436.1	.000403	
440.1	.00051	
442.9	.000663	

System: 4-acetamidobenzoic acid; phases: Crystal, Liquid, Gas
Property: Molar enthalpy of transition or fusion, kJ/mol (Crystal); method: DSC/DTA
Molar enthalpy of transition or fusion, kJ/mol	uncertainty
34.2	.2

System: 4-acetamidobenzoic acid; phases: Crystal, Liquid, Air at 1 atmosphere
Property: Normal melting temperature, K (Crystal); method: DSC/DTA
Normal melting temperature, K	uncertainty
535.3	.2

System: 4-acetamidobenzoic acid; phases: Crystal, Gas
Property: Vapor or sublimation pressure, kPa (Crystal); method: Transpiration method
Temperature, K	Vapor or sublimation pressure, kPa	uncertainty
395	.0000143	
398.2	.000021	
398.5	.0000209	
402.5	.0000292	
405.5	.0000348	
409.1	.0000524	
412.1	.0000672	
415.3	.0001	
418.9	.000126	
422.1	.000193	
425	.000227	
428.5	.000352	
431.7	.000393	
436.2	.000775	
440	.000934	
