Measured thermophysical data. Effect of electrostatic interaction on thermochemical behavior  of 12-crown-4 ether in various polar solvents
Source: Thermochim. Acta, 2010, 10.1016/j.tca.2009.11.001
Compound 1: 12-crown-4 ether, C8H16O4, purity 98%
Compound 2: chloroform, CHCl3
Compound 3: ethyl ethanoate, C4H8O2
Compound 4: pyridine, C5H5N
Compound 5: propanone, C3H6O
Compound 6: acetonitrile, C2H3N
Compound 7: methanol, CH4O

System: chloroform + 12-crown-4 ether; phases: Liquid
Fixed: Temperature, K = 298.15
Fixed: Pressure, kPa = 100
Property: Molar enthalpy of solution, kJ/mol (Liquid); method: Isoperibol calorimetry
Molality, mol/kg of 12-crown-4 ether	Molar enthalpy of solution, kJ/mol	uncertainty
.00676	-23.55	.1
.0999	-23.5	.1
.01032	-23.5	.1
.0186	-23.4	.1
.02316	-23.5	.1

System: ethyl ethanoate + 12-crown-4 ether; phases: Liquid
Fixed: Temperature, K = 298.15
Fixed: Pressure, kPa = 100
Property: Molar enthalpy of solution, kJ/mol (Liquid); method: Isoperibol calorimetry
Molality, mol/kg of 12-crown-4 ether	Molar enthalpy of solution, kJ/mol	uncertainty
.01173	.44	.02
.01426	.45	.02
.01714	.43	.02
.02134	.46	.02
.02358	.44	.02

System: pyridine + 12-crown-4 ether; phases: Liquid
Fixed: Temperature, K = 298.15
Fixed: Pressure, kPa = 100
Property: Molar enthalpy of solution, kJ/mol (Liquid); method: Isoperibol calorimetry
Molality, mol/kg of 12-crown-4 ether	Molar enthalpy of solution, kJ/mol	uncertainty
.01013	-2.21	.03
.01491	-2.23	.03
.01792	-2.2	.03
.02182	-2.18	.03
.02389	-2.22	.03

System: propanone + 12-crown-4 ether; phases: Liquid
Fixed: Temperature, K = 298.15
Fixed: Pressure, kPa = 100
Property: Molar enthalpy of solution, kJ/mol (Liquid); method: Isoperibol calorimetry
Molality, mol/kg of 12-crown-4 ether	Molar enthalpy of solution, kJ/mol	uncertainty
.01097	.57	.04
.01637	.62	.04
.01957	.56	.04
.0213	.54	.04
.02645	.6	.04

System: acetonitrile + 12-crown-4 ether; phases: Liquid
Fixed: Temperature, K = 298.15
Fixed: Pressure, kPa = 100
Property: Molar enthalpy of solution, kJ/mol (Liquid); method: Isoperibol calorimetry
Molality, mol/kg of 12-crown-4 ether	Molar enthalpy of solution, kJ/mol	uncertainty
.01128	-3.37	.07
.01722	-3.29	.07
.01932	-3.4	.07
.02223	-3.4	.07
.02612	-3.29	.07

System: methanol + 12-crown-4 ether; phases: Liquid
Fixed: Temperature, K = 298.15
Fixed: Pressure, kPa = 100
Property: Molar enthalpy of solution, kJ/mol (Liquid); method: Isoperibol calorimetry
Molality, mol/kg of 12-crown-4 ether	Molar enthalpy of solution, kJ/mol	uncertainty
.01377	-.31	.01
.02581	-.35	.01
.03683	-.38	.01
.03903	-.39	.01
.05239	-.43	.01
.06491	-.47	.01
.07959	-.51	.01
