Measured thermophysical data. Heat capacities of selected cycloalcohols
Source: Thermochim. Acta, 2014, 10.1016/j.tca.2014.10.002
Compound 1: cyclobutanol, C4H8O, purity 99.82%
Compound 2: cyclopentanol, C5H10O, purity 99.93%
Compound 3: cyclohexanol, C6H12O, purity 99.96%
Compound 4: cycloheptanol, C7H14O, purity 99.37%
Compound 5: cyclooctanol, C8H16O, purity 99.25%

System: cyclobutanol; phases: Crystal, Liquid, Air at 1 atmosphere
Property: Molar enthalpy of transition or fusion, kJ/mol (Crystal); method: DSC
Molar enthalpy of transition or fusion, kJ/mol	uncertainty
7.91	.3

System: cyclobutanol; phases: Crystal, Liquid, Air at 1 atmosphere
Property: Normal melting temperature, K (Crystal); method: DSC/DTA
Normal melting temperature, K	uncertainty
227.54	.1

System: cyclobutanol; phases: Liquid
Fixed: Pressure, kPa = 101.325
Property: Molar heat capacity at constant pressure, J/K/mol (Liquid); method: Large sample (1 g) scanning calorimetry
Temperature, K	Molar heat capacity at constant pressure, J/K/mol	uncertainty
258.09	132.4	1.324
258.09	132.7	1.327
263.2	134.8	1.348
263.2	134.7	1.347
268.3	137	1.37
268.3	137.2	1.372
273.41	139.4	1.394
273.41	139.4	1.394
278.51	141.8	1.418
278.51	141.8	1.418
283.62	144.6	1.446
283.62	144.4	1.444
288.72	147.4	1.474
288.72	147.3	1.473
293.83	150.5	1.505
293.83	150.2	1.502
298.93	153.7	1.537
298.93	153.8	1.538
304.04	157	1.57
304.04	157.1	1.571
309.14	160.5	1.605
309.14	160.5	1.605
314.25	164.1	1.641
314.25	164	1.64
319.35	168	1.68
319.35	167.9	1.679
324.46	171.9	1.719
324.46	171.6	1.716
329.57	175.4	1.754
329.57	175.4	1.754
334.67	179.4	1.794
334.67	179.4	1.794
339.77	183.6	1.836
339.77	183.1	1.831
344.88	187.5	1.875
344.88	187	1.87
349.98	191.6	1.916
355.09	195.6	1.956

System: cyclopentanol; phases: Liquid
Fixed: Pressure, kPa = 101.325
Property: Molar heat capacity at constant pressure, J/K/mol (Liquid); method: Large sample (1 g) scanning calorimetry
Temperature, K	Molar heat capacity at constant pressure, J/K/mol	uncertainty
265.06	157.6	1.576
265.06	157.6	1.576
270	160.7	1.607
270	160.7	1.607
275	164.2	1.642
275	164.2	1.642
280	167.8	1.678
280	167.9	1.679
285	171.6	1.716
285	171.7	1.717
290	175.7	1.757
290	175.9	1.759
295	180	1.8
295	180.1	1.801
300	184.3	1.843
300	184.4	1.844
305	188.6	1.886
305	188.7	1.887
310	193	1.93
310	193.1	1.931
315	197.4	1.974
315	197.6	1.976
320	201.8	2.018
320	202	2.02
325	206.2	2.062
325	206.4	2.064
330	210.5	2.105
330	210.7	2.107
335	215	2.15
335	215.1	2.151
340	219.5	2.195
340	219.5	2.195
345	223.8	2.238
345	223.7	2.237
350	228.1	2.281
350	228	2.28
354.91	232	2.32
355	232	2.32
357.78	234.1	2.341

System: cyclohexanol; phases: Liquid
Fixed: Pressure, kPa = 101.325
Property: Molar heat capacity at constant pressure, J/K/mol (Liquid); method: Large sample (1 g) scanning calorimetry
Temperature, K	Molar heat capacity at constant pressure, J/K/mol	uncertainty
305.05	218.3	2.183
305.18	218.6	2.186
310	223.8	2.238
310	224	2.24
315	229.6	2.296
315	229.7	2.297
320	235.5	2.355
320	235.3	2.353
325	241.3	2.413
325	241.1	2.411
330	246.7	2.467
330	246.8	2.468
335	252	2.52
335	252.2	2.522
340	257.4	2.574
340	257.6	2.576
345	262.8	2.628
345	263	2.63
350	268	2.68
350	268	2.68
355	272.3	2.723
355	272.5	2.725
357.82	274.7	2.747
357.94	274.7	2.747

System: cyclohexanol; phases: Crystal
Fixed: Pressure, kPa = 101.325
Property: Molar heat capacity at constant pressure, J/K/mol (Crystal); method: Large sample (1 g) scanning calorimetry
Temperature, K	Molar heat capacity at constant pressure, J/K/mol	uncertainty
261.42	162.6	1.626
261.48	162.8	1.628
264	164.5	1.645
264	164.7	1.647
267	166.8	1.668
267	167	1.67
270	169.1	1.691
270	169.4	1.694
273	171.7	1.717
273	172	1.72
276	174.5	1.745
276	174.9	1.749
279	177.4	1.774
279	177.9	1.779
282	180.8	1.808
282	181.4	1.814
284.5	184.9	1.849
284.95	184.8	1.848

System: cycloheptanol; phases: Crystal
Fixed: Pressure, kPa = 101.325
Property: Molar heat capacity at constant pressure, J/K/mol (Crystal); method: Large sample (1 g) scanning calorimetry
Temperature, K	Molar heat capacity at constant pressure, J/K/mol	uncertainty
260.59	195.3	1.953
260.73	195.4	1.954
262	196.4	1.964
262	196.5	1.965
264	198	1.98
264	198.1	1.981
266	199.8	1.998
266	199.8	1.998
268	201.8	2.018
268	201.7	2.017
270	204	2.04
270	204	2.04
271.34	205.2	2.052
271.43	205.4	2.054

System: cycloheptanol; phases: Liquid
Fixed: Pressure, kPa = 101.325
Property: Molar heat capacity at constant pressure, J/K/mol (Liquid); method: Large sample (1 g) scanning calorimetry
Temperature, K	Molar heat capacity at constant pressure, J/K/mol	uncertainty
286.01	236.1	2.361
286.13	236.3	2.363
290	240.6	2.406
290	240.6	2.406
295	246.5	2.465
295	246.5	2.465
300	252.3	2.523
300	252.3	2.523
305	258.1	2.581
305	258.2	2.582
310	263.8	2.638
310	263.8	2.638
315	269.4	2.694
315	269.5	2.695
320	274.8	2.748
320	274.9	2.749
325	280.3	2.803
325	280.2	2.802
330	285.3	2.853
330	285.2	2.852
335	289.9	2.899
335	290	2.9
340	294.4	2.944
340	294.4	2.944
345	299.2	2.992
345	299.2	2.992
350	303.6	3.036
350	303.6	3.036
354.82	307.6	3.076
355	307.7	3.077
357.82	309.7	3.097

System: cyclooctanol; phases: Crystal 2, Crystal 1, Air at 1 atmosphere
Property: Triple point temperature, K (Crystal 2); method: DSC/DTA
Triple point temperature, K	uncertainty
263.56	.1

System: cyclooctanol; phases: Crystal 1, Liquid, Air at 1 atmosphere
Property: Triple point temperature, K (Crystal 1); method: DSC/DTA
Triple point temperature, K	uncertainty
296.78	.1

System: cyclooctanol; phases: Crystal 2, Crystal 1, Air at 1 atmosphere
Property: Molar enthalpy of transition or fusion, kJ/mol (Crystal 2); method: DSC
Molar enthalpy of transition or fusion, kJ/mol	uncertainty
2.12	.3

System: cyclooctanol; phases: Crystal 1, Liquid, Air at 1 atmosphere
Property: Molar enthalpy of transition or fusion, kJ/mol (Crystal 1); method: DSC
Molar enthalpy of transition or fusion, kJ/mol	uncertainty
1.91	.3

System: cyclooctanol; phases: Crystal 1
Fixed: Pressure, kPa = 101.325
Property: Molar heat capacity at constant pressure, J/K/mol (Crystal 1); method: Large sample (1 g) scanning calorimetry
Temperature, K	Molar heat capacity at constant pressure, J/K/mol	uncertainty
261.1	235.9	2.359
261.23	236.1	2.361
264	238.7	2.387
264	238.8	2.388
267	241.8	2.418
267	241.9	2.419
270	245.1	2.451
270	245.3	2.453
273	248.9	2.489
273	249	2.49
276	252.7	2.527
276	252.8	2.528
279	256.9	2.569
279	256.9	2.569
282	261.4	2.614
282	261.5	2.615
283.88	264.3	2.643
284.25	265.2	2.652

System: cyclooctanol; phases: Liquid
Fixed: Pressure, kPa = 101.325
Property: Molar heat capacity at constant pressure, J/K/mol (Liquid); method: Large sample (1 g) scanning calorimetry
Temperature, K	Molar heat capacity at constant pressure, J/K/mol	uncertainty
301.94	295.6	2.956
302.06	295.8	2.958
305	299.1	2.991
305	299.1	2.991
310	304.6	3.046
310	304.6	3.046
315	310.1	3.101
315	310	3.1
320	315.1	3.151
320	315.1	3.151
325	320.2	3.202
325	320.2	3.202
330	325	3.25
330	324.9	3.249
335	329.4	3.294
335	329.3	3.293
340	333.7	3.337
340	333.7	3.337
345	338.4	3.384
345	338.3	3.383
350	343	3.43
350	342.9	3.429
355	347.1	3.471
355	347	3.47
357.87	349.1	3.491
357.94	349.1	3.491

System: cyclooctanol; phases: Liquid
Fixed: Pressure, kPa = 101.325
Property: Molar heat capacity at constant pressure, J/K/mol (Liquid); method: Small sample (50 mg) scanning calorimetry
Temperature, K	Molar heat capacity at constant pressure, J/K/mol	uncertainty
318.15	313.1	1
323.14	318.2	1
328.14	323.1	1
333.14	327.7	1
338.14	332.6	1
343.14	337	1
348.13	341.1	1
353.13	345.4	3
358.13	349.5	3
363.12	353.5	3
366.11	355.8	3
369.12	357.9	3
372.13	359.6	3
375.14	361.4	3
378.12	363	3
381.14	364.4	3
384.12	365.8	3
387.13	366.9	3
390.11	367.8	3
393.12	368.7	3
396.14	369.4	3
399.12	370	3
402.13	371	3
405.12	371.6	3
408.13	371.9	3
411.11	372.3	3
414.12	372.6	3
417.13	372.9	3
420.12	373.1	3
423.13	373.2	3
426.11	373.2	3
429.19	373.2	3
432.31	373.2	3
435.12	373.2	3
438.13	373	3
441.14	372.8	3
444.13	372.8	3
447.14	372.7	3
450.12	372.5	3
453.13	372.6	3
456.14	372.6	3
459.13	372.6	3
462.14	373	3
465.12	373.5	3
468.14	374.1	3
471.14	374.6	3
