Measured thermophysical data. Study of molecular interactions in binary liquid mixtures of [Emim][BF4] with 2-methoxyethanol using thermo acoustic, volumetric and optical properties
Source: Thermochim. Acta, 2016, 10.1016/j.tca.2016.02.005
Compound 1: 1-ethyl-3-methylimidazolium tetrafluoroborate, C6H11BF4N2, purity 99%
Compound 2: 2-methoxyethanol, C3H8O2

System: 1-ethyl-3-methylimidazolium tetrafluoroborate; phases: Liquid
Property: Mass density, kg/m3 (Liquid); method: Vibrating tube method
Temperature, K	Pressure, kPa	Mass density, kg/m3	uncertainty
298.15	101.3	1277.6	
308.15	101.3	1269.9	
318.15	101.3	1262.1	
328.15	101.3	1254.6	

System: 1-ethyl-3-methylimidazolium tetrafluoroborate; phases: Liquid
Fixed: Frequency, MHz = 3
Property: Speed of sound, m/s (Liquid); method: Sing-around technique in a fixed-path interferometer
Temperature, K	Pressure, kPa	Speed of sound, m/s	uncertainty
298.15	101.3	1622.9	
308.15	101.3	1599.5	
318.15	101.3	1576.5	
328.15	101.3	1553.8	

System: 1-ethyl-3-methylimidazolium tetrafluoroborate; phases: Liquid
Property: Refractive index (Na D-line) (Liquid); method: Standard Abbe refractometry
Temperature, K	Pressure, kPa	Refractive index (Na D-line)	uncertainty
298.15	101.3	1.4103	
308.15	101.3	1.4077	
318.15	101.3	1.4051	
328.15	101.3	1.4023	

System: 2-methoxyethanol; phases: Liquid
Property: Mass density, kg/m3 (Liquid); method: Vibrating tube method
Temperature, K	Pressure, kPa	Mass density, kg/m3	uncertainty
298.15	101.3	960.9	
308.15	101.3	951.7	
318.15	101.3	942.7	
328.15	101.3	933.4	

System: 2-methoxyethanol; phases: Liquid
Fixed: Frequency, MHz = 3
Property: Speed of sound, m/s (Liquid); method: Sing-around technique in a fixed-path interferometer
Temperature, K	Pressure, kPa	Speed of sound, m/s	uncertainty
298.15	101.3	1345.8	
308.15	101.3	1311.3	
318.15	101.3	1276.4	
328.15	101.3	1241.9	

System: 2-methoxyethanol; phases: Liquid
Property: Refractive index (Na D-line) (Liquid); method: Standard Abbe refractometry
Temperature, K	Pressure, kPa	Refractive index (Na D-line)	uncertainty
298.15	101.3	1.4003	
308.15	101.3	1.3961	
318.15	101.3	1.3917	
328.15	101.3	1.3876	

System: 2-methoxyethanol + 1-ethyl-3-methylimidazolium tetrafluoroborate; phases: Liquid
Fixed: Pressure, kPa = 101.3
Property: Mass density, kg/m3 (Liquid); method: Vibrating tube method
Temperature, K	Mole fraction of 1-ethyl-3-methylimidazolium tetrafluoroborate	Mass density, kg/m3	uncertainty
298.15	0	960.9	
298.15	.0515	993.6	
298.15	.102	1022	
298.15	.1502	1046.9	
298.15	.21	1075	
298.15	.3051	1113.8	
298.15	.3976	1145.5	
298.15	.5036	1175.9	
298.15	.6063	1200.7	
298.15	.701	1220.6	
298.15	.8024	1240.1	
298.15	.8521	1249.4	
298.15	.9	1258.3	
298.15	.9502	1267.8	
298.15	1	1277.6	
308.15	0	951.7	
308.15	.0515	984.6	
308.15	.102	1013.2	
308.15	.1502	1038.3	
308.15	.21	1066.5	
308.15	.3051	1105.5	
308.15	.3976	1137.4	
308.15	.5036	1168	
308.15	.6063	1192.9	
308.15	.701	1212.9	
308.15	.8024	1232.4	
308.15	.8521	1241.7	
308.15	.9	1250.6	
308.15	.9502	1260.2	
308.15	1	1269.9	
318.15	0	942.7	
318.15	.0515	975.9	
318.15	.102	1004.7	
318.15	.1502	1030	
318.15	.21	1058.5	
318.15	.3051	1097.9	
318.15	.3976	1130.1	
318.15	.5036	1160.8	
318.15	.6063	1185.8	
318.15	.701	1205.8	
318.15	.8024	1225.2	
318.15	.8521	1234.4	
318.15	.9	1243.2	
318.15	.9502	1252.5	
318.15	1	1262.1	
328.15	0	933.4	
328.15	.0515	966.8	
328.15	.102	995.8	
328.15	.1502	1021.3	
328.15	.21	1050	
328.15	.3051	1089.6	
328.15	.3976	1122	
328.15	.5036	1152.9	
328.15	.6063	1178	
328.15	.701	1198.1	
328.15	.8024	1217.6	
328.15	.8521	1226.8	
328.15	.9	1235.6	
328.15	.9502	1245	
328.15	1	1254.6	

System: 2-methoxyethanol + 1-ethyl-3-methylimidazolium tetrafluoroborate; phases: Liquid
Fixed: Pressure, kPa = 101.3
Fixed: Frequency, MHz = 3
Property: Speed of sound, m/s (Liquid); method: Sing-around technique in a fixed-path interferometer
Temperature, K	Mole fraction of 1-ethyl-3-methylimidazolium tetrafluoroborate	Speed of sound, m/s	uncertainty
298.15	0	1345.8	
298.15	.0515	1379.1	
298.15	.102	1408.5	
298.15	.1502	1433.7	
298.15	.21	1461.4	
298.15	.3051	1498.3	
298.15	.3976	1526.8	
298.15	.5036	1552.1	
298.15	.6063	1570.9	
298.15	.701	1584.8	
298.15	.8024	1597.7	
298.15	.8521	1603.7	
298.15	.9	1609.6	
298.15	.9502	1616	
298.15	1	1622.9	
308.15	0	1311.3	
308.15	.0515	1345.9	
308.15	.102	1376.4	
308.15	.1502	1402.7	
308.15	.21	1431.6	
308.15	.3051	1470	
308.15	.3976	1499.7	
308.15	.5036	1526.1	
308.15	.6063	1545.8	
308.15	.701	1560.3	
308.15	.8024	1573.6	
308.15	.8521	1579.8	
308.15	.9	1585.9	
308.15	.9502	1592.5	
308.15	1	1599.5	
318.15	0	1276.4	
318.15	.0515	1312.3	
318.15	.102	1344.1	
318.15	.1502	1371.4	
318.15	.21	1401.5	
318.15	.3051	1441.5	
318.15	.3976	1472.5	
318.15	.5036	1500.1	
318.15	.6063	1520.6	
318.15	.701	1535.7	
318.15	.8024	1549.6	
318.15	.8521	1556.1	
318.15	.9	1562.4	
318.15	.9502	1569.2	
318.15	1	1576.5	
328.15	0	1241.9	
328.15	.0515	1279.2	
328.15	.102	1312.1	
328.15	.1502	1340.5	
328.15	.21	1371.7	
328.15	.3051	1413.4	
328.15	.3976	1445.7	
328.15	.5036	1474.5	
328.15	.6063	1495.9	
328.15	.701	1511.7	
328.15	.8024	1526.2	
328.15	.8521	1532.9	
328.15	.9	1539.4	
328.15	.9502	1546.4	
328.15	1	1553.8	

System: 2-methoxyethanol + 1-ethyl-3-methylimidazolium tetrafluoroborate; phases: Liquid
Fixed: Pressure, kPa = 101.3
Property: Refractive index (Na D-line) (Liquid); method: Standard Abbe refractometry
Temperature, K	Mole fraction of 1-ethyl-3-methylimidazolium tetrafluoroborate	Refractive index (Na D-line)	uncertainty
298.15	0	1.4003	
298.15	.0515	1.4031	
298.15	.102	1.4052	
298.15	.1502	1.4067	
298.15	.21	1.408	
298.15	.3051	1.4094	
298.15	.3976	1.4101	
298.15	.5036	1.4107	
298.15	.6063	1.4111	
298.15	.701	1.4115	
298.15	.8024	1.4118	
298.15	.8521	1.4117	
298.15	.9	1.4115	
298.15	.9502	1.4111	
298.15	1	1.4103	
308.15	0	1.3961	
308.15	.0515	1.3991	
308.15	.102	1.4014	
308.15	.1502	1.4031	
308.15	.21	1.4046	
308.15	.3051	1.4061	
308.15	.3976	1.407	
308.15	.5036	1.4077	
308.15	.6063	1.4082	
308.15	.701	1.4087	
308.15	.8024	1.4091	
308.15	.8521	1.4091	
308.15	.9	1.4089	
308.15	.9502	1.4085	
308.15	1	1.4077	
318.15	0	1.3917	
318.15	.0515	1.3951	
318.15	.102	1.3977	
318.15	.1502	1.3996	
318.15	.21	1.4013	
318.15	.3051	1.403	
318.15	.3976	1.4039	
318.15	.5036	1.4047	
318.15	.6063	1.4053	
318.15	.701	1.406	
318.15	.8024	1.4064	
318.15	.8521	1.4065	
318.15	.9	1.4064	
318.15	.9502	1.4059	
318.15	1	1.4051	
328.15	0	1.3876	
328.15	.0515	1.3914	
328.15	.102	1.3943	
328.15	.1502	1.3965	
328.15	.21	1.3983	
328.15	.3051	1.4002	
328.15	.3976	1.4011	
328.15	.5036	1.4018	
328.15	.6063	1.4024	
328.15	.701	1.403	
328.15	.8024	1.4035	
328.15	.8521	1.4036	
328.15	.9	1.4035	
328.15	.9502	1.4031	
328.15	1	1.4023	
