Measured thermophysical data. THE STANDARD ENTHALPIES OF FORMATION OF L-ASPARAGINE AND L-a-  GLUTAMINE
Source: Thermochim. Acta, 2010, 10.1016/j.tca.2009.08.017
Compound 1: oxygen, O2, purity 99.98%
Compound 2: L-asparagine, C4H8N2O3, purity 99.5%
Compound 3: L-asparagine monohydrate, C4H10N2O4, purity 99%
Compound 4: L-glutamine, C5H10N2O3, purity 99%
Compound 5: carbon dioxide, CO2
Compound 6: nitrogen, N2
Compound 7: water, H2O

System: L-asparagine; phases: Crystal, Liquid, Air at 1 atmosphere
Property: Normal melting temperature, K (Crystal); method: DSC/DTA
Normal melting temperature, K	uncertainty
483.35	1.60000000000002

System: L-asparagine; phases: Crystal, Liquid, Gas
Property: Molar enthalpy of transition or fusion, kJ/mol (Crystal); method: DSC/DTA
Molar enthalpy of transition or fusion, kJ/mol	uncertainty
112.48	3.02

System: L-glutamine; phases: Crystal, Liquid, Air at 1 atmosphere
Property: Normal melting temperature, K (Crystal); method: DSC/DTA
Normal melting temperature, K	uncertainty
455.35	1.69999999999999

System: L-glutamine; phases: Crystal, Liquid, Gas
Property: Molar enthalpy of transition or fusion, kJ/mol (Crystal); method: DSC/DTA
Molar enthalpy of transition or fusion, kJ/mol	uncertainty
29	1.8

Reaction: -1 L-asparagine + 4 carbon dioxide + 1 nitrogen + 4 water + -4.5 oxygen
Property: Molar internal energy of reaction at constant volume, kJ/mol
-1927.8

Reaction: -1 L-asparagine monohydrate + 4 carbon dioxide + 1 nitrogen + 5 water + -4.5 oxygen
Property: Molar internal energy of reaction at constant volume, kJ/mol
-1918.9

Reaction: -1 L-glutamine + 5 carbon dioxide + 1 nitrogen + 5 water + -6 oxygen
Property: Molar internal energy of reaction at constant volume, kJ/mol
-2560.6
