Measured thermophysical data. Enthalpic discrimination of position isomerism: pairwise  interaction of piperidinecarboxylic acid isomers in DMSO + H2O  mixtures at 298.15 K
Source: Thermochim. Acta, 2012, 10.1016/j.tca.2012.09.020
Compound 1: hexahydro-2-picolinic acid, C6H11NO2, purity 98%
Compound 2: nipecotic acid, C6H11NO2, purity 98%
Compound 3: hexahydroisonicotinic acid, C6H11NO2, purity 98%
Compound 4: dimethyl sulphoxide, C2H6OS, purity 99%
Compound 5: water, H2O

System: dimethyl sulphoxide + hexahydro-2-picolinic acid + water; phases: Liquid
Fixed: Temperature, K = 298.15
Fixed: Pressure, kPa = 101
Property: Molar enthalpy of dilution, kJ/mol (Liquid); method: Calvet calorimetry
Solvent: Mass fraction of dimethyl sulphoxide	Initial mole fraction of solute	Final mole fraction of solute	Molar enthalpy of dilution, kJ/mol	uncertainty
0	.00149	.00445	-.17422	.00023
0	.00445	.00737	-.1699	-.00003
0	.00737	.01027	-.16534	-.00018
0	.01027	.01314	-.16212	-.00037
0	.01314	.01597	-.15751	.00005
0	.01597	.01878	-.15444	-.00015
0	.01878	.02156	-.15179	.00052
0	.02156	.02431	-.14812	-.00003
0	.02431	.02703	-.14572	.00025
0	.02703	.02971	-.14262	-.00007
0	.02971	.03237	-.13966	.0005
0	.03237	.035	-.13736	.00043
0	.035	.0376	-.13353	.00111
0	.0376	.04017	-.13202	-.00007
0	.04017	.04271	-.12918	.0002
0	.04271	.04522	-.12358	-.00106
0	.04522	.0477	-.12423	.0003
0	.0477	.05015	-.11951	.00015
0	.05015	.05257	-.11934	.00023
.0503	.00148	.00443	-.16618	.00031
.0503	.00443	.00734	-.16247	.00006
.0503	.00734	.01023	-.15936	-.0004
.0503	.01023	.01308	-.15623	-.00043
.0503	.01308	.01591	-.15264	-.00005
.0503	.01591	.01871	-.15058	-.00047
.0503	.01871	.02147	-.14748	-.00045
.0503	.02147	.02421	-.14513	-.00081
.0503	.02421	.02692	-.14189	-.00004
.0503	.02692	.0296	-.13969	-.00079
.0503	.0296	.03225	-.13644	-.00054
.0503	.03225	.03486	-.13384	-.00058
.0503	.03486	.03745	-.13096	-.00031
.0503	.03745	.04001	-.12915	-.00078
.0503	.04001	.04254	-.12656	-.00065
.0503	.04254	.04504	-.12388	-.00051
.0503	.04504	.04751	-.12133	-.0005
.0503	.04751	.04996	-.11882	-.00048
.0503	.04996	.05237	-.11723	-.00049
.1	.00149	.00444	-.13997	.00023
.1	.00444	.00737	-.15151	.00068
.1	.00737	.01026	-.14776	.00053
.1	.01026	.01313	-.14435	.00017
.1	.01313	.01596	-.14079	.00022
.1	.01596	.01877	-.13828	.00008
.1	.01877	.02154	-.13499	.00038
.1	.02154	.02429	-.13301	.00032
.1	.02429	.02701	-.13051	.00061
.1	.02701	.02969	-.12808	.00047
.1	.02969	.03235	-.12545	.00036
.1	.03235	.03498	-.12309	.0002
.1	.03498	.03758	-.1207	.00059
.1	.03758	.04014	-.11874	.00073
.1	.04014	.04268	-.11638	.00075
.1	.04268	.04519	-.1143	.00084
.1	.04519	.04767	-.11219	.00073
.1	.04767	.05012	-.10984	.00076
.1	.05012	.05254	-.10823	.0007
.1509	.00224	.0067	-.21273	.00005
.1509	.0067	.01111	-.20943	-.00001
.1509	.01111	.01548	-.20467	-.00064
.1509	.01548	.0198	-.20017	-.00087
.1509	.0198	.02408	-.19593	-.00024
.1509	.02408	.02831	-.19238	-.00041
.1509	.02831	.0325	-.18911	-.0001
.1509	.0325	.03664	-.18515	-.00031
.1509	.03664	.04074	-.18177	-.0004
.1509	.04074	.04479	-.17833	-.00033
.1509	.04479	.0488	-.17529	-.00019
.1509	.0488	.05276	-.17177	-.00064
.1509	.05276	.05668	-.16863	-.00105
.1509	.05668	.06055	-.16512	-.00083
.1509	.06055	.06438	-.16196	-.00097
.1509	.06438	.06816	-.15893	-.00104
.1509	.06816	.0719	-.15694	-.00042
.1509	.0719	.0756	-.15344	-.00065
.1509	.0756	.07925	-.15084	-.00072
.1999	.00224	.00669	-.20707	.00039
.1999	.00669	.01109	-.20261	.00019
.1999	.01109	.01544	-.19833	.00004
.1999	.01544	.01976	-.19267	.00032
.1999	.01976	.02402	-.18953	-.00003
.1999	.02402	.02825	-.18432	.00052
.1999	.02825	.03242	-.18068	.00043
.1999	.03242	.03656	-.17692	.00075
.1999	.03656	.04065	-.17338	.00035
.1999	.04065	.04469	-.16956	.00003
.1999	.04469	.04869	-.16634	.00016
.1999	.04869	.05264	-.16358	.00027
.1999	.05264	.05655	-.16044	.00026
.1999	.05655	.06042	-.15731	-.00004
.1999	.06042	.06424	-.1538	.00035
.1999	.06424	.06801	-.15123	-.00014
.1999	.06801	.07174	-.14809	.00044
.1999	.07174	.07543	-.14436	.00039
.1999	.07543	.07907	-.14221	-.00008
.2501	.00248	.0074	-.23456	.00148
.2501	.0074	.01227	-.22019	.00026
.2501	.01227	.01709	-.2226	-.00016
.2501	.01709	.02186	-.21824	-.00045
.2501	.02186	.02658	-.21234	-.00058
.2501	.02658	.03125	-.20892	-.00036
.2501	.03125	.03587	-.20526	-.00011
.2501	.03587	.04044	-.20113	.00009
.2501	.04044	.04497	-.19759	-.0002
.2501	.04497	.04944	-.19373	-.00032
.2501	.04944	.05386	-.18928	-.00037
.2501	.05386	.05824	-.18618	-.00059
.2501	.05824	.06256	-.18217	-.00092
.2501	.06256	.06684	-.17935	-.00063
.2501	.06684	.07106	-.1759	-.00005
.2501	.07106	.07524	-.17259	-.00036
.2501	.07524	.07937	-.16965	-.00068
.2501	.07937	.08344	-.16693	-.00041
.2501	.08344	.08747	-.16296	-.00054
.3002	.00248	.00741	-.21948	-.00274
.3002	.00741	.01229	-.21547	-.00283
.3002	.01229	.01712	-.21022	-.00237
.3002	.01712	.0219	-.20524	-.00236
.3002	.0219	.02663	-.19958	-.00166
.3002	.02663	.03131	-.19581	-.0015
.3002	.03131	.03594	-.19285	-.00139
.3002	.03594	.04052	-.18818	-.00137
.3002	.04052	.04505	-.1841	-.00136
.3002	.04505	.04954	-.1808	-.0014
.3002	.04954	.05397	-.17655	-.00125
.3002	.05397	.05835	-.17422	-.00144
.3002	.05835	.06268	-.17042	-.00124
.3002	.06268	.06697	-.16664	-.00105
.3002	.06697	.0712	-.16503	-.00162
.3002	.0712	.07539	-.16084	-.0014
.3002	.07539	.07952	-.1576	-.00155
.3002	.07952	.08361	-.15442	-.00081
.3002	.08361	.08764	-.1511	-.00146

System: dimethyl sulphoxide + nipecotic acid + water; phases: Liquid
Fixed: Temperature, K = 298.15
Fixed: Pressure, kPa = 101
Property: Molar enthalpy of dilution, kJ/mol (Liquid); method: Calvet calorimetry
Solvent: Mass fraction of dimethyl sulphoxide	Initial mole fraction of solute	Final mole fraction of solute	Molar enthalpy of dilution, kJ/mol	uncertainty
.0503	.00149	.00445	-.20916	.00026
.0503	.00445	.00738	-.19893	-.00153
.0503	.00738	.01029	-.18506	-.00219
.0503	.01029	.01316	-.17767	-.00166
.0503	.01316	.016	-.17189	-.00179
.0503	.016	.01881	-.16762	-.00213
.0503	.01881	.02159	-.16233	-.00195
.0503	.02159	.02435	-.15714	-.00204
.0503	.02435	.02707	-.15238	-.0021
.0503	.02707	.02976	-.14882	-.00155
.0503	.02976	.03242	-.14486	-.0016
.0503	.03242	.03506	-.14189	-.00169
.0503	.03506	.03766	-.13825	-.00203
.0503	.03766	.04023	-.13549	-.00195
.0503	.04023	.04278	-.1319	-.00247
.0503	.04278	.04529	-.12911	-.00314
.0503	.04529	.04778	-.12608	-.00283
.0503	.04778	.05023	-.12362	-.00254
.0503	.05023	.05266	-.12094	-.00239
.1	.00174	.00519	-.19421	.00046
.1	.00519	.00861	-.20396	.00009
.1	.00861	.01199	-.18584	.00113
.1	.01199	.01534	-.17912	-.00023
.1	.01534	.01865	-.17323	.00042
.1	.01865	.02193	-.16711	.001
.1	.02193	.02517	-.16248	-.00007
.1	.02517	.02838	-.15757	.00028
.1	.02838	.03156	-.15297	.00074
.1	.03156	.0347	-.14948	-.0002
.1	.0347	.0378	-.14529	.00016
.1	.0378	.04087	-.14234	-.00019
.1	.04087	.04391	-.13764	.00081
.1	.04391	.04691	-.1353	.00021
.1	.04691	.04987	-.13156	.00091
.1	.04987	.0528	-.12819	.00146
.1	.0528	.0557	-.12548	.00086
.1	.0557	.05856	-.12403	-.00014
.1	.05856	.06139	-.11993	.00111
.1509	.00224	.00669	-.23032	-.00187
.1509	.00669	.01109	-.21155	-.00152
.1509	.01109	.01544	-.19981	-.00035
.1509	.01544	.01976	-.1925	-.00115
.1509	.01976	.02402	-.18591	-.00068
.1509	.02402	.02825	-.17968	-.00127
.1509	.02825	.03242	-.17455	-.00076
.1509	.03242	.03656	-.17059	-.00049
.1509	.03656	.04065	-.16695	-.00032
.1509	.04065	.04469	-.1637	-.00073
.1509	.04469	.04869	-.15994	-.00098
.1509	.04869	.05264	-.15647	-.00137
.1509	.05264	.05655	-.15292	-.00244
.1509	.05655	.06042	-.15043	-.00244
.1509	.06042	.06424	-.14831	-.00188
.1509	.06424	.06801	-.14506	-.00168
.1509	.06801	.07174	-.14274	-.00203
.1509	.07174	.07543	-.13996	-.00203
.1509	.07543	.07907	-.13743	-.00246
.1999	.00224	.00669	-.23562	.00082
.1999	.00669	.0111	-.22307	.00063
.1999	.0111	.01546	-.21267	.00032
.1999	.01546	.01977	-.20593	-.00009
.1999	.01977	.02404	-.20006	-.00012
.1999	.02404	.02827	-.19444	-.00011
.1999	.02827	.03245	-.18928	.00003
.1999	.03245	.03658	-.18488	.00014
.1999	.03658	.04068	-.18059	.00006
.1999	.04068	.04472	-.17608	.00029
.1999	.04472	.04872	-.17206	.00015
.1999	.04872	.05268	-.16933	.00014
.1999	.05268	.05659	-.16562	-.00005
.1999	.05659	.06046	-.16223	-.00002
.1999	.06046	.06428	-.15904	-.00012
.1999	.06428	.06806	-.1558	-.00041
.1999	.06806	.07179	-.15303	-.00064
.1999	.07179	.07548	-.14973	-.0006
.1999	.07548	.07913	-.14593	-.00071
.2501	.00223	.00667	-.25656	-.00121
.2501	.00667	.01106	-.23277	-.00031
.2501	.01106	.0154	-.21271	-.00055
.2501	.0154	.0197	-.20792	-.00059
.2501	.0197	.02396	-.19954	-.00123
.2501	.02396	.02817	-.19435	-.00114
.2501	.02817	.03234	-.19014	-.00133
.2501	.03234	.03646	-.1852	-.00076
.2501	.03646	.04054	-.18163	-.00121
.2501	.04054	.04457	-.17837	-.0013
.2501	.04457	.04856	-.17395	-.00085
.2501	.04856	.0525	-.17078	-.00057
.2501	.0525	.0564	-.16831	-.00192
.2501	.0564	.06025	-.16399	-.00093
.2501	.06025	.06406	-.16067	-.0008
.2501	.06406	.06783	-.15732	-.00078
.2501	.06783	.07155	-.15475	-.00087
.2501	.07155	.07523	-.15148	-.00063
.2501	.07523	.07886	-.14814	-.0013
.3002	.00223	.00666	-.20702	0
.3002	.00666	.01104	-.20538	-.00001
.3002	.01104	.01538	-.19036	-.00001
.3002	.01538	.01967	-.183	-.00001
.3002	.01967	.02392	-.17743	-.00001
.3002	.02392	.02812	-.17275	-.00001
.3002	.02812	.03228	-.16815	-.00001
.3002	.03228	.0364	-.16394	-.00001
.3002	.0364	.04047	-.15993	0
.3002	.04047	.0445	-.15665	0
.3002	.0445	.04848	-.15266	0
.3002	.04848	.05241	-.14948	0
.3002	.05241	.05631	-.14677	0
.3002	.05631	.06016	-.14349	0
.3002	.06016	.06396	-.1399	0
.3002	.06396	.06772	-.13787	-.00001
.3002	.06772	.07143	-.13388	-.00002
.3002	.07143	.0751	-.12933	0
.3002	.0751	.07873	-.12765	-.00001
0	.00124	.0037	-.18066	-.00083
0	.0037	.00614	-.17496	-.0009
0	.00614	.00856	-.16775	-.00111
0	.00856	.01095	-.16224	-.00083
0	.01095	.01331	-.15686	-.00022
0	.01331	.01565	-.15253	-.0004
0	.01565	.01796	-.14802	-.00057
0	.01796	.02025	-.14451	-.00122
0	.02025	.02252	-.13968	-.00083
0	.02252	.02476	-.13634	-.00135
0	.02476	.02697	-.13295	-.00078
0	.02697	.02917	-.13014	-.00115
0	.02917	.03133	-.12667	-.00246
0	.03133	.03347	-.12341	-.00195
0	.03347	.03559	-.12051	-.00133
0	.03559	.03768	-.11791	-.00209
0	.03768	.03975	-.11582	-.00234
0	.03975	.04179	-.11023	.00085
0	.04179	.04381	-.11153	-.00249

System: dimethyl sulphoxide + hexahydroisonicotinic acid + water; phases: Liquid
Fixed: Temperature, K = 298.15
Fixed: Pressure, kPa = 101
Property: Molar enthalpy of dilution, kJ/mol (Liquid); method: Calvet calorimetry
Solvent: Mass fraction of dimethyl sulphoxide	Initial mole fraction of solute	Final mole fraction of solute	Molar enthalpy of dilution, kJ/mol	uncertainty
0	.00198	.00592	-.23149	.00028
0	.00592	.00982	-.23275	.00017
0	.00982	.01368	-.22968	.00021
0	.01368	.01749	-.22454	-.00003
0	.01749	.02127	-.21857	-.00048
0	.02127	.02501	-.21401	-.00008
0	.02501	.02871	-.21051	-.00022
0	.02871	.03237	-.20546	-.00023
0	.03237	.03599	-.20138	.00001
0	.03599	.03957	-.19654	.00018
0	.03957	.04311	-.1924	.00004
0	.04311	.04662	-.18737	.00033
0	.04662	.05008	-.18382	.00011
0	.05008	.0535	-.17911	.0003
0	.0535	.05688	-.1747	.00018
0	.05688	.06023	-.17101	.00018
0	.06023	.06353	-.16738	.00041
0	.06353	.06679	-.1628	-.00057
0	.06679	.07002	-.15901	-.00019
.0503	.00149	.00445	-.17076	.00054
.0503	.00445	.00738	-.17611	.00023
.0503	.00738	.01028	-.17367	-.00024
.0503	.01028	.01315	-.1701	-.00067
.0503	.01315	.01599	-.16591	-.00017
.0503	.01599	.0188	-.16241	.00019
.0503	.0188	.02158	-.15859	.00021
.0503	.02158	.02434	-.15557	.0003
.0503	.02434	.02706	-.15179	.00029
.0503	.02706	.02975	-.14873	.00027
.0503	.02975	.03241	-.14532	.00042
.0503	.03241	.03504	-.14272	.00031
.0503	.03504	.03765	-.13964	.00042
.0503	.03765	.04022	-.13643	.00044
.0503	.04022	.04276	-.1335	.00054
.0503	.04276	.04528	-.13118	.00052
.0503	.04528	.04776	-.12858	.00066
.0503	.04776	.05021	-.1256	.00065
.0503	.05021	.05264	-.12289	-.00015
.1	.00174	.00519	-.17537	-.00139
.1	.00519	.00861	-.19819	-.00126
.1	.00861	.01199	-.19262	-.00144
.1	.01199	.01533	-.18768	-.00144
.1	.01533	.01864	-.18259	-.00098
.1	.01864	.02192	-.17906	-.0012
.1	.02192	.02516	-.17513	-.00113
.1	.02516	.02837	-.17111	-.00103
.1	.02837	.03155	-.16758	-.00107
.1	.03155	.03468	-.1643	-.00124
.1	.03468	.03779	-.16102	-.00127
.1	.03779	.04086	-.15809	-.00137
.1	.04086	.04389	-.15432	-.00116
.1	.04389	.04689	-.15155	-.00124
.1	.04689	.04985	-.14838	-.00117
.1	.04985	.05278	-.14538	-.00144
.1	.05278	.05568	-.14247	-.0015
.1	.05568	.05854	-.13976	-.00239
.1	.05854	.06137	-.13685	-.0017
.1509	.00223	.00667	-.25274	.00048
.1509	.00667	.01106	-.24522	.0005
.1509	.01106	.01541	-.23862	.0002
.1509	.01541	.01971	-.23213	.00033
.1509	.01971	.02397	-.22678	.00036
.1509	.02397	.02818	-.22206	-.00007
.1509	.02818	.03235	-.21691	-.0005
.1509	.03235	.03647	-.21301	-.00024
.1509	.03647	.04055	-.20832	.00008
.1509	.04055	.04458	-.20401	.00025
.1509	.04458	.04857	-.19966	-.00021
.1509	.04857	.05252	-.19556	-.00003
.1509	.05252	.05642	-.19163	.00013
.1509	.05642	.06027	-.18783	.00025
.1509	.06027	.06408	-.18396	.00049
.1509	.06408	.06785	-.1805	.00074
.1509	.06785	.07157	-.17718	.00071
.1509	.07157	.07525	-.1726	.00012
.1509	.07525	.07888	-.16717	.0009
.1999	.00224	.00669	-.26583	-.00011
.1999	.00669	.01109	-.26323	-.00002
.1999	.01109	.01545	-.25661	.00023
.1999	.01545	.01977	-.25001	.00007
.1999	.01977	.02404	-.24247	.00007
.1999	.02404	.02826	-.23733	-.00018
.1999	.02826	.03244	-.23196	-.00018
.1999	.03244	.03658	-.22709	.00005
.1999	.03658	.04067	-.22267	-.00018
.1999	.04067	.04471	-.21803	-.00022
.1999	.04471	.04871	-.21314	-.00009
.1999	.04871	.05267	-.21002	-.00034
.1999	.05267	.05658	-.20497	-.00026
.1999	.05658	.06045	-.2008	-.00013
.1999	.06045	.06427	-.19637	-.00012
.1999	.06427	.06805	-.19216	.00007
.1999	.06805	.07178	-.18819	.00007
.1999	.07178	.07547	-.1841	-.00006
.1999	.07547	.07911	-.18007	.00001
.2501	.00223	.00667	-.25809	.00172
.2501	.00667	.01106	-.24984	.00071
.2501	.01106	.0154	-.24459	.00111
.2501	.0154	.0197	-.23921	.00098
.2501	.0197	.02396	-.23175	.0004
.2501	.02396	.02817	-.2268	.00023
.2501	.02817	.03234	-.22125	.0002
.2501	.03234	.03646	-.21607	-.00011
.2501	.03646	.04054	-.21166	.00031
.2501	.04054	.04457	-.2078	.00036
.2501	.04457	.04856	-.20367	.00076
.2501	.04856	.0525	-.19953	.00029
.2501	.0525	.0564	-.19436	-.00037
.2501	.0564	.06026	-.19016	.00023
.2501	.06026	.06407	-.18666	.00045
.2501	.06407	.06783	-.18292	.00066
.2501	.06783	.07155	-.17993	.00039
.2501	.07155	.07523	-.17616	.00019
.2501	.07523	.07886	-.17194	-.00013
.3002	.00222	.00664	-.26521	.00229
.3002	.00664	.01101	-.26806	.00259
.3002	.01101	.01534	-.26384	.00197
.3002	.01534	.01962	-.25904	.00241
.3002	.01962	.02386	-.25348	.00243
.3002	.02386	.02806	-.2475	.00333
.3002	.02806	.03221	-.24328	.00316
.3002	.03221	.03631	-.23857	.00303
.3002	.03631	.04037	-.23412	.00294
.3002	.04037	.04439	-.2302	.0029
.3002	.04439	.04836	-.22534	.00299
.3002	.04836	.05229	-.22183	.00298
.3002	.05229	.05617	-.21759	.00319
.3002	.05617	.06001	-.21379	.00323
.3002	.06001	.06381	-.2099	.00325
.3002	.06381	.06756	-.20591	.00326
.3002	.06756	.07126	-.20231	.00312
.3002	.07126	.07492	-.19888	.00291
.3002	.07492	.07854	-.19416	.00313
