Measured thermophysical data. Thermodynamic investigation of several natural polyols ( IV): Heat capacities and  thermodynamic properties of adonitol
Source: Thermochim. Acta, 2010, 10.1016/j.tca.2009.11.011
Compound 1: ribitol, C5H12O5, purity 99%
Compound 2: carbon dioxide, CO2
Compound 3: water, H2O
Compound 4: oxygen, O2

System: ribitol; phases: Crystal, Liquid, Air at 1 atmosphere
Property: Normal melting temperature, K (Crystal); method: Adiabatic calorimetry
Normal melting temperature, K	uncertainty
369.08	.45

System: ribitol; phases: Crystal, Liquid, Air at 1 atmosphere
Property: Normal melting temperature, K (Crystal); method: DSC/DTA
Normal melting temperature, K	uncertainty
373.61	.55

System: ribitol; phases: Crystal, Liquid, Air at 1 atmosphere
Property: Molar enthalpy of transition or fusion, kJ/mol (Crystal); method: Adiabatic calorimetry
Molar enthalpy of transition or fusion, kJ/mol	uncertainty
36.42	.18

System: ribitol; phases: Crystal, Liquid, Air at 1 atmosphere
Property: Molar enthalpy of transition or fusion, kJ/mol (Crystal); method: DSC/DTA
Molar enthalpy of transition or fusion, kJ/mol	uncertainty
38.89	1.17

System: ribitol; phases: Crystal
Fixed: Pressure, kPa = 101.325
Property: Molar heat capacity at constant pressure, J/K/mol (Crystal); method: Vacuum adiabatic calorimetry
Temperature, K	Molar heat capacity at constant pressure, J/K/mol	uncertainty
77.37	68.15	.1363
79.8	70.03	.14006
82.99	73.22	.14644
85.94	76.92	.15384
88.87	79.98	.15996
91.78	83.35	.1667
94.7	86.4	.1728
97.63	89.1	.1782
100.5	91.85	.1837
104.38	94.59	.18918
108.28	97.79	.19558
111.18	100.2	.2004
114.11	102.6	.2052
117.08	104.8	.2096
120.03	107.1	.2142
122.98	109.2	.2184
125.92	111.5	.223
128.87	113.3	.2266
131.84	115.4	.2308
134.81	117.3	.2346
137.78	119.1	.2382
140.75	120.6	.2412
143.72	122.4	.2448
146.7	124.5	.249
149.68	126.7	.2534
153.5	128.9	.2578
157.28	131.5	.263
160.22	133.5	.267
163.2	134.9	.2698
166.15	136.4	.2728
169.13	138.3	.2766
172.13	140.2	.2804
175.11	142.4	.2848
178.06	144.1	.2882
181.04	145.9	.2918
184.05	147.8	.2956
187.03	150	.3
189.99	152.6	.3052
192.98	154.6	.3092
196	155.9	.3118
198.99	159	.318
202.62	160.1	.3202
206.24	162.5	.325
209.2	165.1	.3302
212.15	166.3	.3326
215.14	169.2	.3384
218.19	170.8	.3416
221.21	172.3	.3446
224.19	174.9	.3498
227.15	175.7	.3514
230.23	177.6	.3552
233.3	179.2	.3584
236.35	181.6	.3632
239.36	183.9	.3678
242.92	186.4	.3728
246.43	188.4	.3768
249.37	189.9	.3798
252.4	191.9	.3838
255.42	192.9	.3858
258.42	194.1	.3882
261.4	198	.396
264.36	200.6	.4012
267.31	201.7	.4034
270.32	203.2	.4064
273.41	206.9	.4138
276.48	208.2	.4164
279.54	210.6	.4212
282.58	213.8	.4276
285.6	216	.432
288.58	217.3	.4346
291.56	218.1	.4362
294.56	219.3	.4386
297.55	222.2	.4444
300.53	222.4	.4448
303.51	223.6	.4472
306.47	225.5	.451
309.5	227.4	.4548
312.61	230	.46
315.71	232.1	.4642
318.8	233.7	.4674
321.88	235.5	.471
324.94	237.9	.4758
328.01	240.6	.4812
331.06	242.8	.4856
334.1	245.2	.4904
337.12	248.7	.4974
340.22	251.5	.503
343.38	254.6	.5092
346.52	259.5	.519
349.66	265.5	.531
352.78	272.2	.5444
355.85	284.5	.569
358.91	308.1	.6162
361.86	367.7	.7354
364.5	567.4	1.1348
366.41	1294	2.588
367.4	3308	6.616
367.84	6797	13.594
368.16	10958	21.916
368.45	15481	30.962
368.6	19618	39.236
368.74	23979	47.958
368.76	24488	48.976
368.87	31362	62.724
368.93	38018	76.036
368.98	44286	88.572
369.02	49539	99.078
369.04	57525	115.05

System: ribitol; phases: Liquid
Fixed: Pressure, kPa = 101.325
Property: Molar heat capacity at constant pressure, J/K/mol (Liquid); method: Vacuum adiabatic calorimetry
Temperature, K	Molar heat capacity at constant pressure, J/K/mol	uncertainty
369.08	83380	166.76
369.1	53727	107.454
369.22	1039	2.078
371.61	423.8	.8476
374.59	424.8	.8496
377.7	425.4	.8508
380.8	426.2	.8524
383.91	427.2	.8544
387.04	428.2	.8564
390.17	429.3	.8586
393.32	430.4	.8608
396.47	431.2	.8624

System: ribitol; phases: Crystal 1
Fixed: Pressure, kPa = 101.325
Property: Molar heat capacity at constant pressure, J/K/mol (Crystal 1); method: Vacuum adiabatic calorimetry
Temperature, K	Molar heat capacity at constant pressure, J/K/mol	uncertainty
80	71.61	.14322
85	75.96	.15192
90	80.51	.16102
95	85.14	.17028
100	89.77	.17954
105	94.33	.18866
110	98.76	.19752
115	103	.206
120	107.1	.2142
125	111	.222
130	114.7	.2294
135	118.2	.2364
140	121.5	.243
145	124.7	.2494
150	127.8	.2556
155	130.8	.2616
160	133.6	.2672
165	136.5	.273
170	139.3	.2786
175	142.2	.2844
180	145.1	.2902
185	148	.296
190	151	.302
195	154.1	.3082
200	157.2	.3144
205	160.5	.321
210	163.8	.3276
215	167.2	.3344
220	170.7	.3414
225	174.2	.3484
230	177.8	.3556
235	181.4	.3628
240	185	.37
245	188.6	.3772
250	192.1	.3842
255	195.6	.3912
260	198.9	.3978
265	202.1	.4042
270	205.2	.4104
275	208.2	.4164
280	211	.422
285	213.8	.4276
290	216.4	.4328
295	218.9	.4378
298.15	220.4	.4408
300	221.4	.4428
305	223.9	.4478
310	226.6	.4532
315	229.5	.459
320	232.7	.4654
325	236.5	.473
330	241	.482
335	246.5	.493
340	253.2	.5064
345	261.3	.5226
350	271.4	.5428
355	283.6	.5672
360	298.6	.5972

System: ribitol; phases: Crystal 1
Fixed: Pressure, kPa = 101.325
Property: Molar enthalpy, kJ/mol (Crystal 1); method: Vacuum adiabatic calorimetry
Temperature, K	Molar enthalpy, kJ/mol	uncertainty
80	-32.93	-.06586
85	-32.56	-.06512
90	-32.17	-.06434
95	-31.76	-.06352
100	-31.32	-.06264
105	-30.86	-.06172
110	-30.38	-.06076
115	-29.87	-.05974
120	-29.35	-.0587
125	-28.8	-.0576
130	-28.24	-.05648
135	-27.66	-.05532
140	-27.06	-.05412
145	-26.44	-.05288
150	-25.81	-.05162
155	-25.16	-.05032
160	-24.5	-.049
165	-23.83	-.04766
170	-23.14	-.04628
175	-22.43	-.04486
180	-21.72	-.04344
185	-20.98	-.04196
190	-20.24	-.04048
195	-19.47	-.03894
200	-18.7	-.0374
205	-17.9	-.0358
210	-17.09	-.03418
215	-16.26	-.03252
220	-15.42	-.03084
225	-14.56	-.02912
230	-13.68	-.02736
235	-12.78	-.02556
240	-11.86	-.02372
245	-10.93	-.02186
250	-9.976	-.019952
255	-9.007	-.018014
260	-8.02	-.01604
265	-7.018	-.014036
270	-5.999	-.011998
275	-4.966	-.009932
280	-3.917	-.007834
285	-2.855	-.00571
290	-1.78	-.00356
295	-.692	-.001384
298.15	0	0
300	.409	.000818
305	1.522	.003044
310	2.648	.005296
315	3.788	.007576
320	4.943	.009886
325	6.116	.012232
330	7.31	.01462
335	8.528	.017056
340	9.777	.019554
345	11.06	.02212
350	12.39	.02478
355	13.78	.02756
360	15.23	.03046

System: ribitol; phases: Crystal 1
Fixed: Pressure, kPa = 101.325
Property: Molar entropy, J/K/mol (Crystal 1); method: Vacuum adiabatic calorimetry
Temperature, K	Molar entropy, J/K/mol	uncertainty
80	-178.05	-.3561
85	-173.6	-.3472
90	-169.11	-.33822
95	-164.6	-.3292
100	-160.07	-.32014
105	-155.55	-.3111
110	-151.03	-.30206
115	-146.53	-.29306
120	-142.06	-.28412
125	-137.61	-.27522
130	-133.2	-.2664
135	-128.82	-.25764
140	-124.47	-.24894
145	-120.17	-.24034
150	-115.91	-.23182
155	-111.69	-.22338
160	-107.5	-.215
165	-103.36	-.20672
170	-99.25	-.1985
175	-95.17	-.19034
180	-91.12	-.18224
185	-87.1	-.1742
190	-83.11	-.16622
195	-79.14	-.15828
200	-75.19	-.15038
205	-71.26	-.14252
210	-67.34	-.13468
215	-63.44	-.12688
220	-59.55	-.1191
225	-55.66	-.11132
230	-51.79	-.10358
235	-47.92	-.09584
240	-44.06	-.08812
245	-40.21	-.08042
250	-36.37	-.07274
255	-32.53	-.06506
260	-28.71	-.05742
265	-24.9	-.0498
270	-21.1	-.0422
275	-17.31	-.03462
280	-13.54	-.02708
285	-9.784	-.019568
290	-6.048	-.012096
295	-2.332	-.004664
298.15	0	0
300	1.366	.002732
305	5.045	.01009
310	8.709	.017418
315	12.36	.02472
320	16	.032
325	19.64	.03928
330	23.29	.04658
335	26.96	.05392
340	30.67	.06134
345	34.42	.06884
350	38.25	.0765
355	42.18	.08436
360	46.24	.09248

System: ribitol; phases: Liquid
Fixed: Pressure, kPa = 101.325
Property: Molar heat capacity at constant pressure, J/K/mol (Liquid); method: Vacuum adiabatic calorimetry
Temperature, K	Molar heat capacity at constant pressure, J/K/mol	uncertainty
375	424.6	.8492
380	426.2	.8524
385	427.7	.8554
390	429.2	.8584
395	430.8	.8616
400	432.3	.8646

System: ribitol; phases: Liquid
Fixed: Pressure, kPa = 101.325
Property: Molar enthalpy, kJ/mol (Liquid); method: Vacuum adiabatic calorimetry
Temperature, K	Molar enthalpy, kJ/mol	uncertainty
375	53.65	.1073
380	55.78	.11156
385	57.92	.11584
390	60.06	.12012
395	62.21	.12442
400	64.37	.12874

System: ribitol; phases: Liquid
Fixed: Pressure, kPa = 101.325
Property: Molar entropy, J/K/mol (Liquid); method: Vacuum adiabatic calorimetry
Temperature, K	Molar entropy, J/K/mol	uncertainty
375	150.3	.3006
380	156	.312
385	161.5	.323
390	167.1	.3342
395	172.6	.3452
400	178	.356

Reaction: -1 ribitol + 5 carbon dioxide + 6 water + -5.5 oxygen
Property: Specific internal energy of reaction at constant volume, J/g
-2561.2
