Measured thermophysical data. The slow molecular dynamics in amorphous probucol
Source: Thermochim. Acta, 2014, 10.1016/j.tca.2014.09.007
Compound 1: probucol, C31H48O2S2, purity 98%

System: probucol; phases: Crystal, Liquid, Air at 1 atmosphere
Property: Normal melting temperature, K (Crystal); method: DSC/DTA
Normal melting temperature, K	uncertainty
399.05	

System: probucol; phases: Crystal, Liquid, Air at 1 atmosphere
Property: Molar enthalpy of transition or fusion, kJ/mol (Crystal); method: DSC
Molar enthalpy of transition or fusion, kJ/mol	uncertainty
31.992620078	

System: probucol; phases: Glass, Liquid, Air at 1 atmosphere
Property: Triple point temperature, K (Glass); method: DSC/DTA
Triple point temperature, K	uncertainty
298.15	2
