Measured thermophysical data. Isobaric phase equilibrium of morpholine + 1-decanol, volumetric properties and molar refractivity from 293.15 to 333.15 K of morpholine + 1-decanol and 1-octanol + toluene system with applications of Prigogine-Flory-Patterson theory
Source: Thermochim. Acta, 2017, 10.1016/j.tca.2016.12.010
Compound 1: morpholine, C4H9NO, purity 99.0%
Compound 2: 1-decanol, C10H22O, purity 98.0%
Compound 3: toluene, C7H8, purity 99.5%
Compound 4: 1-octanol, C8H18O, purity 99.0%

System: morpholine; phases: Liquid, Gas
Property: Vapor or sublimation pressure, kPa (Liquid); method: Ebulliometric method (Recirculating still)
Temperature, K	Vapor or sublimation pressure, kPa	uncertainty
343.91	13.32	
372.25	39.99	
387.57	66.66	
398.92	94.9	

System: morpholine; phases: Liquid
Property: Mass density, kg/m3 (Liquid); method: Vibrating tube method
Temperature, K	Pressure, kPa	Mass density, kg/m3	uncertainty
293.15	94.9	999.54	
303.15	94.9	989.89	
313.15	94.9	979.82	
323.15	94.9	969.78	
333.15	94.9	959.74	

System: morpholine; phases: Liquid
Property: Refractive index (Na D-line) (Liquid); method: (Schmidt +Haensch) refractometer (Model DSR lambda)
Temperature, K	Pressure, kPa	Refractive index (Na D-line)	uncertainty
293.15	94.9	1.45453	
303.15	94.9	1.45031	
313.15	94.9	1.44574	
323.15	94.9	1.44113	
333.15	94.9	1.43562	

System: 1-decanol; phases: Liquid, Gas
Property: Vapor or sublimation pressure, kPa (Liquid); method: Ebulliometric method (Recirculating still)
Temperature, K	Vapor or sublimation pressure, kPa	uncertainty
436.56	13.32	
469.52	39.99	
487.85	66.66	
501.05	94.9	

System: 1-decanol; phases: Liquid
Property: Mass density, kg/m3 (Liquid); method: Vibrating tube method
Temperature, K	Pressure, kPa	Mass density, kg/m3	uncertainty
293.15	94.9	830.01	
303.15	94.9	823.54	
313.15	94.9	816.13	
323.15	94.9	808.84	
333.15	94.9	801.43	

System: 1-decanol; phases: Liquid
Property: Refractive index (Na D-line) (Liquid); method: (Schmidt +Haensch) refractometer (Model DSR lambda)
Temperature, K	Pressure, kPa	Refractive index (Na D-line)	uncertainty
293.15	94.9	1.43711	
303.15	94.9	1.43332	
313.15	94.9	1.42949	
323.15	94.9	1.42564	
333.15	94.9	1.42189	

System: toluene; phases: Liquid
Property: Mass density, kg/m3 (Liquid); method: Vibrating tube method
Temperature, K	Pressure, kPa	Mass density, kg/m3	uncertainty
293.15	94.9	866.68	
298.15	94.9	861.74	
303.15	94.9	857.39	
308.15	94.9	851.69	
313.15	94.9	847.82	
318.15	94.9	842.88	
323.15	94.9	838.42	
333.15	94.9	828.94	

System: toluene; phases: Liquid
Property: Refractive index (Na D-line) (Liquid); method: (Schmidt +Haensch) refractometer (Model DSR lambda)
Temperature, K	Pressure, kPa	Refractive index (Na D-line)	uncertainty
293.15	94.9	1.49666	
298.15	94.9	1.49386	
303.15	94.9	1.49193	
308.15	94.9	1.48821	
313.15	94.9	1.48536	
318.15	94.9	1.48249	
323.15	94.9	1.47968	
333.15	94.9	1.47401	

System: 1-octanol; phases: Liquid
Property: Mass density, kg/m3 (Liquid); method: Vibrating tube method
Temperature, K	Pressure, kPa	Mass density, kg/m3	uncertainty
293.15	94.9	825.57	
298.15	94.9	821.9	
303.15	94.9	818.08	
308.15	94.9	814.31	
313.15	94.9	811.09	
318.15	94.9	807.7	
323.15	94.9	804.05	
333.15	94.9	796.88	

System: 1-octanol; phases: Liquid
Property: Refractive index (Na D-line) (Liquid); method: (Schmidt +Haensch) refractometer (Model DSR lambda)
Temperature, K	Pressure, kPa	Refractive index (Na D-line)	uncertainty
293.15	94.9	1.4295	
298.15	94.9	1.42748	
303.15	94.9	1.42561	
308.15	94.9	1.42369	
313.15	94.9	1.42169	
318.15	94.9	1.41973	
323.15	94.9	1.41783	
333.15	94.9	1.41407	

System: morpholine + 1-decanol; phases: Liquid, Gas
Property: Boiling temperature at pressure P, K (Liquid); method: Ebulliometric method (Recirculating still)
Pressure, kPa	Mole fraction of morpholine	Boiling temperature at pressure P, K	uncertainty
13.32	0	436.56	
13.32	.03	428.55	
13.32	.0513	423.29	
13.32	.071	418.85	
13.32	.1016	412.93	
13.32	.2109	394.17	
13.32	.2912	384.02	
13.32	.4094	372.29	
13.32	.5013	365.35	
13.32	.602	359.1	
13.32	.7043	353.88	
13.32	.8004	349.88	
13.32	.9011	346.46	
13.32	.9297	345.63	
13.32	.9502	345.06	
13.32	.9731	344.46	
13.32	1	343.91	
39.99	0	469.52	
39.99	.03	464.99	
39.99	.0513	460.55	
39.99	.071	458.15	
39.99	.1016	451.5	
39.99	.2109	432.15	
39.99	.2912	420.99	
39.99	.4094	406.14	
39.99	.5013	397.32	
39.99	.602	389.67	
39.99	.7043	383.66	
39.99	.8004	379.15	
39.99	.9011	375.32	
39.99	.9297	374.38	
39.99	.9502	373.74	
39.99	.9731	373.03	
39.99	1	372.25	
66.66	0	487.85	
66.66	.03	483.75	
66.66	.0513	481.05	
66.66	.071	478.15	
66.66	.1016	472.05	
66.66	.2109	451.75	
66.66	.2912	438.9	
66.66	.4094	422.82	
66.66	.5013	413.7	
66.66	.602	405.77	
66.66	.7043	399.56	
66.66	.8004	394.89	
66.66	.9011	390.91	
66.66	.9297	389.91	
66.66	.9502	389.21	
66.66	.9731	388.45	
66.66	1	387.57	
94.9	0	501.05	
94.9	.03	498.35	
94.9	.0513	494.45	
94.9	.071	492.45	
94.9	.1016	487.05	
94.9	.2109	466.7	
94.9	.2912	452.45	
94.9	.4094	435.75	
94.9	.5013	426.49	
94.9	.602	418.29	
94.9	.7043	411.78	
94.9	.8004	406.93	
94.9	.9011	402.71	
94.9	.9297	401.65	
94.9	.9502	400.91	
94.9	.9731	400.1	
94.9	1	398.92	

System: morpholine + 1-decanol; phases: Liquid
Fixed: Pressure, kPa = 94.9
Property: Mass density, kg/m3 (Liquid); method: Vibrating tube method
Temperature, K	Mole fraction of morpholine	Mass density, kg/m3	uncertainty
293.15	0	830.01	
293.15	.0959	842.65	
293.15	.1972	856.26	
293.15	.2983	870.74	
293.15	.3997	886.54	
293.15	.4984	902.71	
293.15	.5901	918.62	
293.15	.6748	933.78	
293.15	.7975	957.46	
293.15	.9053	980.12	
293.15	1	999.54	
303.15	0	823.54	
303.15	.0959	835.47	
303.15	.1972	849.05	
303.15	.2983	863.32	
303.15	.3997	878.86	
303.15	.4984	894.8	
303.15	.5901	910.46	
303.15	.6748	925.53	
303.15	.7975	948.96	
303.15	.9053	971.33	
303.15	1	989.89	
313.15	0	816.13	
313.15	.0959	828.35	
313.15	.1972	841.76	
313.15	.2983	855.74	
313.15	.3997	870.94	
313.15	.4984	886.64	
313.15	.5901	902.16	
313.15	.6748	916.99	
313.15	.7975	940.35	
313.15	.9053	961.51	
313.15	1	979.82	
323.15	0	808.84	
323.15	.0959	821.08	
323.15	.1972	834.65	
323.15	.2983	848.36	
323.15	.3997	863.25	
323.15	.4984	878.61	
323.15	.5901	894.03	
323.15	.6748	908.75	
323.15	.7975	931.54	
323.15	.9053	952.35	
323.15	1	969.78	
333.15	0	801.43	
333.15	.0959	813.99	
333.15	.1972	827.15	
333.15	.2983	840.7	
333.15	.3997	855.26	
333.15	.4984	870.39	
333.15	.5901	885.58	
333.15	.6748	900.13	
333.15	.7975	922.67	
333.15	.9053	943.05	
333.15	1	959.74	

System: morpholine + 1-decanol; phases: Liquid
Fixed: Pressure, kPa = 94.9
Property: Refractive index (Na D-line) (Liquid); method: (Schmidt +Haensch) refractometer (Model DSR lambda)
Temperature, K	Mole fraction of morpholine	Refractive index (Na D-line)	uncertainty
293.15	0	1.43711	
293.15	.0959	1.43851	
293.15	.1971	1.44011	
293.15	.2983	1.44177	
293.15	.3997	1.44353	
293.15	.4984	1.44523	
293.15	.5901	1.44686	
293.15	.6748	1.44835	
293.15	.7975	1.45055	
293.15	.9053	1.45253	
293.15	1	1.45453	
303.15	0	1.43332	
303.15	.0959	1.43425	
303.15	.1971	1.43584	
303.15	.2983	1.4374	
303.15	.3997	1.43915	
303.15	.4984	1.4408	
303.15	.5901	1.44235	
303.15	.6748	1.44395	
303.15	.7975	1.44625	
303.15	.9053	1.44834	
303.15	1	1.45031	
313.15	0	1.42949	
313.15	.0959	1.43051	
313.15	.1971	1.43195	
313.15	.2983	1.43335	
313.15	.3997	1.43498	
313.15	.4984	1.43652	
313.15	.5901	1.43799	
313.15	.6748	1.43952	
313.15	.7975	1.4419	
313.15	.9053	1.44365	
313.15	1	1.44574	
323.15	0	1.42564	
323.15	.0959	1.42665	
323.15	.1971	1.42808	
323.15	.2983	1.42935	
323.15	.3997	1.43086	
323.15	.4984	1.43224	
323.15	.5901	1.43378	
323.15	.6748	1.43524	
323.15	.7975	1.43735	
323.15	.9053	1.43915	
323.15	1	1.44113	
333.15	0	1.42189	
333.15	.0959	1.42296	
333.15	.1971	1.42408	
333.15	.2983	1.4252	
333.15	.3997	1.42655	
333.15	.4984	1.4278	
333.15	.5901	1.42913	
333.15	.6748	1.4304	
333.15	.7975	1.43224	
333.15	.9053	1.43382	
333.15	1	1.43562	

System: toluene + 1-octanol; phases: Liquid
Fixed: Pressure, kPa = 94.9
Property: Mass density, kg/m3 (Liquid); method: Vibrating tube method
Temperature, K	Mole fraction of 1-octanol	Mass density, kg/m3	uncertainty
293.15	0	866.68	
293.15	.1041	859.2	
293.15	.1973	853.95	
293.15	.3018	848.87	
293.15	.4033	844.52	
293.15	.5035	840.66	
293.15	.6007	837.23	
293.15	.6996	834.03	
293.15	.793	831.2	
293.15	.9044	828.07	
293.15	1	825.57	
298.15	0	861.74	
298.15	.1041	854.47	
298.15	.1973	849.33	
298.15	.3018	844.4	
298.15	.4033	840.2	
298.15	.5035	836.46	
298.15	.6007	833.15	
298.15	.6996	830.05	
298.15	.793	827.33	
298.15	.9044	824.31	
298.15	1	821.9	
303.15	0	857.39	
303.15	.1041	849.63	
303.15	.1973	844.59	
303.15	.3018	839.8	
303.15	.4033	835.73	
303.15	.5035	832.13	
303.15	.6007	828.94	
303.15	.6996	825.95	
303.15	.793	823.32	
303.15	.9044	820.4	
303.15	1	818.08	
308.15	0	851.69	
308.15	.1041	844.83	
308.15	.1973	839.89	
308.15	.3018	835.26	
308.15	.4033	831.33	
308.15	.5035	827.86	
308.15	.6007	824.78	
308.15	.6996	821.9	
308.15	.793	819.36	
308.15	.9044	816.55	
308.15	1	814.31	
313.15	0	847.82	
313.15	.1041	840.03	
313.15	.1973	835.16	
313.15	.3018	830.67	
313.15	.4033	826.9	
313.15	.5035	823.56	
313.15	.6007	820.6	
313.15	.6996	817.82	
313.15	.793	815.37	
313.15	.9044	812.65	
313.15	1	811.09	
318.15	0	842.88	
318.15	.1041	835.18	
318.15	.1973	830.43	
318.15	.3018	826.08	
318.15	.4033	822.45	
318.15	.5035	819.25	
318.15	.6007	816.41	
318.15	.6996	813.74	
318.15	.793	811.38	
318.15	.9044	808.77	
318.15	1	807.7	
323.15	0	838.42	
323.15	.1041	831.72	
323.15	.1973	827.05	
323.15	.3018	822.76	
323.15	.4033	819.26	
323.15	.5035	816.18	
323.15	.6007	813.46	
323.15	.6996	810.87	
323.15	.793	808.58	
323.15	.9044	806.05	
323.15	1	804.05	
333.15	0	828.94	
333.15	.1041	822.45	
333.15	.1973	817.92	
333.15	.3018	813.92	
333.15	.4033	810.68	
333.15	.5035	807.88	
333.15	.6007	805.4	
333.15	.6996	803.05	
333.15	.793	800.97	
333.15	.9044	798.68	
333.15	1	796.88	

System: toluene + 1-octanol; phases: Liquid
Fixed: Pressure, kPa = 94.9
Property: Refractive index (Na D-line) (Liquid); method: (Schmidt +Haensch) refractometer (Model DSR lambda)
Temperature, K	Mole fraction of 1-octanol	Refractive index (Na D-line)	uncertainty
293.15	0	1.49666	
293.15	.1041	1.48465	
293.15	.1973	1.4763	
293.15	.3018	1.4681	
293.15	.4033	1.46072	
293.15	.5035	1.45442	
293.15	.6007	1.44894	
293.15	.6996	1.44373	
293.15	.793	1.43912	
293.15	.9044	1.4338	
293.15	1	1.4295	
298.15	0	1.49386	
298.15	.1041	1.48192	
298.15	.1973	1.47333	
298.15	.3018	1.46514	
298.15	.4033	1.45795	
298.15	.5035	1.45173	
298.15	.6007	1.44634	
298.15	.6996	1.44116	
298.15	.793	1.43666	
298.15	.9044	1.43178	
298.15	1	1.42748	
303.15	0	1.49193	
303.15	.1041	1.47921	
303.15	.1973	1.47041	
303.15	.3018	1.46231	
303.15	.4033	1.45514	
303.15	.5035	1.44904	
303.15	.6007	1.44377	
303.15	.6996	1.43893	
303.15	.793	1.43469	
303.15	.9044	1.4298	
303.15	1	1.42561	
308.15	0	1.48821	
308.15	.1041	1.47628	
308.15	.1973	1.46762	
308.15	.3018	1.45938	
308.15	.4033	1.45234	
308.15	.5035	1.44634	
308.15	.6007	1.44118	
308.15	.6996	1.43647	
308.15	.793	1.43239	
308.15	.9044	1.42757	
308.15	1	1.42369	
313.15	0	1.48536	
313.15	.1041	1.47333	
313.15	.1973	1.46463	
313.15	.3018	1.45656	
313.15	.4033	1.44956	
313.15	.5035	1.44362	
313.15	.6007	1.43864	
313.15	.6996	1.43413	
313.15	.793	1.43002	
313.15	.9044	1.42559	
313.15	1	1.42169	
318.15	0	1.48249	
318.15	.1041	1.47014	
318.15	.1973	1.46186	
318.15	.3018	1.45372	
318.15	.4033	1.44685	
318.15	.5035	1.44101	
318.15	.6007	1.43601	
318.15	.6996	1.43149	
318.15	.793	1.4277	
318.15	.9044	1.42342	
318.15	1	1.41973	
323.15	0	1.47968	
323.15	.1041	1.46755	
323.15	.1973	1.45882	
323.15	.3018	1.45094	
323.15	.4033	1.44415	
323.15	.5035	1.43836	
323.15	.6007	1.43341	
323.15	.6996	1.42902	
323.15	.793	1.42541	
323.15	.9044	1.42136	
323.15	1	1.41783	
333.15	0	1.47401	
333.15	.1041	1.46181	
333.15	.1973	1.45314	
333.15	.3018	1.44526	
333.15	.4033	1.43873	
333.15	.5035	1.43312	
333.15	.6007	1.42831	
333.15	.6996	1.42423	
333.15	.793	1.42094	
333.15	.9044	1.41714	
333.15	1	1.41407	
