Measured thermophysical data. Enthalpies of fusion and enthalpies of solvation of aromatic hydrocarbons derivatives: Estimation of sublimation enthalpies at 298.15K
Source: Thermochim. Acta, 2016, 10.1016/j.tca.2016.02.001
Compound 1: 1,3-diiodobenzene, C6H4I2, purity 98.0%
Compound 2: 1,4-diiodobenzene, C6H4I2, purity 99.0%
Compound 3: 1-chloro-4-nitrobenzene, C6H4ClNO2, purity 99.0%
Compound 4: 1,2-benzenedicarbonitrile, C8H4N2, purity 98.0%
Compound 5: dimethyl terephthalate, C10H10O4, purity 99.0%
Compound 6: 2,4-dinitrotoluene, C7H6N2O4, purity 97.0%
Compound 7: 1-nitronaphthalene, C10H7NO2, purity 99.0%
Compound 8: 9-nitroanthracene, C14H9NO2, purity 96.0%
Compound 9: benzene, C6H6, purity 98.0%
Compound 10: potassium chloride, ClK, purity 99.9%
Compound 11: water, H2O

System: potassium chloride + water; phases: Liquid
Fixed: Pressure, kPa = 100
Fixed: Temperature, K = 298.15
Property: Molar enthalpy of solution, kJ/mol (Liquid); method: Power-compensation calorimetry
Mole fraction of potassium chloride	Molar enthalpy of solution, kJ/mol	uncertainty
0	17.41	

System: benzene + 1,3-diiodobenzene; phases: Liquid
Fixed: Pressure, kPa = 100
Fixed: Temperature, K = 298.15
Property: Molar enthalpy of solution, kJ/mol (Liquid); method: Power-compensation calorimetry
Mole fraction of 1,3-diiodobenzene	Molar enthalpy of solution, kJ/mol	uncertainty
0	19.5	

System: benzene + 1,4-diiodobenzene; phases: Liquid
Fixed: Pressure, kPa = 100
Fixed: Temperature, K = 298.15
Property: Molar enthalpy of solution, kJ/mol (Liquid); method: Power-compensation calorimetry
Mole fraction of 1,4-diiodobenzene	Molar enthalpy of solution, kJ/mol	uncertainty
0	21.8	

System: benzene + 1-chloro-4-nitrobenzene; phases: Liquid
Fixed: Pressure, kPa = 100
Fixed: Temperature, K = 298.15
Property: Molar enthalpy of solution, kJ/mol (Liquid); method: Power-compensation calorimetry
Mole fraction of 1-chloro-4-nitrobenzene	Molar enthalpy of solution, kJ/mol	uncertainty
0	15.1	

System: benzene + 1,2-benzenedicarbonitrile; phases: Liquid
Fixed: Pressure, kPa = 100
Fixed: Temperature, K = 298.15
Property: Molar enthalpy of solution, kJ/mol (Liquid); method: Power-compensation calorimetry
Mole fraction of 1,2-benzenedicarbonitrile	Molar enthalpy of solution, kJ/mol	uncertainty
0	19.7	

System: benzene + dimethyl terephthalate; phases: Liquid
Fixed: Pressure, kPa = 100
Fixed: Temperature, K = 298.15
Property: Molar enthalpy of solution, kJ/mol (Liquid); method: Power-compensation calorimetry
Mole fraction of dimethyl terephthalate	Molar enthalpy of solution, kJ/mol	uncertainty
0	29.4	

System: benzene + 2,4-dinitrotoluene; phases: Liquid
Fixed: Pressure, kPa = 100
Fixed: Temperature, K = 298.15
Property: Molar enthalpy of solution, kJ/mol (Liquid); method: Power-compensation calorimetry
Mole fraction of 2,4-dinitrotoluene	Molar enthalpy of solution, kJ/mol	uncertainty
0	21.6	

System: benzene + 1-nitronaphthalene; phases: Liquid
Fixed: Pressure, kPa = 100
Fixed: Temperature, K = 298.15
Property: Molar enthalpy of solution, kJ/mol (Liquid); method: Power-compensation calorimetry
Mole fraction of 1-nitronaphthalene	Molar enthalpy of solution, kJ/mol	uncertainty
0	20.5	

System: benzene + 9-nitroanthracene; phases: Liquid
Fixed: Pressure, kPa = 100
Fixed: Temperature, K = 298.15
Property: Molar enthalpy of solution, kJ/mol (Liquid); method: Power-compensation calorimetry
Mole fraction of 9-nitroanthracene	Molar enthalpy of solution, kJ/mol	uncertainty
0	22.4	
