Measured thermophysical data. Physicochemical characteristics of the inclusion complexes of biologically active compounds with 2-hydroxypropyl-.beta.-cyclodextrin
Source: Thermochim. Acta, 2016, 10.1016/j.tca.2016.07.008
Compound 1: N'-(2-hydroxybenzylidene)isonicotinohydrazide, C13H11N3O2, purity 97.5%
Compound 2: N'-(2-hydroxy-3-methoxybenzylidene)isonicotinohydrazide, C14H13N3O3, purity 97.5%

System: N'-(2-hydroxybenzylidene)isonicotinohydrazide; phases: Crystal, Liquid, Air at 1 atmosphere
Property: Normal melting temperature, K (Crystal); method: DSC/DTA
Normal melting temperature, K	uncertainty
521.35	2

System: N'-(2-hydroxybenzylidene)isonicotinohydrazide; phases: Crystal, Liquid, Air at 1 atmosphere
Property: Molar enthalpy of transition or fusion, kJ/mol (Crystal); method: DSC
Molar enthalpy of transition or fusion, kJ/mol	uncertainty
45.4	.5

System: N'-(2-hydroxy-3-methoxybenzylidene)isonicotinohydrazide; phases: Crystal, Liquid, Air at 1 atmosphere
Property: Normal melting temperature, K (Crystal); method: DSC/DTA
Normal melting temperature, K	uncertainty
509.85	2

System: N'-(2-hydroxy-3-methoxybenzylidene)isonicotinohydrazide; phases: Crystal, Liquid, Air at 1 atmosphere
Property: Molar enthalpy of transition or fusion, kJ/mol (Crystal); method: DSC
Molar enthalpy of transition or fusion, kJ/mol	uncertainty
49.7	.5
