Measured thermophysical data. Thermodynamics and solubilization behavior of (2Z)-N-cyclohexyl-2-(3-hydroxybenzylidine) hydrazine carbothioamide in polyethylene glycol-400 + water mixtures at (298.15 to 338.15) K
Source: Thermochim. Acta, 2015, 10.1016/j.tca.2014.11.019
Compound 1: (Z)-N-cyclohexyl-2-(3-hydroxybenzylidene)hydrazine-1-carbothioamide, C14H19N3OS, purity 99.4%
Compound 2: water, H2O, purity 99.8%

System: (Z)-N-cyclohexyl-2-(3-hydroxybenzylidene)hydrazine-1-carbothioamide + water; phases: Liquid, Crystal
Fixed: Pressure, kPa = 100
Property: Mole fraction of (Z)-N-cyclohexyl-2-(3-hydroxybenzylidene)hydrazine-1-carbothioamide (Liquid); method: UV-vis spectrophotometry
Temperature, K	Mole fraction of (Z)-N-cyclohexyl-2-(3-hydroxybenzylidene)hydrazine-1-carbothioamide	uncertainty
298.15	.000000383	.0000000042513
308.15	.000000591	.0000000065601
318.15	.000000896	.0000000099456
328.15	.00000138	.000000015318
338.15	.0000019	.00000002109
