Measured thermophysical data. Volumetric and acoustic studies of l-tyrosine + l-glutamic acid + waterat different temperatures
Source: Thermochim. Acta, 2014, 10.1016/j.tca.2014.03.004
Compound 1: 3-(p-hydroxyphenyl)-L-alanine, C9H11NO3, purity 99%
Compound 2: water, H2O
Compound 3: glutamic acid, L-, C5H9NO4, purity 99%

System: 3-(p-hydroxyphenyl)-L-alanine + water; phases: Liquid
Fixed: Pressure, kPa = 101.3
Property: Mass density, kg/m3 (Liquid); method: Vibrating tube method
Temperature, K	Molality, mol/kg of 3-(p-hydroxyphenyl)-L-alanine	Mass density, kg/m3	uncertainty
298.15	.002	997.168	.05
298.15	.0015	997.138	.05
298.15	.00125	997.125	.05
298.15	.001	997.112	.05
298.15	.0005	997.082	.05
298.15	.00025	997.068	.05
298.15	.000125	997.061	.05
308.15	.002	994.152	.05
308.15	.0015	994.126	.05
308.15	.00125	994.114	.05
308.15	.001	994.101	.05
308.15	.0005	994.072	.05
308.15	.00025	994.058	.05
308.15	.000125	994.051	.05
318.15	.002	990.318	.05
318.15	.0015	990.301	.05
318.15	.00125	990.29	.05
318.15	.001	990.278	.05
318.15	.0005	990.251	.05
318.15	.00025	990.238	.05
318.15	.000125	990.231	.05

System: 3-(p-hydroxyphenyl)-L-alanine + water; phases: Liquid
Fixed: Pressure, kPa = 101.3
Property: Speed of sound, m/s (Liquid); method: Sing-around technique in a fixed-path interferometer
Temperature, K	Molality, mol/kg of 3-(p-hydroxyphenyl)-L-alanine	Speed of sound, m/s	uncertainty
298.15	.002	1496.77	.5
298.15	.0015	1496.77	.5
298.15	.00125	1496.75	.5
298.15	.001	1497.18	.5
298.15	.0005	1496.7	.5
298.15	.00025	1496.81	.5
298.15	.000125	1496.57	.5
308.15	.002	1519.79	.5
308.15	.0015	1519.79	.5
308.15	.00125	1520.2	.5
308.15	.001	1519.71	.5
308.15	.0005	1519.83	.5
308.15	.00025	1519.72	.5
308.15	.000125	1519.64	.5
318.15	.002	1536.46	.5
318.15	.0015	1536.42	.5
318.15	.00125	1536.41	.5
318.15	.001	1536.85	.5
318.15	.0005	1536.34	.5
318.15	.00025	1536.52	.5
318.15	.000125	1536.32	.5

System: glutamic acid, L- + 3-(p-hydroxyphenyl)-L-alanine + water; phases: Liquid
Fixed: Pressure, kPa = 101.3
Property: Mass density, kg/m3 (Liquid); method: Vibrating tube method
Molality, mol/kg of glutamic acid, L-	Molality, mol/kg of 3-(p-hydroxyphenyl)-L-alanine	Temperature, K	Mass density, kg/m3	uncertainty
.01	.002	298.15	997.748	.05
.02	.002	298.15	998.321	.05
.03	.002	298.15	998.889	.05
.04	.002	298.15	999.46	.05
.05	.002	298.15	1000.039	.05
.01	.00125	298.15	997.71	.05
.02	.00125	298.15	998.285	.05
.03	.00125	298.15	998.851	.05
.04	.00125	298.15	999.423	.05
.05	.00125	298.15	1000.005	.05
.01	.0005	298.15	997.66	.05
.02	.0005	298.15	998.239	.05
.03	.0005	298.15	998.812	.05
.04	.0005	298.15	999.383	.05
.05	.0005	298.15	999.965	.05
.01	.0015	298.15	997.723	.05
.02	.0015	298.15	998.295	.05
.03	.0015	298.15	998.867	.05
.04	.0015	298.15	999.444	.05
.05	.0015	298.15	999.985	.05
.01	.001	298.15	997.688	.05
.02	.001	298.15	998.271	.05
.03	.001	298.15	998.838	.05
.04	.001	298.15	999.409	.05
.05	.001	298.15	1000	.05
.01	.00025	298.15	997.631	.05
.02	.00025	298.15	998.224	.05
.03	.00025	298.15	998.787	.05
.04	.00025	298.15	999.379	.05
.05	.00025	298.15	999.947	.05
.01	.000125	298.15	997.638	.05
.02	.000125	298.15	998.22	.05
.03	.000125	298.15	998.784	.05
.04	.000125	298.15	999.357	.05
.05	.000125	298.15	999.947	.05
.01	.002	308.15	994.723	.05
.02	.002	308.15	995.286	.05
.03	.002	308.15	995.808	.05
.04	.002	308.15	996.403	.05
.05	.002	308.15	996.974	.05
.01	.0015	308.15	994.682	.05
.02	.0015	308.15	995.26	.05
.03	.0015	308.15	995.82	.05
.04	.0015	308.15	996.389	.05
.05	.0015	308.15	996.903	.05
.01	.00125	308.15	994.685	.05
.02	.00125	308.15	995.251	.05
.03	.00125	308.15	995.803	.05
.04	.00125	308.15	996.366	.05
.05	.00125	308.15	996.939	.05
.01	.001	308.15	994.666	.05
.02	.001	308.15	995.235	.05
.03	.001	308.15	995.787	.05
.04	.001	308.15	996.354	.05
.05	.001	308.15	996.935	.05
.01	.0005	308.15	994.638	.05
.02	.0005	308.15	995.203	.05
.03	.0005	308.15	995.763	.05
.04	.0005	308.15	996.328	.05
.05	.0005	308.15	996.9	.05
.01	.00025	308.15	994.613	.05
.02	.00025	308.15	995.193	.05
.03	.00025	308.15	995.751	.05
.04	.00025	308.15	996.326	.05
.05	.00025	308.15	996.867	.05
.01	.000125	308.15	994.606	.05
.02	.000125	308.15	995.186	.05
.03	.000125	308.15	995.74	.05
.04	.000125	308.15	996.302	.05
.05	.000125	308.15	996.867	.05
.01	.002	318.15	990.896	.05
.02	.002	318.15	991.452	.05
.03	.002	318.15	991.948	.05
.04	.002	318.15	992.529	.05
.05	.002	318.15	993.118	.05
.01	.0015	318.15	990.877	.05
.02	.0015	318.15	991.428	.05
.03	.0015	318.15	991.978	.05
.04	.0015	318.15	992.537	.05
.05	.0015	318.15	993.037	.05
.01	.00125	318.15	990.859	.05
.02	.00125	318.15	991.416	.05
.03	.00125	318.15	991.948	.05
.04	.00125	318.15	992.519	.05
.05	.00125	318.15	993.082	.05
.01	.001	318.15	990.84	.05
.02	.001	318.15	991.38	.05
.03	.001	318.15	991.947	.05
.04	.001	318.15	992.505	.05
.05	.001	318.15	993.076	.05
.01	.0005	318.15	990.809	.05
.02	.0005	318.15	991.341	.05
.03	.0005	318.15	991.895	.05
.04	.0005	318.15	992.478	.05
.05	.0005	318.15	993.043	.05
.01	.00025	318.15	990.794	.05
.02	.00025	318.15	991.358	.05
.03	.00025	318.15	991.9	.05
.04	.00025	318.15	992.477	.05
.05	.00025	318.15	993.024	.05
.01	.000125	318.15	990.792	.05
.02	.000125	318.15	991.328	.05
.03	.000125	318.15	991.9	.05
.04	.000125	318.15	992.455	.05
.05	.000125	318.15	993.022	.05

System: glutamic acid, L- + 3-(p-hydroxyphenyl)-L-alanine + water; phases: Liquid
Fixed: Pressure, kPa = 101.3
Property: Speed of sound, m/s (Liquid); method: Sing-around technique in a fixed-path interferometer
Molality, mol/kg of glutamic acid, L-	Molality, mol/kg of 3-(p-hydroxyphenyl)-L-alanine	Temperature, K	Speed of sound, m/s	uncertainty
.01	.002	298.15	1497.7	.5
.02	.002	298.15	1498.37	.5
.03	.002	298.15	1499.1	.5
.04	.002	298.15	1499.92	.5
.05	.002	298.15	1500.52	.5
.01	.00125	298.15	1497.5	.5
.02	.00125	298.15	1498.25	.5
.03	.00125	298.15	1499.01	.5
.04	.00125	298.15	1499.75	.5
.05	.00125	298.15	1500.73	.5
.01	.0005	298.15	1497.48	.5
.02	.0005	298.15	1498.17	.5
.03	.0005	298.15	1498.97	.5
.04	.0005	298.15	1500.14	.5
.05	.0005	298.15	1500.38	.5
.01	.0015	298.15	1497.93	.5
.02	.0015	298.15	1498.35	.5
.03	.0015	298.15	1499.05	.5
.04	.0015	298.15	1500.04	.5
.05	.0015	298.15	1500.45	.5
.01	.001	298.15	1497.48	.5
.02	.001	298.15	1498.22	.5
.03	.001	298.15	1498.97	.5
.04	.001	298.15	1499.76	.5
.05	.001	298.15	1500.5	.5
.01	.00025	298.15	1497.48	.5
.02	.00025	298.15	1498.78	.5
.03	.00025	298.15	1498.93	.5
.04	.00025	298.15	1499.69	.5
.05	.00025	298.15	1500.3	.5
.01	.000125	298.15	1497.93	.5
.02	.000125	298.15	1499.41	.5
.03	.000125	298.15	1498.91	.5
.04	.000125	298.15	1500.03	.5
.05	.000125	298.15	1500.4	.5
.01	.002	308.15	1520.64	.5
.02	.002	308.15	1521.21	.5
.03	.002	308.15	1521.92	.5
.04	.002	308.15	1522.66	.5
.05	.002	308.15	1523.2	.5
.01	.0015	308.15	1520.97	.5
.02	.0015	308.15	1521.26	.5
.03	.0015	308.15	1521.85	.5
.04	.0015	308.15	1522.78	.5
.05	.0015	308.15	1523.14	.5
.01	.00125	308.15	1520.51	.5
.02	.00125	308.15	1521.24	.5
.03	.00125	308.15	1521.83	.5
.04	.00125	308.15	1522.58	.5
.05	.00125	308.15	1523.24	.5
.01	.001	308.15	1520.44	.5
.02	.001	308.15	1521.13	.5
.03	.001	308.15	1521.78	.5
.04	.001	308.15	1522.49	.5
.05	.001	308.15	1523.17	.5
.01	.0005	308.15	1520.45	.5
.02	.0005	308.15	1521.13	.5
.03	.0005	308.15	1521.78	.5
.04	.0005	308.15	1522.92	.5
.05	.0005	308.15	1523.09	.5
.01	.00025	308.15	1520.4	.5
.02	.00025	308.15	1521.65	.5
.03	.00025	308.15	1521.69	.5
.04	.00025	308.15	1522.45	.5
.05	.00025	308.15	1523.14	.5
.01	.000125	308.15	1520.92	.5
.02	.000125	308.15	1522.37	.5
.03	.000125	308.15	1521.74	.5
.04	.000125	308.15	1522.83	.5
.05	.000125	308.15	1523.14	.5
.01	.002	318.15	1537.22	.5
.02	.002	318.15	1537.7	.5
.03	.002	318.15	1538.39	.5
.04	.002	318.15	1539.1	.5
.05	.002	318.15	1539.55	.5
.01	.0015	318.15	1537.22	.5
.02	.0015	318.15	1537.84	.5
.03	.0015	318.15	1538.3	.5
.04	.0015	318.15	1539.25	.5
.05	.0015	318.15	1539.5	.5
.01	.00125	318.15	1537.14	.5
.02	.00125	318.15	1537.85	.5
.03	.00125	318.15	1538.4	.5
.04	.00125	318.15	1539.21	.5
.05	.00125	318.15	1539.84	.5
.01	.001	318.15	1537	.5
.02	.001	318.15	1537.72	.5
.03	.001	318.15	1538.26	.5
.04	.001	318.15	1538.91	.5
.05	.001	318.15	1539.59	.5
.01	.0005	318.15	1537.04	.5
.02	.0005	318.15	1537.72	.5
.03	.0005	318.15	1538.28	.5
.04	.0005	318.15	1539.38	.5
.05	.0005	318.15	1539.43	.5
.01	.00025	318.15	1536.98	.5
.02	.00025	318.15	1538.26	.5
.03	.00025	318.15	1538.21	.5
.04	.00025	318.15	1538.95	.5
.05	.00025	318.15	1539.38	.5
.01	.000125	318.15	1537.6	.5
.02	.000125	318.15	1539.04	.5
.03	.000125	318.15	1538.22	.5
.04	.000125	318.15	1539.31	.5
.05	.000125	318.15	1539.56	.5

System: glutamic acid, L- + water; phases: Liquid
Fixed: Pressure, kPa = 101.3
Property: Mass density, kg/m3 (Liquid); method: Vibrating tube method
Molality, mol/kg of glutamic acid, L-	Temperature, K	Mass density, kg/m3	uncertainty
.01	298.15	997.642	.05
.02	298.15	998.213	.05
.03	298.15	998.786	.05
.04	298.15	999.352	.05
.05	298.15	999.936	.05
.01	308.15	994.598	.05
.02	308.15	995.178	.05
.03	308.15	995.742	.05
.04	308.15	996.302	.05
.05	308.15	996.73	.05
.01	318.15	990.784	.05
.02	318.15	991.318	.05
.03	318.15	991.875	.05
.04	318.15	992.445	.05
.05	318.15	993.001	.05

System: glutamic acid, L- + water; phases: Liquid
Fixed: Pressure, kPa = 101.3
Property: Speed of sound, m/s (Liquid); method: Sing-around technique in a fixed-path interferometer
Molality, mol/kg of glutamic acid, L-	Temperature, K	Speed of sound, m/s	uncertainty
.01	298.15	1497.37	.5
.02	298.15	1498.08	.5
.03	298.15	1498.88	.5
.04	298.15	1499.56	.5
.05	298.15	1500.29	.5
.01	308.15	1520.39	.5
.02	308.15	1521.04	.5
.03	308.15	1521.79	.5
.04	308.15	1522.35	.5
.05	308.15	1523.18	.5
.01	318.15	1537.01	.5
.02	318.15	1537.66	.5
.03	318.15	1538.14	.5
.04	318.15	1538.96	.5
.05	318.15	1539.29	.5
