Measured thermophysical data. Molar heat capacity of aqueous solutions of 1,3-diaminopropane and 1,4-diaminobutane and their piperazine blends
Source: Thermochim. Acta, 2015, 10.1016/j.tca.2015.08.003
Compound 1: 1,3-diaminopropane, C3H10N2, purity 99%
Compound 2: 1,4-diaminobutane, C4H12N2, purity 99%
Compound 3: piperazine, C4H10N2, purity 99%
Compound 4: water, H2O

System: 1,3-diaminopropane; phases: Liquid
Property: Molar heat capacity at constant pressure, J/K/mol (Liquid); method: Small sample (50 mg) scanning calorimetry
Temperature, K	Pressure, kPa	Molar heat capacity at constant pressure, J/K/mol	uncertainty
303.2	101.3	203.7	6.111
308.2	101.3	204.2	6.126
313.2	101.3	204.8	6.144
318.2	101.3	205.3	6.159
323.2	101.3	205.9	6.177
328.2	101.3	206.5	6.195
333.2	101.3	207.1	6.213
338.2	101.3	207.8	6.234
343.2	101.3	208.3	6.249
348.2	101.3	208.9	6.267
353.2	101.3	209.5	6.285

System: 1,4-diaminobutane; phases: Liquid
Property: Molar heat capacity at constant pressure, J/K/mol (Liquid); method: Small sample (50 mg) scanning calorimetry
Temperature, K	Pressure, kPa	Molar heat capacity at constant pressure, J/K/mol	uncertainty
303.2	101.3	235.4	7.062
308.2	101.3	235.5	7.065
313.2	101.3	236.7	7.101
318.2	101.3	237.3	7.119
323.2	101.3	238.8	7.164
328.2	101.3	239.7	7.191
333.2	101.3	241	7.23
338.2	101.3	242.3	7.269
343.2	101.3	243.5	7.305
348.2	101.3	244.4	7.332
353.2	101.3	246.5	7.395

System: 1,3-diaminopropane + water; phases: Liquid
Fixed: Pressure, kPa = 101.3
Property: Molar heat capacity at constant pressure, J/K/mol (Liquid); method: Small sample (50 mg) scanning calorimetry
Temperature, K	Mole fraction of 1,3-diaminopropane	Molar heat capacity at constant pressure, J/K/mol	uncertainty
303.2	.1	92.5	2.775
308.2	.1	93	2.79
313.2	.1	93.6	2.808
318.2	.1	94.2	2.826
323.2	.1	94.7	2.841
328.2	.1	95.3	2.859
333.2	.1	95.9	2.877
338.2	.1	96.5	2.895
343.2	.1	97.1	2.913
348.2	.1	97.7	2.931
353.2	.1	98.3	2.949
303.2	.3	121.5	3.645
308.2	.3	121.9	3.657
313.2	.3	122.9	3.687
318.2	.3	123.9	3.717
323.2	.3	124.6	3.738
328.2	.3	125.6	3.768
333.2	.3	126.4	3.792
338.2	.3	127.1	3.813
343.2	.3	128	3.84
348.2	.3	129.1	3.873
353.2	.3	130.1	3.903
303.2	.5	147.8	4.434
308.2	.5	148.7	4.461
313.2	.5	149.5	4.485
318.2	.5	150.5	4.515
323.2	.5	151.4	4.542
328.2	.5	152.6	4.578
333.2	.5	153.3	4.599
338.2	.5	154.7	4.641
343.2	.5	155.4	4.662
348.2	.5	156.5	4.695
353.2	.5	157.4	4.722
303.2	.7	173.2	5.196
308.2	.7	173.9	5.217
313.2	.7	174.8	5.244
318.2	.7	176	5.28
323.2	.7	177.1	5.313
328.2	.7	178.5	5.355
333.2	.7	179.4	5.382
338.2	.7	180.7	5.421
343.2	.7	181.5	5.445
348.2	.7	182.5	5.475
353.2	.7	183.6	5.508
303.2	.9	195.7	5.871
308.2	.9	196.8	5.904
313.2	.9	197.7	5.931
318.2	.9	198.7	5.961
323.2	.9	199.6	5.988
328.2	.9	200.5	6.015
333.2	.9	201.5	6.045
338.2	.9	202.7	6.081
343.2	.9	203.6	6.108
348.2	.9	204.8	6.144
353.2	.9	205.8	6.174
303.2	1	203.7	6.111
308.2	1	204.2	6.126
313.2	1	204.8	6.144
318.2	1	205.3	6.159
323.2	1	205.9	6.177
328.2	1	206.5	6.195
333.2	1	207.1	6.213
338.2	1	207.8	6.234
343.2	1	208.3	6.249
348.2	1	208.9	6.267
353.2	1	209.5	6.285

System: 1,4-diaminobutane + water; phases: Liquid
Fixed: Pressure, kPa = 101.3
Property: Molar heat capacity at constant pressure, J/K/mol (Liquid); method: Small sample (50 mg) scanning calorimetry
Temperature, K	Mole fraction of 1,4-diaminobutane	Molar heat capacity at constant pressure, J/K/mol	uncertainty
303.2	.1	104.5	3.135
308.2	.1	104.7	3.141
313.2	.1	105.2	3.156
318.2	.1	105.5	3.165
323.2	.1	106.2	3.186
328.2	.1	106.6	3.198
333.2	.1	107.1	3.213
338.2	.1	107.6	3.228
343.2	.1	108	3.24
348.2	.1	108.4	3.252
353.2	.1	109.2	3.276
303.2	.3	144.5	4.335
308.2	.3	144.9	4.347
313.2	.3	145.3	4.359
318.2	.3	145.8	4.374
323.2	.3	147	4.41
328.2	.3	147.7	4.431
333.2	.3	148.8	4.464
338.2	.3	149.6	4.488
343.2	.3	150.5	4.515
348.2	.3	151.3	4.539
353.2	.3	152.6	4.578
303.2	.5	177.4	5.322
308.2	.5	177.9	5.337
313.2	.5	178.8	5.364
318.2	.5	179.7	5.391
323.2	.5	181.2	5.436
328.2	.5	181.4	5.442
333.2	.5	183.1	5.493
338.2	.5	184.2	5.526
343.2	.5	185.5	5.565
348.2	.5	186.7	5.601
353.2	.5	188.2	5.646
303.2	.7	207.1	6.213
308.2	.7	207.7	6.231
313.2	.7	209.1	6.273
318.2	.7	210.1	6.303
323.2	.7	211.9	6.357
328.2	.7	213.1	6.393
333.2	.7	214.8	6.444
338.2	.7	216.4	6.492
343.2	.7	218.3	6.549
348.2	.7	219.3	6.579
353.2	.7	221.2	6.636
303.2	.899	229.8	6.894
308.2	.899	230.5	6.915
313.2	.899	231.5	6.945
318.2	.899	232.9	6.987
323.2	.899	235	7.05
328.2	.899	236.9	7.107
333.2	.899	239.3	7.179
338.2	.899	241.2	7.236
343.2	.899	242.5	7.275
348.2	.899	244	7.32
353.2	.899	245.9	7.377
303.2	1	235.4	7.062
308.2	1	235.5	7.065
313.2	1	236.7	7.101
318.2	1	237.3	7.119
323.2	1	238.8	7.164
328.2	1	239.7	7.191
333.2	1	241	7.23
338.2	1	242.3	7.269
343.2	1	243.5	7.305
348.2	1	244.4	7.332
353.2	1	246.5	7.395

System: 1,3-diaminopropane + piperazine + water; phases: Liquid
Fixed: Pressure, kPa = 101.3
Property: Molar heat capacity at constant pressure, J/K/mol (Liquid); method: Small sample (50 mg) scanning calorimetry
Temperature, K	Mass fraction of 1,3-diaminopropane	Mass fraction of piperazine	Molar heat capacity at constant pressure, J/K/mol	uncertainty
303.2	.18	.12	88.9	2.667
308.2	.18	.12	89.2	2.676
313.2	.18	.12	89.5	2.685
318.2	.18	.12	89.8	2.694
323.2	.18	.12	90.1	2.703
328.2	.18	.12	90.5	2.715
333.2	.18	.12	90.8	2.724
338.2	.18	.12	91.1	2.733
343.2	.18	.12	91.4	2.742
348.2	.18	.12	91.8	2.754
353.2	.18	.12	92	2.76
303.2	.21	.09	90	2.7
308.2	.21	.09	90.2	2.706
313.2	.21	.09	90.5	2.715
318.2	.21	.09	91	2.73
323.2	.21	.09	91.1	2.733
328.2	.21	.09	91.8	2.754
333.2	.21	.09	92.2	2.766
338.2	.21	.09	92.4	2.772
343.2	.21	.09	92.8	2.784
348.2	.21	.09	93.1	2.793
353.2	.21	.09	93.4	2.802
303.2	.24	.06	91.2	2.736
308.2	.24	.06	91.5	2.745
313.2	.24	.06	91.6	2.748
318.2	.24	.06	92.2	2.766
323.2	.24	.06	92.5	2.775
328.2	.24	.06	92.9	2.787
333.2	.24	.06	93.2	2.796
338.2	.24	.06	93.6	2.808
343.2	.24	.06	93.9	2.817
348.2	.24	.06	94.3	2.829
353.2	.24	.06	94.8	2.844
303.2	.27	.03	92.3	2.769
308.2	.27	.03	92.6	2.778
313.2	.27	.03	93	2.79
318.2	.27	.03	93.4	2.802
323.2	.27	.03	93.6	2.808
328.2	.27	.03	94	2.82
333.2	.27	.03	94.4	2.832
338.2	.27	.03	94.8	2.844
343.2	.27	.03	95.2	2.856
348.2	.27	.03	95.5	2.865
353.2	.27	.03	96	2.88

System: 1,4-diaminobutane + piperazine + water; phases: Liquid
Fixed: Pressure, kPa = 101.3
Property: Molar heat capacity at constant pressure, J/K/mol (Liquid); method: Small sample (50 mg) scanning calorimetry
Temperature, K	Mass fraction of 1,4-diaminobutane	Mass fraction of piperazine	Molar heat capacity at constant pressure, J/K/mol	uncertainty
303.2	.18	.12	94.7	2.841
308.2	.18	.12	95	2.85
313.2	.18	.12	95.5	2.865
318.2	.18	.12	95.7	2.871
323.2	.18	.12	96.5	2.895
328.2	.18	.12	96.9	2.907
333.2	.18	.12	97.3	2.919
338.2	.18	.12	97.8	2.934
343.2	.18	.12	98.2	2.946
348.2	.18	.12	98.6	2.958
353.2	.18	.12	99.2	2.976
303.2	.21	.09	95.8	2.874
308.2	.21	.09	96.2	2.886
313.2	.21	.09	96.5	2.895
318.2	.21	.09	97	2.91
323.2	.21	.09	97.7	2.931
328.2	.21	.09	98.1	2.943
333.2	.21	.09	98.5	2.955
338.2	.21	.09	99.1	2.973
343.2	.21	.09	99.4	2.982
348.2	.21	.09	99.8	2.994
353.2	.21	.09	100.5	3.015
303.2	.24	.06	97.5	2.925
308.2	.24	.06	97.7	2.931
313.2	.24	.06	98.1	2.943
318.2	.24	.06	98.4	2.952
323.2	.24	.06	99	2.97
328.2	.24	.06	99.3	2.979
333.2	.24	.06	99.7	2.991
338.2	.24	.06	100.1	3.003
343.2	.24	.06	100.5	3.015
348.2	.24	.06	100.8	3.024
353.2	.24	.06	101.4	3.042
303.2	.27	.03	99.2	2.976
308.2	.27	.03	99.5	2.985
313.2	.27	.03	99.7	2.991
318.2	.27	.03	99.9	2.997
323.2	.27	.03	100.6	3.018
328.2	.27	.03	100.7	3.021
333.2	.27	.03	101.2	3.036
338.2	.27	.03	101.5	3.045
343.2	.27	.03	102	3.06
348.2	.27	.03	102.4	3.072
353.2	.27	.03	103	3.09
