Measured thermophysical data. Solubility of megestrol acetate and levonorgestrel in supercriticalcarbon dioxide
Source: Thermochim. Acta, 2013, 10.1016/j.tca.2013.07.018
Compound 1: Levonorgestrel, C21H28O2, purity 99.5%
Compound 2: Megestrol acetate, C24H32O4, purity 99.5%
Compound 3: carbon dioxide, CO2

System: carbon dioxide + Levonorgestrel; phases: Fluid (supercritical or subcritical phases), Crystal
Property: Mole fraction of Levonorgestrel (Fluid (supercritical or subcritical phases)); method: Phase equilibration
Temperature, K	Pressure, kPa	Mole fraction of Levonorgestrel	uncertainty
308	12200	.0000105	.00000084
308	15200	.0000113	.000000904
308	18200	.0000143	.000001144
308	21300	.0000162	.000001296
308	24300	.000019	.00000152
308	27400	.0000219	.000001752
308	30400	.0000332	.000002656
308	33400	.000056	.00000448
308	35500	.0000573	.000004584
318	12200	.0000114	.000000912
318	15200	.0000156	.000001248
318	18200	.0000197	.000001576
318	21300	.0000278	.000002224
318	24300	.0000377	.000003016
318	27400	.0000447	.000003576
318	30400	.0000466	.000003728
318	33400	.0000637	.000005096
318	35500	.0000757	.000006056
328	12200	.0000065	.00000052
328	15200	.0000165	.00000132
328	18200	.0000262	.000002096
328	21300	.0000274	.000002192
328	24300	.0000451	.000003608
328	27400	.0000474	.000003792
328	30400	.0000583	.000004664
328	33400	.0000688	.000005504
328	35500	.0000816	.000006528
338	12200	.0000029	.000000232
338	15200	.0000031	.000000248
338	18200	.0000316	.000002528
338	21300	.0000363	.000002904
338	24300	.0000535	.00000428
338	27400	.0000596	.000004768
338	30400	.0000629	.000005032
338	33400	.0000722	.000005776
338	35500	.0000871	.000006968

System: carbon dioxide + Megestrol acetate; phases: Fluid (supercritical or subcritical phases), Crystal
Property: Mole fraction of Megestrol acetate (Fluid (supercritical or subcritical phases)); method: Phase equilibration
Temperature, K	Pressure, kPa	Mole fraction of Megestrol acetate	uncertainty
308	12200	.06	.0048
308	15200	.07	.0056
308	18200	.08	.0064
308	21300	.09	.0072
308	24300	.1	.008
308	27400	.12	.0096
308	30400	.14	.0112
308	33400	.17	.0136
308	35500	.19	.0152
318	12200	.05	.004
318	15200	.05	.004
318	18200	.09	.0072
318	21300	.11	.0088
318	24300	.13	.0104
318	27400	.15	.012
318	30400	.17	.0136
318	33400	.19	.0152
318	35500	.21	.0168
328	12200	.04	.0032
328	15200	.05	.004
328	18200	.11	.0088
328	21300	.13	.0104
328	24300	.17	.0136
328	27400	.17	.0136
328	30400	.19	.0152
328	33400	.22	.0176
328	35500	.25	.02
338	12200	.04	.0032
338	15200	.05	.004
338	18200	.15	.012
338	21300	.18	.0144
338	24300	.2	.016
338	27400	.21	.0168
338	30400	.23	.0184
338	33400	.25	.02
338	35500	.29	.0232
