Measured thermophysical data. Mutual diffusion behavior of short chain alcohols + n-octane mixtures
Source: Thermochim. Acta, 2016, 10.1016/j.tca.2015.11.024
Compound 1: potassium chloride, ClK, purity 99.5%
Compound 2: water, H2O, purity 99.8%
Compound 3: n-octane, C8H18, purity 99.5%
Compound 4: ethanol, C2H6O, purity 99.7%
Compound 5: n-propanol, C3H8O, purity 99.7%
Compound 6: n-butanol, C4H10O, purity 99.7%

System: potassium chloride + water; phases: Liquid
Fixed: Pressure, kPa = 101
Property: Binary diffusion coefficient, m2/s (Liquid); method: digital holographic interferometry
Temperature, K	Amount concentration (molarity), mol/dm3 of potassium chloride	Binary diffusion coefficient, m2/s	uncertainty
298.15	.33	0.000000001844	1.40144E-11

System: ethanol + n-octane; phases: Liquid
Fixed: Pressure, kPa = 101
Property: Binary diffusion coefficient, m2/s (Liquid); method: digital holographic interferometry
Temperature, K	Mass fraction of ethanol	Binary diffusion coefficient, m2/s	uncertainty
283.2	.1	0.000000001585	.00000000002853
283.2	.2	0.000000001236	.000000000022248
283.2	.3	0.000000000975	.00000000001755
283.2	.4	0.000000000791	.000000000014238
283.2	.5	0.000000000732	.000000000013176
283.2	.6	0.000000000659	.000000000011862
283.2	.7	0.000000000675	.00000000001215
283.2	.8	0.000000000684	.000000000012312
283.2	.9	0.000000000797	.000000000014346
293.2	.1	0.000000001843	.000000000033174
293.2	.2	0.000000001468	.000000000026424
293.2	.3	0.000000001185	.00000000002133
293.2	.4	0.000000000986	.000000000017748
293.2	.5	0.00000000089	.00000000001602
293.2	.6	0.000000000853	.000000000015354
293.2	.7	0.000000000837	.000000000015066
293.2	.8	0.000000000892	.000000000016056
293.2	.9	0.000000000976	.000000000017568
303.2	.1	0.000000002048	.000000000036864
303.2	.2	0.00000000168	.00000000003024
303.2	.3	0.000000001389	.000000000025002
303.2	.4	0.000000001242	.000000000022356
303.2	.5	0.000000001144	.000000000020592
303.2	.6	0.000000001051	.000000000018918
303.2	.7	0.000000001056	.000000000019008
303.2	.8	0.000000001105	.00000000001989
303.2	.9	0.00000000116	.00000000002088
313.2	.1	0.000000002345	.00000000004221
313.2	.2	0.000000001974	.000000000035532
313.2	.3	0.000000001799	.000000000032382
313.2	.4	0.000000001465	.00000000002637
313.2	.5	0.000000001378	.000000000024804
313.2	.6	0.000000001326	.000000000023868
313.2	.7	0.000000001313	.000000000023634
313.2	.8	0.00000000141	.00000000002538
313.2	.9	0.000000001434	.000000000025812

System: n-propanol + n-octane; phases: Liquid
Fixed: Pressure, kPa = 101
Property: Binary diffusion coefficient, m2/s (Liquid); method: digital holographic interferometry
Temperature, K	Mass fraction of n-propanol	Binary diffusion coefficient, m2/s	uncertainty
283.2	.1	0.000000001391	.000000000029211
283.2	.2	0.000000001058	.000000000022218
283.2	.3	0.000000000876	.000000000018396
283.2	.4	0.000000000707	.000000000014847
283.2	.5	0.000000000624	.000000000013104
283.2	.6	0.00000000057	.00000000001197
283.2	.7	0.000000000586	.000000000012306
283.2	.8	0.000000000612	.000000000012852
283.2	.9	0.000000000663	.000000000013923
293.2	.1	0.000000001572	.000000000033012
293.2	.2	0.000000001305	.000000000027405
293.2	.3	0.000000001027	.000000000021567
293.2	.4	0.000000000911	.000000000019131
293.2	.5	0.000000000825	.000000000017325
293.2	.6	0.000000000796	.000000000016716
293.2	.7	0.000000000782	.000000000016422
293.2	.8	0.00000000081	.00000000001701
293.2	.9	0.000000000858	.000000000018018
303.2	.1	0.000000001808	.000000000037968
303.2	.2	0.000000001527	.000000000032067
303.2	.3	0.000000001265	.000000000026565
303.2	.4	0.000000001097	.000000000023037
303.2	.5	0.000000001016	.000000000021336
303.2	.6	0.000000000954	.000000000020034
303.2	.7	0.000000000969	.000000000020349
303.2	.8	0.000000000982	.000000000020622
303.2	.9	0.000000001044	.000000000021924
313.2	.1	0.000000002103	.000000000044163
313.2	.2	0.000000001818	.000000000038178
313.2	.3	0.00000000152	.00000000003192
313.2	.4	0.000000001348	.000000000028308
313.2	.5	0.000000001229	.000000000025809
313.2	.6	0.000000001215	.000000000025515
313.2	.7	0.00000000122	.00000000002562
313.2	.8	0.000000001259	.000000000026439
313.2	.9	0.000000001286	.000000000027006

System: n-butanol + n-octane; phases: Liquid
Fixed: Pressure, kPa = 101
Property: Binary diffusion coefficient, m2/s (Liquid); method: digital holographic interferometry
Temperature, K	Mass fraction of n-butanol	Binary diffusion coefficient, m2/s	uncertainty
283.2	.1	0.000000001128	.000000000025944
283.2	.2	0.000000000904	.000000000020792
283.2	.3	0.000000000716	.000000000016468
283.2	.4	0.000000000635	.000000000014605
283.2	.5	0.000000000558	.000000000012834
283.2	.6	0.000000000541	.000000000012443
283.2	.7	0.000000000527	.000000000012121
283.2	.8	0.000000000532	.000000000012236
283.2	.9	0.00000000056	.00000000001288
293.2	.1	0.000000001348	.000000000031004
293.2	.2	0.000000001093	.000000000025139
293.2	.3	0.000000000964	.000000000022172
293.2	.4	0.000000000839	.000000000019297
293.2	.5	0.000000000762	.000000000017526
293.2	.6	0.000000000706	.000000000016238
293.2	.7	0.00000000072	.00000000001656
293.2	.8	0.000000000745	.000000000017135
293.2	.9	0.000000000772	.000000000017756
303.2	.1	0.000000001577	.000000000036271
303.2	.2	0.000000001339	.000000000030797
303.2	.3	0.00000000116	.00000000002668
303.2	.4	0.000000001005	.000000000023115
303.2	.5	0.000000000918	.000000000021114
303.2	.6	0.000000000866	.000000000019918
303.2	.7	0.000000000875	.000000000020125
303.2	.8	0.000000000894	.000000000020562
303.2	.9	0.000000000913	.000000000020999
313.2	.1	0.000000001808	.000000000041584
313.2	.2	0.000000001527	.000000000035121
313.2	.3	0.000000001365	.000000000031395
313.2	.4	0.000000001197	.000000000027531
313.2	.5	0.000000001116	.000000000025668
313.2	.6	0.000000001072	.000000000024656
313.2	.7	0.000000001085	.000000000024955
313.2	.8	0.000000001093	.000000000025139
313.2	.9	0.000000001124	.000000000025852
