Measured thermophysical data. Test and improvement of the cyclic stability of oxalic acid dihydrate for thermal energy storage
Source: Thermochim. Acta, 2016, 10.1016/j.tca.2016.10.016
Compound 1: oxalic acid dihydrate, C2H6O6

System: oxalic acid dihydrate; phases: Crystal, Liquid, Air at 1 atmosphere
Property: Normal melting temperature, K (Crystal); method: DSC/DTA
Normal melting temperature, K	uncertainty
372.75	

System: oxalic acid dihydrate; phases: Crystal, Liquid, Air at 1 atmosphere
Property: Normal melting temperature, K (Crystal); method: DSC/DTA
Normal melting temperature, K	uncertainty
374.35	

System: oxalic acid dihydrate; phases: Crystal, Liquid, Air at 1 atmosphere
Property: Molar enthalpy of transition or fusion, kJ/mol (Crystal); method: DSC
Molar enthalpy of transition or fusion, kJ/mol	uncertainty
47.33757272	

System: oxalic acid dihydrate; phases: Crystal, Liquid, Air at 1 atmosphere
Property: Molar enthalpy of transition or fusion, kJ/mol (Crystal); method: DSC
Molar enthalpy of transition or fusion, kJ/mol	uncertainty
46.971982944	
