Measured thermophysical data. Amino acid behavior in aqueous amide solutions: Temperature dependence ofthe l-phenylalanine N,N-dimethylformamide interaction
Source: Thermochim. Acta, 2013, 10.1016/j.tca.2013.05.014
Compound 1: L-phenylalanine, C9H11NO2
Compound 2: N,N-dimethylformamide, C3H7NO
Compound 3: water, H2O

System: N,N-dimethylformamide + water; phases: Liquid
Fixed: Temperature, K = 298
Fixed: Pressure, kPa = 101.325
Property: Molar enthalpy of solution, kJ/mol (Liquid); method: Calvet calorimetry
Mole fraction of N,N-dimethylformamide	Molar enthalpy of solution, kJ/mol	uncertainty
0	-15.35	

System: L-phenylalanine + N,N-dimethylformamide + water; phases: Liquid
Fixed: Molality, mol/kg of L-phenylalanine = .006
Fixed: Pressure, kPa = 101.325
Property: Molar enthalpy of solution, kJ/mol (Liquid); method: Calvet calorimetry
Temperature, K	Solvent: Mole fraction of N,N-dimethylformamide	Molar enthalpy of solution, kJ/mol	uncertainty
288.15	0	6.36	.1
288.15	.02508	8.58	.1
288.15	.03289	9.21	.1
288.15	.05019	10.37	.1
288.15	.06954	11.53	.1
288.15	.09007	12.42	.1
288.15	.1168	13.21	.1
293.15	0	7.24	.1
293.15	.02717	9.47	.1
293.15	.03289	9.98	.1
293.15	.04038	10.22	.1
293.15	.04187	10.33	.1
293.15	.04886	11	.1
293.15	.07055	12.39	.1
293.15	.09335	13.11	.1
293.15	.1163	13.86	.1
298.15	0	8.23	.1
298.15	.02008	9.8	.1
298.15	.02359	10.22	.1
298.15	.03439	10.73	.1
298.15	.03703	11.07	.1
298.15	.04507	11.45	.1
298.15	.06018	12.29	.1
298.15	.07226	12.73	.1
298.15	.07261	12.79	.1
298.15	.09808	13.73	.1
298.15	.1002	13.73	.1
298.15	.1149	14.02	.1
306.15	0	9.67	.1
306.15	.00593	10.35	.1
306.15	.01989	10.81	.1
306.15	.03142	11.84	.1
306.15	.05569	13.13	.1
306.15	.06847	13.79	.1
306.15	.08363	14.41	.1
306.15	.09318	14.89	.1
306.15	.1094	15.61	.1
306.15	.1239	15.75	.1
313.15	0	10.93	.1
313.15	.00265	11.25	.1
313.15	.04144	13.45	.1
313.15	.05938	14.2	.1
313.15	.06109	14.41	.1
313.15	.08329	15.33	.1
313.15	.1001	16.11	.1
313.15	.1003	16.16	.1
313.15	.1229	16.87	.1
313.15	.1335	17.22	.1
318.15	0	11.97	.1
318.15	.01093	12.44	.1
318.15	.01861	12.86	.1
318.15	.03431	13.78	.1
318.15	.06109	14.92	.1
318.15	.08795	16.03	.1
318.15	.09911	16.32	.1
318.15	.1215	17.07	.1

System: L-phenylalanine + water; phases: Liquid
Property: Molar enthalpy of solution, kJ/mol (Liquid); method: Calvet calorimetry
Temperature, K	Molality, mol/kg of L-phenylalanine	Pressure, kPa	Molar enthalpy of solution, kJ/mol	uncertainty
288.15	.006	101.325	6.36	.1
293.15	.006	101.325	7.24	.1
298.15	.006	101.325	8.23	.1
306.15	.006	101.325	9.67	.1
313.15	.006	101.325	10.93	.1
318.15	.006	101.325	11.97	.1
