Measured thermophysical data. Volumetric properties for binary and ternary systems consist of 1-chlorobutane, n-butylamine  and isobutanol at 298.15 K with application of the Prigogine-Flory-Patterson theory and ERAS-Model
Source: Thermochim. Acta, 2010, 10.1016/j.tca.2010.02.010
Compound 1: 1-chlorobutane, C4H9Cl
Compound 2: butylamine, C4H11N
Compound 3: 2-methyl-1-propanol, C4H10O

System: 1-chlorobutane; phases: Liquid
Property: Mass density, kg/m3 (Liquid); method: Vibrating tube method
Temperature, K	Pressure, kPa	Mass density, kg/m3	uncertainty
298.15	101	880.86	

System: butylamine; phases: Liquid
Property: Mass density, kg/m3 (Liquid); method: Vibrating tube method
Temperature, K	Pressure, kPa	Mass density, kg/m3	uncertainty
298.15	101	734.65	

System: 2-methyl-1-propanol; phases: Liquid
Property: Mass density, kg/m3 (Liquid); method: Vibrating tube method
Temperature, K	Pressure, kPa	Mass density, kg/m3	uncertainty
298.15	101	797.84	

System: 1-chlorobutane + butylamine; phases: Liquid
Fixed: Temperature, K = 298.15
Fixed: Pressure, kPa = 101
Property: Mass density, kg/m3 (Liquid); method: Vibrating tube method
Mole fraction of 1-chlorobutane	Mass density, kg/m3	uncertainty
0	734.65	
.0428	740.64	
.0758	745.29	
.1564	756.7	
.2259	766.61	
.3163	779.6	
.3765	788.3	
.4412	797.66	
.4959	805.59	
.5804	817.91	
.6566	829.09	
.7272	839.52	
.7794	847.26	
.8465	857.31	
.8923	864.25	
.9437	872.12	
1	880.86	

System: 2-methyl-1-propanol + 1-chlorobutane; phases: Liquid
Fixed: Temperature, K = 298.15
Fixed: Pressure, kPa = 101
Property: Mass density, kg/m3 (Liquid); method: Vibrating tube method
Mole fraction of 1-chlorobutane	Mass density, kg/m3	uncertainty
0	797.84	
.037	801.07	
.0748	804.35	
.1521	811.04	
.2331	817.97	
.3472	827.62	
.4266	834.27	
.4911	839.59	
.5817	847.01	
.6178	849.95	
.6855	855.42	
.7946	864.22	
.8885	871.78	
.9428	876.18	
1	880.86	

System: 2-methyl-1-propanol + butylamine; phases: Liquid
Fixed: Temperature, K = 298.15
Fixed: Pressure, kPa = 101
Property: Mass density, kg/m3 (Liquid); method: Vibrating tube method
Mole fraction of butylamine	Mass density, kg/m3	uncertainty
0	797.84	
.0482	796.16	
.0921	794.54	
.1855	790.79	
.2961	785.62	
.3674	781.71	
.4578	776.31	
.5021	773.52	
.5502	770.4	
.6313	764.59	
.7237	757.45	
.8191	749.75	
.9098	742.18	
.9418	739.52	
1	734.65	

System: 2-methyl-1-propanol + 1-chlorobutane + butylamine; phases: Liquid
Fixed: Temperature, K = 298.15
Fixed: Pressure, kPa = 101
Property: Mass density, kg/m3 (Liquid); method: Vibrating tube method
Mole fraction of 1-chlorobutane	Mole fraction of butylamine	Mass density, kg/m3	uncertainty
.0503	.0575	800.5	.1
.0523	.2506	793.37	.1
.0523	.4516	780.61	.1
.057	.6507	765.25	.1
.0501	.9116	743.29	.1
.0515	.7085	759.96	.1
.0491	.4931	777.52	.1
.0519	.2995	789.85	.1
.0526	.1006	800.21	.1
.1009	.0509	805.74	.1
.101	.2553	797.97	.1
.1048	.4544	784.72	.1
.099	.663	766.65	.1
.0977	.8606	750.7	.1
.2011	.252	807.71	.1
.2005	.4563	791.6	.1
.1977	.6566	773.59	.1
.1989	.761	764.92	.1
.1978	.559	781.68	.1
.199	.3567	800.05	.1
.4642	.3727	818.15	.1
.7146	.1098	853.98	.1
.4792	.402	815.8	.1
.421	.4988	802.65	.1
.3626	.5508	794.09	.1
.3029	.6566	780.75	.1
.4481	.0454	836.37	.1
.4017	.2523	825.15	.1
.3976	.4561	805.68	.1
.4011	.5559	795.82	.1
.4019	.3529	816.25	.1
.4145	.1506	832.15	.1
.5007	.2531	831.75	.1
.5282	.4298	814.82	.1
.5979	.2561	836.72	.1
.5995	.354	825.82	.1
.7016	.2526	840.83	.1
.8491	.0493	865.4	.1
.8505	.101	861.45	.1
.9002	.0512	867.71	.1
