Measured thermophysical data. Calorimetric investigations of UPb3 compound
Source: Thermochim. Acta, 2016, 10.1016/j.tca.2016.05.012
Compound 1: uranium trilead, Pb3U, purity 99.9%
Compound 2: lead, Pb, purity 99.99%
Compound 3: uranium, U, purity 99.9%

System: uranium trilead; phases: Crystal
Fixed: Pressure, kPa = 101.325
Property: Molar heat capacity at constant pressure, J/K/mol (Crystal); method: Small sample (50 mg) scanning calorimetry
Temperature, K	Molar heat capacity at constant pressure, J/K/mol	uncertainty
316.34	102.56	
326.01	102.76	
336.81	102.96	
346.52	103.16	
356.26	103.32	
366.02	103.44	
375.81	103.6	
385.63	103.72	
395.49	103.88	
405.37	104	
415.29	104.12	
425.25	104.24	
435.23	104.32	
445.22	104.44	
455.21	104.56	
465.2	104.64	
475.19	104.72	
485.18	104.8	
495.17	104.92	
505.15	105	
515.13	105.08	
525.11	105.12	
535.04	105.2	
544.83	105.28	
554.76	105.36	
564.58	105.4	
574.42	105.48	
584.3	105.52	
594.25	105.6	
604.13	105.64	
316.34	102.48	
326.01	102.64	
336.81	102.76	
346.52	102.92	
356.26	103	
366.02	103.12	
375.81	103.24	
385.63	103.36	
395.49	103.44	
405.37	103.52	
415.29	103.64	
425.25	103.72	
435.23	103.8	
445.22	103.88	
455.21	103.96	
465.2	104	
475.19	104.08	
485.18	104.16	
495.17	104.2	
505.15	104.28	
515.13	104.32	
525.11	104.4	
535.04	104.44	
544.83	104.48	
554.76	104.52	
564.58	104.56	
574.42	104.64	
584.3	104.68	
594.25	104.72	
604.13	104.76	

System: uranium trilead; phases: Crystal
Fixed: Pressure, kPa = 101.325
Property: Molar enthalpy, kJ/mol (Crystal); method: Other
Temperature, K	Molar enthalpy, kJ/mol	uncertainty
353	4.912	
393	10.176	
403	11.128	
423	12.976	
433	13.9	
453	15.712	
473	18.136	
523	23.312	
578	29.092	
617	33.212	
649	36.632	
681	40.016	
716	43.74	
756	47.928	
790	51.564	
821	54.864	
842	57.184	
843	57.22	
879	61.096	
918	65.288	

Reaction: -0.75 lead + -0.25 uranium + 0.25 uranium trilead
Property: Molar enthalpy of reaction, kJ/mol
-25.9
