Measured thermophysical data. Electrolytic conductivity and molar heat capacity of the solvent system: 1-ethyl-3-  methylimidazolium ethylsulfate + water and 1-ethyl-3-methylimidazolium trifluoromethanesulfonate  + water
Source: Thermochim. Acta, 2009, 10.1016/j.tca.2009.07.006
Compound 1: 1-ethyl-3-methylimidazolium trifluoromethanesulfonate, C7H11F3N2O3S, purity 98%
Compound 2: 1-ethyl-3-methylimidazolium ethylsulfate, C8H16N2O4S, purity 99.2%
Compound 3: water, H2O, purity 99%

System: water + 1-ethyl-3-methylimidazolium ethylsulfate; phases: Liquid
Fixed: Pressure, kPa = 101
Property: Electrical conductivity, S/m (Liquid); method: Other
Mole fraction of 1-ethyl-3-methylimidazolium ethylsulfate	Temperature, K	Electrical conductivity, S/m	uncertainty
.2	293.2	2.173	.021
.2	298.2	2.53	.01
.2	303.2	2.947	.015
.2	308.2	3.387	.015
.2	313.2	3.85	.02
.2	318.2	4.343	.025
.2	323.2	4.857	.04
.2	328.2	5.397	.038
.2	333.2	5.933	.042
.2	338.2	6.5	.035
.2	343.2	7.067	.046
.2	348.2	7.643	.04
.2	353.2	8.24	.036
.4	293.2	1.23	.018
.4	298.2	1.44	.004
.4	303.2	1.695	.002
.4	308.2	1.95	0
.4	313.2	2.243	.006
.4	318.2	2.563	.006
.4	323.2	2.9	.01
.4	328.2	3.257	.006
.4	333.2	3.617	.012
.4	338.2	3.997	.006
.4	343.2	4.393	.006
.4	348.2	4.793	.006
.4	353.2	5.207	.015
.6	293.2	.74	.006
.6	298.2	.881	.007
.6	303.2	1.055	.008
.6	308.2	1.246	.011
.6	313.2	1.449	.014
.6	318.2	1.673	.019
.6	323.2	1.907	.02
.6	328.2	2.147	.031
.6	333.2	2.41	.036
.6	338.2	2.69	.044
.6	343.2	2.99	.053
.6	348.2	3.28	.02
.6	353.2	3.62	.062
.8	293.2	.466	.007
.8	298.2	.569	.005
.8	303.2	.696	.004
.8	308.2	.837	.005
.8	313.2	.991	.005
.8	318.2	1.159	.005
.8	323.2	1.342	.006
.8	328.2	1.54	.006
.8	333.2	1.746	.006
.8	338.2	1.94	0
.8	343.2	2.173	.006
.8	348.2	2.417	.006
.8	353.2	2.673	.012

System: water + 1-ethyl-3-methylimidazolium ethylsulfate; phases: Liquid
Fixed: Pressure, kPa = 101
Property: Molar heat capacity at constant pressure, J/K/mol (Liquid); method: Small sample (50 mg) DSC
Mole fraction of 1-ethyl-3-methylimidazolium ethylsulfate	Temperature, K	Molar heat capacity at constant pressure, J/K/mol	uncertainty
.2	303.2	146.4	.2
.2	308.2	147.5	.1
.2	313.2	148.7	.5
.2	318.2	149.5	.3
.2	323.2	150.8	.2
.2	328.2	151.9	.2
.2	333.2	153.2	.4
.2	338.2	154.7	.4
.2	343.2	155.9	.8
.2	348.2	157.2	.9
.2	353.2	158.4	1.1
.4	303.2	218.8	1.6
.4	308.2	220.3	.8
.4	313.2	221.6	1
.4	318.2	223.1	.8
.4	323.2	224.7	.4
.4	328.2	226.1	.3
.4	333.2	227.8	.6
.4	338.2	229.4	.7
.4	343.2	231	.6
.4	348.2	232.8	.2
.4	353.2	234.6	.6
.6	303.2	290	.6
.6	308.2	291.4	.4
.6	313.2	292.8	.3
.6	318.2	294.4	.3
.6	323.2	295.9	.1
.6	328.2	297.5	.6
.6	333.2	298.9	.8
.6	338.2	300.6	.4
.6	343.2	302.2	.9
.6	348.2	304	.6
.6	353.2	305.8	.4
.8	303.2	359.1	1.6
.8	308.2	360.8	1.7
.8	313.2	362.3	.5
.8	318.2	364	.6
.8	323.2	365.7	.7
.8	328.2	367.5	.4
.8	333.2	369.3	.5
.8	338.2	371.5	.3
.8	343.2	373.2	.5
.8	348.2	375.5	1
.8	353.2	377.5	1.3

System: water + 1-ethyl-3-methylimidazolium trifluoromethanesulfonate; phases: Liquid
Fixed: Pressure, kPa = 101
Property: Electrical conductivity, S/m (Liquid); method: Other
Mole fraction of 1-ethyl-3-methylimidazolium trifluoromethanesulfonate	Temperature, K	Electrical conductivity, S/m	uncertainty
.2	293.2	3.437	.006
.2	298.2	3.927	.006
.2	303.2	4.47	.01
.2	308.2	5.037	.015
.2	313.2	5.613	.006
.2	318.2	6.213	.012
.2	323.2	6.837	.015
.2	328.2	7.47	.017
.2	333.2	8.113	.012
.2	338.2	8.76	.01
.2	343.2	9.413	.006
.2	348.2	10.05	.01
.2	353.2	10.713	.021
.4	293.2	2.347	.021
.4	298.2	2.67	.03
.4	303.2	3.053	.035
.4	308.2	3.46	.03
.4	313.2	3.873	.035
.4	318.2	4.31	.03
.4	323.2	4.77	.03
.4	328.2	5.237	.035
.4	333.2	5.717	.045
.4	338.2	6.217	.042
.4	343.2	6.713	.04
.4	348.2	7.22	.044
.4	353.2	7.747	.045
.6	293.2	1.636	.013
.6	298.2	1.86	.014
.6	303.2	2.12	.017
.6	308.2	2.417	.021
.6	313.2	2.727	.021
.6	318.2	3.047	.006
.6	323.2	3.393	.012
.6	328.2	3.757	.015
.6	333.2	4.127	.015
.6	338.2	4.513	.021
.6	343.2	4.903	.021
.6	348.2	5.307	.025
.6	353.2	5.743	.015
.8	293.2	1.165	.025
.8	298.2	1.345	.021
.8	303.2	1.558	.027
.8	308.2	1.787	.03
.8	313.2	2.007	.025
.8	318.2	2.267	.035
.8	323.2	2.55	.036
.8	328.2	2.837	.045
.8	333.2	3.14	.046
.8	338.2	3.46	.046
.8	343.2	3.783	.05
.8	348.2	4.133	.064
.8	353.2	4.477	.045

System: water + 1-ethyl-3-methylimidazolium trifluoromethanesulfonate; phases: Liquid
Fixed: Pressure, kPa = 101
Property: Molar heat capacity at constant pressure, J/K/mol (Liquid); method: Small sample (50 mg) DSC
Mole fraction of 1-ethyl-3-methylimidazolium trifluoromethanesulfonate	Temperature, K	Molar heat capacity at constant pressure, J/K/mol	uncertainty
.1	303.2	102.6	.4
.1	308.2	103	.7
.1	313.2	103.4	.7
.1	318.2	103.8	.7
.1	323.2	104.3	.6
.1	328.2	105	.6
.1	333.2	105.5	.7
.1	338.2	106.1	.6
.1	343.2	106.4	.7
.1	348.2	107	.5
.1	353.2	107.5	.5
.2	303.2	133.3	.1
.2	308.2	134.1	.3
.2	313.2	134.7	.3
.2	318.2	135.5	.3
.2	323.2	136.4	.5
.2	328.2	137.1	.6
.2	333.2	138	.7
.2	338.2	138.8	.7
.2	343.2	139.8	.7
.2	348.2	140.6	.7
.2	353.2	141.5	.9
.4	303.2	197.5	1.8
.4	308.2	198.7	2.2
.4	313.2	199.9	1.1
.4	318.2	201.3	.5
.4	323.2	202.4	.5
.4	328.2	203.8	.6
.4	333.2	205.2	.5
.4	338.2	206.4	1
.4	343.2	207.7	1.5
.4	348.2	208.9	1.4
.4	353.2	210.1	2.3
.6	303.2	260.1	1
.6	308.2	261.6	.9
.6	313.2	263.2	1.5
.6	318.2	264.5	.7
.6	323.2	266	.6
.6	328.2	267.6	1.1
.6	333.2	269.1	.7
.6	338.2	270.9	.9
.6	343.2	272.3	.6
.6	348.2	273.8	1.5
.6	353.2	275.5	.3
.8	303.2	320.1	1
.8	308.2	321.9	.4
.8	313.2	323.7	.3
.8	318.2	325.4	.6
.8	323.2	327.3	.8
.8	328.2	329.1	1.5
.8	333.2	331.1	2.1
.8	338.2	332.7	2.1
.8	343.2	334.6	2.2
.8	348.2	336.4	2.2
.8	353.2	338.2	2.2
.9	303.2	351	.8
.9	308.2	352.7	.5
.9	313.2	354.8	.6
.9	318.2	356.7	.5
.9	323.2	358.4	.5
.9	328.2	360.2	.6
.9	333.2	362	1
.9	338.2	364	.8
.9	343.2	365.9	1.3
.9	348.2	368	1.1
.9	353.2	369.8	1.6
