Measured thermophysical data. Density and viscosity of monoethylethanolamine + H2O and monoethylethanolamine + diethylethanolamine solutions for CO2 capture
Source: Thermochim. Acta, 2016, 10.1016/j.tca.2016.08.021
Compound 1: N-ethylethanolamine, C4H11NO, purity 98%
Compound 2: N,N-diethylethanolamine, C6H15NO, purity 99%
Compound 3: water, H2O

System: N-ethylethanolamine; phases: Liquid
Property: Mass density, kg/m3 (Liquid); method: Vibrating tube method
Temperature, K	Pressure, kPa	Mass density, kg/m3	uncertainty
293.15	100	916.8	
303.15	100	909.7	
313.15	100	901.3	
323.15	100	894.7	
333.15	100	887.2	

System: N-ethylethanolamine; phases: Liquid
Property: Viscosity, Pa*s (Liquid); method: Capillary tube (Ostwald; Ubbelohde) method
Temperature, K	Pressure, kPa	Viscosity, Pa*s	uncertainty
293.15	100	.01539	
303.15	100	.00965	
313.15	100	.00664	
323.15	100	.00453	
333.15	100	.00336	

System: N,N-diethylethanolamine; phases: Liquid
Property: Mass density, kg/m3 (Liquid); method: Vibrating tube method
Temperature, K	Pressure, kPa	Mass density, kg/m3	uncertainty
293.15	100	883.5	
303.15	100	875.1	
313.15	100	866.2	
323.15	100	857.5	
333.15	100	849.2	

System: N,N-diethylethanolamine; phases: Liquid
Property: Viscosity, Pa*s (Liquid); method: Capillary tube (Ostwald; Ubbelohde) method
Temperature, K	Pressure, kPa	Viscosity, Pa*s	uncertainty
293.15	100	.00481	
303.15	100	.00337	
313.15	100	.00246	
323.15	100	.00186	
333.15	100	.00146	

System: N,N-diethylethanolamine + N-ethylethanolamine; phases: Liquid
Fixed: Pressure, kPa = 100
Property: Mass density, kg/m3 (Liquid); method: Vibrating tube method
Temperature, K	Mole fraction of N,N-diethylethanolamine	Mass density, kg/m3	uncertainty
293.15	0	916.8	
293.15	.2	910	
293.15	.4	903	
293.15	.6	897	
293.15	.8	889.7	
293.15	1	883.5	
303.15	0	909.7	
303.15	.2	903	
303.15	.4	895.5	
303.15	.6	889	
303.15	.8	881.6	
303.15	1	875.1	
313.15	0	901.3	
313.15	.2	894.8	
313.15	.4	887.6	
313.15	.6	880.2	
313.15	.8	873	
313.15	1	866.2	
323.15	0	894.7	
323.15	.2	887.8	
323.15	.4	880	
323.15	.6	872.2	
323.15	.8	864.6	
323.15	1	857.5	
333.15	0	887.2	
333.15	.2	880.6	
333.15	.4	872.1	
333.15	.6	864.3	
333.15	.8	856.4	
333.15	1	849.2	

System: N,N-diethylethanolamine + N-ethylethanolamine; phases: Liquid
Fixed: Pressure, kPa = 100
Property: Viscosity, Pa*s (Liquid); method: Capillary tube (Ostwald; Ubbelohde) method
Temperature, K	Mole fraction of N,N-diethylethanolamine	Viscosity, Pa*s	uncertainty
293.15	0	.01539	
293.15	.2	.01219	
293.15	.4	.00987	
293.15	.6	.00804	
293.15	.8	.00636	
293.15	1	.00481	
303.15	0	.00965	
303.15	.2	.00784	
303.15	.4	.00651	
303.15	.6	.0054	
303.15	.8	.00436	
303.15	1	.00337	
313.15	0	.00664	
313.15	.2	.00535	
313.15	.4	.0045	
313.15	.6	.00378	
313.15	.8	.00311	
313.15	1	.00246	
323.15	0	.00453	
323.15	.2	.00385	
323.15	.4	.0033	
323.15	.6	.0028	
323.15	.8	.00231	
323.15	1	.00186	
333.15	0	.00336	
333.15	.2	.00288	
333.15	.4	.00248	
333.15	.6	.00214	
333.15	.8	.00179	
333.15	1	.00146	

System: N-ethylethanolamine + water; phases: Liquid
Fixed: Pressure, kPa = 100
Property: Mass density, kg/m3 (Liquid); method: Vibrating tube method
Temperature, K	Mole fraction of water	Mass density, kg/m3	uncertainty
293.15	0	916.8	
293.15	.2	929.5	
293.15	.4	943.1	
293.15	.6	961.6	
293.15	.8	985.7	
293.15	1	998	
303.15	0	909.7	
303.15	.2	922.4	
303.15	.4	936.1	
303.15	.6	954.8	
303.15	.8	979.5	
303.15	1	995.1	
313.15	0	901.3	
313.15	.2	914	
313.15	.4	927.8	
313.15	.6	946	
313.15	.8	972.5	
313.15	1	992.2	
323.15	0	894.7	
323.15	.2	907.4	
323.15	.4	920.7	
323.15	.6	938.7	
323.15	.8	963	
323.15	1	989.2	
333.15	0	887.2	
333.15	.2	898.6	
333.15	.4	912	
333.15	.6	931.1	
333.15	.8	955.6	
333.15	1	985	

System: N-ethylethanolamine + water; phases: Liquid
Fixed: Pressure, kPa = 100
Property: Viscosity, Pa*s (Liquid); method: Capillary tube (Ostwald; Ubbelohde) method
Temperature, K	Mole fraction of water	Viscosity, Pa*s	uncertainty
293.15	0	.01539	
293.15	.2	.02382	
293.15	.4	.03173	
293.15	.6	.03102	
293.15	.8	.01383	
293.15	1	.00101	
303.15	0	.00965	
303.15	.2	.01454	
303.15	.4	.01856	
303.15	.6	.01734	
303.15	.8	.00834	
303.15	1	.0008	
313.15	0	.00664	
313.15	.2	.00929	
313.15	.4	.01141	
313.15	.6	.01071	
313.15	.8	.00544	
313.15	1	.00065	
323.15	0	.00453	
323.15	.2	.00623	
323.15	.4	.0073	
323.15	.6	.00708	
323.15	.8	.00373	
323.15	1	.00055	
333.15	0	.00336	
333.15	.2	.00452	
333.15	.4	.00503	
333.15	.6	.00468	
333.15	.8	.00269	
333.15	1	.00047	
