Measured thermophysical data. High-temperature phase equilibria of Cu-O-MgO system in air
Source: Thermochim. Acta, 2016, 10.1016/j.tca.2015.10.019
Compound 1: copper(I) oxide, Cu2O, purity 95%
Compound 2: magnesium oxide (MgO), MgO, purity 99%

System: magnesium oxide (MgO) + copper(I) oxide; phases: Liquid, Crystal
Fixed: Pressure, kPa = 101.325
Property: Mass fraction of copper(I) oxide (Liquid); method: Electron Probe Microanalysis
Temperature, K	Mass fraction of copper(I) oxide	uncertainty
1200	.998	.016
1200	.9984	.016
1200	.9981	.016
1300	.9944	.016
1300	.9944	.016
1400	.9968	.016
1400	.9989	.016
1500	.9992	.016
1500	.9964	.016

System: magnesium oxide (MgO) + copper(I) oxide; phases: Crystal, Liquid
Fixed: Pressure, kPa = 101.325
Property: Mass fraction of copper(I) oxide (Crystal); method: Electron Probe Microanalysis
Temperature, K	Mass fraction of copper(I) oxide	uncertainty
1200	.1939	.016
1200	.2021	.016
1200	.2007	.016
1300	.1427	.016
1300	.1422	.016
1400	.1101	.016
1400	.1038	.016
1500	.0768	.016
1500	.087	.016
