Measured thermophysical data. Excess molar volumes and isentropic compressibilities changes of mixing of  Tetrahydropyran + benzene + cyclo or n-alkanes ternary mixtures at 308.15 K
Source: Thermochim. Acta, 2010, 10.1016/j.tca.2010.03.012
Compound 1: tetrahydropyran, C5H10O
Compound 2: n-hexane, C6H14
Compound 3: heptane, C7H16
Compound 4: cyclohexane, C6H12
Compound 5: benzene, C6H6

System: tetrahydropyran; phases: Liquid
Fixed: Pressure, kPa = 101.325
Property: Mass density, kg/m3 (Liquid); method: Pycnometric method
Temperature, K	Mass density, kg/m3	uncertainty
308.15	868.81	.05

System: tetrahydropyran; phases: Liquid
Fixed: Pressure, kPa = 101.325
Property: Speed of sound, m/s (Liquid); method: Sing-around technique in a fixed-path interferometer
Temperature, K	Speed of sound, m/s	uncertainty
298.15	1272	1

System: n-hexane; phases: Liquid
Fixed: Pressure, kPa = 101.325
Property: Mass density, kg/m3 (Liquid); method: Pycnometric method
Temperature, K	Mass density, kg/m3	uncertainty
298.15	654.82	.05

System: n-hexane; phases: Liquid
Fixed: Pressure, kPa = 101.325
Property: Speed of sound, m/s (Liquid); method: Sing-around technique in a fixed-path interferometer
Temperature, K	Speed of sound, m/s	uncertainty
298.15	1079	1

System: heptane; phases: Liquid
Fixed: Pressure, kPa = 101.325
Property: Mass density, kg/m3 (Liquid); method: Pycnometric method
Temperature, K	Mass density, kg/m3	uncertainty
298.15	679.49	.05

System: heptane; phases: Liquid
Fixed: Pressure, kPa = 101.325
Property: Speed of sound, m/s (Liquid); method: Sing-around technique in a fixed-path interferometer
Temperature, K	Speed of sound, m/s	uncertainty
298.15	1088	1

System: cyclohexane; phases: Liquid
Fixed: Pressure, kPa = 101.325
Property: Mass density, kg/m3 (Liquid); method: Pycnometric method
Temperature, K	Mass density, kg/m3	uncertainty
298.15	773.94	.05

System: cyclohexane; phases: Liquid
Fixed: Pressure, kPa = 101.325
Property: Speed of sound, m/s (Liquid); method: Sing-around technique in a fixed-path interferometer
Temperature, K	Speed of sound, m/s	uncertainty
298.15	1255	1

System: benzene; phases: Liquid
Fixed: Pressure, kPa = 101.325
Property: Mass density, kg/m3 (Liquid); method: Pycnometric method
Temperature, K	Mass density, kg/m3	uncertainty
298.15	873.64	.05

System: benzene; phases: Liquid
Fixed: Pressure, kPa = 101.325
Property: Speed of sound, m/s (Liquid); method: Sing-around technique in a fixed-path interferometer
Temperature, K	Speed of sound, m/s	uncertainty
298.15	1298	1

System: benzene + cyclohexane + tetrahydropyran; phases: Liquid
Fixed: Pressure, kPa = 101
Fixed: Temperature, K = 308.15
Property: Excess molar volume, m3/mol (Liquid); method: Direct dilatometry
Mole fraction of tetrahydropyran	Mole fraction of benzene	Excess molar volume, m3/mol	uncertainty
.0791	.679	.000000414	.00000000207
.0881	.6649	.000000415	.000000002075
.149	.5621	.00000043	.00000000215
.1979	.5921	.000000346	.00000000173
.2871	.494	.00000034	.0000000017
.2719	.4621	.000000359	.000000001795
.3479	.3401	.000000338	.00000000169
.384	.3556	.000000292	.00000000146
.4131	.2949	.0000003	.0000000015
.449	.2871	.000000264	.00000000132
.5391	.2681	.000000187	.000000000935
.5629	.1931	.000000244	.00000000122
.6381	.1649	.000000183	.000000000915
.797	.0871	.000000099	.000000000495
.8371	.0631	.000000087	.000000000435
.873	.0511	.000000063	.000000000315
.0621	.7821	.000000292	.00000000146
.2021	.5731	.000000359	.000000001795
.2541	.5551	.000000332	.00000000166
.3033	.4312	.000000342	.00000000171
.3234	.3611	.000000351	.000000001755
.4682	.2721	.000000256	.00000000128
.4816	.2611	.000000251	.000000001255
.5018	.2418	.00000025	.00000000125
.5813	.1786	.000000244	.00000000122
.6014	.1708	.000000229	.000000001145
.6588	.1451	.00000019	.00000000095
.6857	.1326	.000000174	.00000000087
.7013	.1129	.00000019	.00000000095

System: benzene + cyclohexane + tetrahydropyran; phases: Liquid
Fixed: Pressure, kPa = 101
Fixed: Temperature, K = 308.15
Property: Speed of sound, m/s (Liquid); method: Sing-around technique in a fixed-path interferometer
Mole fraction of tetrahydropyran	Mole fraction of benzene	Speed of sound, m/s	uncertainty
.1542	.3013	1204	1
.1882	.3134	1204	1
.1741	.2321	1202	1
.0876	.1116	1204	1
.1	.1303	1204	1
.1249	.1884	1203	1
.1443	.5764	1221	1
.1843	.6119	1227	1
.2125	.6411	1232	1
.2384	.6201	1233	1
.3821	.4413	1225	1
.411	.4182	1224	1
.4512	.381	1223	1
.4883	.35	1222	1
.5001	.3401	1222	1
.5429	.3115	1222	1
.5819	.2744	1220	1
.6263	.2313	1219	1
.6544	.216	1219	1
.6813	.1981	1219	1
.7113	.1768	1219	1
.7384	.1601	1220	1
.7495	.1506	1220	1

System: benzene + n-hexane + tetrahydropyran; phases: Liquid
Fixed: Pressure, kPa = 101
Fixed: Temperature, K = 308.15
Property: Excess molar volume, m3/mol (Liquid); method: Direct dilatometry
Mole fraction of tetrahydropyran	Mole fraction of benzene	Excess molar volume, m3/mol	uncertainty
.091	.5443	-.000000184	-.00000000092
.0913	.1421	-.000000037	-.000000000185
.1214	.1671	-.000000022	-.00000000011
.1278	.1812	-.00000002	-.0000000001
.1301	.1876	-.00000002	-.0000000001
.1421	.2001	-.000000013	-.000000000065
.1511	.2042	-.000000005	-.000000000025
.1629	.2215	-.000000001	-.000000000005
.1712	.6421	-.000000101	-.000000000505
.3452	.3312	.000000072	.00000000036
.3352	.3112	.000000074	.00000000037
.3122	.2913	.000000072	.00000000036
.2987	.3013	.000000067	.000000000335
.2612	.267	.000000055	.000000000275
.3621	.3422	.000000072	.00000000036
.3713	.3489	.000000071	.000000000355
.3812	.3621	.000000067	.000000000335
.3942	.3202	.000000076	.00000000038
.3937	.3498	.00000007	.00000000035
.1214	.6123	-.000000153	-.000000000765
.1131	.5002	-.000000139	-.000000000695
.091	.5443	-.000000184	-.00000000092
.05	.6111	-.000000266	-.00000000133
.0482	.7121	-.000000258	-.00000000129
.6121	.2131	.000000034	.00000000017
.6343	.1998	.000000026	.00000000013
.6567	.1821	.000000019	.000000000095
.6813	.1712	.00000001	.00000000005
.7011	.1541	.000000003	.000000000015
.7898	.1223	-.000000024	-.00000000012

System: benzene + n-hexane + tetrahydropyran; phases: Liquid
Fixed: Pressure, kPa = 101
Fixed: Temperature, K = 308.15
Property: Speed of sound, m/s (Liquid); method: Sing-around technique in a fixed-path interferometer
Mole fraction of tetrahydropyran	Mole fraction of benzene	Speed of sound, m/s	uncertainty
.1073	.1998	1080	1
.1312	.2417	1092	1
.1554	.2713	1102	1
.1753	.3089	1114	1
.1003	.11	1065	1
.0876	.0645	1057	1
.2021	.35	1131	1
.2353	.3821	1148	1
.2568	.411	1163	1
.3037	.5076	1199	1
.2887	.4446	1181	1
.3213	.4813	1197	1
.3394	.5489	1210	1
.3572	.5619	1214	1
.3823	.5322	1212	1
.4165	.4812	1209	1
.4432	.4352	1207	1
.4873	.3812	1207	1
.5225	.3143	1203	1
.5017	.2812	1190	1
.6332	.2144	1201	1
.6676	.2021	1205	1
.6894	.1866	1205	1
.7021	.1721	1204	1
.7313	.1454	1203	1

System: benzene + tetrahydropyran + heptane; phases: Liquid
Fixed: Pressure, kPa = 101
Fixed: Temperature, K = 308.15
Property: Excess molar volume, m3/mol (Liquid); method: Direct dilatometry
Mole fraction of tetrahydropyran	Mole fraction of benzene	Excess molar volume, m3/mol	uncertainty
.0587	.7349	.00000033	.00000000165
.0652	.7032	.000000362	.00000000181
.0764	.6542	.000000404	.00000000202
.0867	.5891	.000000455	.000000002275
.1007	.4925	.000000502	.00000000251
.1216	.4731	.000000492	.00000000246
.1307	.4625	.000000489	.000000002445
.1482	.4827	.000000467	.000000002335
.1621	.5113	.000000442	.00000000221
.1831	.4931	.000000435	.000000002175
.2023	.4711	.00000043	.00000000215
.2321	.4454	.000000418	.00000000209
.2511	.4221	.00000041	.00000000205
.2772	.3679	.000000398	.00000000199
.3032	.3452	.00000038	.0000000019
.3691	.2191	.000000319	.000000001595
.3325	.2381	.000000343	.000000001715
.3823	.2001	.000000309	.000000001545
.4012	.1982	.000000299	.000000001495
.3033	.4312	.000000371	.000000001855
.3234	.3611	.000000368	.00000000184
.4682	.2721	.000000271	.000000001355
.4816	.2611	.000000262	.00000000131
.5018	.2418	.000000248	.00000000124
.5813	.1786	.000000202	.00000000101
.6014	.1708	.000000191	.000000000955
.6588	.1451	.000000161	.000000000805
.6857	.1326	.000000148	.00000000074
.7013	.1129	.000000147	.000000000735

System: benzene + tetrahydropyran + heptane; phases: Liquid
Fixed: Pressure, kPa = 101
Fixed: Temperature, K = 308.15
Property: Speed of sound, m/s (Liquid); method: Sing-around technique in a fixed-path interferometer
Mole fraction of tetrahydropyran	Mole fraction of benzene	Speed of sound, m/s	uncertainty
.0567	.8921	1230	1
.0942	.8657	1232	1
.1217	.8341	1229	1
.1542	.7091	1226	1
.1828	.1513	1092	1
.2125	.7612	1234	1
.2321	.7511	1241	1
.2617	.7111	1232	1
.2889	.6888	1234	1
.3012	.6421	1214	1
.3361	.6132	1222	1
.3721	.5439	1229	1
.4012	.1871	1099	1
.4813	.1885	1109	1
.5001	.211	1117	1
.6012	.1998	1139	1
.4112	.19	1100	1
.4321	.1921	1102	1
.4613	.2001	1106	1
.699	.2169	1185	1
.7127	.201	1184	1
.1915	.15	1090	1
.4131	.5431	1219	1
.5113	.4002	1188	1
.4221	.5154	1208	1
