Measured thermophysical data. Solubilities of hydroxybenzaldehyde isomers and their mixture in subcritical 1,1,1,2-tetrafluoroethane
Source: Thermochim. Acta, 2016, 10.1016/j.tca.2015.11.027
Compound 1: 4-hydroxybenzaldehyde, C7H6O2, purity 98.0%
Compound 2: 3-hydroxybenzaldehyde, C7H6O2, purity 97.0%
Compound 3: 1,1,1,2-tetrafluoroethane, C2H2F4, purity 99.9%

System: 4-hydroxybenzaldehyde + 1,1,1,2-tetrafluoroethane; phases: Liquid, Crystal
Property: Mole fraction of 4-hydroxybenzaldehyde (Liquid); method: Chromatography
Temperature, K	Pressure, kPa	Mole fraction of 4-hydroxybenzaldehyde	uncertainty
308	5000	.000027	.000001755
308	7000	.000036	.00000234
308	9000	.000048	.00000312
308	11000	.000064	.00000416
308	13000	.000084	.00000546
308	15000	.000114	.00000741
318	5000	.000022	.00000143
318	7000	.000032	.00000208
318	9000	.000053	.000003445
318	11000	.000073	.000004745
318	13000	.000103	.000006695
318	15000	.000144	.00000936
328	5000	.000017	.000001105
328	7000	.000027	.000001755
328	9000	.000053	.000003445
328	11000	.000084	.00000546
328	13000	.000125	.000008125
328	15000	.00018	.0000117

System: 3-hydroxybenzaldehyde + 1,1,1,2-tetrafluoroethane; phases: Liquid, Crystal
Property: Mole fraction of 3-hydroxybenzaldehyde (Liquid); method: Chromatography
Temperature, K	Pressure, kPa	Mole fraction of 3-hydroxybenzaldehyde	uncertainty
308	5000	.000078	.00000507
308	7000	.000092	.00000598
308	9000	.000115	.000007475
308	11000	.000138	.00000897
308	13000	.000157	.000010205
308	15000	.000185	.000012025
318	5000	.000067	.000004355
318	7000	.000095	.000006175
318	9000	.000129	.000008385
318	11000	.000173	.000011245
318	13000	.000211	.000013715
318	15000	.000247	.000016055
328	5000	.000058	.00000377
328	7000	.000099	.000006435
328	9000	.000142	.00000923
328	11000	.000211	.000013715
328	13000	.000268	.00001742
328	15000	.000316	.00002054

System: 3-hydroxybenzaldehyde + 4-hydroxybenzaldehyde + 1,1,1,2-tetrafluoroethane; phases: Liquid, Crystal, Crystal
Property: Mole fraction of 4-hydroxybenzaldehyde (Liquid); method: Chromatography
Temperature, K	Pressure, kPa	Mole fraction of 4-hydroxybenzaldehyde	uncertainty
308	5000	.000038	.00000247
308	7000	.000053	.000003445
308	9000	.00007	.00000455
308	11000	.000093	.000006045
308	13000	.000114	.00000741
308	15000	.000143	.000009295
318	5000	.000032	.00000208
318	7000	.000049	.000003185
318	9000	.000081	.000005265
318	11000	.000115	.000007475
318	13000	.000147	.000009555
318	15000	.000191	.000012415
328	5000	.000024	.00000156
328	7000	.000051	.000003315
328	9000	.00009	.00000585
328	11000	.000133	.000008645
328	13000	.000185	.000012025
328	15000	.000245	.000015925

System: 3-hydroxybenzaldehyde + 4-hydroxybenzaldehyde + 1,1,1,2-tetrafluoroethane; phases: Liquid, Crystal, Crystal
Property: Mole fraction of 3-hydroxybenzaldehyde (Liquid); method: Chromatography
Temperature, K	Pressure, kPa	Mole fraction of 3-hydroxybenzaldehyde	uncertainty
308	5000	.000092	.00000598
308	7000	.000123	.000007995
308	9000	.000158	.00001027
308	11000	.000197	.000012805
308	13000	.000243	.000015795
308	15000	.000276	.00001794
318	5000	.000077	.000005005
318	7000	.000124	.00000806
318	9000	.000175	.000011375
318	11000	.000223	.000014495
318	13000	.000287	.000018655
318	15000	.000367	.000023855
328	5000	.000059	.000003835
328	7000	.000126	.00000819
328	9000	.000197	.000012805
328	11000	.000274	.00001781
328	13000	.000363	.000023595
328	15000	.000451	.000029315
