Measured thermophysical data. Phase diagrams for the aqueous solutions of butyric acid with cyclohexane at different  temperatures: Experimental and correlated data
Source: Thermochim. Acta, 2011, 10.1016/j.tca.2011.05.017
Compound 1: 1-propanecarboxylic acid, C4H8O2, purity 99%
Compound 2: cyclohexane, C6H12, purity 99.5%
Compound 3: water, H2O

System: 1-propanecarboxylic acid + cyclohexane + water; phases: Liquid mixture 2, Liquid mixture 1
Fixed: Pressure, kPa = 101
Property: Mole fraction of water (Liquid mixture 2); method: Titration method
Property: Mole fraction of water (Liquid mixture 1); method: Titration method
Property: Mole fraction of 1-propanecarboxylic acid (Liquid mixture 1); method: Titration method
Temperature, K	Mole fraction of 1-propanecarboxylic acid	Mole fraction of water	uncertainty	Mole fraction of water	uncertainty	Mole fraction of 1-propanecarboxylic acid	uncertainty
298.2	.2865	.0173	.001	.9754	.001	.0172	.001
298.2	.3656	.0247	.001	.9662	.001	.0278	.001
298.2	.4316	.037	.001	.954	.001	.0338	.001
298.2	.4975	.0662	.001	.9477	.001	.0438	.001
298.2	.5311	.113	.001	.93	.001	.0562	.001
303.2	.2868	.0182	.001	.9801	.001	.0194	.001
303.2	.3744	.0356	.001	.9696	.001	.0298	.001
303.2	.4289	.0617	.001	.9594	.001	.0397	.001
303.2	.4731	.0969	.001	.9495	.001	.0494	.001
303.2	.4955	.1465	.001	.9394	.001	.0589	.001
308.2	.286	.0188	.001	.9785	.001	.0201	.001
308.2	.3653	.0378	.001	.9675	.001	.0309	.001
308.2	.4239	.0649	.001	.9567	.001	.0416	.001
308.2	.4663	.1053	.001	.946	.001	.052	.001
308.2	.4795	.1505	.001	.9351	.001	.0626	.001
313.2	.2838	.0223	.001	.9772	.001	.0208	.001
313.2	.36	.041	.001	.9665	.001	.0314	.001
313.2	.414	.0804	.001	.9555	.001	.0421	.001
313.2	.452	.1268	.001	.9442	.001	.0531	.001
313.2	.4668	.1585	.001	.9332	.001	.0637	.001
