Measured thermophysical data. DIELECTRIC AND REFRACTIVE INDEX MEASUREMENTS FOR THE SYSTEMS 1-PENTANOL +  OCTANE, OR + DIBUTYL ETHER OR FOR DIBUTYL ETHER + OCTANE AT DIFFERENT TEMPERATURES
Source: Thermochim. Acta, 2012, 10.1016/j.tca.2012.05.036
Compound 1: pentan-1-ol, C5H12O, purity 99%
Compound 2: n-octane, C8H18, purity 99%
Compound 3: butyl oxide, C8H18O, purity 99.5%

System: pentan-1-ol; phases: Liquid
Fixed: Pressure, kPa = 101.325
Property: Mass density, kg/m3 (Liquid); method: Vibrating tube method
Temperature, K	Mass density, kg/m3	uncertainty
288.15	818.49	
293.15	814.82	
298.15	811.19	
303.15	807.5	
308.15	803.86	

System: pentan-1-ol; phases: Liquid
Fixed: Pressure, kPa = 101.325
Property: Relative permittivity at zero frequency (Liquid); method: Parallel plate capacitor
Temperature, K	Relative permittivity at zero frequency	uncertainty
288.15	16.334	.49002
293.15	15.736	.47208
298.15	15.144	.45432
303.15	14.565	.43695
308.15	13.998	.41994

System: pentan-1-ol; phases: Liquid
Fixed: Pressure, kPa = 101.325
Property: Refractive index (Na D-line) (Liquid); method: Standard Abbe refractometry
Temperature, K	Refractive index (Na D-line)	uncertainty
293.15	1.41001	.0002
298.15	1.4084	.0002
303.15	1.4065	.0002

System: n-octane; phases: Liquid
Fixed: Pressure, kPa = 101.325
Property: Mass density, kg/m3 (Liquid); method: Vibrating tube method
Temperature, K	Mass density, kg/m3	uncertainty
288.15	706.81	
293.15	702.77	
298.15	698.73	
303.15	694.7	
308.15	690.67	

System: n-octane; phases: Liquid
Fixed: Pressure, kPa = 101.325
Property: Relative permittivity at zero frequency (Liquid); method: Parallel plate capacitor
Temperature, K	Relative permittivity at zero frequency	uncertainty
288.15	1.975	.05925
293.15	1.968	.05904
298.15	1.961	.05883
303.15	1.954	.05862
308.15	1.947	.05841

System: n-octane; phases: Liquid
Fixed: Pressure, kPa = 101.325
Property: Refractive index (Na D-line) (Liquid); method: Standard Abbe refractometry
Temperature, K	Refractive index (Na D-line)	uncertainty
293.15	1.3991	.0002
298.15	1.3967	.0002
303.15	1.3945	.0002

System: butyl oxide; phases: Liquid
Fixed: Pressure, kPa = 101.325
Property: Mass density, kg/m3 (Liquid); method: Vibrating tube method
Temperature, K	Mass density, kg/m3	uncertainty
288.15	772.6	
293.15	768.27	
298.15	763.97	
303.15	759.62	
308.15	755.31	

System: butyl oxide; phases: Liquid
Fixed: Pressure, kPa = 101.325
Property: Relative permittivity at zero frequency (Liquid); method: Parallel plate capacitor
Temperature, K	Relative permittivity at zero frequency	uncertainty
288.15	3.186	.09558
293.15	3.145	.09435
298.15	3.106	.09318
303.15	3.068	.09204
308.15	3.031	.09093

System: butyl oxide; phases: Liquid
Fixed: Pressure, kPa = 101.325
Property: Refractive index (Na D-line) (Liquid); method: Standard Abbe refractometry
Temperature, K	Refractive index (Na D-line)	uncertainty
293.15	1.3978	.0002
298.15	1.3958	.0002
303.15	1.393	.0002

System: pentan-1-ol + n-octane; phases: Liquid
Fixed: Pressure, kPa = 101
Property: Relative permittivity at zero frequency (Liquid); method: Parallel plate capacitor
Temperature, K	Mole fraction of pentan-1-ol	Relative permittivity at zero frequency	uncertainty
288.15	.1008	2.104	.06312
288.15	.2034	2.331	.06993
288.15	.3004	2.766	.08298
288.15	.3808	3.405	.10215
288.15	.4885	4.798	.14394
288.15	.593	6.675	.20025
288.15	.6992	8.743	.26229
288.15	.7922	11.143	.33429
288.15	.8967	13.734	.41202
293.15	.1008	2.1	.063
293.15	.2034	2.321	.06963
293.15	.3004	2.731	.08193
293.15	.3808	3.32	.0996
293.15	.4885	4.601	.13803
293.15	.593	6.358	.19074
293.15	.6992	8.332	.24996
293.15	.7922	10.654	.31962
293.15	.8967	13.179	.39537
298.15	.1008	2.096	.06288
298.15	.2034	2.312	.06936
298.15	.3004	2.699	.08097
298.15	.3808	3.243	.09729
298.15	.4885	4.421	.13263
298.15	.593	6.053	.18159
298.15	.6992	7.936	.23808
298.15	.7922	10.175	.30525
298.15	.8967	12.634	.37902
303.15	.1008	2.092	.06276
303.15	.2034	2.304	.06912
303.15	.3004	2.669	.08007
303.15	.3808	3.173	.09519
303.15	.4885	4.257	.12771
303.15	.593	5.774	.17322
303.15	.6992	7.559	.22677
303.15	.7922	9.712	.29136
303.15	.8967	12.103	.36309
308.15	.1008	2.088	.06264
308.15	.2034	2.297	.06891
308.15	.3004	2.643	.07929
308.15	.3808	3.111	.09333
308.15	.4885	4.109	.12327
308.15	.593	5.516	.16548
308.15	.6992	7.204	.21612
308.15	.7922	9.267	.27801
308.15	.8967	11.585	.34755

System: pentan-1-ol + n-octane; phases: Liquid
Fixed: Pressure, kPa = 101
Property: Refractive index (Na D-line) (Liquid); method: Standard Abbe refractometry
Temperature, K	Mole fraction of pentan-1-ol	Refractive index (Na D-line)	uncertainty
293.15	.1008	1.3981	.0002
293.15	.2034	1.3988	.0002
293.15	.3004	1.3997	.0002
293.15	.3808	1.4005	.0002
293.15	.4885	1.4019	.0002
293.15	.593	1.4033	.0002
293.15	.6992	1.4047	.0002
293.15	.7922	1.4063	.0002
293.15	.8967	1.4082	.0002
298.15	.1008	1.3965	.0002
298.15	.2034	1.3973	.0002
298.15	.3004	1.3982	.0002
298.15	.3808	1.3991	.0002
298.15	.4885	1.4004	.0002
298.15	.593	1.4019	.0002
298.15	.6992	1.4034	.0002
298.15	.7922	1.405	.0002
298.15	.8967	1.407	.0002
303.15	.1008	1.3937	.0002
303.15	.2034	1.3946	.0002
303.15	.3004	1.3955	.0002
303.15	.3808	1.3964	.0002
303.15	.4885	1.3979	.0002
303.15	.593	1.3993	.0002
303.15	.6992	1.4008	.0002
303.15	.7922	1.4026	.0002
303.15	.8967	1.4046	.0002

System: pentan-1-ol + butyl oxide; phases: Liquid
Fixed: Pressure, kPa = 101
Property: Relative permittivity at zero frequency (Liquid); method: Parallel plate capacitor
Temperature, K	Mole fraction of pentan-1-ol	Relative permittivity at zero frequency	uncertainty
288.15	.1104	3.61	.1083
288.15	.1877	4.008	.12024
288.15	.3047	4.628	.13884
288.15	.4064	5.426	.16278
288.15	.5075	6.482	.19446
288.15	.6034	7.776	.23328
288.15	.7038	9.464	.28392
288.15	.8018	11.446	.34338
288.15	.9048	13.846	.41538
293.15	.1104	3.556	.10668
293.15	.1877	3.939	.11817
293.15	.3047	4.528	.13584
293.15	.4064	5.285	.15855
293.15	.5075	6.281	.18843
293.15	.6034	7.505	.22515
293.15	.7038	9.112	.27336
293.15	.8018	11.011	.33033
293.15	.9048	13.328	.39984
298.15	.1104	3.502	.10506
298.15	.1877	3.871	.11613
298.15	.3047	4.431	.13293
298.15	.4064	5.147	.15441
298.15	.5075	6.087	.18261
298.15	.6034	7.242	.21726
298.15	.7038	8.768	.26304
298.15	.8018	10.583	.31749
298.15	.9048	12.812	.38436
303.15	.1104	3.449	.10347
303.15	.1877	3.805	.11415
303.15	.3047	4.338	.13014
303.15	.4064	5.015	.15045
303.15	.5075	5.901	.17703
303.15	.6034	6.992	.20976
303.15	.7038	8.437	.25311
303.15	.8018	10.169	.30507
303.15	.9048	12.313	.36939
308.15	.1104	3.399	.10197
308.15	.1877	3.741	.11223
308.15	.3047	4.249	.12747
308.15	.4064	5.018	.15054
308.15	.5075	5.725	.17175
308.15	.6034	6.752	.20256
308.15	.7038	8.123	.24369
308.15	.8018	9.771	.29313
308.15	.9048	11.828	.35484

System: pentan-1-ol + butyl oxide; phases: Liquid
Fixed: Pressure, kPa = 101
Property: Refractive index (Na D-line) (Liquid); method: Standard Abbe refractometry
Temperature, K	Mole fraction of pentan-1-ol	Refractive index (Na D-line)	uncertainty
293.15	.1104	1.4001	.0002
293.15	.1877	1.4011	.0002
293.15	.3047	1.4021	.0002
293.15	.4064	1.4031	.0002
293.15	.5075	1.4042	.0002
293.15	.6034	1.4053	.0002
293.15	.7038	1.4065	.0002
293.15	.8018	1.4077	.0002
293.15	.9048	1.4089	.0002
298.15	.1104	1.3976	.0002
298.15	.1877	1.3985	.0002
298.15	.3047	1.3995	.0002
298.15	.4064	1.4008	.0002
298.15	.5075	1.4017	.0002
298.15	.6034	1.4029	.0002
298.15	.7038	1.4041	.0002
298.15	.8018	1.4054	.0002
298.15	.9048	1.4067	.0002
303.15	.1104	1.3958	.0002
303.15	.1877	1.3968	.0002
303.15	.3047	1.3979	.0002
303.15	.4064	1.3989	.0002
303.15	.5075	1.4001	.0002
303.15	.6034	1.4013	.0002
303.15	.7038	1.4026	.0002
303.15	.8018	1.4038	.0002
303.15	.9048	1.4052	.0002

System: n-octane + butyl oxide; phases: Liquid
Fixed: Pressure, kPa = 101
Property: Relative permittivity at zero frequency (Liquid); method: Parallel plate capacitor
Temperature, K	Mole fraction of butyl oxide	Relative permittivity at zero frequency	uncertainty
288.15	.1014	2.074	.06222
288.15	.2033	2.18	.0654
288.15	.306	2.292	.06876
288.15	.406	2.405	.07215
288.15	.5063	2.524	.07572
288.15	.6002	2.621	.07863
288.15	.7036	2.775	.08325
288.15	.8029	2.908	.08724
288.15	.9003	3.043	.09129
293.15	.1014	2.065	.06195
293.15	.2033	2.168	.06504
293.15	.306	2.278	.06834
293.15	.406	2.388	.07164
293.15	.5063	2.504	.07512
293.15	.6002	2.617	.07851
293.15	.7036	2.747	.08241
293.15	.8029	2.876	.08628
293.15	.9003	3.007	.09021
298.15	.1014	2.056	.06168
298.15	.2033	2.155	.06465
298.15	.306	2.263	.06789
298.15	.406	2.371	.07113
298.15	.5063	2.484	.07452
298.15	.6002	2.594	.07782
298.15	.7036	2.719	.08157
298.15	.8029	2.844	.08532
298.15	.9003	2.972	.08916
303.15	.1014	2.047	.06141
303.15	.2033	2.144	.06432
303.15	.306	2.249	.06747
303.15	.406	2.353	.07059
303.15	.5063	2.464	.07392
303.15	.6002	2.57	.0771
303.15	.7036	2.692	.08076
303.15	.8029	2.814	.08442
303.15	.9003	2.938	.08814
308.15	.1014	2.038	.06114
308.15	.2033	2.133	.06399
308.15	.306	2.235	.06705
308.15	.406	2.337	.07011
308.15	.5063	2.444	.07332
308.15	.6002	2.548	.07644
308.15	.7036	2.667	.08001
308.15	.8029	2.785	.08355
308.15	.9003	2.905	.08715

System: n-octane + butyl oxide; phases: Liquid
Fixed: Pressure, kPa = 101
Property: Refractive index (Na D-line) (Liquid); method: Standard Abbe refractometry
Temperature, K	Mole fraction of butyl oxide	Refractive index (Na D-line)	uncertainty
293.15	.1014	1.3979	.0002
293.15	.2033	1.3979	.0002
293.15	.306	1.398	.0002
293.15	.406	1.3981	.0002
293.15	.5063	1.3982	.0002
293.15	.6002	1.3983	.0002
293.15	.7036	1.3985	.0002
293.15	.8029	1.3987	.0002
293.15	.9003	1.3989	.0002
298.15	.1014	1.3955	.0002
298.15	.2033	1.3955	.0002
298.15	.306	1.3956	.0002
298.15	.406	1.3957	.0002
298.15	.5063	1.3959	.0002
298.15	.6002	1.396	.0002
298.15	.7036	1.3962	.0002
298.15	.8029	1.3964	.0002
298.15	.9003	1.3966	.0002
303.15	.1014	1.3929	.0002
303.15	.2033	1.3929	.0002
303.15	.306	1.393	.0002
303.15	.406	1.3931	.0002
303.15	.5063	1.3932	.0002
303.15	.6002	1.3934	.0002
303.15	.7036	1.3935	.0002
303.15	.8029	1.3937	.0002
303.15	.9003	1.3939	.0002
