Measured thermophysical data. Thermal, physicochemical and microstructural studies of organic analog of nonmetal-nonmetal  monotectic alloy
Source: Thermochim. Acta, 2009, 10.1016/j.tca.2009.10.010
Compound 1: 1,3-benzenediol, C6H6O2
Compound 2: p-diiodobenzene, C6H4I2

System: 1,3-benzenediol; phases: Crystal, Liquid, Air at 1 atmosphere
Property: Normal melting temperature, K (Crystal); method: Visual observation
Normal melting temperature, K	uncertainty
383.65	.5

System: 1,3-benzenediol; phases: Crystal, Liquid, Air at 1 atmosphere
Property: Molar enthalpy of transition or fusion, kJ/mol (Crystal); method: DSC/DTA
Molar enthalpy of transition or fusion, kJ/mol	uncertainty
22.2	

System: p-diiodobenzene; phases: Crystal, Liquid, Air at 1 atmosphere
Property: Normal melting temperature, K (Crystal); method: Visual observation
Normal melting temperature, K	uncertainty
403.15	.5

System: p-diiodobenzene; phases: Crystal, Liquid, Air at 1 atmosphere
Property: Molar enthalpy of transition or fusion, kJ/mol (Crystal); method: DSC/DTA
Molar enthalpy of transition or fusion, kJ/mol	uncertainty
24.13	

System: 1,3-benzenediol + p-diiodobenzene; phases: Liquid, Crystal
Fixed: Pressure, kPa = 101
Property: Solid-liquid equilibrium temperature, K (Liquid); method: Phase diagram between different composition and their respective melting/miscibility temperature.
Mole fraction of 1,3-benzenediol	Solid-liquid equilibrium temperature, K	uncertainty
0	403.15	.5
.03	401.15	.5
.05	400.65	.5

System: 1,3-benzenediol + p-diiodobenzene; phases: Liquid, Crystal
Fixed: Pressure, kPa = 101
Property: Solid-liquid equilibrium temperature, K (Liquid); method: Phase diagram between different composition and their respective melting/miscibility temperature.
Mole fraction of 1,3-benzenediol	Solid-liquid equilibrium temperature, K	uncertainty
.97	381.15	.5
.98	381.65	.5
.99	382.65	.5
1	383.65	.5

System: 1,3-benzenediol + p-diiodobenzene; phases: Liquid mixture 1, Liquid mixture 2
Fixed: Pressure, kPa = 101
Property: Liquid-liquid equilibrium temperature, K (Liquid mixture 1); method: Phase diagram between different composition and their respective melting/miscibility temperature.
Mole fraction of 1,3-benzenediol	Liquid-liquid equilibrium temperature, K	uncertainty
.065	401.15	.5
.075	402.15	.5
.085	404.15	.5
.1	408.15	.5
.15	416.15	.5
.2	422.15	.5
.25	426.15	.5
.3	429.15	.5
.35	431.15	.5
.4	432.15	.5
.45	433.15	.5
.475	433.65	.5
.5	434.15	.5
.525	433.65	.5
.55	433.15	.5
.6	433.15	.5
.625	432.15	.5
.65	432.15	.5
.7	431.15	.5
.75	427.15	.5
.8	419.15	.5
.85	411.15	.5
.9	392.15	.5
.92	388.15	.5
.95	383.15	.5
.96	381.65	.5
