Measured thermophysical data. Liquid liquid equilibria of hydrophilic alcohol + sodiumhydroxide + water systems: Experimental and correlation
Source: Thermochim. Acta, 2013, 10.1016/j.tca.2013.06.008
Compound 1: sodium hydroxide, HNaO
Compound 2: ethanol, C2H6O
Compound 3: 2-propanol, C3H8O
Compound 4: 1-propanol, C3H8O
Compound 5: water, H2O
Compound 6: sodium fluoride, FNa

System: ethanol + sodium fluoride + water; phases: Liquid mixture 1, Liquid mixture 2
Fixed: Pressure, kPa = 101
Property: Mass fraction of ethanol (Liquid mixture 1); method: Titration method
Temperature, K	Mass fraction of sodium fluoride	Mass fraction of ethanol	uncertainty
298.15	.03618	.04145	
298.15	.03494	.04434	
298.15	.0299	.06897	
298.15	.02887	.08365	
298.15	.02691	.09028	
298.15	.02598	.08967	
298.15	.02139	.1337	
298.15	.02064	.1406	
298.15	.01765	.1665	
298.15	.01617	.1895	
298.15	.01508	.1927	
298.15	.01213	.225	
298.15	.01019	.2675	

System: ethanol + sodium hydroxide + water; phases: Liquid mixture 1, Liquid mixture 2
Fixed: Pressure, kPa = 101
Property: Mass fraction of ethanol (Liquid mixture 1); method: Titration method
Temperature, K	Mass fraction of sodium hydroxide	Mass fraction of ethanol	uncertainty
298.15	.2251	.1791	
298.15	.2665	.0724	
298.15	.287	.0486	
298.15	.3079	.0341	
298.15	.3496	.0246	
313.15	.1828	.2726	
313.15	.2343	.1119	
313.15	.2576	.0727	
313.15	.2769	.0533	
313.15	.2965	.0411	
313.15	.3181	.0333	
313.15	.3403	.0277	
313.15	.3662	.0199	
313.15	.403	.0142	

System: 2-propanol + sodium hydroxide + water; phases: Liquid mixture 1, Liquid mixture 2
Fixed: Pressure, kPa = 101
Property: Mass fraction of 2-propanol (Liquid mixture 1); method: Titration method
Temperature, K	Mass fraction of sodium hydroxide	Mass fraction of 2-propanol	uncertainty
283.15	.0145	.5886	
283.15	.0189	.5442	
283.15	.0255	.4973	
283.15	.0266	.4717	
283.15	.0289	.4692	
283.15	.0332	.4373	
283.15	.0385	.4009	
283.15	.0501	.3237	
283.15	.0609	.2615	
283.15	.0676	.2277	
283.15	.075	.1965	
283.15	.0923	.1373	
283.15	.1029	.1087	
298.15	.0061	.6992	
298.15	.0089	.6407	
298.15	.0108	.6112	
298.15	.0136	.5719	
298.15	.0236	.4672	
298.15	.0298	.425	
298.15	.0367	.36	
298.15	.047	.3	
298.15	.0572	.2521	
298.15	.0611	.2308	
298.15	.0736	.174	
298.15	.0783	.1572	
298.15	.0888	.128	
298.15	.1009	.1015	
298.15	.1142	.079	
298.15	.1315	.063	
298.15	.1548	.041	
298.15	.1691	.032	
298.15	.1859	.025	
298.15	.205	.018	
298.15	.2281	.0139	
298.15	.2556	.0116	
313.15	.008	.6621	
313.15	.0113	.6159	
313.15	.0174	.5282	
313.15	.0235	.4552	
313.15	.035	.37	
313.15	.04	.32	
313.15	.044	.295	
313.15	.05	.26	
313.15	.0583	.2029	
313.15	.0656	.1615	
313.15	.0733	.131	
313.15	.0771	.1205	
313.15	.0854	.1019	
313.15	.095	.0854	
313.15	.1065	.0691	
313.15	.1203	.0557	
313.15	.1381	.0391	
313.15	.16	.0284	
313.15	.1895	.0207	
313.15	.2299	.0127	
313.15	.2585	.0091	
313.15	.2933	.007	

System: 1-propanol + sodium hydroxide + water; phases: Liquid mixture 1, Liquid mixture 2
Fixed: Pressure, kPa = 101
Property: Mass fraction of 1-propanol (Liquid mixture 1); method: Titration method
Temperature, K	Mass fraction of sodium hydroxide	Mass fraction of 1-propanol	uncertainty
283.15	.0177	.6017	
283.15	.0271	.471	
283.15	.0338	.4052	
283.15	.0363	.379	
283.15	.042	.323	
283.15	.049	.2617	
283.15	.0563	.2068	
283.15	.0674	.152	
283.15	.0755	.1276	
283.15	.0799	.1138	
283.15	.0847	.1026	
283.15	.1016	.0753	
283.15	.1161	.0597	
283.15	.1248	.0518	
283.15	.1347	.0441	
283.15	.146	.0368	
283.15	.1595	.0284	
283.15	.1744	.0247	
283.15	.1934	.0163	
298.15	.008	.75	
298.15	.01	.71	
298.15	.0125	.65	
298.15	.0145	.61	
298.15	.0199	.5157	
298.15	.023	.45	
298.15	.028	.4	
298.15	.031	.3637	
298.15	.039	.27	
298.15	.045	.22	
298.15	.0519	.1832	
298.15	.066	.1251	
298.15	.0805	.0965	
298.15	.096	.0687	
298.15	.1087	.0564	
298.15	.1246	.049	
298.15	.1455	.0386	
298.15	.1593	.0321	
298.15	.1755	.0242	
298.15	.1963	.0149	
298.15	.2215	.0084	
298.15	.2506	.0056	
313.15	.0065	.7743	
313.15	.0095	.7269	
313.15	.012	.67	
313.15	.0155	.609	
313.15	.0187	.5375	
313.15	.022	.46	
313.15	.028	.37	
313.15	.033	.3	
313.15	.0387	.2354	
313.15	.0438	.1958	
313.15	.0495	.1584	
313.15	.0586	.125	
313.15	.0752	.0875	
313.15	.086	.0757	
313.15	.0999	.0637	
313.15	.1195	.0459	
313.15	.1351	.0411	
313.15	.1598	.0252	
313.15	.1929	.0166	
313.15	.2144	.0156	
313.15	.2417	.0146	
313.15	.277	.0136	
