Measured thermophysical data. Enthalpy of formation of the Li22Si5 intermetallic compound
Source: Thermochim. Acta, 2013, 10.1016/j.tca.2012.10.015
Compound 1: Li22Si5 intermolecular compound, Li22Si5, purity 99%
Compound 2: lithium, Li
Compound 3: silicon, Si

Reaction: -22 lithium + -5 silicon + 1 Li22Si5 intermolecular compound
Property: Molar enthalpy of reaction, kJ/mol
-657.4
