Measured thermophysical data. Vapour pressure of tetra-tert-butylsubstituted phthalocyanines and structural features of their  films
Source: Thermochim. Acta, 2010, 10.1016/j.tca.2010.01.019
Compound 1: copper tetra-4-tert-butylphthalocyanine, C48H48CuN8
Compound 2: vanadyl tetra-4-tert-butylphthalocyanine, C48H48N8OV

System: copper tetra-4-tert-butylphthalocyanine; phases: Crystal, Gas
Property: Vapor or sublimation pressure, kPa (Crystal); method: Knudsen effusion method
Temperature, K	Vapor or sublimation pressure, kPa	uncertainty
587	.000004737	.0000004737
604	.00001852	.000001852
620	.00005892	.000005892
640	.0001549	.00001549
656	.0004	.00004
679	.0008741	.00008741
696	.002084	.0002084

System: vanadyl tetra-4-tert-butylphthalocyanine; phases: Crystal, Gas
Property: Vapor or sublimation pressure, kPa (Crystal); method: Knudsen effusion method
Temperature, K	Vapor or sublimation pressure, kPa	uncertainty
556	.000007925	.0000007925
576	.00005127	.000005127
595	.00008765	.000008765
611	.0002493	.00002493
626	.0006253	.00006253
644	.001847	.0001847
659	.004165	.0004165
