Measured thermophysical data. Thermochemistry of the solution of .beta.-alanine in (water + alcohol)  mixtures at 298.15 K
Source: Thermochim. Acta, 2013, 10.1016/j.tca.2013.05.012
Compound 1: 3-aminopropanoic acid, C3H7NO2, purity 98%
Compound 2: methyl alcohol, CH4O, purity 99.8%
Compound 3: ethanol, C2H6O, purity 99.8%
Compound 4: n-propyl alcohol, C3H8O, purity 99.7%
Compound 5: isopropanol, C3H8O, purity 99.5%
Compound 6: water, H2O

System: 3-aminopropanoic acid + water; phases: Liquid
Fixed: Temperature, K = 298.15
Fixed: Pressure, kPa = 101
Property: Molar enthalpy of solution, kJ/mol (Liquid); method: Calvet calorimetry
Molality, mol/kg of 3-aminopropanoic acid	Molar enthalpy of solution, kJ/mol	uncertainty
.01	9.55	.03

System: methyl alcohol + 3-aminopropanoic acid + water; phases: Liquid
Fixed: Pressure, kPa = 101
Fixed: Temperature, K = 298.15
Fixed: Molality, mol/kg of 3-aminopropanoic acid = .01
Property: Molar enthalpy of solution, kJ/mol (Liquid); method: Calvet calorimetry
Solvent: Molality, mol/kg of methyl alcohol	Molar enthalpy of solution, kJ/mol	uncertainty
.961	10.38	.03
2.12	11.74	.03
3.382	12.91	.02
4.787	13.89	.02
6.291	14.48	.02
7.972	15.07	.02
9.903	15.99	.03
12.066	16.24	.02
14.431	16.81	.02
17.379	16.89	.03
24.268	17.13	.03

System: ethanol + 3-aminopropanoic acid + water; phases: Liquid
Fixed: Pressure, kPa = 101
Fixed: Temperature, K = 298.15
Fixed: Molality, mol/kg of 3-aminopropanoic acid = .01
Property: Molar enthalpy of solution, kJ/mol (Liquid); method: Calvet calorimetry
Solvent: Molality, mol/kg of ethanol	Molar enthalpy of solution, kJ/mol	uncertainty
.721	10.65	.03
1.452	11.79	.03
2.368	12.73	.02
3.437	13.97	.02
4.512	15.04	.02
5.435	15.73	.02
7.616	17.12	.03
9.011	17.81	.02
12.268	18.32	.02
17.247	18.53	.02
24.089	18.86	.03

System: n-propyl alcohol + 3-aminopropanoic acid + water; phases: Liquid
Fixed: Pressure, kPa = 101
Fixed: Temperature, K = 298.15
Fixed: Molality, mol/kg of 3-aminopropanoic acid = .01
Property: Molar enthalpy of solution, kJ/mol (Liquid); method: Calvet calorimetry
Solvent: Molality, mol/kg of n-propyl alcohol	Molar enthalpy of solution, kJ/mol	uncertainty
.733	11.09	.03
1.215	11.74	.03
1.982	12.79	.02
2.726	13.96	.02
3.375	14.81	.03
4.028	15.46	.02
4.815	15.87	.02
6.021	16.28	.02
8.878	16.58	.02
13.417	15.92	.03
18.749	15.87	.03

System: isopropanol + 3-aminopropanoic acid + water; phases: Liquid
Fixed: Pressure, kPa = 101
Fixed: Temperature, K = 298.15
Fixed: Molality, mol/kg of 3-aminopropanoic acid = .01
Property: Molar enthalpy of solution, kJ/mol (Liquid); method: Calvet calorimetry
Solvent: Molality, mol/kg of isopropanol	Molar enthalpy of solution, kJ/mol	uncertainty
.715	11.14	.03
1.181	12.16	.03
1.742	13.28	.03
2.581	14.33	.02
3.356	15.71	.02
4.285	16.67	.02
5.387	17.74	.02
6.417	18.64	.02
9.149	19.13	.02
12.838	19.31	.03
17.966	19.05	.03
