Measured thermophysical data. Solvation of benzene and its simple mono derivatives in water-tertiary  butanol mixtures
Source: Thermochim. Acta, 2013, 10.1016/j.tca.2013.05.028
Compound 1: water, H2O
Compound 2: tert-butanol, C4H10O
Compound 3: nitrobenzene, C6H5NO2
Compound 4: benzene, C6H6, purity 99%

System: benzene + tert-butanol + water; phases: Liquid
Fixed: Pressure, kPa = 101.325
Fixed: Mole fraction of benzene = 0
Property: Molar enthalpy of solution, kJ/mol (Liquid); method: Calvet calorimetry
Temperature, K	Solvent: Mole fraction of tert-butanol	Molar enthalpy of solution, kJ/mol	uncertainty
298.15	.01	6.04	
298.15	.016	9.28	
298.15	.021	12.95	
298.15	.026	17.51	
298.15	.035	25.06	
298.15	.05	27.96	
298.15	.06	27.43	
298.15	.075	25.68	
298.15	.1	16.86	
298.15	.15	11.03	
298.15	.2	9.37	
298.15	.3	7.63	
298.15	.5	6.59	
298.15	.65	6.29	
298.15	.75	6.26	
298.15	.9	6.61	
299.15	1	7.28	

System: tert-butanol + nitrobenzene + water; phases: Liquid
Fixed: Pressure, kPa = 101.325
Fixed: Mole fraction of nitrobenzene = 0
Property: Molar enthalpy of solution, kJ/mol (Liquid); method: Calvet calorimetry
Temperature, K	Solvent: Mole fraction of tert-butanol	Molar enthalpy of solution, kJ/mol	uncertainty
298.15	.005	7.06	
298.15	.01	11	
298.15	.025	16.71	
298.15	.035	24.18	
298.15	.045	28.85	
298.15	.05	32.98	
298.15	.06	31.44	
298.15	.075	27.32	
298.15	.1	23.77	
298.15	.15	21.7	
298.15	.2	17.08	
298.15	.3	15.93	
298.15	.5	14.44	
298.15	.75	13.77	
298.15	.8	13.71	
298.15	.9	13.91	
299.15	1	14.62	

System: benzene + tert-butanol; phases: Liquid
Property: Molar enthalpy of solution, kJ/mol (Liquid); method: Calvet calorimetry
Temperature, K	Pressure, kPa	Mole fraction of benzene	Molar enthalpy of solution, kJ/mol	uncertainty
299.15	101.325	0	7.28	

System: tert-butanol + nitrobenzene; phases: Liquid
Property: Molar enthalpy of solution, kJ/mol (Liquid); method: Calvet calorimetry
Temperature, K	Pressure, kPa	Mole fraction of nitrobenzene	Molar enthalpy of solution, kJ/mol	uncertainty
299.15	101.325	0	14.62	
