Measured thermophysical data. DSC measurement and prediction of phase diagrams for binary mixtures of  energetic materials  stabilizers
Source: Thermochim. Acta, 2013, 10.1016/j.tca.2013.04.021
Compound 1: 1,3-diethyl-1,3-diphenylurea, C17H20N2O
Compound 2: dimethyldiphenyl urea, C15H16N2O
Compound 3: diphenylamine, C12H11N
Compound 4: N-ethyl-4-nitroaniline, C8H10N2O2
Compound 5: N-(2-acetoxyethyl)-p-nitroaniline, C10H12N2O4

System: 1,3-diethyl-1,3-diphenylurea; phases: Crystal, Liquid, Air at 1 atmosphere
Property: Normal melting temperature, K (Crystal); method: DSC/DTA
Normal melting temperature, K	uncertainty
345.02	

System: 1,3-diethyl-1,3-diphenylurea; phases: Crystal, Liquid, Air at 1 atmosphere
Property: Molar enthalpy of transition or fusion, kJ/mol (Crystal); method: DSC/DTA
Molar enthalpy of transition or fusion, kJ/mol	uncertainty
33.5	

System: dimethyldiphenyl urea; phases: Crystal, Liquid, Air at 1 atmosphere
Property: Normal melting temperature, K (Crystal); method: DSC/DTA
Normal melting temperature, K	uncertainty
393.15	

System: dimethyldiphenyl urea; phases: Crystal, Liquid, Air at 1 atmosphere
Property: Molar enthalpy of transition or fusion, kJ/mol (Crystal); method: DSC/DTA
Molar enthalpy of transition or fusion, kJ/mol	uncertainty
33.5	

System: diphenylamine; phases: Crystal, Liquid, Air at 1 atmosphere
Property: Normal melting temperature, K (Crystal); method: DSC/DTA
Normal melting temperature, K	uncertainty
326.65	

System: diphenylamine; phases: Crystal, Liquid, Air at 1 atmosphere
Property: Molar enthalpy of transition or fusion, kJ/mol (Crystal); method: DSC/DTA
Molar enthalpy of transition or fusion, kJ/mol	uncertainty
19.7	

System: N-ethyl-4-nitroaniline; phases: Crystal, Liquid, Air at 1 atmosphere
Property: Normal melting temperature, K (Crystal); method: DSC/DTA
Normal melting temperature, K	uncertainty
368.21	

System: N-ethyl-4-nitroaniline; phases: Crystal, Liquid, Air at 1 atmosphere
Property: Molar enthalpy of transition or fusion, kJ/mol (Crystal); method: DSC/DTA
Molar enthalpy of transition or fusion, kJ/mol	uncertainty
22.7	

System: N-(2-acetoxyethyl)-p-nitroaniline; phases: Crystal, Liquid, Air at 1 atmosphere
Property: Normal melting temperature, K (Crystal); method: DSC/DTA
Normal melting temperature, K	uncertainty
387.02	

System: N-(2-acetoxyethyl)-p-nitroaniline; phases: Crystal, Liquid, Air at 1 atmosphere
Property: Molar enthalpy of transition or fusion, kJ/mol (Crystal); method: DSC/DTA
Molar enthalpy of transition or fusion, kJ/mol	uncertainty
20.8	

System: diphenylamine + N-ethyl-4-nitroaniline; phases: Liquid, Crystal
Fixed: Pressure, kPa = 101.325
Property: Solid-liquid equilibrium temperature, K (Liquid); method: DSC/DTA
Mole fraction of diphenylamine	Solid-liquid equilibrium temperature, K	uncertainty
0	368.21	.5
.0513	363.05	.5
.097	360.71	.5
.1503	357.5	.5
.2027	354.56	.5
.2515	350.19	.5
.297	347.14	.5
.3493	343.26	.5
.3925	340.15	.5
.4493	336.98	.5
.4995	332.83	.5
.5475	329.43	.5
.5925	327.04	.5
.6441	322.91	.5
.7042	316.04	.5

System: diphenylamine + N-ethyl-4-nitroaniline; phases: Liquid, Crystal
Fixed: Pressure, kPa = 101.325
Property: Solid-liquid equilibrium temperature, K (Liquid); method: DSC/DTA
Mole fraction of diphenylamine	Solid-liquid equilibrium temperature, K	uncertainty

System: 1,3-diethyl-1,3-diphenylurea + N-ethyl-4-nitroaniline; phases: Liquid, Crystal
Fixed: Pressure, kPa = 101.325
Property: Solid-liquid equilibrium temperature, K (Liquid); method: DSC/DTA
Mole fraction of 1,3-diethyl-1,3-diphenylurea	Solid-liquid equilibrium temperature, K	uncertainty
0	368.21	.5
.0487	362.39	.5
.1051	359.21	.5
.147	357.39	.5
.1958	354.86	.5
.2484	349.61	.5
.3014	344.01	.5
.35	340.89	.5
.3995	335.88	.5
.4499	332.89	.5
.5105	329.03	.5
.5503	326.93	.5
.6002	325.78	.5

System: 1,3-diethyl-1,3-diphenylurea + N-ethyl-4-nitroaniline; phases: Liquid, Crystal
Fixed: Pressure, kPa = 101.325
Property: Solid-liquid equilibrium temperature, K (Liquid); method: DSC/DTA
Mole fraction of 1,3-diethyl-1,3-diphenylurea	Solid-liquid equilibrium temperature, K	uncertainty
.6513	326.91	.5
.7033	328.61	.5
.7488	330.71	.5
.8029	332.36	.5
.8333	333.66	.5
.8966	336.17	.5
.955	340.45	.5
1	345.02	.5

System: dimethyldiphenyl urea + N-ethyl-4-nitroaniline; phases: Liquid, Crystal
Fixed: Pressure, kPa = 101.325
Property: Solid-liquid equilibrium temperature, K (Liquid); method: DSC/DTA
Mole fraction of dimethyldiphenyl urea	Solid-liquid equilibrium temperature, K	uncertainty
0	368.21	.5
.048	363.85	.5
.0986	361.12	.5
.1512	358.52	.5
.1996	356.03	.5
.25	352.86	.5
.3004	350.97	.5
.3479	348.77	.5
.3973	347.88	.5
.4579	345.93	.5

System: dimethyldiphenyl urea + N-ethyl-4-nitroaniline; phases: Liquid, Crystal
Fixed: Pressure, kPa = 101.325
Property: Solid-liquid equilibrium temperature, K (Liquid); method: DSC/DTA
Mole fraction of dimethyldiphenyl urea	Solid-liquid equilibrium temperature, K	uncertainty
.4916	351.13	.5
.5499	356.05	.5
.5993	362.1	.5
.6492	369.27	.5
.6996	374.48	.5
.751	377.88	.5
.8036	381.15	.5
.8475	384.09	.5
.8995	387.79	.5
.9489	389.52	.5
1	393.15	.5

System: N-ethyl-4-nitroaniline + N-(2-acetoxyethyl)-p-nitroaniline; phases: Liquid, Crystal
Fixed: Pressure, kPa = 101.325
Property: Solid-liquid equilibrium temperature, K (Liquid); method: DSC/DTA
Mole fraction of N-(2-acetoxyethyl)-p-nitroaniline	Solid-liquid equilibrium temperature, K	uncertainty
0	368.21	.5
.0494	365.46	.5
.0952	363.2	.5
.1512	360.68	.5
.2016	358.64	.5
.2464	356.9	.5
.2995	354.93	.5
.3466	353.96	.5
.3969	351.99	.5
.4481	350.31	.5

System: N-ethyl-4-nitroaniline + N-(2-acetoxyethyl)-p-nitroaniline; phases: Liquid, Crystal
Fixed: Pressure, kPa = 101.325
Property: Solid-liquid equilibrium temperature, K (Liquid); method: DSC/DTA
Mole fraction of N-(2-acetoxyethyl)-p-nitroaniline	Solid-liquid equilibrium temperature, K	uncertainty
.5043	353.96	.5
.5462	358.47	.5
.5957	362.47	.5
.6536	365.92	.5
.7079	369.6	.5
.7499	372.1	.5
.8057	374.65	.5
.8499	376.74	.5
.8903	379.12	.5
.9495	383.08	.5
1	387.02	.5
