Measured thermophysical data. EXCESS MOLAR ENTHALPIES OF DIBROMOMETHANE WITH  ACETONITRILE,FURAN AND ACETOPHENONE 303.15 K
Source: Thermochim. Acta, 2010, 10.1016/j.tca.2010.01.005
Compound 1: dibromomethane, CH2Br2, purity 99.8%
Compound 2: furan, C4H4O, purity 99.8%
Compound 3: acetonitrile, C2H3N, purity 99.3%
Compound 4: acetophenone, C8H8O, purity 99%

System: dibromomethane + acetonitrile; phases: Liquid
Fixed: Pressure, kPa = 101
Fixed: Temperature, K = 303.15
Property: Excess molar enthalpy (molar enthalpy of mixing), kJ/mol (Liquid); method: Calvet calorimetry
Mole fraction of dibromomethane	Excess molar enthalpy (molar enthalpy of mixing), kJ/mol	uncertainty
.1028	.089	.000445
.2166	.146	.00073
.3067	.173	.000865
.4007	.179	.000895
.5547	.15	.00075
.6564	.107	.000535
.7022	.089	.000445
.8786	.023	.000115

System: dibromomethane + furan; phases: Liquid
Fixed: Pressure, kPa = 101
Fixed: Temperature, K = 303.15
Property: Excess molar enthalpy (molar enthalpy of mixing), kJ/mol (Liquid); method: Calvet calorimetry
Mole fraction of dibromomethane	Excess molar enthalpy (molar enthalpy of mixing), kJ/mol	uncertainty
.1499	.187	.000935
.2828	.232	.00116
.3405	.231	.001155
.4247	.212	.00106
.6268	.166	.00083
.7204	.144	.00072
.8358	.109	.000545
.9381	.055	.000275

System: dibromomethane + acetophenone; phases: Liquid
Fixed: Pressure, kPa = 101
Fixed: Temperature, K = 303.15
Property: Excess molar enthalpy (molar enthalpy of mixing), kJ/mol (Liquid); method: Calvet calorimetry
Mole fraction of dibromomethane	Excess molar enthalpy (molar enthalpy of mixing), kJ/mol	uncertainty
.1763	-.102	-.00051
.3362	-.148	-.00074
.4052	-.162	-.00081
.4229	-.16	-.0008
.5115	-.16	-.0008
.6248	-.151	-.000755
.7449	-.114	-.00057
.852	-.076	-.00038
