Measured thermophysical data. Molar heat capacity of several aqueous solutions  of n-[tris(hydroxymethyl)methyl-3-amino]-  propanesulfonic acid (TAPS) + glycol
Source: Thermochim. Acta, 2012, 10.1016/j.tca.2012.04.006
Compound 1: 3-[tris(hydroxymethyl)methylamino]-1-propanesulfonic acid, C7H17NO6S, purity 99%
Compound 2: bis(2-hydroxyethyl) ether, C4H10O3, purity 99.9%
Compound 3: 3,6-dioxa-1,8-octanediol, C6H14O4, purity 99.9%
Compound 4: tetraethylene glycol, C8H18O5, purity 99.9%
Compound 5: propylene glycol, C3H8O2, purity 99.5%
Compound 6: 3,3'-oxybispropanol, C6H14O3, purity 99.8%
Compound 7: tripropylene glycol, C9H20O4, purity 99%
Compound 8: water, H2O, purity 99.9%

System: bis(2-hydroxyethyl) ether + water + 3-[tris(hydroxymethyl)methylamino]-1-propanesulfonic acid; phases: Liquid
Fixed: Pressure, kPa = 101
Property: Molar heat capacity at constant pressure, J/K/mol (Liquid); method: Small sample (50 mg) DSC
Temperature, K	Mass fraction of 3-[tris(hydroxymethyl)methylamino]-1-propanesulfonic acid	Mass fraction of bis(2-hydroxyethyl) ether	Molar heat capacity at constant pressure, J/K/mol	uncertainty
303.15	.04	.4	230.4	2.304
308.15	.04	.4	231.8	2.318
313.15	.04	.4	232.9	2.329
318.15	.04	.4	233.6	2.336
323.15	.04	.4	235	2.35
328.15	.04	.4	235.9	2.359
333.15	.04	.4	237.5	2.375
338.15	.04	.4	238.5	2.385
343.15	.04	.4	239.7	2.397
348.15	.04	.4	241.3	2.413
353.15	.04	.4	242.8	2.428
303.15	.09	.4	260.5	2.605
308.15	.09	.4	262.3	2.623
313.15	.09	.4	264.1	2.641
318.15	.09	.4	265.4	2.654
323.15	.09	.4	267.3	2.673
328.15	.09	.4	268.2	2.682
333.15	.09	.4	270.2	2.702
338.15	.09	.4	271.6	2.716
343.15	.09	.4	273.2	2.732
348.15	.09	.4	275.2	2.752
353.15	.09	.4	276.9	2.769
303.15	.16	.4	295.9	2.959
308.15	.16	.4	298.2	2.982
313.15	.16	.4	300.7	3.007
318.15	.16	.4	302.5	3.025
323.15	.16	.4	304.1	3.041
328.15	.16	.4	305.8	3.058
333.15	.16	.4	308.2	3.082
338.15	.16	.4	310	3.1
343.15	.16	.4	311.9	3.119
348.15	.16	.4	314.5	3.145
353.15	.16	.4	316.9	3.169

System: 3,6-dioxa-1,8-octanediol + water + 3-[tris(hydroxymethyl)methylamino]-1-propanesulfonic acid; phases: Liquid
Fixed: Pressure, kPa = 101
Property: Molar heat capacity at constant pressure, J/K/mol (Liquid); method: Small sample (50 mg) DSC
Temperature, K	Mass fraction of 3-[tris(hydroxymethyl)methylamino]-1-propanesulfonic acid	Mass fraction of 3,6-dioxa-1,8-octanediol	Molar heat capacity at constant pressure, J/K/mol	uncertainty
303.15	.04	.4	294.7	2.947
308.15	.04	.4	296.6	2.966
313.15	.04	.4	298.1	2.981
318.15	.04	.4	299.3	2.993
323.15	.04	.4	300.8	3.008
328.15	.04	.4	302.1	3.021
333.15	.04	.4	304	3.04
338.15	.04	.4	305.4	3.054
343.15	.04	.4	307.2	3.072
348.15	.04	.4	308.8	3.088
353.15	.04	.4	310.7	3.107
303.15	.09	.4	319.3	3.193
308.15	.09	.4	321.3	3.213
313.15	.09	.4	323.3	3.233
318.15	.09	.4	324.5	3.245
323.15	.09	.4	326.6	3.266
328.15	.09	.4	328	3.28
333.15	.09	.4	330.2	3.302
338.15	.09	.4	331.4	3.314
343.15	.09	.4	333.4	3.334
348.15	.09	.4	335.2	3.352
353.15	.09	.4	337.2	3.372
303.15	.16	.4	347.5	3.475
308.15	.16	.4	349.8	3.498
313.15	.16	.4	352.7	3.527
318.15	.16	.4	355	3.55
323.15	.16	.4	357.2	3.572
328.15	.16	.4	359.5	3.595
333.15	.16	.4	362	3.62
338.15	.16	.4	364.5	3.645
343.15	.16	.4	366.9	3.669
348.15	.16	.4	369.1	3.691
353.15	.16	.4	372	3.72

System: tetraethylene glycol + water + 3-[tris(hydroxymethyl)methylamino]-1-propanesulfonic acid; phases: Liquid
Fixed: Pressure, kPa = 101
Property: Molar heat capacity at constant pressure, J/K/mol (Liquid); method: Small sample (50 mg) DSC
Temperature, K	Mass fraction of 3-[tris(hydroxymethyl)methylamino]-1-propanesulfonic acid	Mass fraction of tetraethylene glycol	Molar heat capacity at constant pressure, J/K/mol	uncertainty
303.15	.04	.4	355.6	3.556
308.15	.04	.4	357.4	3.574
313.15	.04	.4	359.2	3.592
318.15	.04	.4	360.6	3.606
323.15	.04	.4	362.2	3.622
328.15	.04	.4	363.7	3.637
333.15	.04	.4	365.5	3.655
338.15	.04	.4	367.3	3.673
343.15	.04	.4	369.2	3.692
348.15	.04	.4	371	3.71
353.15	.04	.4	373	3.73
303.15	.09	.4	370.2	3.702
308.15	.09	.4	372.5	3.725
313.15	.09	.4	375	3.75
318.15	.09	.4	376.4	3.764
323.15	.09	.4	378.7	3.787
328.15	.09	.4	380.7	3.807
333.15	.09	.4	382.8	3.828
338.15	.09	.4	385.3	3.853
343.15	.09	.4	387.4	3.874
348.15	.09	.4	389.7	3.897
353.15	.09	.4	391.9	3.919
303.15	.16	.4	407.6	4.076
308.15	.16	.4	410.8	4.108
313.15	.16	.4	414.5	4.145
318.15	.16	.4	417.9	4.179
323.15	.16	.4	422	4.22
328.15	.16	.4	425	4.25
333.15	.16	.4	428	4.28
338.15	.16	.4	431.7	4.317
343.15	.16	.4	435.4	4.354
348.15	.16	.4	438	4.38
353.15	.16	.4	441.2	4.412

System: propylene glycol + water + 3-[tris(hydroxymethyl)methylamino]-1-propanesulfonic acid; phases: Liquid
Fixed: Pressure, kPa = 101
Property: Molar heat capacity at constant pressure, J/K/mol (Liquid); method: Small sample (50 mg) DSC
Temperature, K	Mass fraction of 3-[tris(hydroxymethyl)methylamino]-1-propanesulfonic acid	Mass fraction of propylene glycol	Molar heat capacity at constant pressure, J/K/mol	uncertainty
303.15	.04	.4	180.4	1.804
308.15	.04	.4	181.3	1.813
313.15	.04	.4	182.2	1.822
318.15	.04	.4	182.9	1.829
323.15	.04	.4	183.8	1.838
328.15	.04	.4	184.4	1.844
333.15	.04	.4	185.5	1.855
338.15	.04	.4	186.3	1.863
343.15	.04	.4	187.1	1.871
348.15	.04	.4	188.2	1.882
353.15	.04	.4	189.3	1.893
303.15	.09	.4	211.3	2.113
308.15	.09	.4	212.7	2.127
313.15	.09	.4	213.9	2.139
318.15	.09	.4	214.8	2.148
323.15	.09	.4	216.1	2.161
328.15	.09	.4	217.1	2.171
333.15	.09	.4	218.5	2.185
338.15	.09	.4	219.7	2.197
343.15	.09	.4	220.8	2.208
348.15	.09	.4	222.3	2.223
353.15	.09	.4	223.5	2.235
303.15	.16	.4	254.3	2.543
308.15	.16	.4	256.1	2.561
313.15	.16	.4	258	2.58
318.15	.16	.4	259.2	2.592
323.15	.16	.4	261	2.61
328.15	.16	.4	262.4	2.624
333.15	.16	.4	264.4	2.644
338.15	.16	.4	266	2.66
343.15	.16	.4	267.7	2.677
348.15	.16	.4	269.3	2.693
353.15	.16	.4	271.4	2.714

System: water + 3,3'-oxybispropanol + 3-[tris(hydroxymethyl)methylamino]-1-propanesulfonic acid; phases: Liquid
Fixed: Pressure, kPa = 101
Property: Molar heat capacity at constant pressure, J/K/mol (Liquid); method: Small sample (50 mg) DSC
Temperature, K	Mass fraction of 3-[tris(hydroxymethyl)methylamino]-1-propanesulfonic acid	Mass fraction of water	Molar heat capacity at constant pressure, J/K/mol	uncertainty
303.15	.04	.4	272.2	2.722
308.15	.04	.4	273.2	2.732
313.15	.04	.4	274.1	2.741
318.15	.04	.4	274.9	2.749
323.15	.04	.4	276	2.76
328.15	.04	.4	276.8	2.768
333.15	.04	.4	277.9	2.779
338.15	.04	.4	278.7	2.787
343.15	.04	.4	279.9	2.799
348.15	.04	.4	280.9	2.809
353.15	.04	.4	281.8	2.818
303.15	.09	.4	295.7	2.957
308.15	.09	.4	297.1	2.971
313.15	.09	.4	298.8	2.988
318.15	.09	.4	299.8	2.998
323.15	.09	.4	301.2	3.012
328.15	.09	.4	302.5	3.025
333.15	.09	.4	304.1	3.041
338.15	.09	.4	305.7	3.057
343.15	.09	.4	307.2	3.072
348.15	.09	.4	308.8	3.088
353.15	.09	.4	310.5	3.105
303.15	.16	.4	332.4	3.324
308.15	.16	.4	334.5	3.345
313.15	.16	.4	336.5	3.365
318.15	.16	.4	337.9	3.379
323.15	.16	.4	339.5	3.395
328.15	.16	.4	341.3	3.413
333.15	.16	.4	343	3.43
338.15	.16	.4	345	3.45
343.15	.16	.4	347	3.47
348.15	.16	.4	348.9	3.489
353.15	.16	.4	350.7	3.507

System: water + tripropylene glycol + 3-[tris(hydroxymethyl)methylamino]-1-propanesulfonic acid; phases: Liquid
Fixed: Pressure, kPa = 101
Property: Molar heat capacity at constant pressure, J/K/mol (Liquid); method: Small sample (50 mg) DSC
Temperature, K	Mass fraction of 3-[tris(hydroxymethyl)methylamino]-1-propanesulfonic acid	Mass fraction of water	Molar heat capacity at constant pressure, J/K/mol	uncertainty
303.15	.04	.4	357.5	3.575
308.15	.04	.4	358.6	3.586
313.15	.04	.4	359.5	3.595
318.15	.04	.4	360.1	3.601
323.15	.04	.4	361.2	3.612
328.15	.04	.4	362.1	3.621
333.15	.04	.4	363.1	3.631
338.15	.04	.4	364.3	3.643
343.15	.04	.4	365.3	3.653
348.15	.04	.4	366.6	3.666
353.15	.04	.4	367.5	3.675
303.15	.09	.4	372.5	3.725
308.15	.09	.4	374.3	3.743
313.15	.09	.4	375.6	3.756
318.15	.09	.4	377	3.77
323.15	.09	.4	378.4	3.784
328.15	.09	.4	379.8	3.798
333.15	.09	.4	381.5	3.815
338.15	.09	.4	382.6	3.826
343.15	.09	.4	384.4	3.844
348.15	.09	.4	386.2	3.862
353.15	.09	.4	387.7	3.877
303.15	.16	.4	407.4	4.074
308.15	.16	.4	409.6	4.096
313.15	.16	.4	412	4.12
318.15	.16	.4	413.7	4.137
323.15	.16	.4	415.8	4.158
328.15	.16	.4	417.7	4.177
333.15	.16	.4	419.9	4.199
338.15	.16	.4	421.8	4.218
343.15	.16	.4	423.8	4.238
348.15	.16	.4	425.6	4.256
353.15	.16	.4	427.7	4.277
