Measured thermophysical data. Thermal decomposition of AIBN Part A: Decomposition in real scale packages and SADT determination
Source: Thermochim. Acta, 2015, 10.1016/j.tca.2015.06.013
Compound 1: propionitrile, 2,2'-azobis[2-methyl-, C8H12N4

System: propionitrile, 2,2'-azobis[2-methyl-; phases: Crystal, Liquid, Air at 1 atmosphere
Property: Normal melting temperature, K (Crystal); method: DSC/DTA
Normal melting temperature, K	uncertainty
376.15	1

System: propionitrile, 2,2'-azobis[2-methyl-; phases: Crystal
Property: Molar heat capacity at constant pressure, J/K/mol (Crystal); method: Small sample (50 mg) scanning calorimetry
Temperature, K	Pressure, kPa	Molar heat capacity at constant pressure, J/K/mol	uncertainty
298.15	101.325	254.521904	5.09043808

System: propionitrile, 2,2'-azobis[2-methyl-; phases: Crystal
Property: Mass density, kg/m3 (Crystal); method: Geometry and mass measurements
Temperature, K	Pressure, kPa	Mass density, kg/m3	uncertainty
298.15	101.325	680	68

System: propionitrile, 2,2'-azobis[2-methyl-; phases: Crystal
Property: Thermal conductivity, W/m/K (Crystal); method: Hot disk method
Temperature, K	Pressure, kPa	Thermal conductivity, W/m/K	uncertainty
298.15	101.325	.127	
