Measured thermophysical data. Calorimetric investigation of the La2Zr2O7, Nd2Zr2O7, Sm2Zr2O7 and LaYO3 compounds and  CALPHAD assessment of the La2O3-Y2O3 system
Source: Thermochim. Acta, 2011, 10.1016/j.tca.2011.08.021
Compound 1: lanthanum zirconium oxide (La2Zr2O7), La2O7Zr2, purity 98%
Compound 2: neodymium zirconium oxide, Nd2O7Zr2, purity 98%
Compound 3: Sm2Zr2O7, O7Sm2Zr2, purity 98%
Compound 4: LaYO3, LaO3Y, purity 98%
Compound 5: lanthanum oxide, La2O3, purity 98%
Compound 6: yttrium(III) oxide, O3Y2, purity 98%

System: lanthanum zirconium oxide (La2Zr2O7); phases: Crystal
Fixed: Pressure, kPa = 101.325
Property: Mass density, kg/m3 (Crystal); method: X-ray diffraction
Temperature, K	Mass density, kg/m3	uncertainty
393	6060	

System: lanthanum zirconium oxide (La2Zr2O7); phases: Crystal
Property: Molar enthalpy, kJ/mol (Crystal); method: Drop calorimetry
Lower temperature, K	Upper temperature, K	Molar enthalpy, kJ/mol	uncertainty
298.15	973	174.9	2800

System: lanthanum zirconium oxide (La2Zr2O7); phases: Crystal
Fixed: Pressure, kPa = 101.325
Property: Molar heat capacity at constant pressure, J/K/mol (Crystal); method: Small sample (50 mg) DSC
Temperature, K	Molar heat capacity at constant pressure, J/K/mol	uncertainty
293	226.035	
303	227.75	
313	230.04	
573	264.7	
623	267.684	
673	270.104	
723	272.115	
773	273.82	
823	275.291	
873	276.58	
923	277.725	
973	278.755	
1023	279.692	
1073	280.552	
1123	281.35	
1173	282.095	
1123	282.797	
1273	283.461	
1323	284.093	
1373	284.698	

System: neodymium zirconium oxide; phases: Crystal
Fixed: Pressure, kPa = 101.325
Property: Mass density, kg/m3 (Crystal); method: X-ray diffraction
Temperature, K	Mass density, kg/m3	uncertainty
393	6411	

System: neodymium zirconium oxide; phases: Crystal
Fixed: Pressure, kPa = 101.325
Property: Molar heat capacity at constant pressure, J/K/mol (Crystal); method: Small sample (50 mg) DSC
Temperature, K	Molar heat capacity at constant pressure, J/K/mol	uncertainty
293	236.666	
303	238.4147	
313	240.7464	
573	275.351	
623	280.64958	
673	284.79492	
723	288.10749	
773	290.79557	
823	293.00618	
873	294.84549	
923	296.39172	
973	297.70352	
1023	298.82559	
1073	299.79243	
1123	300.63107	
1173	301.3629	
1123	302.005	
1273	302.57121	
1323	303.071	
1373	303.518	

System: Sm2Zr2O7; phases: Crystal
Fixed: Pressure, kPa = 101.325
Property: Mass density, kg/m3 (Crystal); method: X-ray diffraction
Temperature, K	Mass density, kg/m3	uncertainty
393	6691	

System: Sm2Zr2O7; phases: Crystal
Fixed: Pressure, kPa = 101.325
Property: Molar heat capacity at constant pressure, J/K/mol (Crystal); method: Small sample (50 mg) DSC
Temperature, K	Molar heat capacity at constant pressure, J/K/mol	uncertainty
293	232.708	
303	234.493	
313	236.874	
573	287.124	
623	292.237	
673	296.066	
723	298.966	
773	301.17	
823	302.841	
873	304.099	
923	305.0298	
973	305.699	
1023	306.157	
1073	306.442	
1123	306.584	
1173	306.607	
1123	306.53	
1273	306.368	
1323	306.133	
1373	305.84	

System: LaYO3; phases: Crystal
Fixed: Pressure, kPa = 101.325
Property: Mass density, kg/m3 (Crystal); method: X-ray diffraction
Temperature, K	Mass density, kg/m3	uncertainty
393	6030	

System: LaYO3; phases: Crystal
Property: Molar enthalpy, kJ/mol (Crystal); method: Drop calorimetry
Lower temperature, K	Upper temperature, K	Molar enthalpy, kJ/mol	uncertainty
298.15	973	78.4	700

System: LaYO3; phases: Crystal
Fixed: Pressure, kPa = 101.325
Property: Molar heat capacity at constant pressure, J/K/mol (Crystal); method: Small sample (50 mg) DSC
Temperature, K	Molar heat capacity at constant pressure, J/K/mol	uncertainty
293	107.563	
303	108.39	
313	109.769	
573	119.61	
623	121.076	
673	122.558	
723	123.702	
773	124.593	
823	125.291	
873	125.84	
923	126.27	
973	126.602	
1023	126.859	
1073	127.054	
1123	127.196	
1173	127.296	
1123	127.358	
1273	127.391	
1323	127.63	
1373	127.651	

Reaction: 1 LaYO3 + -0.5 lanthanum oxide + -0.5 yttrium(III) oxide
Property: Molar enthalpy of reaction, kJ/mol
-50.87
