Measured thermophysical data. Above room temperature heat capacity and phase transition of lithium tetrahydroborate
Source: Thermochim. Acta, 2011, 10.1016/j.tca.2011.02.043
Compound 1: Lithium tetrahydroborate, BH4Li, purity 98.1%

System: Lithium tetrahydroborate; phases: Crystal 2, Crystal 1, Air at 1 atmosphere
Property: Triple point temperature, K (Crystal 2); method: DSC/DTA
Triple point temperature, K	uncertainty
386.6	

System: Lithium tetrahydroborate; phases: Crystal 1, Liquid, Air at 1 atmosphere
Property: Triple point temperature, K (Crystal 1); method: DSC/DTA
Triple point temperature, K	uncertainty
553	

System: Lithium tetrahydroborate; phases: Crystal 1, Liquid, Air at 1 atmosphere
Property: Molar enthalpy of transition or fusion, kJ/mol (Crystal 1); method: DSC/DTA
Molar enthalpy of transition or fusion, kJ/mol	uncertainty
8.18	.3

System: Lithium tetrahydroborate; phases: Crystal 2, Crystal 1, Air at 1 atmosphere
Property: Molar enthalpy of transition or fusion, kJ/mol (Crystal 2); method: DSC/DTA
Molar enthalpy of transition or fusion, kJ/mol	uncertainty
5.069	.076

System: Lithium tetrahydroborate; phases: Crystal 2
Fixed: Pressure, kPa = 101.325
Property: Molar heat capacity at constant pressure, J/K/mol (Crystal 2); method: Small sample (50 mg) DSC
Temperature, K	Molar heat capacity at constant pressure, J/K/mol	uncertainty
298	81.51	2.03775
310	84.51	2.11275
320	87.33	2.18325
330	89.53	2.23825
340	91.21	2.28025
350	92.47	2.31175
360	95.46	2.3865
370	101.2	2.53
380	106.02	2.6505

System: Lithium tetrahydroborate; phases: Crystal 1
Fixed: Pressure, kPa = 101.325
Property: Molar heat capacity at constant pressure, J/K/mol (Crystal 1); method: Small sample (50 mg) DSC
Temperature, K	Molar heat capacity at constant pressure, J/K/mol	uncertainty
410	91.06	2.2765
420	91.83	2.29575
430	93.09	2.32725
440	94.12	2.353
450	95.43	2.38575
460	96.7	2.4175
470	97.95	2.44875
480	99.14	2.4785
490	100.69	2.51725
500	101.9	2.5475
510	103.3	2.5825
520	104.78	2.6195
