Measured thermophysical data. Investigation on Molecular Interactions of Nicotinamide in Aqueous Citric Acid Solutions with  Reference to Manifestation of Partial Molar Volume and Viscosity B-Coefficient Measurements
Source: Thermochim. Acta, 2010, 10.1016/j.tca.2010.05.014
Compound 1: nicotinamide, C6H6N2O
Compound 2: citric acid, C6H8O7
Compound 3: water, H2O

System: citric acid + water; phases: Liquid
Fixed: Pressure, kPa = 101
Property: Mass density, kg/m3 (Liquid); method: Vibrating tube method
Temperature, K	Amount concentration (molarity), mol/dm3 of citric acid	Mass density, kg/m3	uncertainty
298.15	.03	999.5	
308.15	.03	996.3	
318.15	.03	992.5	
298.15	.05	1000.9	
308.15	.05	997.7	
318.15	.05	993.8	
298.15	.07	1002.6	
308.15	.07	999.3	
318.15	.07	995.4	
298.15	.1	1004.8	
308.15	.1	1001.8	
318.15	.1	997.9	

System: citric acid + water; phases: Liquid
Fixed: Pressure, kPa = 101
Property: Viscosity, Pa*s (Liquid); method: Capillary tube (Ostwald; Ubbelohde) method
Temperature, K	Amount concentration (molarity), mol/dm3 of citric acid	Viscosity, Pa*s	uncertainty
298.15	.03	.0008766	.000002
308.15	.03	.0007136	.000002
318.15	.03	.0006253	.000002
298.15	.05	.0008921	.000002
308.15	.05	.0007253	.000002
318.15	.05	.0006261	.000002
298.15	.07	.0009048	.000002
308.15	.07	.0007595	.000002
318.15	.07	.0006527	.000002
298.15	.1	.0009254	.000002
308.15	.1	.0007855	.000002
318.15	.1	.0006766	.000002

System: citric acid + nicotinamide + water; phases: Liquid
Fixed: Pressure, kPa = 101
Property: Mass density, kg/m3 (Liquid); method: Vibrating tube method
Temperature, K	Amount concentration (molarity), mol/dm3 of nicotinamide	Solvent: Amount concentration (molarity), mol/dm3 of citric acid	Mass density, kg/m3	uncertainty
298.15	.012	.03	999.8	
298.15	.024	.03	1000.1	
298.15	.04	.03	1000.5	
298.15	.056	.03	1000.9	
298.15	.072	.03	1001.3	
298.15	.084	.03	1001.6	
308.15	.0119	.03	996.6	
308.15	.0239	.03	996.8	
308.15	.0398	.03	997.2	
308.15	.0558	.03	997.6	
308.15	.0717	.03	998	
308.15	.0837	.03	998.3	
318.15	.0119	.03	992.7	
318.15	.0238	.03	992.9	
318.15	.0397	.03	993.3	
318.15	.0556	.03	993.7	
318.15	.0715	.03	994.1	
318.15	.0834	.03	994.4	
298.15	.012	.05	1001.2	
298.15	.024	.05	1001.5	
298.15	.04	.05	1001.9	
298.15	.0561	.05	1002.3	
298.15	.0721	.05	1002.7	
298.15	.0841	.05	1003	
308.15	.0119	.05	997.9	
308.15	.0239	.05	998.2	
308.15	.0399	.05	998.5	
308.15	.0559	.05	998.9	
308.15	.0719	.05	999.3	
308.15	.0839	.05	999.6	
318.15	.0119	.05	994	
318.15	.0238	.05	994.2	
318.15	.0398	.05	994.5	
318.15	.0557	.05	994.9	
318.15	.0716	.05	995.2	
318.15	.0835	.05	995.5	
298.15	.012	.07	1002.8	
298.15	.024	.07	1003.1	
298.15	.04	.07	1003.4	
298.15	.056	.07	1003.8	
298.15	.0721	.07	1004.2	
298.15	.0841	.07	1004.5	
308.15	.0119	.07	999.5	
308.15	.0239	.07	999.8	
308.15	.0399	.07	1000.1	
308.15	.0558	.07	1000.4	
308.15	.0718	.07	1000.7	
308.15	.0838	.07	1001	
318.15	.0119	.07	995.6	
318.15	.0238	.07	995.8	
318.15	.0397	.07	996	
318.15	.0556	.07	996.3	
318.15	.0715	.07	996.6	
318.15	.0834	.07	996.8	
298.15	.0121	.1	1005.1	
298.15	.0243	.1	1005.3	
298.15	.0404	.1	1005.7	
298.15	.0567	.1	1006	
298.15	.0729	.1	1006.4	
298.15	.085	.1	1006.6	
308.15	.0121	.1	1002	
308.15	.0242	.1	1002.2	
308.15	.0403	.1	1002.5	
308.15	.0565	.1	1002.7	
308.15	.0726	.1	1003.1	
308.15	.0847	.1	1003.3	
318.15	.0121	.1	998	
318.15	.0241	.1	998.1	
318.15	.0402	.1	998.3	
318.15	.0563	.1	998.5	
318.15	.0724	.1	998.7	
318.15	.0844	.1	998.9	

System: citric acid + nicotinamide + water; phases: Liquid
Fixed: Pressure, kPa = 101
Property: Viscosity, Pa*s (Liquid); method: Capillary tube (Ostwald; Ubbelohde) method
Temperature, K	Amount concentration (molarity), mol/dm3 of nicotinamide	Solvent: Amount concentration (molarity), mol/dm3 of citric acid	Viscosity, Pa*s	uncertainty
298.15	.012	.03	.0008836	.000002
298.15	.024	.03	.0008878	.000002
298.15	.04	.03	.000894	.000002
298.15	.056	.03	.0008992	.000002
298.15	.072	.03	.0009048	.000002
298.15	.084	.03	.0009085	.000002
308.15	.0119	.03	.0007189	.000002
308.15	.0239	.03	.0007233	.000002
308.15	.0398	.03	.0007285	.000002
308.15	.0558	.03	.000734	.000002
308.15	.0717	.03	.0007397	.000002
308.15	.0837	.03	.000744	.000002
318.15	.0119	.03	.0006292	.000002
318.15	.0238	.03	.0006335	.000002
318.15	.0397	.03	.0006394	.000002
318.15	.0556	.03	.0006451	.000002
318.15	.0715	.03	.0006501	.000002
318.15	.0834	.03	.0006546	.000002
298.15	.012	.05	.0008974	.000002
298.15	.024	.05	.0009016	.000002
298.15	.04	.05	.0009075	.000002
298.15	.0561	.05	.0009144	.000002
298.15	.0721	.05	.0009198	.000002
298.15	.0841	.05	.0009234	.000002
308.15	.0119	.05	.0007287	.000002
308.15	.0239	.05	.000732	.000002
308.15	.0399	.05	.0007373	.000002
308.15	.0559	.05	.0007423	.000002
308.15	.0719	.05	.0007482	.000002
308.15	.0839	.05	.0007518	.000002
318.15	.0119	.05	.0006274	.000002
318.15	.0238	.05	.0006308	.000002
318.15	.0398	.05	.0006358	.000002
318.15	.0557	.05	.000641	.000002
318.15	.0716	.05	.0006462	.000002
318.15	.0835	.05	.0006493	.000002
298.15	.012	.07	.0009055	.000002
298.15	.024	.07	.0009082	.000002
298.15	.04	.07	.0009132	.000002
298.15	.056	.07	.0009187	.000002
298.15	.0721	.07	.0009255	.000002
298.15	.0841	.07	.0009298	.000002
308.15	.0119	.07	.0007605	.000002
308.15	.0239	.07	.0007639	.000002
308.15	.0399	.07	.0007695	.000002
308.15	.0558	.07	.0007763	.000002
308.15	.0718	.07	.0007828	.000002
308.15	.0838	.07	.0007883	.000002
318.15	.0119	.07	.0006532	.000002
318.15	.0238	.07	.000657	.000002
318.15	.0397	.07	.0006634	.000002
318.15	.0556	.07	.0006698	.000002
318.15	.0715	.07	.0006778	.000002
318.15	.0834	.07	.0006845	.000002
298.15	.0121	.1	.0009258	.000002
298.15	.0243	.1	.0009292	.000002
298.15	.0404	.1	.0009357	.000002
298.15	.0567	.1	.0009423	.000002
298.15	.0729	.1	.0009502	.000002
298.15	.085	.1	.0009563	.000002
308.15	.0121	.1	.0007863	.000002
308.15	.0242	.1	.0007903	.000002
308.15	.0403	.1	.0007972	.000002
308.15	.0565	.1	.0008049	.000002
308.15	.0726	.1	.0008133	.000002
308.15	.0847	.1	.0008198	.000002
318.15	.0121	.1	.0006771	.000002
318.15	.0241	.1	.0006824	.000002
318.15	.0402	.1	.0006898	.000002
318.15	.0563	.1	.0006981	.000002
318.15	.0724	.1	.0007059	.000002
318.15	.0844	.1	.0007119	.000002
