Measured thermophysical data. Thermochemistry on K2[M(DPA)2]*7H2O(s) (M= Cu and Ni,  H2DPA= pyridine-2,6-dicarboxylic acid)
Source: Thermochim. Acta, 2011, 10.1016/j.tca.2011.02.008
Compound 1: potassium copper 2,6-pyridinedicarbohylate hydrate, C14H20CuK2N2O15, purity 99%
Compound 2: potassium nickel 2,6-pyridinedicarbohylate hydrate, C14H20K2N2NiO15, purity 99%
Compound 3: copper acetate hydrate, C4H8CuO5
Compound 4: nickel acetate hydrate, C4H14NiO8
Compound 5: acetic acid, C2H4O2
Compound 6: acetic acid, potassium salt, C2H3KO2
Compound 7: 2,6-pyridinedicarboxylic acid, C7H5NO4
Compound 8: water, H2O

System: potassium copper 2,6-pyridinedicarbohylate hydrate; phases: Crystal
Fixed: Pressure, kPa = 101.325
Property: Mass density, kg/m3 (Crystal); method: X-ray diffraction
Temperature, K	Mass density, kg/m3	uncertainty
298.15	1740	

System: potassium nickel 2,6-pyridinedicarbohylate hydrate; phases: Crystal
Fixed: Pressure, kPa = 101.325
Property: Mass density, kg/m3 (Crystal); method: X-ray diffraction
Temperature, K	Mass density, kg/m3	uncertainty
298.15	1723	

Reaction: 1 potassium copper 2,6-pyridinedicarbohylate hydrate + -1 copper acetate hydrate + 4 acetic acid + -2 acetic acid, potassium salt + -2 2,6-pyridinedicarboxylic acid + -6 water
Property: Molar enthalpy of reaction, kJ/mol
-32.58

Reaction: 1 potassium nickel 2,6-pyridinedicarbohylate hydrate + -1 nickel acetate hydrate + 4 acetic acid + -2 acetic acid, potassium salt + -2 2,6-pyridinedicarboxylic acid + -3 water
Property: Molar enthalpy of reaction, kJ/mol
24.34
