Measured thermophysical data. Solid-liquid equilibrium and thermodynamic research of 3-Thiophenecarboxylic acid in (water + acetic acid) binary solvent mixtures
Source: Thermochim. Acta, 2014, 10.1016/j.tca.2014.11.008
Compound 1: 3-thiophenecarboxylic acid, C5H4O2S, purity 99%
Compound 2: water, H2O, purity 99.6%
Compound 3: acetic acid, C2H4O2, purity 99.5%
Compound 4: sodium chloride, ClNa, purity 99.5%

System: 3-thiophenecarboxylic acid; phases: Crystal, Liquid, Air at 1 atmosphere
Property: Normal melting temperature, K (Crystal); method: Visual observation
Normal melting temperature, K	uncertainty
411.85	

System: sodium chloride + water; phases: Liquid, Crystal
Fixed: Pressure, kPa = 96
Property: Mole fraction of sodium chloride (Liquid); method: gravimetric
Temperature, K	Mole fraction of sodium chloride	uncertainty
293.15	.0998	.00507
303.15	.1004	.00507
313.15	.1012	.00507
323.15	.1023	.00507

System: acetic acid + 3-thiophenecarboxylic acid + water; phases: Liquid, Crystal
Fixed: Pressure, kPa = 96
Property: Mole fraction of 3-thiophenecarboxylic acid (Liquid); method: Gravimetric
Solvent: Volume fraction of acetic acid	Temperature, K	Mole fraction of 3-thiophenecarboxylic acid	uncertainty
0	283.15	.01949	.00507
0	288.15	.0222	.00507
0	293.15	.02484	.00507
0	298.15	.02749	.00507
0	303.15	.03082	.00507
0	308.15	.03414	.00507
0	313.15	.03942	.00507
0	318.15	.04522	.00507
0	323.15	.05101	.00507
0	328.15	.05711	.00507
0	333.15	.06501	.00507
0	338.15	.07306	.00507
.15	283.15	.01344	.00507
.15	288.15	.01602	.00507
.15	293.15	.01895	.00507
.15	298.15	.02071	.00507
.15	303.15	.02344	.00507
.15	308.15	.02976	.00507
.15	313.15	.03368	.00507
.15	318.15	.03915	.00507
.15	323.15	.045405	.00507
.15	328.15	.0523	.00507
.15	333.15	.06076	.00507
.15	338.15	.06959	.00507
.3	283.15	.00815	.00507
.3	288.15	.0102	.00507
.3	293.15	.01255	.00507
.3	298.15	.01577	.00507
.3	303.15	.01855	.00507
.3	308.15	.02298	.00507
.3	313.15	.02683	.00507
.3	318.15	.0322	.00507
.3	323.15	.03885	.00507
.3	328.15	.04566	.00507
.3	333.15	.05428	.00507
.3	338.15	.06511	.00507
.45	283.15	.00642	.00507
.45	288.15	.00805	.00507
.45	293.15	.00999	.00507
.45	298.15	.01184	.00507
.45	303.15	.01467	.00507
.45	308.15	.01843	.00507
.45	313.15	.0223	.00507
.45	318.15	.02709	.00507
.45	323.15	.0324	.00507
.45	328.15	.03921	.00507
.45	333.15	.04709	.00507
.45	338.15	.05542	.00507
.6	283.15	.0031	.00507
.6	288.15	.00408	.00507
.6	293.15	.00531	.00507
.6	298.15	.00673	.00507
.6	303.15	.00848	.00507
.6	308.15	.01068	.00507
.6	313.15	.01344	.00507
.6	318.15	.01768	.00507
.6	323.15	.02144	.00507
.6	328.15	.02721	.00507
.6	333.15	.03423	.00507
.6	338.15	.0423	.00507
.75	283.15	.0016	.00507
.75	288.15	.00213	.00507
.75	293.15	.00284	.00507
.75	298.15	.00369	.00507
.75	303.15	.00479	.00507
.75	308.15	.00627	.00507
.75	313.15	.00793	.00507
.75	318.15	.00973	.00507
.75	323.15	.01241	.00507
.75	328.15	.01553	.00507
.75	333.15	.01906	.00507
.75	338.15	.02351	.00507
.9	283.15	.0014	.00507
.9	288.15	.00167	.00507
.9	293.15	.00208	.00507
.9	298.15	.00264	.00507
.9	303.15	.00323	.00507
.9	308.15	.00392	.00507
.9	313.15	.00477	.00507
.9	318.15	.00575	.00507
.9	323.15	.0071	.00507
.9	328.15	.0083	.00507
.9	333.15	.00991	.00507
.9	338.15	.01182	.00507
1	283.15	.00073	.00507
1	288.15	.00094	.00507
1	293.15	.00121	.00507
1	298.15	.00153	.00507
1	303.15	.00201	.00507
1	308.15	.00243	.00507
1	313.15	.00304	.00507
1	318.15	.00377	.00507
1	323.15	.00464	.00507
1	328.15	.00571	.00507
1	333.15	.007	.00507
1	338.15	.00856	.00507

System: 3-thiophenecarboxylic acid + water; phases: Liquid, Crystal
Property: Mole fraction of 3-thiophenecarboxylic acid (Liquid); method: Gravimetric
Temperature, K	Pressure, kPa	Mole fraction of 3-thiophenecarboxylic acid	uncertainty
283.15	96	.01949	.00507
288.15	96	.0222	.00507
293.15	96	.02484	.00507
298.15	96	.02749	.00507
303.15	96	.03082	.00507
308.15	96	.03414	.00507
313.15	96	.03942	.00507
318.15	96	.04522	.00507
323.15	96	.05101	.00507
328.15	96	.05711	.00507
333.15	96	.06501	.00507
338.15	96	.07306	.00507

System: acetic acid + 3-thiophenecarboxylic acid; phases: Liquid, Crystal
Property: Mole fraction of 3-thiophenecarboxylic acid (Liquid); method: Gravimetric
Temperature, K	Pressure, kPa	Mole fraction of 3-thiophenecarboxylic acid	uncertainty
283.15	96	.00073	.00507
288.15	96	.00094	.00507
293.15	96	.00121	.00507
298.15	96	.00153	.00507
303.15	96	.00201	.00507
308.15	96	.00243	.00507
313.15	96	.00304	.00507
318.15	96	.00377	.00507
323.15	96	.00464	.00507
328.15	96	.00571	.00507
333.15	96	.007	.00507
338.15	96	.00856	.00507
