Measured thermophysical data. Studies on the phase diagram of CaCl2-CaBr2 system
Source: Thermochim. Acta, 2010, 10.1016/j.tca.2010.03.027
Compound 1: calcium chloride, CaCl2
Compound 2: calcium bromide, Br2Ca

System: calcium chloride; phases: Crystal, Liquid, Air at 1 atmosphere
Property: Normal melting temperature, K (Crystal); method: DSC/DTA
Normal melting temperature, K	uncertainty
1043	

System: calcium chloride; phases: Crystal
Property: Mass density, kg/m3 (Crystal); method: X-ray diffraction
Temperature, K	Pressure, kPa	Mass density, kg/m3	uncertainty
293	101.325	3229	

System: calcium bromide; phases: Crystal, Liquid, Air at 1 atmosphere
Property: Normal melting temperature, K (Crystal); method: DSC/DTA
Normal melting temperature, K	uncertainty
1011	

System: calcium bromide; phases: Crystal
Property: Mass density, kg/m3 (Crystal); method: X-ray diffraction
Temperature, K	Pressure, kPa	Mass density, kg/m3	uncertainty
293	101.325	5060	

System: calcium bromide + calcium chloride; phases: Crystal
Fixed: Temperature, K = 293
Fixed: Pressure, kPa = 101
Property: Mass density, kg/m3 (Crystal); method: X-ray diffraction
Mole fraction of calcium bromide	Mass density, kg/m3	uncertainty
1	5060	
.9	4861	
.75	4628	
.6	4371	
.45	4112	
.3	3836	
.15	3536	
0	3229	

System: calcium bromide + calcium chloride; phases: Crystal, Liquid
Fixed: Pressure, kPa = 101
Property: Solid-liquid equilibrium temperature, K (Crystal); method: DSC/DTA
Mole fraction of calcium chloride	Solid-liquid equilibrium temperature, K	uncertainty
1	1043	
.95	1030	
.9	1020	
.85	1006	
.8	1000	
.75	991	
.7	984	
.65	981	
.6	977	
.55	974	
.5	972	
.45	973	
.4	973	
.35	974	
.3	975	
.25	978	
.2	985	
.15	989	
.1	992	
.05	1000	
0	1011	

System: calcium bromide + calcium chloride; phases: Liquid, Crystal
Fixed: Pressure, kPa = 101
Property: Solid-liquid equilibrium temperature, K (Liquid); method: DSC/DTA
Mole fraction of calcium chloride	Solid-liquid equilibrium temperature, K	uncertainty
1	1043	
.95	1038	
.9	1028	
.85	1018	
.8	1011	
.75	1000	
.3	981	
.25	985	
.2	990	
.15	995	
.1	1000	
.05	1007	
0	1011	
