Measured thermophysical data. Thermodynamic study on six tricyclic nitrogen heterocyclic compounds by thermal analysis and effusion techniques
Source: Thermochim. Acta, 2016, 10.1016/j.tca.2016.05.001
Compound 1: acridine, C13H9N
Compound 2: phenanthridine, C13H9N
Compound 3: 1,7-phenanthroline, C12H8N2
Compound 4: 1,10-phenanthroline, C12H8N2
Compound 5: 4,7-phenanthroline, C12H8N2
Compound 6: phenazine, C12H8N2

System: acridine; phases: Crystal, Liquid, Air at 1 atmosphere
Property: Triple point temperature, K (Crystal); method: DSC
Triple point temperature, K	uncertainty
382	1

System: acridine; phases: Crystal, Liquid, Air at 1 atmosphere
Property: Molar enthalpy of transition or fusion, kJ/mol (Crystal); method: DSC
Molar enthalpy of transition or fusion, kJ/mol	uncertainty
20.5	.7

System: acridine; phases: Crystal, Gas
Property: Vapor or sublimation pressure, kPa (Crystal); method: Knudsen effusion method
Temperature, K	Vapor or sublimation pressure, kPa	uncertainty
348.8	.0025	
346.1	.0019	
343	.00145	
340.2	.00106	
337.1	.00075	
334	.00057	
331.1	.0004	
328.1	.0003	
325.1	.00021	
322.3	.00015	
319.4	.00011	
347.6	.0022	
344.6	.00162	
341.7	.00122	
338.9	.00091	
335.9	.0007	
332.9	.00048	
329.9	.00036	
327	.00027	
324	.00019	
321.1	.00014	
318.1	.000097	
322.9	.000179	
320	.000134	
317	.000093	
314.1	.000068	
311.1	.000047	
308.1	.000033	
306.2	.000026	
304.2	.00002	
301.3	.000014	
298.4	.0000096	
295.2	.0000063	
292.1	.000004	
320.8	.000138	
317.8	.000098	
314.8	.000071	
320.8	.000148	
318.8	.000119	
315.8	.000084	
311.9	.000053	
308.9	.000037	
305.9	.000026	
303	.000018	
300	.000012	
296.1	.0000067	
293	.0000047	

System: acridine; phases: Liquid, Gas
Property: Vapor or sublimation pressure, kPa (Liquid); method: Rate of evaporation
Temperature, K	Vapor or sublimation pressure, kPa	uncertainty
388.2	.067	
395.2	.099	
402.1	.147	
408	.197	
416	.292	
422.9	.396	
428.9	.51	
391.2	.08	
399.1	.119	
405	.17	
412	.241	
419.9	.338	
425.9	.443	
431.8	.601	

System: phenanthridine; phases: Crystal, Liquid, Air at 1 atmosphere
Property: Triple point temperature, K (Crystal); method: DSC
Triple point temperature, K	uncertainty
379.1	1

System: phenanthridine; phases: Crystal, Liquid, Air at 1 atmosphere
Property: Molar enthalpy of transition or fusion, kJ/mol (Crystal); method: DSC
Molar enthalpy of transition or fusion, kJ/mol	uncertainty
24.8	1

System: phenanthridine; phases: Crystal, Gas
Property: Vapor or sublimation pressure, kPa (Crystal); method: Torsion effusion method
Temperature, K	Vapor or sublimation pressure, kPa	uncertainty
318.6	.000038	
322.1	.000057	
324	.000076	
325	.000085	
327	.000104	
329.1	.000133	
330	.000142	
331.9	.00019	
332.6	.000208	
334.1	.00023	
334.7	.00025	
335	.00026	
335.9	.00028	
338.4	.00036	
339.8	.00045	
340	.00044	
341.4	.00053	
342.9	.00061	
345.5	.00079	
347.3	.00093	
323.2	.000076	
325.2	.000094	
325.9	.000104	
327.6	.000124	
329.3	.000151	
330.9	.000181	
332.9	.000228	
333.9	.00025	
335.7	.0003	
337	.00034	
337.9	.00038	
340	.00047	
341.5	.00055	
342.2	.00061	
343.2	.00072	
345.3	.00085	
347.1	.001	
348.2	.00115	
349.4	.00128	

System: phenanthridine; phases: Liquid, Gas
Property: Vapor or sublimation pressure, kPa (Liquid); method: Rate of evaporation
Temperature, K	Vapor or sublimation pressure, kPa	uncertainty
388.1	.038	
393.1	.05	
398.1	.065	
403.1	.086	
408.1	.113	
413.1	.145	
418.1	.187	
423.1	.24	
428.1	.302	
433.1	.369	
438.1	.469	
443.1	.567	
448.1	.728	
453.1	.854	

System: 1,7-phenanthroline; phases: Crystal, Liquid, Air at 1 atmosphere
Property: Triple point temperature, K (Crystal); method: DSC
Triple point temperature, K	uncertainty
351.7	1

System: 1,7-phenanthroline; phases: Crystal, Liquid, Air at 1 atmosphere
Property: Molar enthalpy of transition or fusion, kJ/mol (Crystal); method: DSC
Molar enthalpy of transition or fusion, kJ/mol	uncertainty
25.6	.9

System: 1,7-phenanthroline; phases: Crystal, Gas
Property: Vapor or sublimation pressure, kPa (Crystal); method: Torsion effusion method
Temperature, K	Vapor or sublimation pressure, kPa	uncertainty
315	.000038	
319.5	.000067	
320.8	.000076	
322.6	.0001	
323.8	.00011	
325.6	.00014	
326	.00015	
328.2	.00021	
329.1	.00025	
331	.0003	
334.5	.00044	
336.5	.00055	
339.3	.00072	
340.4	.00087	
342.6	.00108	
343.5	.00127	
317.9	.000057	
319.5	.000067	
320.5	.000076	
322.9	.00011	
326.2	.00017	
327.5	.00021	
328.7	.00023	
329.6	.00026	
331.5	.00033	
333	.00041	
334.9	.00051	
336.2	.00061	
337.7	.00072	
340	.00095	
341.5	.00112	
315.1	.000038	
317.3	.000047	
318.6	.000057	
320.8	.000076	
323	.000114	
325.3	.000142	
328.2	.000208	
330.5	.00028	
332	.00032	
335	.00047	
338.3	.00072	
340	.00091	

System: 1,7-phenanthroline; phases: Liquid, Gas
Property: Vapor or sublimation pressure, kPa (Liquid); method: Rate of evaporation
Temperature, K	Vapor or sublimation pressure, kPa	uncertainty
380.1	.023	
382.1	.028	
385.6	.032	
388.2	.037	
390.3	.043	
393.1	.05	
395.6	.057	
398.1	.065	
403.1	.086	
405.6	.097	
408.1	.113	
410.9	.132	
413.1	.145	
418.1	.187	
423.1	.24	
428.1	.302	

System: 1,10-phenanthroline; phases: Crystal, Liquid, Air at 1 atmosphere
Property: Triple point temperature, K (Crystal); method: DSC
Triple point temperature, K	uncertainty
390.9	1

System: 1,10-phenanthroline; phases: Crystal, Liquid, Air at 1 atmosphere
Property: Molar enthalpy of transition or fusion, kJ/mol (Crystal); method: DSC
Molar enthalpy of transition or fusion, kJ/mol	uncertainty
13.4	.8

System: 1,10-phenanthroline; phases: Crystal, Gas
Property: Vapor or sublimation pressure, kPa (Crystal); method: Knudsen effusion method
Temperature, K	Vapor or sublimation pressure, kPa	uncertainty
387.1	.00335	
384.2	.00264	
381	.00199	
378.1	.00154	
375.1	.00119	
372.2	.0009	
369.3	.00069	
366.3	.00052	
363.4	.0004	
360.5	.0003	
385.6	.00292	
382.8	.00229	
380.1	.00182	
377.2	.0014	
374	.00107	
370.9	.0008	
367.6	.00059	
365	.00046	
361.8	.00034	
358.6	.00025	
367.4	.0006	
362.5	.00038	
357.7	.00024	
352.7	.000148	
347.5	.000092	
342.6	.000051	
337.7	.00003	
332.8	.0000171	
327.9	.0000099	
323.1	.0000055	
318.1	.0000033	
313.1	.00000176	
308.1	.00000083	
345.6	.000075	
360.6	.00033	
354.7	.000194	
350.8	.000131	
345.5	.000077	
340.6	.000042	
335.7	.000026	
330.9	.0000153	
325.8	.000008	
320.9	.0000046	

System: 1,10-phenanthroline; phases: Liquid, Gas
Property: Vapor or sublimation pressure, kPa (Liquid); method: Rate of evaporation
Temperature, K	Vapor or sublimation pressure, kPa	uncertainty
393.2	.0054	
398.6	.0073	
404.1	.0094	
409.5	.0131	
415	.0173	
420.5	.024	
395.9	.0061	
401.3	.0084	
406.8	.0113	
412.3	.0147	
417.7	.0206	

System: 4,7-phenanthroline; phases: Crystal, Liquid, Air at 1 atmosphere
Property: Triple point temperature, K (Crystal); method: DSC
Triple point temperature, K	uncertainty
444.1	1

System: 4,7-phenanthroline; phases: Crystal, Liquid, Air at 1 atmosphere
Property: Molar enthalpy of transition or fusion, kJ/mol (Crystal); method: DSC
Molar enthalpy of transition or fusion, kJ/mol	uncertainty
22.4	1

System: 4,7-phenanthroline; phases: Crystal, Gas
Property: Vapor or sublimation pressure, kPa (Crystal); method: Torsion effusion method
Temperature, K	Vapor or sublimation pressure, kPa	uncertainty
340	.000038	
342.9	.000057	
346.7	.000094	
351.7	.00017	
355.8	.000247	
358.2	.000323	
360.2	.000415	
364.1	.000625	
368.4	.000951	
337.1	.000028	
339.5	.000038	
342.8	.000057	
346.6	.000094	
350.6	.000151	
352.7	.00019	
354.8	.000228	
356.4	.000264	
359.4	.000379	
336.8	.000028	
341	.000047	
346	.000085	
348.3	.000114	
349.4	.000133	
351.8	.00017	
354.7	.000219	
355.5	.000264	
358.7	.000361	
360.5	.000436	
361.4	.000512	
363.2	.000571	
366.2	.000819	
368.7	.00102	
340.1	.000038	
341.9	.000047	
343.3	.000057	
349	.000114	
350.8	.000133	
352.8	.00017	
354.4	.000208	
355.7	.000247	
358.2	.00034	
360.5	.000415	
362.2	.000472	
363.1	.000533	
366.2	.000741	
369.6	.001041	

System: 4,7-phenanthroline; phases: Liquid, Gas
Property: Vapor or sublimation pressure, kPa (Liquid); method: Rate of evaporation
Temperature, K	Vapor or sublimation pressure, kPa	uncertainty
463.1	1.495	
468.1	1.882	
473.1	2.253	
477.9	2.67	
481.9	3.103	
486.5	4.064	
492.1	5.014	
496.2	6.311	

System: phenazine; phases: Crystal, Liquid, Air at 1 atmosphere
Property: Triple point temperature, K (Crystal); method: DSC
Triple point temperature, K	uncertainty
446.4	1

System: phenazine; phases: Crystal, Liquid, Air at 1 atmosphere
Property: Molar enthalpy of transition or fusion, kJ/mol (Crystal); method: DSC
Molar enthalpy of transition or fusion, kJ/mol	uncertainty
19.3	.5

System: phenazine; phases: Crystal, Gas
Property: Vapor or sublimation pressure, kPa (Crystal); method: Knudsen effusion method
Temperature, K	Vapor or sublimation pressure, kPa	uncertainty
342.8	.00056	
332.9	.000196	
323.1	.000066	
339.8	.0004	
330	.00015	
320.1	.000046	
335.9	.000264	
326.1	.000089	
316.2	.000026	
323.6	.000065	
313.3	.0000181	
303.5	.0000047	
293.5	.0000013	
320.1	.000038	
310.3	.000011	
300.3	.0000029	
316.2	.0000224	
306.3	.0000061	
296.3	.0000016	
291.8	.00000094	

System: phenazine; phases: Liquid, Gas
Property: Vapor or sublimation pressure, kPa (Liquid); method: Rate of evaporation
Temperature, K	Vapor or sublimation pressure, kPa	uncertainty
450.3	2.018	
452.5	2.186	
456.7	2.618	
460.1	3.041	
464.2	3.533	
469.1	4.316	
451.4	2.101	
454.8	2.441	
458.9	2.836	
462.6	3.328	
466.7	3.944	
