Measured thermophysical data. Use of quantitative structure property relationships to study the solvation process of 18-crown-6
Source: Thermochim. Acta, 2015, 10.1016/j.tca.2015.02.005
Compound 1: 18-crown-6, C12H24O6, purity 99%
Compound 2: cyclohexane, C6H12, purity 99.5%
Compound 3: dimethylformamide, C3H7NO, purity 99%
Compound 4: dimethyl sulfoxide, C2H6OS, purity 99.9%
Compound 5: acetone, C3H6O, purity 99.8%
Compound 6: propylene carbonate, C4H6O3, purity 99.7%
Compound 7: N,N-dimethylacetamide, C4H9NO, purity 99%
Compound 8: methanol, CH4O, purity 99.8%
Compound 9: ethanol, C2H6O, purity 99.9%
Compound 10: 1-propanol, C3H8O, purity 99.5%
Compound 11: 1-butanol, C4H10O, purity 99.9%
Compound 12: 2-propanol, C3H8O, purity 99.9%
Compound 13: carbon tetrachloride, CCl4, purity 99.9%
Compound 14: ethyl acetate, C4H8O2, purity 99.7%
Compound 15: 1,4-dioxane, C4H8O2, purity 99%

System: cyclohexane + 18-crown-6; phases: Liquid
Fixed: Pressure, kPa = 101.52
Fixed: Temperature, K = 298.15
Property: Molar enthalpy of solution, kJ/mol (Liquid); method: Isoperibol calorimetry
Mole fraction of 18-crown-6	Molar enthalpy of solution, kJ/mol	uncertainty
0	49.44	1.16

System: dimethylformamide + 18-crown-6; phases: Liquid
Fixed: Pressure, kPa = 101.52
Fixed: Temperature, K = 298.15
Property: Molar enthalpy of solution, kJ/mol (Liquid); method: Isoperibol calorimetry
Mole fraction of 18-crown-6	Molar enthalpy of solution, kJ/mol	uncertainty
0	33.76	.38

System: dimethyl sulfoxide + 18-crown-6; phases: Liquid
Fixed: Pressure, kPa = 101.52
Fixed: Temperature, K = 298.15
Property: Molar enthalpy of solution, kJ/mol (Liquid); method: Isoperibol calorimetry
Mole fraction of 18-crown-6	Molar enthalpy of solution, kJ/mol	uncertainty
0	28.67	.09

System: acetone + 18-crown-6; phases: Liquid
Fixed: Pressure, kPa = 101.52
Fixed: Temperature, K = 298.15
Property: Molar enthalpy of solution, kJ/mol (Liquid); method: Isoperibol calorimetry
Mole fraction of 18-crown-6	Molar enthalpy of solution, kJ/mol	uncertainty
0	36.76	.34

System: propylene carbonate + 18-crown-6; phases: Liquid
Fixed: Pressure, kPa = 101.52
Fixed: Temperature, K = 298.15
Property: Molar enthalpy of solution, kJ/mol (Liquid); method: Isoperibol calorimetry
Mole fraction of 18-crown-6	Molar enthalpy of solution, kJ/mol	uncertainty
0	24.78	1.29

System: N,N-dimethylacetamide + 18-crown-6; phases: Liquid
Fixed: Pressure, kPa = 101.52
Fixed: Temperature, K = 298.15
Property: Molar enthalpy of solution, kJ/mol (Liquid); method: Isoperibol calorimetry
Mole fraction of 18-crown-6	Molar enthalpy of solution, kJ/mol	uncertainty
0	37	.19

System: methanol + 18-crown-6; phases: Liquid
Fixed: Pressure, kPa = 101.52
Fixed: Temperature, K = 298.15
Property: Molar enthalpy of solution, kJ/mol (Liquid); method: Isoperibol calorimetry
Mole fraction of 18-crown-6	Molar enthalpy of solution, kJ/mol	uncertainty
0	35.13	.97

System: ethanol + 18-crown-6; phases: Liquid
Fixed: Pressure, kPa = 101.52
Fixed: Temperature, K = 298.15
Property: Molar enthalpy of solution, kJ/mol (Liquid); method: Isoperibol calorimetry
Mole fraction of 18-crown-6	Molar enthalpy of solution, kJ/mol	uncertainty
0	43.11	.26

System: 1-propanol + 18-crown-6; phases: Liquid
Fixed: Pressure, kPa = 101.52
Fixed: Temperature, K = 298.15
Property: Molar enthalpy of solution, kJ/mol (Liquid); method: Isoperibol calorimetry
Mole fraction of 18-crown-6	Molar enthalpy of solution, kJ/mol	uncertainty
0	45.97	.19

System: 1-butanol + 18-crown-6; phases: Liquid
Fixed: Pressure, kPa = 101.52
Fixed: Temperature, K = 298.15
Property: Molar enthalpy of solution, kJ/mol (Liquid); method: Isoperibol calorimetry
Mole fraction of 18-crown-6	Molar enthalpy of solution, kJ/mol	uncertainty
0	44.77	.95

System: 2-propanol + 18-crown-6; phases: Liquid
Fixed: Pressure, kPa = 101.52
Fixed: Temperature, K = 298.15
Property: Molar enthalpy of solution, kJ/mol (Liquid); method: Isoperibol calorimetry
Mole fraction of 18-crown-6	Molar enthalpy of solution, kJ/mol	uncertainty
0	46.7	1.58

System: carbon tetrachloride + 18-crown-6; phases: Liquid
Fixed: Pressure, kPa = 101.52
Fixed: Temperature, K = 298.15
Property: Molar enthalpy of solution, kJ/mol (Liquid); method: Isoperibol calorimetry
Mole fraction of 18-crown-6	Molar enthalpy of solution, kJ/mol	uncertainty
0	32.63	.55

System: ethyl acetate + 18-crown-6; phases: Liquid
Fixed: Pressure, kPa = 101.52
Fixed: Temperature, K = 298.15
Property: Molar enthalpy of solution, kJ/mol (Liquid); method: Isoperibol calorimetry
Mole fraction of 18-crown-6	Molar enthalpy of solution, kJ/mol	uncertainty
0	34.57	.54

System: 1,4-dioxane + 18-crown-6; phases: Liquid
Fixed: Pressure, kPa = 101.52
Fixed: Temperature, K = 298.15
Property: Molar enthalpy of solution, kJ/mol (Liquid); method: Isoperibol calorimetry
Mole fraction of 18-crown-6	Molar enthalpy of solution, kJ/mol	uncertainty
0	36.1	.25
