Measured thermophysical data. Thermodynamics of the Al3Ni phase and revision of the Al-Ni system
Source: Thermochim. Acta, 2011, 10.1016/j.tca.2010.10.005
Compound 1: Al(3)Ni, Al3Ni

System: Al(3)Ni; phases: Crystal
Fixed: Pressure, kPa = 101.325
Property: Molar heat capacity at constant pressure, J/K/mol (Crystal); method: Relaxation method
Temperature, K	Molar heat capacity at constant pressure, J/K/mol	uncertainty
2.15	.00221	.0000442
2.27	.00238	.0000476
2.4	.00256	.0000512
2.55	.0027	.000054
2.69	.00295	.000059
2.85	.00317	.0000634
3.02	.00344	.0000688
3.2	.00375	.000075
3.38	.00411	.0000822
3.58	.00455	.000091
3.79	.00493	.0000986
4.01	.00533	.0001066
4.25	.00583	.0001166
4.5	.00642	.0001284
4.77	.00704	.0001408
5.04	.00775	.000155
5.34	.00864	.0001728
5.65	.00963	.0001926
5.98	.0107	.000214
6.33	.01198	.0002396
6.7	.01339	.0002678
7.1	.015	.0003
7.51	.01672	.0003344
7.95	.01888	.0003776
8.41	.02133	.0004266
8.92	.02411	.0004822
9.44	.02716	.0005432
9.98	.03079	.0006158
10.57	.03507	.0007014
11.19	.04001	.0008002
11.84	.04565	.000913
12.54	.05245	.001049
13.27	.06036	.0012072
14.05	.06963	.0013926
14.88	.08145	.001629
15.74	.0944	.001888
16.66	.11094	.0022188
17.65	.13085	.002617
18.67	.1549	.003098
19.77	.18461	.0036922
20.94	.22107	.0044214
22.16	.26625	.005325
23.46	.32139	.0064278
24.82	.38777	.0077554
26.31	.47519	.0095038
27.86	.5753	.011506
29.49	.69497	.0138994
31.21	.82388	.0164776
33.03	.9847	.019694
34.97	1.16742	.0233484
37	1.37672	.0275344
39.16	1.66924	.0333848
41.44	1.93411	.0386822
43.87	2.21357	.0442714
46.45	2.59411	.0518822
49.18	2.99592	.0599184
52.05	3.36484	.0672968
55.12	3.91705	.078341
58.39	4.42631	.0885262
61.79	5.00054	.1000108
65.43	5.60154	.1120308
69.27	6.24538	.1249076
73.33	6.92978	.1385956
77.64	7.63722	.1527444
82.19	8.38659	.1677318
87.01	9.14745	.182949
92.11	9.96035	.199207
97.52	10.76702	.2153404
103.24	11.57497	.2314994
109.31	12.4079	.248158
115.72	13.24117	.2648234
122.51	14.0108	.280216
129.71	14.80494	.2960988
137.33	15.53517	.3107034
145.38	16.334	.32668
153.91	17.05065	.341013
162.92	17.79294	.3558588
172.47	18.46403	.3692806
182.58	19.12834	.3825668
193.27	19.77685	.395537
204.59	20.33755	.406751
216.55	20.96656	.4193312
229.22	21.51244	.4302488
242.65	22.01372	.4402744
256.84	22.47984	.4495968
271.86	22.96973	.4593946
287.79	23.42947	.4685894
304.61	23.79774	.4759548
322.82	24.03137	.4806274

System: Al(3)Ni; phases: Crystal
Fixed: Pressure, kPa = 101.325
Property: Molar enthalpy, kJ/mol (Crystal); method: Drop calorimetry
Temperature, K	Molar enthalpy, kJ/mol	uncertainty
582.8	7.1866	
673.2	9.349	
773.2	12.3058	
873.3	15.0118	
923.3	16.4456	
973.2	17.5946	
1023.2	18.413	
1073.2	20.5784	
1073	21.751	
