Measured thermophysical data. Ion exchange synthesis and thermal characteristics of some [N+  4444] based  ionic liquids
Source: Thermochim. Acta, 2013, 10.1016/j.tca.2013.01.003
Compound 1: tetrabutylammonium hydrogen carbonate, C17H37NO3, purity 98%
Compound 2: 1-butanaminium, N,N,N-tributyl-, tetrafluoroborate (1-), C16H36BF4N, purity 98%
Compound 3: tetrabutylammonium hexafluorophosphate, C16H36F6NP, purity 98%
Compound 4: tetrabutylammonium bromate, C16H36BrNO3, purity 98%
Compound 5: tetrabutylammonium nitrate, C16H36N2O3, purity 98%
Compound 6: tetrabutylammonium nitrite, C16H36N2O2, purity 98%
Compound 7: tetrabutylammonium thiocyanate, C17H36N2S, purity 98%
Compound 8: tetrabutylammonium iodate, C16H36INO3, purity 98%

System: tetrabutylammonium hydrogen carbonate; phases: Crystal, Liquid, Air at 1 atmosphere
Property: Normal melting temperature, K (Crystal); method: DSC/DTA
Normal melting temperature, K	uncertainty
343.15	

System: tetrabutylammonium hydrogen carbonate; phases: Crystal 3, Crystal 2, Air at 1 atmosphere
Property: Triple point temperature, K (Crystal 3); method: DSC/DTA
Triple point temperature, K	uncertainty
229.15	

System: tetrabutylammonium hydrogen carbonate; phases: Crystal 2, Crystal 1, Air at 1 atmosphere
Property: Triple point temperature, K (Crystal 2); method: DSC/DTA
Triple point temperature, K	uncertainty
285.15	

System: tetrabutylammonium hydrogen carbonate; phases: Crystal, Liquid, Air at 1 atmosphere
Property: Molar enthalpy of transition or fusion, kJ/mol (Crystal); method: DSC/DTA
Molar enthalpy of transition or fusion, kJ/mol	uncertainty
83.5087622054	

System: tetrabutylammonium hydrogen carbonate; phases: Crystal 3, Crystal 2, Air at 1 atmosphere
Property: Molar enthalpy of transition or fusion, kJ/mol (Crystal 3); method: DSC/DTA
Molar enthalpy of transition or fusion, kJ/mol	uncertainty
33.1158052544	

System: tetrabutylammonium hydrogen carbonate; phases: Crystal 2, Crystal 1, Air at 1 atmosphere
Property: Molar enthalpy of transition or fusion, kJ/mol (Crystal 2); method: DSC/DTA
Molar enthalpy of transition or fusion, kJ/mol	uncertainty
26.4847537074	

System: tetrabutylammonium hydrogen carbonate; phases: Liquid
Fixed: Pressure, kPa = 101.325
Property: Mass density, kg/m3 (Liquid); method: Pycnometric method
Temperature, K	Mass density, kg/m3	uncertainty
343.15	1287	

System: tetrabutylammonium hydrogen carbonate; phases: Liquid
Fixed: Pressure, kPa = 101.325
Property: Thermal conductivity, W/m/K (Liquid); method: by freezing time
Temperature, K	Thermal conductivity, W/m/K	uncertainty
344.15	.384	.096

System: tetrabutylammonium hydrogen carbonate; phases: Crystal 1
Fixed: Pressure, kPa = 101.325
Property: Thermal conductivity, W/m/K (Crystal 1); method: by melting time
Temperature, K	Thermal conductivity, W/m/K	uncertainty
341.15	.121	.03025

System: 1-butanaminium, N,N,N-tributyl-, tetrafluoroborate (1-); phases: Crystal, Liquid, Air at 1 atmosphere
Property: Normal melting temperature, K (Crystal); method: DSC/DTA
Normal melting temperature, K	uncertainty
344.15	

System: 1-butanaminium, N,N,N-tributyl-, tetrafluoroborate (1-); phases: Crystal 3, Crystal 2, Air at 1 atmosphere
Property: Triple point temperature, K (Crystal 3); method: DSC/DTA
Triple point temperature, K	uncertainty
286.15	

System: 1-butanaminium, N,N,N-tributyl-, tetrafluoroborate (1-); phases: Crystal 2, Crystal 1, Air at 1 atmosphere
Property: Triple point temperature, K (Crystal 2); method: DSC/DTA
Triple point temperature, K	uncertainty
297.15	

System: 1-butanaminium, N,N,N-tributyl-, tetrafluoroborate (1-); phases: Crystal, Liquid, Air at 1 atmosphere
Property: Molar enthalpy of transition or fusion, kJ/mol (Crystal); method: DSC/DTA
Molar enthalpy of transition or fusion, kJ/mol	uncertainty
83.551854673	

System: 1-butanaminium, N,N,N-tributyl-, tetrafluoroborate (1-); phases: Crystal 3, Crystal 2, Air at 1 atmosphere
Property: Molar enthalpy of transition or fusion, kJ/mol (Crystal 3); method: DSC/DTA
Molar enthalpy of transition or fusion, kJ/mol	uncertainty
33.203424729952	

System: 1-butanaminium, N,N,N-tributyl-, tetrafluoroborate (1-); phases: Crystal 2, Crystal 1, Air at 1 atmosphere
Property: Molar enthalpy of transition or fusion, kJ/mol (Crystal 2); method: DSC/DTA
Molar enthalpy of transition or fusion, kJ/mol	uncertainty
68.909289245184	

System: 1-butanaminium, N,N,N-tributyl-, tetrafluoroborate (1-); phases: Liquid
Fixed: Pressure, kPa = 101.325
Property: Mass density, kg/m3 (Liquid); method: Pycnometric method
Temperature, K	Mass density, kg/m3	uncertainty
344.15	1291	

System: 1-butanaminium, N,N,N-tributyl-, tetrafluoroborate (1-); phases: Liquid
Fixed: Pressure, kPa = 101.325
Property: Thermal conductivity, W/m/K (Liquid); method: by freezing time
Temperature, K	Thermal conductivity, W/m/K	uncertainty
345.15	.383	.09575

System: 1-butanaminium, N,N,N-tributyl-, tetrafluoroborate (1-); phases: Crystal 1
Fixed: Pressure, kPa = 101.325
Property: Thermal conductivity, W/m/K (Crystal 1); method: by melting time
Temperature, K	Thermal conductivity, W/m/K	uncertainty
342.15	.108	.027

System: tetrabutylammonium hexafluorophosphate; phases: Crystal, Liquid, Air at 1 atmosphere
Property: Normal melting temperature, K (Crystal); method: DSC/DTA
Normal melting temperature, K	uncertainty
344.15	

System: tetrabutylammonium hexafluorophosphate; phases: Crystal 4, Crystal 3, Air at 1 atmosphere
Property: Triple point temperature, K (Crystal 4); method: DSC/DTA
Triple point temperature, K	uncertainty
235.15	

System: tetrabutylammonium hexafluorophosphate; phases: Crystal 3, Crystal 2, Air at 1 atmosphere
Property: Triple point temperature, K (Crystal 3); method: DSC/DTA
Triple point temperature, K	uncertainty
283.15	

System: tetrabutylammonium hexafluorophosphate; phases: Crystal 2, Crystal 1, Air at 1 atmosphere
Property: Triple point temperature, K (Crystal 2); method: DSC/DTA
Triple point temperature, K	uncertainty
300.15	

System: tetrabutylammonium hexafluorophosphate; phases: Crystal, Liquid, Air at 1 atmosphere
Property: Molar enthalpy of transition or fusion, kJ/mol (Crystal); method: DSC/DTA
Molar enthalpy of transition or fusion, kJ/mol	uncertainty
60.051333831	

System: tetrabutylammonium hexafluorophosphate; phases: Crystal 4, Crystal 3, Air at 1 atmosphere
Property: Molar enthalpy of transition or fusion, kJ/mol (Crystal 4); method: DSC/DTA
Molar enthalpy of transition or fusion, kJ/mol	uncertainty
35.368298486658	

System: tetrabutylammonium hexafluorophosphate; phases: Crystal 3, Crystal 2, Air at 1 atmosphere
Property: Molar enthalpy of transition or fusion, kJ/mol (Crystal 3); method: DSC/DTA
Molar enthalpy of transition or fusion, kJ/mol	uncertainty
54.274782944418	

System: tetrabutylammonium hexafluorophosphate; phases: Crystal 2, Crystal 1, Air at 1 atmosphere
Property: Molar enthalpy of transition or fusion, kJ/mol (Crystal 2); method: DSC/DTA
Molar enthalpy of transition or fusion, kJ/mol	uncertainty
76.675867603182	

System: tetrabutylammonium hexafluorophosphate; phases: Liquid
Fixed: Pressure, kPa = 101.325
Property: Mass density, kg/m3 (Liquid); method: Pycnometric method
Temperature, K	Mass density, kg/m3	uncertainty
344.15	1234	

System: tetrabutylammonium hexafluorophosphate; phases: Liquid
Fixed: Pressure, kPa = 101.325
Property: Thermal conductivity, W/m/K (Liquid); method: by freezing time
Temperature, K	Thermal conductivity, W/m/K	uncertainty
345.15	.383	.09575

System: tetrabutylammonium hexafluorophosphate; phases: Crystal 1
Fixed: Pressure, kPa = 101.325
Property: Thermal conductivity, W/m/K (Crystal 1); method: by melting time
Temperature, K	Thermal conductivity, W/m/K	uncertainty
342.15	.062	.0155

System: tetrabutylammonium bromate; phases: Crystal, Liquid, Air at 1 atmosphere
Property: Normal melting temperature, K (Crystal); method: DSC/DTA
Normal melting temperature, K	uncertainty
359.15	

System: tetrabutylammonium bromate; phases: Crystal 4, Crystal 3, Air at 1 atmosphere
Property: Triple point temperature, K (Crystal 4); method: DSC/DTA
Triple point temperature, K	uncertainty
272.15	

System: tetrabutylammonium bromate; phases: Crystal 3, Crystal 2, Air at 1 atmosphere
Property: Triple point temperature, K (Crystal 3); method: DSC/DTA
Triple point temperature, K	uncertainty
285.15	

System: tetrabutylammonium bromate; phases: Crystal 2, Crystal 1, Air at 1 atmosphere
Property: Triple point temperature, K (Crystal 2); method: DSC/DTA
Triple point temperature, K	uncertainty
326.15	

System: tetrabutylammonium bromate; phases: Crystal, Liquid, Air at 1 atmosphere
Property: Molar enthalpy of transition or fusion, kJ/mol (Crystal); method: DSC/DTA
Molar enthalpy of transition or fusion, kJ/mol	uncertainty
56.9289547858	

System: tetrabutylammonium bromate; phases: Crystal 4, Crystal 3, Air at 1 atmosphere
Property: Molar enthalpy of transition or fusion, kJ/mol (Crystal 4); method: DSC/DTA
Molar enthalpy of transition or fusion, kJ/mol	uncertainty
11.6591210504	

System: tetrabutylammonium bromate; phases: Crystal 3, Crystal 2, Air at 1 atmosphere
Property: Molar enthalpy of transition or fusion, kJ/mol (Crystal 3); method: DSC/DTA
Molar enthalpy of transition or fusion, kJ/mol	uncertainty
24.6997072062	

System: tetrabutylammonium bromate; phases: Crystal 2, Crystal 1, Air at 1 atmosphere
Property: Molar enthalpy of transition or fusion, kJ/mol (Crystal 2); method: DSC/DTA
Molar enthalpy of transition or fusion, kJ/mol	uncertainty
69.3214004766	

System: tetrabutylammonium bromate; phases: Liquid
Fixed: Pressure, kPa = 101.325
Property: Mass density, kg/m3 (Liquid); method: Pycnometric method
Temperature, K	Mass density, kg/m3	uncertainty
359.15	1050	

System: tetrabutylammonium bromate; phases: Liquid
Fixed: Pressure, kPa = 101.325
Property: Thermal conductivity, W/m/K (Liquid); method: by freezing time
Temperature, K	Thermal conductivity, W/m/K	uncertainty
360.15	.659	.16475

System: tetrabutylammonium bromate; phases: Crystal 1
Fixed: Pressure, kPa = 101.325
Property: Thermal conductivity, W/m/K (Crystal 1); method: by melting time
Temperature, K	Thermal conductivity, W/m/K	uncertainty
358.15	.048	.012

System: tetrabutylammonium nitrate; phases: Crystal, Liquid, Air at 1 atmosphere
Property: Normal melting temperature, K (Crystal); method: DSC/DTA
Normal melting temperature, K	uncertainty
371.15	

System: tetrabutylammonium nitrate; phases: Crystal 2, Crystal 1, Air at 1 atmosphere
Property: Triple point temperature, K (Crystal 2); method: DSC/DTA
Triple point temperature, K	uncertainty
226.15	

System: tetrabutylammonium nitrate; phases: Crystal, Liquid, Air at 1 atmosphere
Property: Molar enthalpy of transition or fusion, kJ/mol (Crystal); method: DSC/DTA
Molar enthalpy of transition or fusion, kJ/mol	uncertainty
43.84349568	

System: tetrabutylammonium nitrate; phases: Crystal 2, Crystal 1, Air at 1 atmosphere
Property: Molar enthalpy of transition or fusion, kJ/mol (Crystal 2); method: DSC/DTA
Molar enthalpy of transition or fusion, kJ/mol	uncertainty
9.529870936	

System: tetrabutylammonium nitrate; phases: Liquid
Fixed: Pressure, kPa = 101.325
Property: Mass density, kg/m3 (Liquid); method: Pycnometric method
Temperature, K	Mass density, kg/m3	uncertainty
371.15	1195	

System: tetrabutylammonium nitrate; phases: Liquid
Fixed: Pressure, kPa = 101.325
Property: Thermal conductivity, W/m/K (Liquid); method: by freezing time
Temperature, K	Thermal conductivity, W/m/K	uncertainty
372.15	.954	.2385

System: tetrabutylammonium nitrate; phases: Crystal 1
Fixed: Pressure, kPa = 101.325
Property: Thermal conductivity, W/m/K (Crystal 1); method: by melting time
Temperature, K	Thermal conductivity, W/m/K	uncertainty
369.15	.062	.0155

System: tetrabutylammonium nitrite; phases: Crystal, Liquid, Air at 1 atmosphere
Property: Normal melting temperature, K (Crystal); method: DSC/DTA
Normal melting temperature, K	uncertainty
320.15	

System: tetrabutylammonium nitrite; phases: Crystal 2, Crystal 1, Air at 1 atmosphere
Property: Triple point temperature, K (Crystal 2); method: DSC/DTA
Triple point temperature, K	uncertainty
253.15	

System: tetrabutylammonium nitrite; phases: Crystal, Liquid, Air at 1 atmosphere
Property: Molar enthalpy of transition or fusion, kJ/mol (Crystal); method: DSC/DTA
Molar enthalpy of transition or fusion, kJ/mol	uncertainty
57.98233332	

System: tetrabutylammonium nitrite; phases: Crystal 2, Crystal 1, Air at 1 atmosphere
Property: Molar enthalpy of transition or fusion, kJ/mol (Crystal 2); method: DSC/DTA
Molar enthalpy of transition or fusion, kJ/mol	uncertainty
3.17316252	

System: tetrabutylammonium nitrite; phases: Liquid
Fixed: Pressure, kPa = 101.325
Property: Mass density, kg/m3 (Liquid); method: Pycnometric method
Temperature, K	Mass density, kg/m3	uncertainty
320.15	1187	

System: tetrabutylammonium nitrite; phases: Liquid
Fixed: Pressure, kPa = 101.325
Property: Thermal conductivity, W/m/K (Liquid); method: by freezing time
Temperature, K	Thermal conductivity, W/m/K	uncertainty
319.15	.592	.148

System: tetrabutylammonium nitrite; phases: Crystal 1
Fixed: Pressure, kPa = 101.325
Property: Thermal conductivity, W/m/K (Crystal 1); method: by melting time
Temperature, K	Thermal conductivity, W/m/K	uncertainty
318.15	.019	.00475

System: tetrabutylammonium thiocyanate; phases: Crystal, Liquid, Air at 1 atmosphere
Property: Normal melting temperature, K (Crystal); method: DSC/DTA
Normal melting temperature, K	uncertainty
383.15	

System: tetrabutylammonium thiocyanate; phases: Crystal 2, Crystal 1, Air at 1 atmosphere
Property: Triple point temperature, K (Crystal 2); method: DSC/DTA
Triple point temperature, K	uncertainty
333.15	

System: tetrabutylammonium thiocyanate; phases: Crystal, Liquid, Air at 1 atmosphere
Property: Molar enthalpy of transition or fusion, kJ/mol (Crystal); method: DSC/DTA
Molar enthalpy of transition or fusion, kJ/mol	uncertainty
76.03844666	

System: tetrabutylammonium thiocyanate; phases: Crystal 2, Crystal 1, Air at 1 atmosphere
Property: Molar enthalpy of transition or fusion, kJ/mol (Crystal 2); method: DSC/DTA
Molar enthalpy of transition or fusion, kJ/mol	uncertainty
5.6322549028	

System: tetrabutylammonium thiocyanate; phases: Liquid
Fixed: Pressure, kPa = 101.325
Property: Mass density, kg/m3 (Liquid); method: Pycnometric method
Temperature, K	Mass density, kg/m3	uncertainty
383.15	1143	

System: tetrabutylammonium thiocyanate; phases: Liquid
Fixed: Pressure, kPa = 101.325
Property: Thermal conductivity, W/m/K (Liquid); method: by freezing time
Temperature, K	Thermal conductivity, W/m/K	uncertainty
384.15	.936	.234

System: tetrabutylammonium thiocyanate; phases: Crystal 1
Fixed: Pressure, kPa = 101.325
Property: Thermal conductivity, W/m/K (Crystal 1); method: by melting time
Temperature, K	Thermal conductivity, W/m/K	uncertainty
382.15	.054	.0135

System: tetrabutylammonium iodate; phases: Crystal, Liquid, Air at 1 atmosphere
Property: Normal melting temperature, K (Crystal); method: DSC/DTA
Normal melting temperature, K	uncertainty
317.15	

System: tetrabutylammonium iodate; phases: Crystal, Liquid, Air at 1 atmosphere
Property: Molar enthalpy of transition or fusion, kJ/mol (Crystal); method: DSC/DTA
Molar enthalpy of transition or fusion, kJ/mol	uncertainty
47.16240885	

System: tetrabutylammonium iodate; phases: Liquid
Fixed: Pressure, kPa = 101.325
Property: Mass density, kg/m3 (Liquid); method: Pycnometric method
Temperature, K	Mass density, kg/m3	uncertainty
317.15	1279	

System: tetrabutylammonium iodate; phases: Liquid
Fixed: Pressure, kPa = 101.325
Property: Thermal conductivity, W/m/K (Liquid); method: by freezing time
Temperature, K	Thermal conductivity, W/m/K	uncertainty
318.15	.902	.2255

System: tetrabutylammonium iodate; phases: Crystal 1
Fixed: Pressure, kPa = 101.325
Property: Thermal conductivity, W/m/K (Crystal 1); method: by melting time
Temperature, K	Thermal conductivity, W/m/K	uncertainty
315.15	.166	.0415
