Measured thermophysical data. Enthalpies of transfer of amino acids from water to aqueous solutions  of N-methylacetamide and N,N-dimethylacetamide at T=298.15K
Source: Thermochim. Acta, 2009, 10.1016/j.tca.2008.10.011
Compound 1: glycine, C2H5NO2, purity 99%
Compound 2: L-alanine, C3H7NO2, purity 99%
Compound 3: L-serine, C3H7NO3, purity 99%
Compound 4: N-methylacetamide, C3H7NO, purity 99%
Compound 5: N,N-dimethylacetamide, C4H9NO
Compound 6: water, H2O

System: glycine + N-methylacetamide + water; phases: Liquid
Fixed: Temperature, K = 298.15
Fixed: Pressure, kPa = 101
Fixed: Mole fraction of glycine = 0
Property: Molar enthalpy of solution, kJ/mol (Liquid); method: Calvet calorimetry
Solvent: Molality, mol/kg of N-methylacetamide	Molar enthalpy of solution, kJ/mol	uncertainty
0	14.15	
.5001	14.55	
.9997	15.05	
1.4991	15.41	
1.9993	15.71	
2.5	16.02	
2.9981	16.42	
3.4962	16.71	
3.9957	16.98	

System: L-alanine + N-methylacetamide + water; phases: Liquid
Fixed: Temperature, K = 298.15
Fixed: Pressure, kPa = 101
Fixed: Mole fraction of L-alanine = 0
Property: Molar enthalpy of solution, kJ/mol (Liquid); method: Calvet calorimetry
Solvent: Molality, mol/kg of N-methylacetamide	Molar enthalpy of solution, kJ/mol	uncertainty
0	7.57	
.4998	8.24	
.9998	8.67	
1.4985	9.12	
1.9998	9.62	
2.4993	10.04	
2.9991	10.57	
3.4987	10.96	
3.9989	11.35	

System: L-serine + N-methylacetamide + water; phases: Liquid
Fixed: Temperature, K = 298.15
Fixed: Pressure, kPa = 101
Fixed: Mole fraction of L-serine = 0
Property: Molar enthalpy of solution, kJ/mol (Liquid); method: Calvet calorimetry
Solvent: Molality, mol/kg of N-methylacetamide	Molar enthalpy of solution, kJ/mol	uncertainty
0	11.34	
.4998	11.56	
.9998	11.85	
1.4985	12.34	
1.9998	12.71	
2.4993	13.05	
2.9991	13.4	
3.4987	13.62	
3.9989	13.98	

System: glycine + N,N-dimethylacetamide + water; phases: Liquid
Fixed: Temperature, K = 298.15
Fixed: Pressure, kPa = 101
Fixed: Mole fraction of glycine = 0
Property: Molar enthalpy of solution, kJ/mol (Liquid); method: Calvet calorimetry
Solvent: Molality, mol/kg of N,N-dimethylacetamide	Molar enthalpy of solution, kJ/mol	uncertainty
.4999	14.76	
.9988	15.15	
1.5002	15.64	
2.0004	15.93	
2.4983	16.25	
3.0005	16.67	
3.5017	16.94	
4.0005	17.33	

System: L-alanine + N,N-dimethylacetamide + water; phases: Liquid
Fixed: Temperature, K = 298.15
Fixed: Pressure, kPa = 101
Fixed: Mole fraction of L-alanine = 0
Property: Molar enthalpy of solution, kJ/mol (Liquid); method: Calvet calorimetry
Solvent: Molality, mol/kg of N,N-dimethylacetamide	Molar enthalpy of solution, kJ/mol	uncertainty
.5	8.43	
1.0001	8.91	
1.4995	9.5	
2.0004	10.05	
2.4999	10.65	
2.9874	11.3	
3.4988	11.72	
4.0006	12.27	

System: L-serine + N,N-dimethylacetamide + water; phases: Liquid
Fixed: Temperature, K = 298.15
Fixed: Pressure, kPa = 101
Fixed: Mole fraction of L-serine = 0
Property: Molar enthalpy of solution, kJ/mol (Liquid); method: Calvet calorimetry
Solvent: Molality, mol/kg of N,N-dimethylacetamide	Molar enthalpy of solution, kJ/mol	uncertainty
.5002	11.71	
.9995	12.02	
1.5012	12.57	
1.9988	12.96	
2.5002	13.3	
2.9997	13.72	
3.4989	14.01	
4.0005	14.35	
