Measured thermophysical data. Partial molar volume, Jones Dole coefficient, and limiting molar isentropiccompressibility of sodium ibuprofen in water and its hydration number andhydration free energy
Source: Thermochim. Acta, 2013, 10.1016/j.tca.2013.05.030
Compound 1: ibuprofen sodium salt, C13H17NaO2
Compound 2: water, H2O

System: water + ibuprofen sodium salt; phases: Liquid
Fixed: Pressure, kPa = 101
Property: Mass density, kg/m3 (Liquid); method: Pycnometric method
Temperature, K	Molality, mol/kg of ibuprofen sodium salt	Mass density, kg/m3	uncertainty
298.15	0	997	.06
298.15	.1048	1001.4	.06
298.15	.1525	1003.2	.06
298.15	.2231	1005.8	.06
298.15	.3179	1009.1	.06
298.15	.3721	1010.9	.06
298.15	.4422	1013.1	.06
298.15	.4678	1013.9	.06
303.15	0	995.6	.06
303.15	.1048	999.9	.06
303.15	.1525	1001.7	.06
303.15	.2231	1004.3	.06
303.15	.3179	1007.5	.06
303.15	.3721	1009.3	.06
303.15	.4422	1011.5	.06
303.15	.4678	1012.3	.06
308.15	0	994	.06
308.15	.1048	998.2	.06
308.15	.1525	1000	.06
308.15	.2231	1002.5	.06
308.15	.3179	1005.7	.06
308.15	.3721	1007.4	.06
308.15	.4422	1009.6	.06
308.15	.4678	1010.4	.06
313.15	0	992.2	.06
313.15	.1048	996.3	.06
313.15	.1525	998	.06
313.15	.2231	1000.5	.06
313.15	.3179	1003.6	.06
313.15	.3721	1005.3	.06
313.15	.4422	1007.4	.06
313.15	.4678	1008.1	.06

System: water + ibuprofen sodium salt; phases: Liquid
Fixed: Pressure, kPa = 101
Property: Speed of sound, m/s (Liquid); method: Sing-around technique in a fixed-path interferometer
Temperature, K	Molality, mol/kg of ibuprofen sodium salt	Speed of sound, m/s	uncertainty
298.15	0	1496.8	
298.15	.1048	1512.8	
298.15	.1525	1518.4	
298.15	.2231	1525.6	
298.15	.3179	1533.2	
298.15	.3721	1536.4	
298.15	.4422	1540	
298.15	.4678	1540.8	
303.15	0	1509.2	
303.15	.1048	1523.6	
303.15	.1525	1528.4	
303.15	.2231	1534.4	
303.15	.3179	1540.8	
303.15	.3721	1543.2	
303.15	.4422	1546.4	
303.15	.4678	1547.2	
308.15	0	1519.6	
308.15	.1048	1532	
308.15	.1525	1536.4	
308.15	.2231	1542	
308.15	.3179	1548	
308.15	.3721	1550.8	
308.15	.4422	1553.6	
308.15	.4678	1554.4	
313.15	0	1528.8	
313.15	.1048	1539.2	
313.15	.1525	1542.8	
313.15	.2231	1547.6	
313.15	.3179	1552.8	
313.15	.3721	1555.2	
313.15	.4422	1557.2	
313.15	.4678	1558	

System: water + ibuprofen sodium salt; phases: Liquid
Fixed: Pressure, kPa = 101
Property: Viscosity, Pa*s (Liquid); method: Capillary tube (Ostwald; Ubbelohde) method
Temperature, K	Molality, mol/kg of ibuprofen sodium salt	Viscosity, Pa*s	uncertainty
298.15	.1048	.000973	
298.15	.1525	.001007	
298.15	.2231	.00107	
298.15	.3179	.001173	
298.15	.3721	.001242	
298.15	.4422	.001342	
298.15	.4678	.001381	
303.15	.1048	.000867	
303.15	.1525	.000897	
303.15	.2231	.000953	
303.15	.3179	.001043	
303.15	.3721	.001104	
303.15	.4422	.001194	
303.15	.4678	.001228	
308.15	.1048	.00078	
308.15	.1525	.000808	
308.15	.2231	.000857	
308.15	.3179	.000937	
308.15	.3721	.000992	
308.15	.4422	.001072	
308.15	.4678	.001104	
313.15	.1048	.000707	
313.15	.1525	.000732	
313.15	.2231	.000777	
313.15	.3179	.000848	
313.15	.3721	.000898	
313.15	.4422	.000969	
313.15	.4678	.000997	
