Measured thermophysical data. Volumetric properties of amino acids in aqueous solution of nonionic surfactant
Source: Thermochim. Acta, 2010, 10.1016/j.tca.2009.09.009
Compound 1: hexadecyl poly[oxyethylene(25)] alcohol, C66H134O26
Compound 2: glycine, C2H5NO2
Compound 3: alanine, C3H7NO2
Compound 4: L-serine, C3H7NO3
Compound 5: aspartic acid, C4H7NO4
Compound 6: lysine, C6H14N2O2
Compound 7: L-leucine, C6H13NO2
Compound 8: water, H2O

System: hexadecyl poly[oxyethylene(25)] alcohol + glycine + water; phases: Liquid
Fixed: Pressure, kPa = 101
Property: Mass density, kg/m3 (Liquid); method: Vibrating tube method
Temperature, K	Solvent: Amount concentration (molarity), mol/dm3 of hexadecyl poly[oxyethylene(25)] alcohol	Molality, mol/kg of glycine	Mass density, kg/m3	uncertainty
303	.00005	.00106	995.68	.05
303	.00005	.00216	995.71	.05
303	.00005	.00574	995.79	.05
303	.00005	.01304	995.87	.05
303	.00005	.04818	995.82	.05
333	.00005	.00106	983.22	.05
333	.00005	.00216	983.25	.05
333	.00005	.00574	983.34	.05
333	.00005	.01304	983.48	.05
333	.00005	.04818	983.51	.05
303	.0005	0	995.72	.05
303	.0005	.00154	995.77	.05
303	.0005	.00317	995.82	.05
303	.0005	.00872	996	.05
303	.0005	.02095	996.39	.05
303	.0005	.030821	996.7	.05
333	.0005	0	983.26	.05
333	.0005	.00154	983.31	.05
333	.0005	.00317	983.36	.05
333	.0005	.00872	983.77	.05
333	.0005	.02095	983.93	.05
333	.0005	.030821	984.25	.05

System: hexadecyl poly[oxyethylene(25)] alcohol + alanine + water; phases: Liquid
Fixed: Pressure, kPa = 101
Property: Mass density, kg/m3 (Liquid); method: Vibrating tube method
Temperature, K	Solvent: Amount concentration (molarity), mol/dm3 of hexadecyl poly[oxyethylene(25)] alcohol	Molality, mol/kg of alanine	Mass density, kg/m3	uncertainty
303	.00005	.00077	995.67	.05
303	.00005	.00161	995.68	.05
303	.00005	.00346	995.69	.05
303	.00005	.00562	995.66	.05
303	.00005	.00817	995.59	.05
333	.00005	.00077	983.21	.05
333	.00005	.00161	983.22	.05
333	.00005	.00346	983.24	.05
333	.00005	.00562	983.22	.05
333	.00005	.00817	983.16	.05
303	.0005	.00161	995.77	.05
303	.0005	.00346	995.8	.05
303	.0005	.00562	995.84	.05
303	.0005	.00817	995.86	.05
333	.0005	.00161	983.32	.05
333	.0005	.00346	983.37	.05
333	.0005	.00562	983.41	.05
333	.0005	.00817	983.44	.05

System: hexadecyl poly[oxyethylene(25)] alcohol + L-serine + water; phases: Liquid
Fixed: Pressure, kPa = 101
Property: Mass density, kg/m3 (Liquid); method: Vibrating tube method
Temperature, K	Solvent: Amount concentration (molarity), mol/dm3 of hexadecyl poly[oxyethylene(25)] alcohol	Molality, mol/kg of L-serine	Mass density, kg/m3	uncertainty
303	.00005	.0005	995.67	.05
303	.00005	.0015	995.71	.05
303	.00005	.0025	995.74	.05
303	.00005	.003	995.75	.05
303	.00005	.004	995.78	.05
333	.00005	.0005	983.21	.05
333	.00005	.0015	983.26	.05
333	.00005	.0025	983.29	.05
333	.00005	.003	983.3	.05
333	.00005	.004	983.32	.05
303	.0005	.0005	995.74	.05
303	.0005	.001	995.76	.05
303	.0005	.002	995.79	.05
303	.0005	.003	995.81	.05
303	.0005	.004	995.81	.05
333	.0005	.0005	983.29	.05
333	.0005	.001	983.31	.05
333	.0005	.002	983.34	.05
333	.0005	.003	983.35	.05
333	.0005	.004	983.34	.05

System: hexadecyl poly[oxyethylene(25)] alcohol + aspartic acid + water; phases: Liquid
Fixed: Pressure, kPa = 101
Property: Mass density, kg/m3 (Liquid); method: Vibrating tube method
Temperature, K	Solvent: Amount concentration (molarity), mol/dm3 of hexadecyl poly[oxyethylene(25)] alcohol	Molality, mol/kg of aspartic acid	Mass density, kg/m3	uncertainty
303	.00005	.00188	995.78	.05
303	.00005	.00376	995.9	.05
303	.00005	.00752	996.14	.05
303	.00005	.0094	996.26	.05
303	.00005	.01222	996.42	.05
303	.00005	.01598	996.63	.05
303	.00005	.0188	996.77	.05
333	.00005	.00188	983.32	.05
333	.00005	.00376	983.45	.05
333	.00005	.00752	983.69	.05
333	.00005	.0094	983.75	.05
333	.00005	.01222	983.99	.05
333	.00005	.01598	984.22	.05
333	.00005	.0188	984.39	.05
303	.0005	.00188	995.85	.05
303	.0005	.00376	995.97	.05
303	.0005	.00752	996.21	.05
303	.0005	.0094	996.33	.05
303	.0005	.01222	996.5	.05
303	.0005	.01598	996.72	.05
303	.0005	.0188	996.87	.05
333	.0005	.00188	983.39	.05
333	.0005	.00376	983.51	.05
333	.0005	.00752	983.74	.05
333	.0005	.0094	983.85	.05
333	.0005	.01222	984.01	.05
333	.0005	.01598	984.21	.05
333	.0005	.0188	984.34	.05

System: hexadecyl poly[oxyethylene(25)] alcohol + lysine + water; phases: Liquid
Fixed: Pressure, kPa = 101
Property: Mass density, kg/m3 (Liquid); method: Vibrating tube method
Temperature, K	Solvent: Amount concentration (molarity), mol/dm3 of hexadecyl poly[oxyethylene(25)] alcohol	Molality, mol/kg of lysine	Mass density, kg/m3	uncertainty
303	.00005	.00034	995.68	.05
303	.00005	.00069	995.7	.05
303	.00005	.00138	995.74	.05
303	.00005	.00207	995.75	.05
303	.00005	.00276	995.78	.05
333	.00005	.00034	983.22	.05
333	.00005	.00069	983.25	.05
333	.00005	.00138	983.26	.05
333	.00005	.00207	983.35	.05
333	.00005	.00276	983.4	.05
303	.0005	.0005	995.76	.05
303	.0005	.001	995.8	.05
303	.0005	.0025	995.92	.05
303	.0005	.003	995.96	.05
303	.0005	.004	996.04	.05
333	.0005	.0005	983.3	.05
333	.0005	.001	983.34	.05
333	.0005	.0025	983.46	.05
333	.0005	.003	983.5	.05
333	.0005	.004	983.58	.05

System: hexadecyl poly[oxyethylene(25)] alcohol + L-leucine + water; phases: Liquid
Fixed: Pressure, kPa = 101
Property: Mass density, kg/m3 (Liquid); method: Vibrating tube method
Temperature, K	Solvent: Amount concentration (molarity), mol/dm3 of hexadecyl poly[oxyethylene(25)] alcohol	Molality, mol/kg of L-leucine	Mass density, kg/m3	uncertainty
303	.00005	.0001	995.67	.05
303	.00005	.0002	995.66	.05
303	.00005	.00052	995.68	.05
303	.00005	.00103	995.7	.05
303	.00005	.0018	995.72	.05
333	.00005	.0001	983.2	.05
333	.00005	.0002	983.14	.05
333	.00005	.00052	983.22	.05
333	.00005	.00103	983.25	.05
333	.00005	.0018	983.27	.05
303	.0005	.00317	995.93	.05
303	.0005	.00871	996.31	.05
303	.0005	.02092	996.74	.05
303	.0005	.03614	996.71	.05
333	.0005	.00317	983.47	.05
333	.0005	.00871	983.7	.05
333	.0005	.02092	984.05	.05
333	.0005	.03614	984.3	.05

System: hexadecyl poly[oxyethylene(25)] alcohol + water; phases: Liquid
Property: Mass density, kg/m3 (Liquid); method: Vibrating tube method
Temperature, K	Amount concentration (molarity), mol/dm3 of hexadecyl poly[oxyethylene(25)] alcohol	Pressure, kPa	Mass density, kg/m3	uncertainty
303	.0005	101	995.72	.05
333	.0005	101	983.26	.05
303	.00005	101	995.65	.05
333	.00005	101	983.19	.05
