Measured thermophysical data. Enthalpic Pairwise Interactions of Isomers of 2,4-pentanediol and 2,5-hexanediol in  Dimethylsulfoxide + Water Mixtures at 298.15 K
Source: Thermochim. Acta, 2012, 10.1016/j.tca.2012.02.004
Compound 1: (S,S)-2,4-pentanediol, C5H12O2, purity 99%
Compound 2: 2,5-hexanediol, [S-(R*,R*)]-, C6H14O2, purity 99%
Compound 3: [R-(R*,R*)]-2,5-hexanediol, C6H14O2, purity 99%
Compound 4: (-)-2,4-pentanediol, C5H12O2, purity 99%
Compound 5: methylsulfinylmethane, C2H6OS, purity 99%
Compound 6: water, H2O, purity 99.9%

System: water + (S,S)-2,4-pentanediol; phases: Liquid
Fixed: Temperature, K = 298.15
Fixed: Pressure, kPa = 101.3
Property: Molar enthalpy of dilution, kJ/mol (Liquid); method: Isothermal Titration Calorimeter
Initial molality of solute, mol/kg	Final molality of solute, mol/kg	Molar enthalpy of dilution, kJ/mol	uncertainty
.00133	.00396	-.27306	.00161
.00396	.00657	-.26847	.00153
.00657	.00916	-.26411	.00136
.00916	.01171	-.2591	.00179
.01171	.01424	-.25309	.00139
.01424	.01674	-.24804	.00137
.01674	.01922	-.24339	.00138
.01922	.02167	-.23779	.00115
.02167	.02409	-.23438	.00095
.02409	.02649	-.23376	.00119
.02649	.02886	-.22587	.0007
.02886	.03121	-.22545	.0005
.03121	.03352	-.21785	.00179
.03352	.03582	-.2139	.00166
.03582	.03808	-.20993	.00174
.03808	.04032	-.20641	.00168
.04032	.04253	-.20328	.00148
.04253	.04471	-.19914	.00199
.04471	.04687	-.19459	.00184

System: water + (-)-2,4-pentanediol; phases: Liquid
Fixed: Temperature, K = 298.15
Fixed: Pressure, kPa = 101.3
Property: Molar enthalpy of dilution, kJ/mol (Liquid); method: Isothermal Titration Calorimeter
Initial molality of solute, mol/kg	Final molality of solute, mol/kg	Molar enthalpy of dilution, kJ/mol	uncertainty
.00135	.00404	-.2903	.00011
.00404	.00669	-.27944	.00137
.00669	.00932	-.28028	.00033
.00932	.01193	-.27522	.00035
.01193	.0145	-.26643	.00053
.0145	.01705	-.26185	.0005
.01705	.01957	-.26019	.00024
.01957	.02207	-.25502	.00011
.02207	.02454	-.24934	.00006
.02454	.02698	-.24402	.00001
.02698	.02939	-.2402	.00011
.02939	.03178	-.23592	.00018
.03178	.03414	-.23114	.00007
.03414	.03647	-.22622	.00019
.03647	.03878	-.22456	.00073
.03878	.04105	-.21892	.00013
.04105	.04331	-.21291	.00009
.04331	.04553	-.20901	.00006
.04553	.04773	-.20486	.00023

System: water + 2,5-hexanediol, [S-(R*,R*)]-; phases: Liquid
Fixed: Temperature, K = 298.15
Fixed: Pressure, kPa = 101.3
Property: Molar enthalpy of dilution, kJ/mol (Liquid); method: Isothermal Titration Calorimeter
Initial molality of solute, mol/kg	Final molality of solute, mol/kg	Molar enthalpy of dilution, kJ/mol	uncertainty
.00075	.00324	-.39631	.00147
.00324	.00571	-.39172	.00084
.00571	.00815	-.38379	.00112
.00815	.01057	-.3784	.00085
.01057	.01296	-.36482	.00101
.01296	.01532	-.36037	.00094
.01532	.01766	-.35312	.00082
.01766	.01998	-.34695	.00091
.01998	.02227	-.33963	.00086
.02227	.02454	-.33519	.00085
.02454	.02678	-.32897	.00096
.02678	.02899	-.32046	.00155
.02899	.03118	-.31635	.0009
.03118	.03335	-.31075	.0007
.03335	.03549	-.30575	.00074
.03549	.03761	-.29802	.00084
.03761	.0397	-.29443	.00079
.0397	.04176	-.28768	.00085
.04176	.04381	-.28248	.00075

System: water + [R-(R*,R*)]-2,5-hexanediol; phases: Liquid
Fixed: Temperature, K = 298.15
Fixed: Pressure, kPa = 101.3
Property: Molar enthalpy of dilution, kJ/mol (Liquid); method: Isothermal Titration Calorimeter
Initial molality of solute, mol/kg	Final molality of solute, mol/kg	Molar enthalpy of dilution, kJ/mol	uncertainty
.00078	.00338	-.42283	.00025
.00338	.00595	-.41723	.00011
.00595	.00849	-.4079	.00004
.00849	.01101	-.4025	.00003
.01101	.0135	-.39028	.00027
.0135	.01597	-.38527	.00012
.01597	.01841	-.3768	.00001
.01841	.02082	-.36957	.00067
.02082	.02321	-.36274	.00092
.02321	.02557	-.35661	.00031
.02557	.02791	-.34796	.00061
.02791	.03022	-.34331	.00004
.03022	.0325	-.33573	.00029
.0325	.03476	-.32849	.00043
.03476	.03699	-.32441	.00012
.03699	.03919	-.31546	.00063
.03919	.04137	-.31194	.00013
.04137	.04352	-.3059	.00025
.04352	.04565	-.29938	.00008

System: methylsulfinylmethane + water + (-)-2,4-pentanediol; phases: Liquid
Fixed: Temperature, K = 298.15
Fixed: Pressure, kPa = 101.3
Property: Molar enthalpy of dilution, kJ/mol (Liquid); method: isothermal titration calorimetry
Solvent: Mass fraction of methylsulfinylmethane	Initial molality of solute, mol/kg	Final molality of solute, mol/kg	Molar enthalpy of dilution, kJ/mol	uncertainty
0	.00135	.00404	-.2903	.00011
0	.00404	.00669	-.27944	.00137
0	.00669	.00932	-.28028	.00033
0	.00932	.01193	-.27522	.00035
0	.01193	.0145	-.26643	.00053
0	.0145	.01705	-.26185	.0005
0	.01705	.01957	-.26019	.00024
0	.01957	.02207	-.25502	.00011
0	.02207	.02454	-.24934	.00006
0	.02454	.02698	-.24402	.00001
0	.02698	.02939	-.2402	.00011
0	.02939	.03178	-.23592	.00018
0	.03178	.03414	-.23114	.00007
0	.03414	.03647	-.22622	.00019
0	.03647	.03878	-.22456	.00073
0	.03878	.04105	-.21892	.00013
0	.04105	.04331	-.21291	.00009
0	.04331	.04553	-.20901	.00006
0	.04553	.04773	-.20486	.00023
.05	.00142	.00425	-.31872	.00002
.05	.00425	.00705	-.31443	.00057
.05	.00705	.00982	-.31025	.00032
.05	.00982	.01256	-.30312	.00037
.05	.01256	.01528	-.2947	.00007
.05	.01528	.01796	-.28981	.00041
.05	.01796	.02062	-.28393	.00016
.05	.02062	.02325	-.27893	.0005
.05	.02325	.02585	-.27388	.00025
.05	.02585	.02842	-.26837	.00025
.05	.02842	.03096	-.26057	.00014
.05	.03096	.03348	-.25882	.00019
.05	.03348	.03596	-.25421	.00022
.05	.03596	.03842	-.24885	.00049
.05	.03842	.04085	-.24369	.00028
.05	.04085	.04325	-.23908	.00018
.05	.04325	.04563	-.23516	.00034
.05	.04563	.04797	-.22984	.00026
.05	.04797	.05028	-.22526	.00006
.1001	.00139	.00414	-.35654	.00192
.1001	.00414	.00686	-.35339	.00266
.1001	.00686	.00955	-.3487	.00256
.1001	.00955	.01222	-.34136	.00287
.1001	.01222	.01486	-.33152	.00311
.1001	.01486	.01747	-.32509	.00315
.1001	.01747	.02005	-.31966	.00322
.1001	.02005	.02261	-.31267	.00321
.1001	.02261	.02514	-.30796	.00355
.1001	.02514	.02764	-.30294	.00373
.1001	.02764	.03011	-.29779	.00389
.1001	.03011	.03256	-.29161	.00392
.1001	.03256	.03497	-.2864	.00372
.1001	.03497	.03736	-.27986	.00345
.1001	.03736	.03973	-.27433	.00338
.1001	.03973	.04206	-.26907	.00341
.1001	.04206	.04437	-.26445	.00305
.1001	.04437	.04665	-.25854	.00272
.1001	.04665	.0489	-.25282	.0023
.1501	.0013	.00389	-.3542	.00029
.1501	.00389	.00646	-.3498	.00066
.1501	.00646	.00899	-.34184	.00029
.1501	.00899	.0115	-.33479	.00043
.1501	.0115	.01399	-.32581	.00027
.1501	.01399	.01645	-.32041	.00006
.1501	.01645	.01888	-.31503	.00002
.1501	.01888	.02129	-.30839	.00003
.1501	.02129	.02367	-.30236	.00034
.1501	.02367	.02602	-.29684	.00013
.1501	.02602	.02835	-.29131	.00026
.1501	.02835	.03065	-.28532	.00032
.1501	.03065	.03293	-.28146	.00026
.1501	.03293	.03518	-.27245	.00032
.1501	.03518	.0374	-.26911	.00003
.1501	.0374	.0396	-.26486	.00023
.1501	.0396	.04177	-.25996	.00004
.1501	.04177	.04392	-.25448	.00021
.1501	.04392	.04604	-.24942	.00017
.1999	.00127	.00379	-.34088	.00075
.1999	.00379	.00628	-.33331	.00076
.1999	.00628	.00875	-.32845	.0009
.1999	.00875	.0112	-.32098	.00077
.1999	.0112	.01362	-.3123	.00009
.1999	.01362	.01601	-.30646	.00036
.1999	.01601	.01838	-.30278	.00066
.1999	.01838	.02072	-.29475	.00017
.1999	.02072	.02304	-.28906	.00049
.1999	.02304	.02533	-.28367	.00034
.1999	.02533	.0276	-.2787	.00056
.1999	.0276	.02984	-.2732	.00039
.1999	.02984	.03205	-.2684	.00051
.1999	.03205	.03424	-.26309	.00061
.1999	.03424	.03641	-.25708	.0006
.1999	.03641	.03855	-.2529	.00062
.1999	.03855	.04066	-.2501	.00068
.1999	.04066	.04275	-.24573	.00096
.1999	.04275	.04482	-.24162	.00107
.2501	.00118	.00353	-.31144	.00251
.2501	.00353	.00585	-.30902	.00057
.2501	.00585	.00815	-.30308	.00049
.2501	.00815	.01043	-.29407	.00051
.2501	.01043	.01268	-.28754	.00001
.2501	.01268	.01491	-.28001	.00032
.2501	.01491	.01711	-.27415	.00001
.2501	.01711	.01929	-.26522	.00027
.2501	.01929	.02145	-.2608	.00031
.2501	.02145	.02359	-.25515	.00007
.2501	.02359	.0257	-.24895	.00012
.2501	.0257	.02778	-.24184	.00006
.2501	.02778	.02985	-.23742	.00018
.2501	.02985	.03189	-.23183	.00011
.2501	.03189	.0339	-.22662	.00015
.2501	.0339	.0359	-.2217	.00009
.2501	.0359	.03786	-.21706	.00015
.2501	.03786	.03981	-.21167	.00035
.2501	.03981	.04173	-.20776	.00099
.2999	.00137	.00408	-.33728	.00238
.2999	.00408	.00677	-.3304	.00304
.2999	.00677	.00943	-.32281	.00287
.2999	.00943	.01206	-.31539	.00287
.2999	.01206	.01467	-.3075	.00379
.2999	.01467	.01725	-.30064	.00353
.2999	.01725	.0198	-.29437	.00312
.2999	.0198	.02232	-.28857	.00317
.2999	.02232	.02482	-.28211	.00295
.2999	.02482	.02729	-.27687	.00293
.2999	.02729	.02973	-.27127	.00271
.2999	.02973	.03215	-.26681	.00275
.2999	.03215	.03453	-.26104	.00294
.2999	.03453	.03689	-.2562	.00284
.2999	.03689	.03923	-.25008	.00323
.2999	.03923	.04153	-.24488	.00342
.2999	.04153	.04381	-.24069	.0036
.2999	.04381	.04606	-.23597	.00384
.2999	.04606	.04829	-.23116	.00401

System: methylsulfinylmethane + water + (S,S)-2,4-pentanediol; phases: Liquid
Fixed: Temperature, K = 298.15
Fixed: Pressure, kPa = 101.3
Property: Molar enthalpy of dilution, kJ/mol (Liquid); method: isothermal titration calorimetry
Solvent: Mass fraction of methylsulfinylmethane	Initial molality of solute, mol/kg	Final molality of solute, mol/kg	Molar enthalpy of dilution, kJ/mol	uncertainty
0	.00133	.00396	-.27306	.00161
0	.00396	.00657	-.26847	.00153
0	.00657	.00916	-.26411	.00136
0	.00916	.01171	-.2591	.00179
0	.01171	.01424	-.25309	.00139
0	.01424	.01674	-.24804	.00137
0	.01674	.01922	-.24339	.00138
0	.01922	.02167	-.23779	.00115
0	.02167	.02409	-.23438	.00095
0	.02409	.02649	-.23376	.00119
0	.02649	.02886	-.22587	.0007
0	.02886	.03121	-.22545	.0005
0	.03121	.03352	-.21785	.00179
0	.03352	.03582	-.2139	.00166
0	.03582	.03808	-.20993	.00174
0	.03808	.04032	-.20641	.00168
0	.04032	.04253	-.20328	.00148
0	.04253	.04471	-.19914	.00199
0	.04471	.04687	-.19459	.00184
.05	.00138	.00412	-.33327	.00025
.05	.00412	.00683	-.32561	.00083
.05	.00683	.00952	-.32041	.00022
.05	.00952	.01218	-.31296	.00027
.05	.01218	.01481	-.30644	.00032
.05	.01481	.01741	-.30069	.00054
.05	.01741	.01998	-.296	.00052
.05	.01998	.02253	-.28838	.00069
.05	.02253	.02505	-.28383	.00013
.05	.02505	.02754	-.27928	.00067
.05	.02754	.03001	-.27239	.00021
.05	.03001	.03244	-.26814	.00074
.05	.03244	.03485	-.26334	.00044
.05	.03485	.03723	-.25856	.0007
.05	.03723	.03959	-.2532	.00052
.05	.03959	.04191	-.24822	.00029
.05	.04191	.04421	-.24384	.00036
.05	.04421	.04649	-.2385	.00077
.05	.04649	.04873	-.23311	.00023
.1001	.00134	.004	-.37186	.00117
.1001	.004	.00664	-.36532	.00132
.1001	.00664	.00925	-.36036	.00099
.1001	.00925	.01183	-.35183	.00067
.1001	.01183	.01439	-.34356	.001
.1001	.01439	.01691	-.33619	.00084
.1001	.01691	.01942	-.32942	.00011
.1001	.01942	.02189	-.32284	.00029
.1001	.02189	.02434	-.31457	.00093
.1001	.02434	.02676	-.31045	.00018
.1001	.02676	.02915	-.30419	.00035
.1001	.02915	.03152	-.29839	.00016
.1001	.03152	.03386	-.29316	.00014
.1001	.03386	.03618	-.28802	.00085
.1001	.03618	.03846	-.2816	.00082
.1001	.03846	.04072	-.27593	.00044
.1001	.04072	.04296	-.27079	.00019
.1001	.04296	.04517	-.26538	.00031
.1001	.04517	.04735	-.26002	.00039
.1501	.00131	.00391	-.36291	.00066
.1501	.00391	.00648	-.35332	.00105
.1501	.00648	.00902	-.34959	.00024
.1501	.00902	.01154	-.3414	.00026
.1501	.01154	.01403	-.3338	.00006
.1501	.01403	.0165	-.32678	.00022
.1501	.0165	.01894	-.32141	.00018
.1501	.01894	.02135	-.31299	.00062
.1501	.02135	.02374	-.30834	.00056
.1501	.02374	.0261	-.30276	.00036
.1501	.0261	.02844	-.29678	.0004
.1501	.02844	.03075	-.29094	.00013
.1501	.03075	.03303	-.2857	.00049
.1501	.03303	.03529	-.28095	.00043
.1501	.03529	.03752	-.27405	.00057
.1501	.03752	.03973	-.26971	.00049
.1501	.03973	.04191	-.26448	.00066
.1501	.04191	.04406	-.2589	.00061
.1501	.04406	.04619	-.25394	.00048
.1999	.00131	.00392	-.37514	.00096
.1999	.00392	.00651	-.36747	.00061
.1999	.00651	.00906	-.36247	.00053
.1999	.00906	.01159	-.35489	.00106
.1999	.01159	.0141	-.34939	.00031
.1999	.0141	.01657	-.34048	.00071
.1999	.01657	.01902	-.33346	.00007
.1999	.01902	.02145	-.32516	.0002
.1999	.02145	.02385	-.31951	.00007
.1999	.02385	.02622	-.31405	.00044
.1999	.02622	.02857	-.30807	.00003
.1999	.02857	.03089	-.30266	.00084
.1999	.03089	.03318	-.29724	.00002
.1999	.03318	.03545	-.29147	.00071
.1999	.03545	.03769	-.28466	.00023
.1999	.03769	.0399	-.27979	.00051
.1999	.0399	.04209	-.27516	.00037
.1999	.04209	.04425	-.26969	.00038
.1999	.04425	.04639	-.265	.00015
.2501	.00136	.00405	-.40142	.00026
.2501	.00405	.00672	-.39551	.00066
.2501	.00672	.00936	-.38673	.00007
.2501	.00936	.01197	-.37543	.00026
.2501	.01197	.01456	-.36755	.00084
.2501	.01456	.01711	-.35821	.00208
.2501	.01711	.01964	-.35478	.00013
.2501	.01964	.02215	-.34649	.00095
.2501	.02215	.02463	-.33866	.00125
.2501	.02463	.02708	-.33118	.00043
.2501	.02708	.0295	-.32519	.00092
.2501	.0295	.03189	-.32061	.00028
.2501	.03189	.03426	-.31523	.00069
.2501	.03426	.0366	-.30896	.0008
.2501	.0366	.03892	-.3004	.00038
.2501	.03892	.04121	-.29611	.00044
.2501	.04121	.04347	-.28861	.00048
.2501	.04347	.0457	-.28294	.00015
.2501	.0457	.04791	-.27846	.0005
.2999	.00123	.00367	-.3455	.00026
.2999	.00367	.00609	-.33748	.00086
.2999	.00609	.00848	-.33391	.00064
.2999	.00848	.01085	-.32445	.00013
.2999	.01085	.0132	-.31244	.00005
.2999	.0132	.01551	-.30934	.00036
.2999	.01551	.01781	-.30534	.00015
.2999	.01781	.02008	-.29783	.00011
.2999	.02008	.02232	-.29262	.00033
.2999	.02232	.02455	-.28807	.00001
.2999	.02455	.02674	-.28247	.00009
.2999	.02674	.02891	-.27746	.00017
.2999	.02891	.03106	-.27287	.00041
.2999	.03106	.03318	-.26765	.0003
.2999	.03318	.03528	-.26199	.00035
.2999	.03528	.03736	-.25791	.00077
.2999	.03736	.0394	-.25358	.00072
.2999	.0394	.04143	-.24798	.00064
.2999	.04143	.04343	-.24207	.00087

System: methylsulfinylmethane + water + [R-(R*,R*)]-2,5-hexanediol; phases: Liquid
Fixed: Temperature, K = 298.15
Fixed: Pressure, kPa = 101.3
Property: Molar enthalpy of dilution, kJ/mol (Liquid); method: isothermal titration calorimetry
Solvent: Mass fraction of methylsulfinylmethane	Initial molality of solute, mol/kg	Final molality of solute, mol/kg	Molar enthalpy of dilution, kJ/mol	uncertainty
0	.00078	.00338	-.42283	.00025
0	.00338	.00595	-.41723	.00011
0	.00595	.00849	-.4079	.00004
0	.00849	.01101	-.4025	.00003
0	.01101	.0135	-.39028	.00027
0	.0135	.01597	-.38527	.00012
0	.01597	.01841	-.3768	.00001
0	.01841	.02082	-.36957	.00067
0	.02082	.02321	-.36274	.00092
0	.02321	.02557	-.35661	.00031
0	.02557	.02791	-.34796	.00061
0	.02791	.03022	-.34331	.00004
0	.03022	.0325	-.33573	.00029
0	.0325	.03476	-.32849	.00043
0	.03476	.03699	-.32441	.00012
0	.03699	.03919	-.31546	.00063
0	.03919	.04137	-.31194	.00013
0	.04137	.04352	-.3059	.00025
0	.04352	.04565	-.29938	.00008
.0502	.00091	.00392	-.54263	.00045
.0502	.00392	.00691	-.53415	.00003
.0502	.00691	.00986	-.52085	.00036
.0502	.00986	.01278	-.5141	.00033
.0502	.01278	.01568	-.49924	.00066
.0502	.01568	.01854	-.49314	.00054
.0502	.01854	.02137	-.4806	.0004
.0502	.02137	.02417	-.47236	.00043
.0502	.02417	.02694	-.46236	.00037
.0502	.02694	.02968	-.45527	.00033
.0502	.02968	.03239	-.44556	.00037
.0502	.03239	.03508	-.43764	.00032
.0502	.03508	.03773	-.43146	.00029
.0502	.03773	.04035	-.42066	.0002
.0502	.04035	.04294	-.41502	.00018
.0502	.04294	.0455	-.40667	.0003
.0502	.0455	.04803	-.40077	.00018
.0502	.04803	.05052	-.39196	.00023
.0502	.05052	.05299	-.38653	.00016
.0998	.00085	.00367	-.52995	.00023
.0998	.00367	.00647	-.52251	.00021
.0998	.00647	.00923	-.51193	.00013
.0998	.00923	.01197	-.50518	.00007
.0998	.01197	.01467	-.49076	.00032
.0998	.01467	.01735	-.48465	.00017
.0998	.01735	.02001	-.47467	.00013
.0998	.02001	.02263	-.46542	.00003
.0998	.02263	.02522	-.45576	.00035
.0998	.02522	.02779	-.44877	.00012
.0998	.02779	.03033	-.43881	.00015
.0998	.03033	.03284	-.43096	.00001
.0998	.03284	.03532	-.42454	.00008
.0998	.03532	.03777	-.41392	.00005
.0998	.03777	.0402	-.40831	.00009
.0998	.0402	.04259	-.39987	.00008
.0998	.04259	.04496	-.39395	.00005
.0998	.04496	.0473	-.38527	.00009
.0998	.0473	.04961	-.37955	.00009
.1583	.00085	.00365	-.5388	.00023
.1583	.00365	.00643	-.52803	.00015
.1583	.00643	.00917	-.51537	.00003
.1583	.00917	.01189	-.50817	.00041
.1583	.01189	.01459	-.49402	.00023
.1583	.01459	.01725	-.48688	.00024
.1583	.01725	.01988	-.4754	.0002
.1583	.01988	.02249	-.46902	0
.1583	.02249	.02507	-.45992	.00025
.1583	.02507	.02762	-.45114	.00022
.1583	.02762	.03014	-.44154	.00008
.1583	.03014	.03264	-.43396	.00013
.1583	.03264	.0351	-.42784	0
.1583	.0351	.03754	-.41589	.00001
.1583	.03754	.03995	-.41002	.00031
.1583	.03995	.04233	-.40132	.00056
.1583	.04233	.04469	-.39531	.0007
.1583	.04469	.04701	-.38708	.00038
.1583	.04701	.04931	-.38111	.00032
.1978	.00047	.00204	-.34026	.00573
.1978	.00204	.00359	-.32695	.00274
.1978	.00359	.00513	-.31723	.00228
.1978	.00513	.00665	-.31157	.00193
.1978	.00665	.00815	-.29871	.00124
.1978	.00815	.00964	-.27787	.00462
.1978	.00964	.01112	-.2884	.00124
.1978	.01112	.01257	-.28355	.00127
.1978	.01257	.01402	-.27692	.00131
.1978	.01402	.01544	-.27333	.00122
.1978	.01544	.01685	-.26764	.0012
.1978	.01685	.01825	-.2635	.00099
.1978	.01825	.01962	-.25801	.00111
.1978	.01962	.02099	-.25199	.00106
.1978	.02099	.02233	-.24902	.001
.1978	.02233	.02367	-.24297	.00102
.1978	.02367	.02498	-.24007	.00132
.1978	.02498	.02628	-.23308	.00215
.1978	.02628	.02757	-.23089	.00112
.2494	.0008	.00345	-.53516	.0006
.2494	.00345	.00608	-.52666	.00074
.2494	.00608	.00868	-.51574	.00114
.2494	.00868	.01125	-.50731	.00104
.2494	.01125	.0138	-.48958	.00142
.2494	.0138	.01632	-.48282	.00146
.2494	.01632	.01881	-.47147	.00151
.2494	.01881	.02128	-.46351	.00147
.2494	.02128	.02372	-.45386	.00137
.2494	.02372	.02613	-.4466	.00138
.2494	.02613	.02852	-.43654	.00143
.2494	.02852	.03088	-.42852	.00135
.2494	.03088	.03321	-.42207	.00136
.2494	.03321	.03552	-.4111	.00134
.2494	.03552	.0378	-.40505	.00143
.2494	.0378	.04005	-.39689	.00143
.2494	.04005	.04228	-.3907	.00122
.2494	.04228	.04448	-.37877	.00184
.2494	.04448	.04665	-.36832	.00301
.2922	.00061	.00264	-.42949	.00136
.2922	.00264	.00465	-.42183	.00125
.2922	.00465	.00664	-.41188	.00136
.2922	.00664	.00861	-.40516	.00136
.2922	.00861	.01056	-.39103	.00147
.2922	.01056	.01249	-.38566	.00109
.2922	.01249	.0144	-.37882	.00159
.2922	.0144	.01628	-.37069	.00143
.2922	.01628	.01815	-.36316	.00137
.2922	.01815	.02	-.35798	.00106
.2922	.02	.02182	-.35104	.00113
.2922	.02182	.02363	-.34365	.0013
.2922	.02363	.02541	-.33825	.00091
.2922	.02541	.02718	-.33033	.00099
.2922	.02718	.02892	-.32579	.00122
.2922	.02892	.03065	-.31723	.00102
.2922	.03065	.03235	-.31375	.00097
.2922	.03235	.03404	-.30695	.00132
.2922	.03404	.0357	-.30141	.00128

System: methylsulfinylmethane + water + 2,5-hexanediol, [S-(R*,R*)]-; phases: Liquid
Fixed: Temperature, K = 298.15
Fixed: Pressure, kPa = 101.3
Property: Molar enthalpy of dilution, kJ/mol (Liquid); method: isothermal titration calorimetry
Solvent: Mass fraction of methylsulfinylmethane	Initial molality of solute, mol/kg	Final molality of solute, mol/kg	Molar enthalpy of dilution, kJ/mol	uncertainty
0	.00075	.00324	-.39631	.00147
0	.00324	.00571	-.39172	.00084
0	.00571	.00815	-.38379	.00112
0	.00815	.01057	-.3784	.00085
0	.01057	.01296	-.36482	.00101
0	.01296	.01532	-.36037	.00094
0	.01532	.01766	-.35312	.00082
0	.01766	.01998	-.34695	.00091
0	.01998	.02227	-.33963	.00086
0	.02227	.02454	-.33519	.00085
0	.02454	.02678	-.32897	.00096
0	.02678	.02899	-.32046	.00155
0	.02899	.03118	-.31635	.0009
0	.03118	.03335	-.31075	.0007
0	.03335	.03549	-.30575	.00074
0	.03549	.03761	-.29802	.00084
0	.03761	.0397	-.29443	.00079
0	.0397	.04176	-.28768	.00085
0	.04176	.04381	-.28248	.00075
.0502	.00081	.00351	-.47682	.00095
.0502	.00351	.00618	-.47171	.0007
.0502	.00618	.00882	-.46016	.00099
.0502	.00882	.01143	-.45334	.00106
.0502	.01143	.01402	-.44053	.00121
.0502	.01402	.01658	-.43521	.00114
.0502	.01658	.01911	-.42498	.0012
.0502	.01911	.02162	-.41668	.00103
.0502	.02162	.0241	-.40708	.00122
.0502	.0241	.02655	-.40059	.00139
.0502	.02655	.02897	-.39151	.0014
.0502	.02897	.03137	-.38505	.00143
.0502	.03137	.03374	-.37846	.00153
.0502	.03374	.03608	-.36859	.00171
.0502	.03608	.0384	-.36309	.00177
.0502	.0384	.04069	-.35536	.00189
.0502	.04069	.04295	-.34915	.00209
.0502	.04295	.04519	-.34152	.00208
.0502	.04519	.0474	-.33637	.00214
.0998	.00081	.00351	-.51418	.00095
.0998	.00351	.00618	-.50692	.00075
.0998	.00618	.00883	-.49403	.00077
.0998	.00883	.01144	-.48666	.00073
.0998	.01144	.01403	-.47113	.0011
.0998	.01403	.01659	-.46498	.00107
.0998	.01659	.01913	-.45472	.00101
.0998	.01913	.02164	-.44662	.00097
.0998	.02164	.02412	-.4371	.00084
.0998	.02412	.02657	-.43055	.00085
.0998	.02657	.029	-.4203	.00078
.0998	.029	.0314	-.4132	.00121
.0998	.0314	.03377	-.40719	.00141
.0998	.03377	.03611	-.39624	.00156
.0998	.03611	.03843	-.39049	.00156
.0998	.03843	.04072	-.38221	.00135
.0998	.04072	.04299	-.37618	.00124
.0998	.04299	.04523	-.3672	.00088
.0998	.04523	.04744	-.3623	.00081
.1583	.000768	.003311	-.50803	.00075
.1583	.003311	.005828	-.50245	.00012
.1583	.005828	.00832	-.49141	.0001
.1583	.00832	.010786	-.48384	.00055
.1583	.010786	.013227	-.46708	.00092
.1583	.013227	.015642	-.46036	.00069
.1583	.015642	.018032	-.45031	.00018
.1583	.018032	.020396	-.44239	.00032
.1583	.020396	.022735	-.43244	.00022
.1583	.022735	.025048	-.42537	.00013
.1583	.025048	.027336	-.41531	.00044
.1583	.027336	.029598	-.40798	.00009
.1583	.029598	.031834	-.40151	.00034
.1583	.031834	.034045	-.39052	.0003
.1583	.034045	.036231	-.38493	.00025
.1583	.036231	.038391	-.37657	.00024
.1583	.038391	.040525	-.36979	.00021
.1583	.040525	.042634	-.36116	.00007
.1583	.042634	.044718	-.35595	.00031
.1978	.00058	.0025	-.40344	.00015
.1978	.0025	.00441	-.39742	.00004
.1978	.00441	.00629	-.3903	.00055
.1978	.00629	.00816	-.38773	.00131
.1978	.00816	.01	-.38999	.00499
.1978	.01	.01183	-.37212	.00175
.1978	.01183	.01364	-.36098	.001
.1978	.01364	.01542	-.35391	.00074
.1978	.01542	.01719	-.34718	.0008
.1978	.01719	.01894	-.34301	.00146
.1978	.01894	.02067	-.33583	.00134
.1978	.02067	.02238	-.32748	.00064
.1978	.02238	.02407	-.33065	.00303
.1978	.02407	.02574	-.3193	.00223
.1978	.02574	.0274	-.31188	.00141
.1978	.0274	.02903	-.30389	.00088
.1978	.02903	.03064	-.30122	.00159
.1978	.03064	.03224	-.29524	.0019
.1978	.03224	.03381	-.29135	.00182
.2494	.00075	.00325	-.51392	.00061
.2494	.00325	.00573	-.49956	.00064
.2494	.00573	.00818	-.48773	.00071
.2494	.00818	.0106	-.4799	.00075
.2494	.0106	.013	-.46729	.00074
.2494	.013	.01538	-.46092	.00075
.2494	.01538	.01773	-.4497	.00077
.2494	.01773	.02005	-.44148	.00078
.2494	.02005	.02235	-.43209	.00079
.2494	.02235	.02462	-.42431	.00079
.2494	.02462	.02687	-.41799	.00072
.2494	.02687	.02909	-.40675	.00079
.2494	.02909	.03129	-.3995	.00083
.2494	.03129	.03347	-.38787	.00084
.2494	.03347	.03561	-.38277	.00085
.2494	.03561	.03774	-.37462	.00086
.2494	.03774	.03984	-.36799	.00088
.2494	.03984	.04191	-.35821	.00088
.2494	.04191	.04396	-.34967	.00097
.2922	.00052	.00226	-.36525	.00218
.2922	.00226	.00398	-.35938	.00232
.2922	.00398	.00568	-.34914	.00279
.2922	.00568	.00736	-.34358	.00319
.2922	.00736	.00903	-.3305	.00291
.2922	.00903	.01068	-.32664	.00349
.2922	.01068	.01231	-.31881	.00324
.2922	.01231	.01392	-.3133	.00318
.2922	.01392	.01552	-.30759	.0033
.2922	.01552	.0171	-.30348	.00398
.2922	.0171	.01866	-.29377	.00336
.2922	.01866	.0202	-.28915	.00352
.2922	.0202	.02173	-.28238	.00322
.2922	.02173	.02324	-.27703	.00383
.2922	.02324	.02473	-.27181	.00277
.2922	.02473	.0262	-.27932	.00971
.2922	.0262	.02766	-.26294	.00283
.2922	.02766	.0291	-.25104	.00301
.2922	.0291	.03052	-.24961	.00312
