Measured thermophysical data. New method for determination of vaporization and sublimation enthalpy of aromatic compounds at 298.15 K using solution calorimetry technique and group-additivity scheme
Source: Thermochim. Acta, 2015, 10.1016/j.tca.2015.09.022
Compound 1: benzonitrile, C7H5N, purity 99%
Compound 2: carbon tetrachloride, CCl4, purity 98%
Compound 3: methyl benzoate, C8H8O2, purity 99%
Compound 4: 4-chlorophenol, C6H5ClO, purity 99%
Compound 5: 4-tert-butylphenol, C10H14O, purity 99%
Compound 6: 2,4-di-tert-butylphenol, C14H22O, purity 99%
Compound 7: 2,4,6-trimethylphenol, C9H12O, purity 97%
Compound 8: toluene, C7H8, purity 98%
Compound 9: benzene, C6H6, purity 99%
Compound 10: tert-butylbenzene, C10H14, purity 99%
Compound 11: benzamide, C7H7NO, purity 99%
Compound 12: 4-bromoaniline, C6H6BrN, purity 99%
Compound 13: 2-chloroaniline, C6H6ClN, purity 98%
Compound 14: o-phenylenediamine, C6H8N2, purity 99%
Compound 15: p-phenylenediamine, C6H8N2, purity 99%
Compound 16: 2-nitroaniline, C6H6N2O2, purity 98%
Compound 17: 3-nitroaniline, C6H6N2O2, purity 98%
Compound 18: 4-iodoaniline, C6H6IN, purity 98%
Compound 19: 1-nitropyrene, C16H9NO2, purity 99%
Compound 20: 1-aminonaphthalene, C10H9N, purity 99%
Compound 21: acetonitrile, C2H3N, purity 99%
Compound 22: anisole, C7H8O, purity 99%
Compound 23: pyrene, C16H10, purity 98%
Compound 24: pyridine, C5H5N, purity 98%
Compound 25: acetophenone, C8H8O, purity 98%
Compound 26: 1-chloro-2-nitrobenzene, C6H4ClNO2, purity 99%
Compound 27: 1-chloro-3-nitrobenzene, C6H4ClNO2, purity 98%
Compound 28: 1-bromo-4-nitrobenzene, C6H4BrNO2, purity 99%
Compound 29: 2-nitrotoluene, C7H7NO2, purity 99%
Compound 30: 4-nitrotoluene, C7H7NO2, purity 99%
Compound 31: 2,4-dinitrotoluene, C7H6N2O4, purity 97%
Compound 32: 2,4,6-trinitrotoluene, C7H5N3O6, purity 95%
Compound 33: 9-nitroanthracene, C14H9NO2, purity 97%
Compound 34: dimethyl terephthalate, C10H10O4, purity 99%
Compound 35: 1,4-dicyanobenzene, C8H4N2, purity 98%
Compound 36: 3-methoxybenzamide, C8H9NO2, purity 97%
Compound 37: dimethyl phthalate, C10H10O4, purity 99%
Compound 38: dimethylformamide (DMF), C3H7NO, purity 99%
Compound 39: 1-propanol, C3H8O, purity 99.9%
Compound 40: water, H2O
Compound 41: potassium chloride, ClK, purity 99%

System: carbon tetrachloride + benzonitrile; phases: Liquid
Fixed: Pressure, kPa = 100
Fixed: Temperature, K = 298.15
Property: Molar enthalpy of solution, kJ/mol (Liquid); method: Titration calorimetry
Mole fraction of benzonitrile	Molar enthalpy of solution, kJ/mol	uncertainty
0	4.21	

System: carbon tetrachloride + methyl benzoate; phases: Liquid
Fixed: Pressure, kPa = 100
Fixed: Temperature, K = 298.15
Property: Molar enthalpy of solution, kJ/mol (Liquid); method: Titration calorimetry
Mole fraction of methyl benzoate	Molar enthalpy of solution, kJ/mol	uncertainty
0	2.3	

System: carbon tetrachloride + 4-chlorophenol; phases: Liquid
Fixed: Pressure, kPa = 100
Fixed: Temperature, K = 298.15
Property: Molar enthalpy of solution, kJ/mol (Liquid); method: Power-compensation calorimetry
Mole fraction of 4-chlorophenol	Molar enthalpy of solution, kJ/mol	uncertainty
0	28.6	

System: carbon tetrachloride + 4-tert-butylphenol; phases: Liquid
Fixed: Pressure, kPa = 100
Fixed: Temperature, K = 298.15
Property: Molar enthalpy of solution, kJ/mol (Liquid); method: Power-compensation calorimetry
Mole fraction of 4-tert-butylphenol	Molar enthalpy of solution, kJ/mol	uncertainty
0	27.2	

System: carbon tetrachloride + 2,4-di-tert-butylphenol; phases: Liquid
Fixed: Pressure, kPa = 100
Fixed: Temperature, K = 298.15
Property: Molar enthalpy of solution, kJ/mol (Liquid); method: Power-compensation calorimetry
Mole fraction of 2,4-di-tert-butylphenol	Molar enthalpy of solution, kJ/mol	uncertainty
0	16.7	

System: carbon tetrachloride + 2,4,6-trimethylphenol; phases: Liquid
Fixed: Pressure, kPa = 100
Fixed: Temperature, K = 298.15
Property: Molar enthalpy of solution, kJ/mol (Liquid); method: Power-compensation calorimetry
Mole fraction of 2,4,6-trimethylphenol	Molar enthalpy of solution, kJ/mol	uncertainty
0	26.6	

System: benzene + toluene; phases: Liquid
Fixed: Pressure, kPa = 100
Fixed: Temperature, K = 298.15
Property: Molar enthalpy of solution, kJ/mol (Liquid); method: Titration calorimetry
Mole fraction of toluene	Molar enthalpy of solution, kJ/mol	uncertainty
0	.28	

System: benzene + tert-butylbenzene; phases: Liquid
Fixed: Pressure, kPa = 100
Fixed: Temperature, K = 298.15
Property: Molar enthalpy of solution, kJ/mol (Liquid); method: Titration calorimetry
Mole fraction of tert-butylbenzene	Molar enthalpy of solution, kJ/mol	uncertainty
0	.67	

System: benzene + benzonitrile; phases: Liquid
Fixed: Pressure, kPa = 100
Fixed: Temperature, K = 298.15
Property: Molar enthalpy of solution, kJ/mol (Liquid); method: Titration calorimetry
Mole fraction of benzonitrile	Molar enthalpy of solution, kJ/mol	uncertainty
0	.54	

System: benzamide + benzene; phases: Liquid
Fixed: Pressure, kPa = 100
Fixed: Temperature, K = 298.15
Property: Molar enthalpy of solution, kJ/mol (Liquid); method: Power-compensation calorimetry
Mole fraction of benzamide	Molar enthalpy of solution, kJ/mol	uncertainty
0	27.5	

System: benzene + methyl benzoate; phases: Liquid
Fixed: Pressure, kPa = 100
Fixed: Temperature, K = 298.15
Property: Molar enthalpy of solution, kJ/mol (Liquid); method: Titration calorimetry
Mole fraction of methyl benzoate	Molar enthalpy of solution, kJ/mol	uncertainty
0	.37	

System: benzene + 4-bromoaniline; phases: Liquid
Fixed: Pressure, kPa = 100
Fixed: Temperature, K = 298.15
Property: Molar enthalpy of solution, kJ/mol (Liquid); method: Power-compensation calorimetry
Mole fraction of 4-bromoaniline	Molar enthalpy of solution, kJ/mol	uncertainty
0	19.6	

System: benzene + 2-chloroaniline; phases: Liquid
Fixed: Pressure, kPa = 100
Fixed: Temperature, K = 298.15
Property: Molar enthalpy of solution, kJ/mol (Liquid); method: Titration calorimetry
Mole fraction of 2-chloroaniline	Molar enthalpy of solution, kJ/mol	uncertainty
0	2.02	

System: benzene + o-phenylenediamine; phases: Liquid
Fixed: Pressure, kPa = 100
Fixed: Temperature, K = 298.15
Property: Molar enthalpy of solution, kJ/mol (Liquid); method: Power-compensation calorimetry
Mole fraction of o-phenylenediamine	Molar enthalpy of solution, kJ/mol	uncertainty
0	26.6	

System: benzene + p-phenylenediamine; phases: Liquid
Fixed: Pressure, kPa = 100
Fixed: Temperature, K = 298.15
Property: Molar enthalpy of solution, kJ/mol (Liquid); method: Power-compensation calorimetry
Mole fraction of p-phenylenediamine	Molar enthalpy of solution, kJ/mol	uncertainty
0	28.5	

System: benzene + 2-nitroaniline; phases: Liquid
Fixed: Pressure, kPa = 100
Fixed: Temperature, K = 298.15
Property: Molar enthalpy of solution, kJ/mol (Liquid); method: Power-compensation calorimetry
Mole fraction of 2-nitroaniline	Molar enthalpy of solution, kJ/mol	uncertainty
0	23.1	

System: benzene + 3-nitroaniline; phases: Liquid
Fixed: Pressure, kPa = 100
Fixed: Temperature, K = 298.15
Property: Molar enthalpy of solution, kJ/mol (Liquid); method: Power-compensation calorimetry
Mole fraction of 3-nitroaniline	Molar enthalpy of solution, kJ/mol	uncertainty
0	26.5	

System: benzene + 4-iodoaniline; phases: Liquid
Fixed: Pressure, kPa = 100
Fixed: Temperature, K = 298.15
Property: Molar enthalpy of solution, kJ/mol (Liquid); method: Power-compensation calorimetry
Mole fraction of 4-iodoaniline	Molar enthalpy of solution, kJ/mol	uncertainty
0	21.18	

System: benzene + 1-nitropyrene; phases: Liquid
Fixed: Pressure, kPa = 100
Fixed: Temperature, K = 298.15
Property: Molar enthalpy of solution, kJ/mol (Liquid); method: Power-compensation calorimetry
Mole fraction of 1-nitropyrene	Molar enthalpy of solution, kJ/mol	uncertainty
0	21.6	

System: benzene + 1-aminonaphthalene; phases: Liquid
Fixed: Pressure, kPa = 100
Fixed: Temperature, K = 298.15
Property: Molar enthalpy of solution, kJ/mol (Liquid); method: Power-compensation calorimetry
Mole fraction of 1-aminonaphthalene	Molar enthalpy of solution, kJ/mol	uncertainty
0	19.1	

System: acetonitrile + tert-butylbenzene; phases: Liquid
Fixed: Pressure, kPa = 100
Fixed: Temperature, K = 298.15
Property: Molar enthalpy of solution, kJ/mol (Liquid); method: Titration calorimetry
Mole fraction of tert-butylbenzene	Molar enthalpy of solution, kJ/mol	uncertainty
0	4.69	

System: acetonitrile + benzonitrile; phases: Liquid
Fixed: Pressure, kPa = 100
Fixed: Temperature, K = 298.15
Property: Molar enthalpy of solution, kJ/mol (Liquid); method: Titration calorimetry
Mole fraction of benzonitrile	Molar enthalpy of solution, kJ/mol	uncertainty
0	1.38	

System: acetonitrile + anisole; phases: Liquid
Fixed: Pressure, kPa = 100
Fixed: Temperature, K = 298.15
Property: Molar enthalpy of solution, kJ/mol (Liquid); method: Titration calorimetry
Mole fraction of anisole	Molar enthalpy of solution, kJ/mol	uncertainty
0	1.96	

System: benzamide + acetonitrile; phases: Liquid
Fixed: Pressure, kPa = 100
Fixed: Temperature, K = 298.15
Property: Molar enthalpy of solution, kJ/mol (Liquid); method: Power-compensation calorimetry
Mole fraction of benzamide	Molar enthalpy of solution, kJ/mol	uncertainty
0	23.6	

System: acetonitrile + methyl benzoate; phases: Liquid
Fixed: Pressure, kPa = 100
Fixed: Temperature, K = 298.15
Property: Molar enthalpy of solution, kJ/mol (Liquid); method: Titration calorimetry
Mole fraction of methyl benzoate	Molar enthalpy of solution, kJ/mol	uncertainty
0	2.3	

System: acetonitrile + pyrene; phases: Liquid
Fixed: Pressure, kPa = 100
Fixed: Temperature, K = 298.15
Property: Molar enthalpy of solution, kJ/mol (Liquid); method: Power-compensation calorimetry
Mole fraction of pyrene	Molar enthalpy of solution, kJ/mol	uncertainty
0	21.51	

System: acetonitrile + pyridine; phases: Liquid
Fixed: Pressure, kPa = 100
Fixed: Temperature, K = 298.15
Property: Molar enthalpy of solution, kJ/mol (Liquid); method: Titration calorimetry
Mole fraction of pyridine	Molar enthalpy of solution, kJ/mol	uncertainty
0	1.67	

System: acetonitrile + acetophenone; phases: Liquid
Fixed: Pressure, kPa = 100
Fixed: Temperature, K = 298.15
Property: Molar enthalpy of solution, kJ/mol (Liquid); method: Titration calorimetry
Mole fraction of acetophenone	Molar enthalpy of solution, kJ/mol	uncertainty
0	1.72	

System: acetonitrile + 1-chloro-2-nitrobenzene; phases: Liquid
Fixed: Pressure, kPa = 100
Fixed: Temperature, K = 298.15
Property: Molar enthalpy of solution, kJ/mol (Liquid); method: Power-compensation calorimetry
Mole fraction of 1-chloro-2-nitrobenzene	Molar enthalpy of solution, kJ/mol	uncertainty
0	20.91	

System: acetonitrile + 1-chloro-3-nitrobenzene; phases: Liquid
Fixed: Pressure, kPa = 100
Fixed: Temperature, K = 298.15
Property: Molar enthalpy of solution, kJ/mol (Liquid); method: Power-compensation calorimetry
Mole fraction of 1-chloro-3-nitrobenzene	Molar enthalpy of solution, kJ/mol	uncertainty
0	23.9	

System: acetonitrile + 1-bromo-4-nitrobenzene; phases: Liquid
Fixed: Pressure, kPa = 100
Fixed: Temperature, K = 298.15
Property: Molar enthalpy of solution, kJ/mol (Liquid); method: Power-compensation calorimetry
Mole fraction of 1-bromo-4-nitrobenzene	Molar enthalpy of solution, kJ/mol	uncertainty
0	24.3	

System: acetonitrile + 2-nitrotoluene; phases: Liquid
Fixed: Pressure, kPa = 100
Fixed: Temperature, K = 298.15
Property: Molar enthalpy of solution, kJ/mol (Liquid); method: Titration calorimetry
Mole fraction of 2-nitrotoluene	Molar enthalpy of solution, kJ/mol	uncertainty
0	3	

System: acetonitrile + 4-nitrotoluene; phases: Liquid
Fixed: Pressure, kPa = 100
Fixed: Temperature, K = 298.15
Property: Molar enthalpy of solution, kJ/mol (Liquid); method: Power-compensation calorimetry
Mole fraction of 4-nitrotoluene	Molar enthalpy of solution, kJ/mol	uncertainty
0	18.9	

System: acetonitrile + 2,4-dinitrotoluene; phases: Liquid
Fixed: Pressure, kPa = 100
Fixed: Temperature, K = 298.15
Property: Molar enthalpy of solution, kJ/mol (Liquid); method: Power-compensation calorimetry
Mole fraction of 2,4-dinitrotoluene	Molar enthalpy of solution, kJ/mol	uncertainty
0	21.4	

System: acetonitrile + 2,4,6-trinitrotoluene; phases: Liquid
Fixed: Pressure, kPa = 100
Fixed: Temperature, K = 298.15
Property: Molar enthalpy of solution, kJ/mol (Liquid); method: Power-compensation calorimetry
Mole fraction of 2,4,6-trinitrotoluene	Molar enthalpy of solution, kJ/mol	uncertainty
0	19.2	

System: acetonitrile + 9-nitroanthracene; phases: Liquid
Fixed: Pressure, kPa = 100
Fixed: Temperature, K = 298.15
Property: Molar enthalpy of solution, kJ/mol (Liquid); method: Power-compensation calorimetry
Mole fraction of 9-nitroanthracene	Molar enthalpy of solution, kJ/mol	uncertainty
0	22.4	

System: acetonitrile + dimethyl terephthalate; phases: Liquid
Fixed: Pressure, kPa = 100
Fixed: Temperature, K = 298.15
Property: Molar enthalpy of solution, kJ/mol (Liquid); method: Power-compensation calorimetry
Mole fraction of dimethyl terephthalate	Molar enthalpy of solution, kJ/mol	uncertainty
0	30	

System: acetonitrile + 1,4-dicyanobenzene; phases: Liquid
Fixed: Pressure, kPa = 100
Fixed: Temperature, K = 298.15
Property: Molar enthalpy of solution, kJ/mol (Liquid); method: Power-compensation calorimetry
Mole fraction of 1,4-dicyanobenzene	Molar enthalpy of solution, kJ/mol	uncertainty
0	22.73	

System: acetonitrile + 3-methoxybenzamide; phases: Liquid
Fixed: Pressure, kPa = 100
Fixed: Temperature, K = 298.15
Property: Molar enthalpy of solution, kJ/mol (Liquid); method: Power-compensation calorimetry
Mole fraction of 3-methoxybenzamide	Molar enthalpy of solution, kJ/mol	uncertainty
0	28.2	

System: acetonitrile + dimethyl phthalate; phases: Liquid
Fixed: Pressure, kPa = 100
Fixed: Temperature, K = 298.15
Property: Molar enthalpy of solution, kJ/mol (Liquid); method: Titration calorimetry
Mole fraction of dimethyl phthalate	Molar enthalpy of solution, kJ/mol	uncertainty
0	1.5	

System: benzamide + dimethylformamide (DMF); phases: Liquid
Fixed: Pressure, kPa = 100
Fixed: Temperature, K = 298.15
Property: Molar enthalpy of solution, kJ/mol (Liquid); method: Power-compensation calorimetry
Mole fraction of benzamide	Molar enthalpy of solution, kJ/mol	uncertainty
0	8.7	

System: dimethylformamide (DMF) + methyl benzoate; phases: Liquid
Fixed: Pressure, kPa = 100
Fixed: Temperature, K = 298.15
Property: Molar enthalpy of solution, kJ/mol (Liquid); method: Titration calorimetry
Mole fraction of methyl benzoate	Molar enthalpy of solution, kJ/mol	uncertainty
0	.29	

System: 1-propanol + water; phases: Liquid
Fixed: Pressure, kPa = 100
Fixed: Temperature, K = 298.15
Property: Molar enthalpy of solution, kJ/mol (Liquid); method: Titration calorimetry
Mole fraction of 1-propanol	Molar enthalpy of solution, kJ/mol	uncertainty
0	-10.16	

System: potassium chloride + water; phases: Liquid
Fixed: Pressure, kPa = 100
Fixed: Temperature, K = 298.15
Property: Molar enthalpy of solution, kJ/mol (Liquid); method: Power-compensation calorimetry
Mole fraction of potassium chloride	Molar enthalpy of solution, kJ/mol	uncertainty
0	17.41	
