Measured thermophysical data. Thermodynamic properties of 1-butyl-3-methylimidazolium salicylate as an active pharmaceutical ingredient ionic liquid (API-IL) in aqueous solutions of glycine and L-alanine at T = (288.15 318.15) K
Source: Thermochim. Acta, 2016, 10.1016/j.tca.2016.05.013
Compound 1: glycine, C2H5NO2, purity 99%
Compound 2: L-alanine, C3H7NO2, purity 99%
Compound 3: 1-butyl-3-methylimidazolium salicylate, C15H20N2O3, purity 98%
Compound 4: water, H2O

System: 1-butyl-3-methylimidazolium salicylate; phases: Liquid
Property: Mass density, kg/m3 (Liquid); method: Vibrating tube method
Temperature, K	Pressure, kPa	Mass density, kg/m3	uncertainty
288.15	86.8	1155.72	
298.15	86.8	1148.81	
308.15	86.8	1142.02	
318.15	86.8	1135.41	

System: 1-butyl-3-methylimidazolium salicylate; phases: Liquid
Fixed: Frequency, MHz = 3
Property: Speed of sound, m/s (Liquid); method: Sing-around technique in a fixed-path interferometer
Temperature, K	Pressure, kPa	Speed of sound, m/s	uncertainty
288.15	86.8	1721.59	
298.15	86.8	1679.19	
308.15	86.8	1640.92	
318.15	86.8	1606.12	

System: 1-butyl-3-methylimidazolium salicylate; phases: Liquid
Property: Refractive index (Na D-line) (Liquid); method: Standard Abbe refractometry
Temperature, K	Pressure, kPa	Refractive index (Na D-line)	uncertainty
288.15	86.8	1.6503	
298.15	86.8	1.647	
308.15	86.8	1.6442	
318.15	86.8	1.6413	

System: L-alanine + water + 1-butyl-3-methylimidazolium salicylate; phases: Liquid
Fixed: Pressure, kPa = 86.8
Fixed: Frequency, MHz = 3
Property: Speed of sound, m/s (Liquid); method: Sing-around technique in a fixed-path interferometer
Temperature, K	Molality, mol/kg of L-alanine	Solvent: Molality, mol/kg of 1-butyl-3-methylimidazolium salicylate	Speed of sound, m/s	uncertainty
288.15	0	.1055	1484.38	
288.15	.0946	.1055	1490.99	
288.15	.1511	.1055	1494.96	
288.15	.1999	.1055	1498.27	
288.15	.2551	.1055	1501.98	
288.15	.2998	.1055	1504.92	
288.15	.3466	.1055	1508.39	
288.15	.395	.1055	1511.42	
288.15	.4471	.1055	1515.04	
298.15	0	.1055	1511.92	
298.15	.0946	.1055	1518.11	
298.15	.1511	.1055	1521.82	
298.15	.1999	.1055	1524.93	
298.15	.2551	.1055	1528.43	
298.15	.2998	.1055	1531.13	
298.15	.3466	.1055	1533.98	
298.15	.395	.1055	1537.2	
298.15	.4471	.1055	1540.34	
308.15	0	.1055	1532.44	
308.15	.0946	.1055	1538.2	
308.15	.1511	.1055	1541.62	
308.15	.1999	.1055	1544.7	
308.15	.2551	.1055	1548.04	
308.15	.2998	.1055	1550.49	
308.15	.3466	.1055	1553.4	
308.15	.395	.1055	1556.11	
308.15	.4471	.1055	1559.25	
318.15	0	.1055	1547.3	
318.15	.0946	.1055	1552.94	
318.15	.1511	.1055	1555.93	
318.15	.1999	.1055	1558.58	
318.15	.2551	.1055	1561.43	
318.15	.2998	.1055	1563.82	
318.15	.3466	.1055	1566.34	
318.15	.395	.1055	1569.02	
318.15	.4471	.1055	1571.85	
288.15	0	.2001	1499.08	
288.15	.1002	.2001	1506.08	
288.15	.1501	.2001	1509.57	
288.15	.1997	.2001	1512.91	
288.15	.2543	.2001	1516.53	
288.15	.2975	.2001	1519.61	
288.15	.3563	.2001	1523.34	
288.15	.3949	.2001	1526.08	
288.15	.4464	.2001	1529.34	
298.15	0	.2001	1524.51	
298.15	.1002	.2001	1530.99	
298.15	.1501	.2001	1534.27	
298.15	.1997	.2001	1537.47	
298.15	.2543	.2001	1540.83	
298.15	.2975	.2001	1543.67	
298.15	.3563	.2001	1547.36	
298.15	.3949	.2001	1549.56	
298.15	.4464	.2001	1552.73	
308.15	0	.2001	1543.55	
308.15	.1002	.2001	1549.59	
308.15	.1501	.2001	1552.54	
308.15	.1997	.2001	1555.41	
308.15	.2543	.2001	1558.56	
308.15	.2975	.2001	1561.02	
308.15	.3563	.2001	1564.5	
308.15	.3949	.2001	1566.75	
308.15	.4464	.2001	1569.77	
318.15	0	.2001	1555.88	
318.15	.1002	.2001	1561.7	
318.15	.1501	.2001	1564.49	
318.15	.1997	.2001	1567.13	
318.15	.2543	.2001	1569.99	
318.15	.2975	.2001	1572.46	
318.15	.3563	.2001	1575.82	
318.15	.3949	.2001	1578.05	
318.15	.4464	.2001	1580.71	
288.15	0	.3002	1513.56	
288.15	.0984	.3002	1520.45	
288.15	.1479	.3002	1523.86	
288.15	.1979	.3002	1527.2	
288.15	.2525	.3002	1530.86	
288.15	.2999	.3002	1534.11	
288.15	.3489	.3002	1537.5	
288.15	.3994	.3002	1540.76	
288.15	.447	.3002	1544.05	
298.15	0	.3002	1536.99	
298.15	.0984	.3002	1543.34	
298.15	.1479	.3002	1546.55	
298.15	.1979	.3002	1549.7	
298.15	.2525	.3002	1553.16	
298.15	.2999	.3002	1555.98	
298.15	.3489	.3002	1559.04	
298.15	.3994	.3002	1562.05	
298.15	.447	.3002	1565.02	
308.15	0	.3002	1553.78	
308.15	.0984	.3002	1559.75	
308.15	.1479	.3002	1562.73	
308.15	.1979	.3002	1565.71	
308.15	.2525	.3002	1568.84	
308.15	.2999	.3002	1571.56	
308.15	.3489	.3002	1574.42	
308.15	.3994	.3002	1577.47	
308.15	.447	.3002	1580.2	
318.15	0	.3002	1564.82	
318.15	.0984	.3002	1570.48	
318.15	.1479	.3002	1573.27	
318.15	.1979	.3002	1576.1	
318.15	.2525	.3002	1579.01	
318.15	.2999	.3002	1581.66	
318.15	.3489	.3002	1584.25	
318.15	.3994	.3002	1586.86	
318.15	.447	.3002	1589.4	
288.15	0	0	1466.56	
288.15	.1005	0	1473.6	
288.15	.1495	0	1476.94	
288.15	.2002	0	1480.37	
288.15	.2489	0	1483.84	
288.15	.2959	0	1487.16	
288.15	.3467	0	1490.48	
288.15	.396	0	1493.62	
288.15	.4425	0	1496.24	
298.15	0	0	1496.91	
298.15	.1005	0	1503.48	
298.15	.1495	0	1506.55	
298.15	.2002	0	1509.85	
298.15	.2489	0	1512.84	
298.15	.2959	0	1515.94	
298.15	.3467	0	1519.14	
298.15	.396	0	1522.05	
298.15	.4425	0	1525.02	
308.15	0	0	1519.86	
308.15	.1005	0	1526.12	
308.15	.1495	0	1528.97	
308.15	.2002	0	1531.91	
308.15	.2489	0	1534.79	
308.15	.2959	0	1537.54	
308.15	.3467	0	1540.49	
308.15	.396	0	1543.24	
308.15	.4425	0	1546.02	
318.15	0	0	1536.36	
318.15	.1005	0	1542.12	
318.15	.1495	0	1544.73	
318.15	.2002	0	1547.6	
318.15	.2489	0	1550.09	
318.15	.2959	0	1552.64	
318.15	.3467	0	1555.26	
318.15	.396	0	1558.19	
318.15	.4425	0	1560.74	

System: L-alanine + water + 1-butyl-3-methylimidazolium salicylate; phases: Liquid
Fixed: Pressure, kPa = 86.8
Property: Viscosity, Pa*s (Liquid); method: Falling or rolling sphere viscometry
Temperature, K	Molality, mol/kg of L-alanine	Solvent: Molality, mol/kg of 1-butyl-3-methylimidazolium salicylate	Viscosity, Pa*s	uncertainty
288.15	0	0	.00113	
288.15	.1005	0	.00116	
288.15	.1495	0	.001175	
288.15	.2002	0	.001191	
288.15	.2489	0	.001206	
288.15	.2959	0	.001222	
288.15	.3467	0	.001237	
288.15	.396	0	.001253	
288.15	.4425	0	.001268	
298.15	0	0	.000888	
298.15	.1005	0	.000909	
298.15	.1495	0	.000921	
298.15	.2002	0	.000933	
298.15	.2489	0	.000945	
298.15	.2959	0	.000955	
298.15	.3467	0	.000966	
298.15	.396	0	.000977	
298.15	.4425	0	.000987	
308.15	0	0	.00072	
308.15	.1005	0	.000738	
308.15	.1495	0	.000747	
308.15	.2002	0	.000756	
308.15	.2489	0	.000765	
308.15	.2959	0	.000773	
308.15	.3467	0	.000782	
308.15	.396	0	.000791	
308.15	.4425	0	.000799	
318.15	0	0	.000607	
318.15	.1005	0	.00062	
318.15	.1495	0	.000626	
318.15	.2002	0	.000633	
318.15	.2489	0	.000641	
318.15	.2959	0	.000649	
318.15	.3467	0	.000657	
318.15	.396	0	.000665	
318.15	.4425	0	.000673	
288.15	0	.1032	.001296	
288.15	.0936	.1032	.001325	
288.15	.1501	.1032	.001345	
288.15	.2013	.1032	.001362	
288.15	.2569	.1032	.001381	
288.15	.3012	.1032	.001394	
288.15	.3472	.1032	.001412	
288.15	.3934	.1032	.001427	
288.15	.4462	.1032	.001445	
298.15	0	.1032	.001042	
298.15	.0936	.1032	.001066	
298.15	.1501	.1032	.00108	
298.15	.2013	.1032	.001092	
298.15	.2569	.1032	.001106	
298.15	.3012	.1032	.001117	
298.15	.3472	.1032	.001129	
298.15	.3934	.1032	.001141	
298.15	.4462	.1032	.001153	
308.15	0	.1032	.000872	
308.15	.0936	.1032	.000892	
308.15	.1501	.1032	.000901	
308.15	.2013	.1032	.000913	
308.15	.2569	.1032	.000922	
308.15	.3012	.1032	.000931	
308.15	.3472	.1032	.00094	
308.15	.3934	.1032	.000951	
308.15	.4462	.1032	.00096	
318.15	0	.1032	.000751	
318.15	.0936	.1032	.000765	
318.15	.1501	.1032	.000774	
318.15	.2013	.1032	.000782	
318.15	.2569	.1032	.000791	
318.15	.3012	.1032	.000798	
318.15	.3472	.1032	.000806	
318.15	.3934	.1032	.000814	
318.15	.4462	.1032	.000822	
288.15	0	.2124	.001432	
288.15	.1011	.2124	.001466	
288.15	.1525	.2124	.001484	
288.15	.2092	.2124	.001502	
288.15	.2708	.2124	.001522	
288.15	.3109	.2124	.001539	
288.15	.3805	.2124	.001561	
288.15	.4322	.2124	.001576	
288.15	.4881	.2124	.001596	
298.15	0	.2124	.001159	
298.15	.1011	.2124	.00118	
298.15	.1525	.2124	.001193	
298.15	.2092	.2124	.001207	
298.15	.2708	.2124	.001222	
298.15	.3109	.2124	.001235	
298.15	.3805	.2124	.001253	
298.15	.4322	.2124	.001266	
298.15	.4881	.2124	.001284	
308.15	0	.2124	.000981	
308.15	.1011	.2124	.001	
308.15	.1525	.2124	.00101	
308.15	.2092	.2124	.00102	
308.15	.2708	.2124	.001031	
308.15	.3109	.2124	.001039	
308.15	.3805	.2124	.001052	
308.15	.4322	.2124	.00106	
308.15	.4881	.2124	.001071	
318.15	0	.2124	.00087	
318.15	.1011	.2124	.000885	
318.15	.1525	.2124	.000893	
318.15	.2092	.2124	.000901	
318.15	.2708	.2124	.00091	
318.15	.3109	.2124	.000918	
318.15	.3805	.2124	.000928	
318.15	.4322	.2124	.000935	
318.15	.4881	.2124	.000944	
288.15	0	.3146	.001535	
288.15	.111	.3146	.001579	
288.15	.15	.3146	.001596	
288.15	.2011	.3146	.001614	
288.15	.257	.3146	.001635	
288.15	.307	.3146	.001652	
288.15	.3502	.3146	.001669	
288.15	.4023	.3146	.001689	
288.15	.4461	.3146	.001706	
298.15	0	.3146	.001256	
298.15	.111	.3146	.001286	
298.15	.15	.3146	.001301	
298.15	.2011	.3146	.001315	
298.15	.257	.3146	.00133	
298.15	.307	.3146	.001341	
298.15	.3502	.3146	.001352	
298.15	.4023	.3146	.001365	
298.15	.4461	.3146	.001376	
308.15	0	.3146	.001078	
308.15	.111	.3146	.001102	
308.15	.15	.3146	.001112	
308.15	.2011	.3146	.001123	
308.15	.257	.3146	.001135	
308.15	.307	.3146	.001144	
308.15	.3502	.3146	.001152	
308.15	.4023	.3146	.001162	
308.15	.4461	.3146	.001171	
318.15	0	.3146	.000962	
318.15	.111	.3146	.000981	
318.15	.15	.3146	.000989	
318.15	.2011	.3146	.000997	
318.15	.257	.3146	.001006	
318.15	.307	.3146	.001014	
318.15	.3502	.3146	.001021	
318.15	.4023	.3146	.001029	
318.15	.4461	.3146	.001037	

System: L-alanine + water + 1-butyl-3-methylimidazolium salicylate; phases: Liquid
Fixed: Pressure, kPa = 86.8
Property: Refractive index (Na D-line) (Liquid); method: Standard Abbe refractometry
Temperature, K	Molality, mol/kg of L-alanine	Solvent: Molality, mol/kg of 1-butyl-3-methylimidazolium salicylate	Refractive index (Na D-line)	uncertainty
288.15	.1005	0	1.3342	
288.15	.1495	0	1.3349	
288.15	.2002	0	1.3357	
288.15	.2489	0	1.3365	
288.15	.2959	0	1.3372	
288.15	.3467	0	1.3381	
288.15	.396	0	1.3389	
288.15	.4425	0	1.3396	
298.15	.1005	0	1.3336	
298.15	.1495	0	1.3343	
298.15	.2002	0	1.3352	
298.15	.2489	0	1.336	
298.15	.2959	0	1.3367	
298.15	.3467	0	1.3375	
298.15	.396	0	1.3383	
298.15	.4425	0	1.339	
308.15	.1005	0	1.3327	
308.15	.1495	0	1.3335	
308.15	.2002	0	1.3343	
308.15	.2489	0	1.3351	
308.15	.2959	0	1.3358	
308.15	.3467	0	1.3366	
308.15	.396	0	1.3373	
308.15	.4425	0	1.338	
318.15	.1005	0	1.3314	
318.15	.1495	0	1.3322	
318.15	.2002	0	1.3331	
318.15	.2489	0	1.3339	
318.15	.2959	0	1.3347	
318.15	.3467	0	1.3355	
318.15	.396	0	1.3363	
318.15	.4425	0	1.337	
288.15	0	.1055	1.3383	
288.15	.0946	.1055	1.3397	
288.15	.1511	.1055	1.3405	
288.15	.1999	.1055	1.3412	
288.15	.2551	.1055	1.342	
288.15	.2998	.1055	1.3426	
288.15	.3466	.1055	1.3433	
288.15	.395	.1055	1.344	
288.15	.4471	.1055	1.3447	
298.15	0	.1055	1.3376	
298.15	.0946	.1055	1.3389	
298.15	.1511	.1055	1.3397	
298.15	.1999	.1055	1.3404	
298.15	.2551	.1055	1.3412	
298.15	.2998	.1055	1.3419	
298.15	.3466	.1055	1.3426	
298.15	.395	.1055	1.3433	
298.15	.4471	.1055	1.344	
308.15	0	.1055	1.3365	
308.15	.0946	.1055	1.3378	
308.15	.1511	.1055	1.3387	
308.15	.1999	.1055	1.3394	
308.15	.2551	.1055	1.3403	
308.15	.2998	.1055	1.341	
308.15	.3466	.1055	1.3417	
308.15	.395	.1055	1.3424	
308.15	.4471	.1055	1.3432	
318.15	0	.1055	1.3352	
318.15	.0946	.1055	1.3366	
318.15	.1511	.1055	1.3374	
318.15	.1999	.1055	1.3381	
318.15	.2551	.1055	1.339	
318.15	.2998	.1055	1.3397	
318.15	.3466	.1055	1.3404	
318.15	.395	.1055	1.3411	
318.15	.4471	.1055	1.3419	
288.15	0	.2001	1.3427	
288.15	.1002	.2001	1.3439	
288.15	.1501	.2001	1.3447	
288.15	.1997	.2001	1.3455	
288.15	.2543	.2001	1.3464	
288.15	.2975	.2001	1.3471	
288.15	.3563	.2001	1.348	
288.15	.3949	.2001	1.3486	
288.15	.4464	.2001	1.3494	
298.15	0	.2001	1.342	
298.15	.1002	.2001	1.3431	
298.15	.1501	.2001	1.3439	
298.15	.1997	.2001	1.3447	
298.15	.2543	.2001	1.3456	
298.15	.2975	.2001	1.3462	
298.15	.3563	.2001	1.3471	
298.15	.3949	.2001	1.3477	
298.15	.4464	.2001	1.3485	
308.15	0	.2001	1.3407	
308.15	.1002	.2001	1.342	
308.15	.1501	.2001	1.3428	
308.15	.1997	.2001	1.3436	
308.15	.2543	.2001	1.3444	
308.15	.2975	.2001	1.3451	
308.15	.3563	.2001	1.346	
308.15	.3949	.2001	1.3466	
308.15	.4464	.2001	1.3474	
318.15	0	.2001	1.3393	
318.15	.1002	.2001	1.3406	
318.15	.1501	.2001	1.3414	
318.15	.1997	.2001	1.3422	
318.15	.2543	.2001	1.343	
318.15	.2975	.2001	1.3437	
318.15	.3563	.2001	1.3446	
318.15	.3949	.2001	1.3452	
318.15	.4464	.2001	1.3461	
288.15	0	.3002	1.3479	
288.15	.0984	.3002	1.3489	
288.15	.1479	.3002	1.3496	
288.15	.1979	.3002	1.3503	
288.15	.2525	.3002	1.3511	
288.15	.2999	.3002	1.3518	
288.15	.3489	.3002	1.3525	
288.15	.3994	.3002	1.3532	
288.15	.447	.3002	1.354	
298.15	0	.3002	1.3468	
298.15	.0984	.3002	1.3479	
298.15	.1479	.3002	1.3486	
298.15	.1979	.3002	1.3493	
298.15	.2525	.3002	1.3501	
298.15	.2999	.3002	1.3508	
298.15	.3489	.3002	1.3516	
298.15	.3994	.3002	1.3524	
298.15	.447	.3002	1.3531	
308.15	0	.3002	1.3455	
308.15	.0984	.3002	1.3467	
308.15	.1479	.3002	1.3474	
308.15	.1979	.3002	1.3482	
308.15	.2525	.3002	1.349	
308.15	.2999	.3002	1.3498	
308.15	.3489	.3002	1.3506	
308.15	.3994	.3002	1.3514	
308.15	.447	.3002	1.3521	
318.15	0	.3002	1.344	
318.15	.0984	.3002	1.3452	
318.15	.1479	.3002	1.3458	
318.15	.1979	.3002	1.3466	
318.15	.2525	.3002	1.3475	
318.15	.2999	.3002	1.3483	
318.15	.3489	.3002	1.3492	
318.15	.3994	.3002	1.3501	
318.15	.447	.3002	1.3509	
288.15	0	0	1.3329	
298.15	0	0	1.3323	
308.15	0	0	1.3316	
318.15	0	0	1.3305	

System: L-alanine + water + 1-butyl-3-methylimidazolium salicylate; phases: Liquid
Fixed: Pressure, kPa = 86.8
Property: Mass density, kg/m3 (Liquid); method: Vibrating tube method
Temperature, K	Molality, mol/kg of L-alanine	Solvent: Molality, mol/kg of 1-butyl-3-methylimidazolium salicylate	Mass density, kg/m3	uncertainty
288.15	0	.1055	1005.04	
288.15	.0946	.1055	1007.73	
288.15	.1511	.1055	1009.33	
288.15	.1999	.1055	1010.69	
288.15	.2551	.1055	1012.21	
288.15	.2998	.1055	1013.48	
288.15	.3466	.1055	1014.72	
288.15	.395	.1055	1016.05	
288.15	.4471	.1055	1017.43	
298.15	0	.1055	1002.65	
298.15	.0946	.1055	1005.34	
298.15	.1511	.1055	1006.91	
298.15	.1999	.1055	1008.25	
298.15	.2551	.1055	1009.75	
298.15	.2998	.1055	1010.95	
298.15	.3466	.1055	1012.21	
298.15	.395	.1055	1013.52	
298.15	.4471	.1055	1014.9	
308.15	0	.1055	999.44	
308.15	.0946	.1055	1002.07	
308.15	.1511	.1055	1003.62	
308.15	.1999	.1055	1004.93	
308.15	.2551	.1055	1006.41	
308.15	.2998	.1055	1007.61	
308.15	.3466	.1055	1008.82	
308.15	.395	.1055	1010.12	
308.15	.4471	.1055	1011.47	
318.15	0	.1055	995.43	
318.15	.0946	.1055	998.03	
318.15	.1511	.1055	999.58	
318.15	.1999	.1055	1000.9	
318.15	.2551	.1055	1002.37	
318.15	.2998	.1055	1003.57	
318.15	.3466	.1055	1004.79	
318.15	.395	.1055	1006.05	
318.15	.4471	.1055	1007.39	
288.15	0	.2001	1010.28	
288.15	.1002	.2001	1013.08	
288.15	.1501	.2001	1014.48	
288.15	.1997	.2001	1015.86	
288.15	.2543	.2001	1017.36	
288.15	.2975	.2001	1018.56	
288.15	.3563	.2001	1020.15	
288.15	.3949	.2001	1021.21	
288.15	.4464	.2001	1022.59	
298.15	0	.2001	1007.67	
298.15	.1002	.2001	1010.44	
298.15	.1501	.2001	1011.81	
298.15	.1997	.2001	1013.16	
298.15	.2543	.2001	1014.66	
298.15	.2975	.2001	1015.82	
298.15	.3563	.2001	1017.4	
298.15	.3949	.2001	1018.45	
298.15	.4464	.2001	1019.83	
308.15	0	.2001	1004.28	
308.15	.1002	.2001	1007.01	
308.15	.1501	.2001	1008.37	
308.15	.1997	.2001	1009.71	
308.15	.2543	.2001	1011.18	
308.15	.2975	.2001	1012.35	
308.15	.3563	.2001	1013.9	
308.15	.3949	.2001	1014.95	
308.15	.4464	.2001	1016.29	
318.15	0	.2001	1000.19	
318.15	.1002	.2001	1002.88	
318.15	.1501	.2001	1004.24	
318.15	.1997	.2001	1005.57	
318.15	.2543	.2001	1007.03	
318.15	.2975	.2001	1008.19	
318.15	.3563	.2001	1009.74	
318.15	.3949	.2001	1010.77	
318.15	.4464	.2001	1012.15	
288.15	0	.3002	1015.82	
288.15	.0984	.3002	1018.54	
288.15	.1479	.3002	1019.91	
288.15	.1979	.3002	1021.28	
288.15	.2525	.3002	1022.78	
288.15	.2999	.3002	1024.04	
288.15	.3489	.3002	1025.38	
288.15	.3994	.3002	1026.72	
288.15	.447	.3002	1028	
298.15	0	.3002	1012.91	
298.15	.0984	.3002	1015.6	
298.15	.1479	.3002	1016.95	
298.15	.1979	.3002	1018.31	
298.15	.2525	.3002	1019.77	
298.15	.2999	.3002	1021.05	
298.15	.3489	.3002	1022.37	
298.15	.3994	.3002	1023.7	
298.15	.447	.3002	1024.96	
308.15	0	.3002	1009.41	
308.15	.0984	.3002	1012.07	
308.15	.1479	.3002	1013.4	
308.15	.1979	.3002	1014.75	
308.15	.2525	.3002	1016.23	
308.15	.2999	.3002	1017.49	
308.15	.3489	.3002	1018.83	
308.15	.3994	.3002	1020.2	
308.15	.447	.3002	1021.45	
318.15	0	.3002	1004.98	
318.15	.0984	.3002	1007.61	
318.15	.1479	.3002	1008.93	
318.15	.1979	.3002	1010.26	
318.15	.2525	.3002	1011.72	
318.15	.2999	.3002	1012.98	
318.15	.3489	.3002	1014.3	
318.15	.3994	.3002	1015.66	
318.15	.447	.3002	1016.93	
288.15	0	0	999.09	
288.15	.1005	0	1002.04	
288.15	.1495	0	1003.46	
288.15	.2002	0	1004.92	
288.15	.2489	0	1006.29	
288.15	.2959	0	1007.62	
288.15	.3467	0	1009.01	
288.15	.396	0	1010.36	
288.15	.4425	0	1011.63	
298.15	0	0	997.05	
298.15	.1005	0	999.95	
298.15	.1495	0	1001.35	
298.15	.2002	0	1002.79	
298.15	.2489	0	1004.15	
298.15	.2959	0	1005.44	
298.15	.3467	0	1006.83	
298.15	.396	0	1008.18	
298.15	.4425	0	1009.42	
308.15	0	0	994.03	
308.15	.1005	0	996.87	
308.15	.1495	0	998.26	
308.15	.2002	0	999.67	
308.15	.2489	0	1001.02	
308.15	.2959	0	1002.29	
308.15	.3467	0	1003.66	
308.15	.396	0	1004.97	
308.15	.4425	0	1006.19	
318.15	0	0	990.2	
318.15	.1005	0	993.01	
318.15	.1495	0	994.36	
318.15	.2002	0	995.75	
318.15	.2489	0	997.07	
318.15	.2959	0	998.33	
318.15	.3467	0	999.67	
318.15	.396	0	1000.99	
318.15	.4425	0	1002.19	

System: glycine + water + 1-butyl-3-methylimidazolium salicylate; phases: Liquid
Fixed: Pressure, kPa = 86.8
Property: Mass density, kg/m3 (Liquid); method: Vibrating tube method
Temperature, K	Molality, mol/kg of glycine	Solvent: Molality, mol/kg of 1-butyl-3-methylimidazolium salicylate	Mass density, kg/m3	uncertainty
288.15	0	.1032	1004.94	
288.15	.1125	.1032	1008.55	
288.15	.1499	.1032	1009.74	
288.15	.1941	.1032	1011.13	
288.15	.2512	.1032	1012.93	
288.15	.2933	.1032	1014.22	
288.15	.3525	.1032	1016.08	
288.15	.3953	.1032	1017.42	
288.15	.4489	.1032	1019.07	
298.15	0	.1032	1002.65	
298.15	.1125	.1032	1006.17	
298.15	.1499	.1032	1007.32	
298.15	.1941	.1032	1008.69	
298.15	.2512	.1032	1010.43	
298.15	.2933	.1032	1011.71	
298.15	.3525	.1032	1013.51	
298.15	.3953	.1032	1014.81	
298.15	.4489	.1032	1016.4	
308.15	0	.1032	999.4	
308.15	.1125	.1032	1002.88	
308.15	.1499	.1032	1004.02	
308.15	.1941	.1032	1005.38	
308.15	.2512	.1032	1007.13	
308.15	.2933	.1032	1008.37	
308.15	.3525	.1032	1010.12	
308.15	.3953	.1032	1011.4	
308.15	.4489	.1032	1013	
318.15	0	.1032	995.42	
318.15	.1125	.1032	998.87	
318.15	.1499	.1032	1000.01	
318.15	.1941	.1032	1001.34	
318.15	.2512	.1032	1003.05	
318.15	.2933	.1032	1004.32	
318.15	.3525	.1032	1006.05	
318.15	.3953	.1032	1007.31	
318.15	.4489	.1032	1008.85	
288.15	0	.2005	1010.45	
288.15	.1192	.2005	1014.2	
288.15	.1525	.2005	1015.23	
288.15	.1913	.2005	1016.45	
288.15	.2434	.2005	1018.06	
288.15	.2908	.2005	1019.51	
288.15	.3515	.2005	1021.37	
288.15	.3936	.2005	1022.65	
288.15	.4444	.2005	1024.16	
298.15	0	.2005	1007.91	
298.15	.1192	.2005	1011.58	
298.15	.1525	.2005	1012.6	
298.15	.1913	.2005	1013.78	
298.15	.2434	.2005	1015.37	
298.15	.2908	.2005	1016.79	
298.15	.3515	.2005	1018.61	
298.15	.3936	.2005	1019.85	
298.15	.4444	.2005	1021.33	
308.15	0	.2005	1004.44	
308.15	.1192	.2005	1008.09	
308.15	.1525	.2005	1009.09	
308.15	.1913	.2005	1010.25	
308.15	.2434	.2005	1011.81	
308.15	.2908	.2005	1013.22	
308.15	.3515	.2005	1015	
308.15	.3936	.2005	1016.23	
308.15	.4444	.2005	1017.72	
318.15	0	.2005	1000.27	
318.15	.1192	.2005	1003.87	
318.15	.1525	.2005	1004.86	
318.15	.1913	.2005	1006.01	
318.15	.2434	.2005	1007.57	
318.15	.2908	.2005	1008.93	
318.15	.3515	.2005	1010.7	
318.15	.3936	.2005	1011.9	
318.15	.4444	.2005	1013.36	
288.15	0	.2965	1015.79	
288.15	.1067	.2965	1019.13	
288.15	.1548	.2965	1020.62	
288.15	.2031	.2965	1022.12	
288.15	.2543	.2965	1023.69	
288.15	.2988	.2965	1025.06	
288.15	.3429	.2965	1026.4	
288.15	.4008	.2965	1028.18	
288.15	.4458	.2965	1029.54	
298.15	0	.2965	1012.99	
298.15	.1067	.2965	1016.26	
298.15	.1548	.2965	1017.74	
298.15	.2031	.2965	1019.2	
298.15	.2543	.2965	1020.73	
298.15	.2988	.2965	1022.1	
298.15	.3429	.2965	1023.42	
298.15	.4008	.2965	1025.12	
298.15	.4458	.2965	1026.47	
308.15	0	.2965	1009.39	
308.15	.1067	.2965	1012.63	
308.15	.1548	.2965	1014.07	
308.15	.2031	.2965	1015.54	
308.15	.2543	.2965	1017.07	
308.15	.2988	.2965	1018.38	
308.15	.3429	.2965	1019.69	
308.15	.4008	.2965	1021.36	
308.15	.4458	.2965	1022.66	
318.15	0	.2965	1005.07	
318.15	.1067	.2965	1008.27	
318.15	.1548	.2965	1009.7	
318.15	.2031	.2965	1011.13	
318.15	.2543	.2965	1012.64	
318.15	.2988	.2965	1013.93	
318.15	.3429	.2965	1015.22	
318.15	.4008	.2965	1016.91	
318.15	.4458	.2965	1018.2	
288.15	0	0	999.09	
288.15	.1142	0	1002.8	
288.15	.1525	0	1004.04	
288.15	.1962	0	1005.44	
288.15	.2484	0	1007.07	
288.15	.3032	0	1008.78	
288.15	.3537	0	1010.32	
288.15	.4004	0	1011.77	
288.15	.4496	0	1013.27	
298.15	0	0	997.05	
298.15	.1142	0	1000.65	
298.15	.1525	0	1001.84	
298.15	.1962	0	1003.2	
298.15	.2484	0	1004.79	
298.15	.3032	0	1006.45	
298.15	.3537	0	1007.98	
298.15	.4004	0	1009.37	
298.15	.4496	0	1010.81	
308.15	0	0	994.03	
308.15	.1142	0	997.6	
308.15	.1525	0	998.77	
308.15	.1962	0	1000.1	
308.15	.2484	0	1001.67	
308.15	.3032	0	1003.33	
308.15	.3537	0	1004.87	
308.15	.4004	0	1006.23	
308.15	.4496	0	1007.66	
318.15	0	0	990.2	
318.15	.1142	0	993.72	
318.15	.1525	0	994.87	
318.15	.1962	0	996.21	
318.15	.2484	0	997.76	
318.15	.3032	0	999.39	
318.15	.3537	0	1000.88	
318.15	.4004	0	1002.28	
318.15	.4496	0	1003.71	

System: glycine + water + 1-butyl-3-methylimidazolium salicylate; phases: Liquid
Fixed: Pressure, kPa = 86.8
Fixed: Frequency, MHz = 3
Property: Speed of sound, m/s (Liquid); method: Sing-around technique in a fixed-path interferometer
Temperature, K	Molality, mol/kg of glycine	Solvent: Molality, mol/kg of 1-butyl-3-methylimidazolium salicylate	Speed of sound, m/s	uncertainty
288.15	0	.1032	1484.42	
288.15	.1125	.1032	1490.58	
288.15	.1499	.1032	1492.65	
288.15	.1941	.1032	1495	
288.15	.2512	.1032	1498.22	
288.15	.2933	.1032	1500.47	
288.15	.3525	.1032	1503.5	
288.15	.3953	.1032	1505.77	
288.15	.4489	.1032	1508.72	
298.15	0	.1032	1511.99	
298.15	.1125	.1032	1517.72	
298.15	.1499	.1032	1519.7	
298.15	.1941	.1032	1522.02	
298.15	.2512	.1032	1524.9	
298.15	.2933	.1032	1527.12	
298.15	.3525	.1032	1529.97	
298.15	.3953	.1032	1531.99	
298.15	.4489	.1032	1534.88	
308.15	0	.1032	1532.34	
308.15	.1125	.1032	1537.87	
308.15	.1499	.1032	1539.73	
308.15	.1941	.1032	1541.87	
308.15	.2512	.1032	1544.62	
308.15	.2933	.1032	1546.8	
308.15	.3525	.1032	1549.8	
308.15	.3953	.1032	1551.71	
308.15	.4489	.1032	1554.21	
318.15	0	.1032	1546.8	
318.15	.1125	.1032	1552.07	
318.15	.1499	.1032	1553.87	
318.15	.1941	.1032	1555.91	
318.15	.2512	.1032	1558.45	
318.15	.2933	.1032	1560.43	
318.15	.3525	.1032	1563.24	
318.15	.3953	.1032	1565.24	
318.15	.4489	.1032	1567.9	
288.15	0	.2005	1499.5	
288.15	.1192	.2005	1506.12	
288.15	.1525	.2005	1507.94	
288.15	.1913	.2005	1510.1	
288.15	.2434	.2005	1512.99	
288.15	.2908	.2005	1515.6	
288.15	.3515	.2005	1518.91	
288.15	.3936	.2005	1521.27	
288.15	.4444	.2005	1524.12	
298.15	0	.2005	1524.77	
298.15	.1192	.2005	1531.12	
298.15	.1525	.2005	1532.89	
298.15	.1913	.2005	1534.97	
298.15	.2434	.2005	1537.7	
298.15	.2908	.2005	1540.22	
298.15	.3515	.2005	1543.41	
298.15	.3936	.2005	1545.69	
298.15	.4444	.2005	1548.35	
308.15	0	.2005	1543.34	
308.15	.1192	.2005	1549.3	
308.15	.1525	.2005	1551.03	
308.15	.1913	.2005	1552.99	
308.15	.2434	.2005	1555.57	
308.15	.2908	.2005	1557.98	
308.15	.3515	.2005	1560.99	
308.15	.3936	.2005	1563.12	
308.15	.4444	.2005	1565.53	
318.15	0	.2005	1555.99	
318.15	.1192	.2005	1561.7	
318.15	.1525	.2005	1563.3	
318.15	.1913	.2005	1565.21	
318.15	.2434	.2005	1567.75	
318.15	.2908	.2005	1569.99	
318.15	.3515	.2005	1572.91	
318.15	.3936	.2005	1574.84	
318.15	.4444	.2005	1577.26	
288.15	0	.2965	1513.86	
288.15	.1067	.2965	1519.7	
288.15	.1548	.2965	1522.25	
288.15	.2031	.2965	1524.84	
288.15	.2543	.2965	1527.54	
288.15	.2988	.2965	1529.9	
288.15	.3429	.2965	1532.23	
288.15	.4008	.2965	1535.17	
288.15	.4458	.2965	1537.43	
298.15	0	.2965	1537	
298.15	.1067	.2965	1542.6	
298.15	.1548	.2965	1545.06	
298.15	.2031	.2965	1547.62	
298.15	.2543	.2965	1550.26	
298.15	.2988	.2965	1552.52	
298.15	.3429	.2965	1554.58	
298.15	.4008	.2965	1557.52	
298.15	.4458	.2965	1559.68	
308.15	0	.2965	1553.79	
308.15	.1067	.2965	1559.02	
308.15	.1548	.2965	1561.39	
308.15	.2031	.2965	1563.74	
308.15	.2543	.2965	1566.1	
308.15	.2988	.2965	1568.38	
308.15	.3429	.2965	1570.29	
308.15	.4008	.2965	1573.13	
308.15	.4458	.2965	1575.26	
318.15	0	.2965	1565.04	
318.15	.1067	.2965	1569.99	
318.15	.1548	.2965	1572.1	
318.15	.2031	.2965	1574.31	
318.15	.2543	.2965	1576.61	
318.15	.2988	.2965	1578.53	
318.15	.3429	.2965	1580.44	
318.15	.4008	.2965	1582.94	
318.15	.4458	.2965	1584.96	
288.15	0	0	1466.65	
288.15	.1142	0	1473	
288.15	.1525	0	1475.17	
288.15	.1962	0	1477.5	
288.15	.2484	0	1480.28	
288.15	.3032	0	1483.16	
288.15	.3537	0	1485.96	
288.15	.4004	0	1488.47	
288.15	.4496	0	1491.08	
298.15	0	0	1496.86	
298.15	.1142	0	1502.82	
298.15	.1525	0	1504.76	
298.15	.1962	0	1507.12	
298.15	.2484	0	1509.88	
298.15	.3032	0	1512.78	
298.15	.3537	0	1515.18	
298.15	.4004	0	1517.56	
298.15	.4496	0	1519.96	
308.15	0	0	1519.74	
308.15	.1142	0	1525.51	
308.15	.1525	0	1527.3	
308.15	.1962	0	1529.37	
308.15	.2484	0	1531.89	
308.15	.3032	0	1534.38	
308.15	.3537	0	1537.03	
308.15	.4004	0	1539.17	
308.15	.4496	0	1541.83	
318.15	0	0	1536.36	
318.15	.1142	0	1541.86	
318.15	.1525	0	1543.63	
318.15	.1962	0	1545.55	
318.15	.2484	0	1547.91	
318.15	.3032	0	1550.39	
318.15	.3537	0	1552.8	
318.15	.4004	0	1554.9	
318.15	.4496	0	1557.2	

System: glycine + water + 1-butyl-3-methylimidazolium salicylate; phases: Liquid
Fixed: Pressure, kPa = 86.8
Property: Viscosity, Pa*s (Liquid); method: Falling or rolling sphere viscometry
Temperature, K	Molality, mol/kg of glycine	Solvent: Molality, mol/kg of 1-butyl-3-methylimidazolium salicylate	Viscosity, Pa*s	uncertainty
288.15	0	0	.00113	
288.15	.1142	0	.001146	
288.15	.1525	0	.001152	
288.15	.1962	0	.001159	
288.15	.2484	0	.001168	
288.15	.3032	0	.001177	
288.15	.3537	0	.001184	
288.15	.4004	0	.001192	
288.15	.4496	0	.0012	
298.15	0	0	.000888	
298.15	.1142	0	.0009	
298.15	.1525	0	.000904	
298.15	.1962	0	.00091	
298.15	.2484	0	.000917	
298.15	.3032	0	.000924	
298.15	.3537	0	.000931	
298.15	.4004	0	.000937	
298.15	.4496	0	.000943	
308.15	0	0	.00072	
308.15	.1142	0	.000731	
308.15	.1525	0	.000734	
308.15	.1962	0	.000739	
308.15	.2484	0	.000744	
308.15	.3032	0	.00075	
308.15	.3537	0	.000755	
308.15	.4004	0	.00076	
308.15	.4496	0	.000765	
318.15	0	0	.000607	
318.15	.1142	0	.000618	
318.15	.1525	0	.000622	
318.15	.1962	0	.000626	
318.15	.2484	0	.000631	
318.15	.3032	0	.000636	
318.15	.3537	0	.000641	
318.15	.4004	0	.000646	
318.15	.4496	0	.000651	
288.15	0	.1012	.001289	
288.15	.1163	.1012	.001309	
288.15	.1545	.1012	.001317	
288.15	.2082	.1012	.001327	
288.15	.2708	.1012	.001339	
288.15	.3115	.1012	.001347	
288.15	.3735	.1012	.001358	
288.15	.4208	.1012	.001367	
288.15	.4772	.1012	.001377	
298.15	0	.1012	.001037	
298.15	.1163	.1012	.001054	
298.15	.1545	.1012	.00106	
298.15	.2082	.1012	.001067	
298.15	.2708	.1012	.001076	
298.15	.3115	.1012	.001083	
298.15	.3735	.1012	.001092	
298.15	.4208	.1012	.001098	
298.15	.4772	.1012	.001106	
308.15	0	.1012	.000869	
308.15	.1163	.1012	.000882	
308.15	.1545	.1012	.000887	
308.15	.2082	.1012	.000893	
308.15	.2708	.1012	.0009	
308.15	.3115	.1012	.000905	
308.15	.3735	.1012	.000912	
308.15	.4208	.1012	.000917	
308.15	.4772	.1012	.000924	
318.15	0	.1012	.000748	
318.15	.1163	.1012	.000761	
318.15	.1545	.1012	.000765	
318.15	.2082	.1012	.00077	
318.15	.2708	.1012	.000776	
318.15	.3115	.1012	.00078	
318.15	.3735	.1012	.000786	
318.15	.4208	.1012	.00079	
318.15	.4772	.1012	.000796	
288.15	0	.2146	.00144	
288.15	.1211	.2146	.001464	
288.15	.1509	.2146	.001471	
288.15	.1933	.2146	.001478	
288.15	.2509	.2146	.001488	
288.15	.2994	.2146	.001498	
288.15	.3608	.2146	.001509	
288.15	.4059	.2146	.001517	
288.15	.4498	.2146	.001525	
298.15	0	.2146	.001162	
298.15	.1211	.2146	.00118	
298.15	.1509	.2146	.001185	
298.15	.1933	.2146	.001192	
298.15	.2509	.2146	.001201	
298.15	.2994	.2146	.001207	
298.15	.3608	.2146	.001217	
298.15	.4059	.2146	.001223	
298.15	.4498	.2146	.001231	
308.15	0	.2146	.000986	
308.15	.1211	.2146	.001001	
308.15	.1509	.2146	.001005	
308.15	.1933	.2146	.00101	
308.15	.2509	.2146	.001017	
308.15	.2994	.2146	.001023	
308.15	.3608	.2146	.001031	
308.15	.4059	.2146	.001036	
308.15	.4498	.2146	.001043	
318.15	0	.2146	.000876	
318.15	.1211	.2146	.000891	
318.15	.1509	.2146	.000894	
318.15	.1933	.2146	.000898	
318.15	.2509	.2146	.000903	
318.15	.2994	.2146	.000908	
318.15	.3608	.2146	.000915	
318.15	.4059	.2146	.00092	
318.15	.4498	.2146	.000926	
288.15	0	.3152	.001536	
288.15	.1041	.3152	.001554	
288.15	.1417	.3152	.001562	
288.15	.198	.3152	.001572	
288.15	.2521	.3152	.001585	
288.15	.297	.3152	.001594	
288.15	.3499	.3152	.001606	
288.15	.3997	.3152	.001615	
288.15	.4467	.3152	.001626	
298.15	0	.3152	.001253	
298.15	.1041	.3152	.001269	
298.15	.1417	.3152	.001275	
298.15	.198	.3152	.001283	
298.15	.2521	.3152	.001293	
298.15	.297	.3152	.0013	
298.15	.3499	.3152	.00131	
298.15	.3997	.3152	.001318	
298.15	.4467	.3152	.001326	
308.15	0	.3152	.001076	
308.15	.1041	.3152	.001091	
308.15	.1417	.3152	.001095	
308.15	.198	.3152	.001101	
308.15	.2521	.3152	.001109	
308.15	.297	.3152	.001115	
308.15	.3499	.3152	.001123	
308.15	.3997	.3152	.001129	
308.15	.4467	.3152	.001136	
318.15	0	.3152	.00096	
318.15	.1041	.3152	.000973	
318.15	.1417	.3152	.000977	
318.15	.198	.3152	.000982	
318.15	.2521	.3152	.000988	
318.15	.297	.3152	.000993	
318.15	.3499	.3152	.001001	
318.15	.3997	.3152	.001005	
318.15	.4467	.3152	.001011	

System: glycine + water + 1-butyl-3-methylimidazolium salicylate; phases: Liquid
Fixed: Pressure, kPa = 86.8
Property: Refractive index (Na D-line) (Liquid); method: Standard Abbe refractometry
Temperature, K	Molality, mol/kg of glycine	Solvent: Molality, mol/kg of 1-butyl-3-methylimidazolium salicylate	Refractive index (Na D-line)	uncertainty
288.15	0	0	1.3329	
288.15	.1011	0	1.3342	
288.15	.1422	0	1.3347	
288.15	.1964	0	1.3353	
288.15	.2486	0	1.3359	
288.15	.3032	0	1.3366	
288.15	.3532	0	1.3372	
288.15	.4003	0	1.3377	
298.15	0	0	1.3323	
298.15	.1011	0	1.3336	
298.15	.1422	0	1.334	
298.15	.1964	0	1.3346	
298.15	.2486	0	1.3352	
298.15	.3032	0	1.3358	
298.15	.3532	0	1.3365	
298.15	.4003	0	1.3371	
308.15	0	0	1.3316	
308.15	.1011	0	1.3329	
308.15	.1422	0	1.3334	
308.15	.1964	0	1.334	
308.15	.2486	0	1.3346	
308.15	.3032	0	1.3352	
308.15	.3532	0	1.3357	
308.15	.4003	0	1.3363	
318.15	0	0	1.3305	
318.15	.1011	0	1.3318	
318.15	.1422	0	1.3323	
318.15	.1964	0	1.3329	
318.15	.2486	0	1.3335	
318.15	.3032	0	1.3342	
318.15	.3532	0	1.3348	
318.15	.4003	0	1.3354	
288.15	0	.1032	1.3381	
288.15	.1499	.1032	1.34	
288.15	.1941	.1032	1.3406	
288.15	.2512	.1032	1.3414	
288.15	.2933	.1032	1.3419	
288.15	.3525	.1032	1.3429	
288.15	.3953	.1032	1.3434	
288.15	.4489	.1032	1.3442	
298.15	0	.1032	1.3376	
298.15	.1499	.1032	1.3392	
298.15	.1941	.1032	1.3399	
298.15	.2512	.1032	1.3406	
298.15	.2933	.1032	1.3411	
298.15	.3525	.1032	1.3421	
298.15	.3953	.1032	1.3426	
298.15	.4489	.1032	1.3434	
308.15	0	.1032	1.3365	
308.15	.1499	.1032	1.3382	
308.15	.1941	.1032	1.3388	
308.15	.2512	.1032	1.3396	
308.15	.2933	.1032	1.3401	
308.15	.3525	.1032	1.341	
308.15	.3953	.1032	1.3414	
308.15	.4489	.1032	1.3421	
318.15	0	.1032	1.335	
318.15	.1499	.1032	1.3368	
318.15	.1941	.1032	1.3374	
318.15	.2512	.1032	1.3382	
318.15	.2933	.1032	1.3387	
318.15	.3525	.1032	1.3396	
318.15	.3953	.1032	1.34	
318.15	.4489	.1032	1.3407	
288.15	0	.2005	1.3429	
288.15	.1525	.2005	1.3451	
288.15	.1913	.2005	1.3456	
288.15	.2434	.2005	1.3463	
288.15	.2908	.2005	1.3468	
288.15	.3515	.2005	1.3476	
288.15	.3936	.2005	1.3482	
288.15	.4444	.2005	1.3489	
298.15	0	.2005	1.342	
298.15	.1525	.2005	1.3442	
298.15	.1913	.2005	1.3447	
298.15	.2434	.2005	1.3454	
298.15	.2908	.2005	1.3459	
298.15	.3515	.2005	1.3467	
298.15	.3936	.2005	1.3472	
298.15	.4444	.2005	1.3479	
308.15	0	.2005	1.3408	
308.15	.1525	.2005	1.343	
308.15	.1913	.2005	1.3435	
308.15	.2434	.2005	1.3442	
308.15	.2908	.2005	1.3447	
308.15	.3515	.2005	1.3454	
308.15	.3936	.2005	1.3459	
308.15	.4444	.2005	1.3467	
318.15	0	.2005	1.3395	
318.15	.1525	.2005	1.3414	
318.15	.1913	.2005	1.342	
318.15	.2434	.2005	1.3427	
318.15	.2908	.2005	1.3431	
318.15	.3515	.2005	1.3439	
318.15	.3936	.2005	1.3445	
318.15	.4444	.2005	1.3453	
288.15	0	.2965	1.3479	
288.15	.1548	.2965	1.3497	
288.15	.2031	.2965	1.3503	
288.15	.2543	.2965	1.351	
288.15	.2988	.2965	1.3515	
288.15	.4008	.2965	1.3527	
288.15	.4458	.2965	1.3534	
298.15	0	.2965	1.3468	
298.15	.1548	.2965	1.3489	
298.15	.2031	.2965	1.3494	
298.15	.2543	.2965	1.3501	
298.15	.2988	.2965	1.3506	
298.15	.4008	.2965	1.3518	
298.15	.4458	.2965	1.3524	
308.15	0	.2965	1.3456	
308.15	.1548	.2965	1.3478	
308.15	.2031	.2965	1.3483	
308.15	.2543	.2965	1.3489	
308.15	.2988	.2965	1.3494	
308.15	.4008	.2965	1.3506	
308.15	.4458	.2965	1.3514	
318.15	0	.2965	1.344	
318.15	.1548	.2965	1.3463	
318.15	.2031	.2965	1.3468	
318.15	.2543	.2965	1.3475	
318.15	.2988	.2965	1.3479	
318.15	.4008	.2965	1.349	
318.15	.4458	.2965	1.3497	

System: water + 1-butyl-3-methylimidazolium salicylate; phases: Liquid
Fixed: Frequency, MHz = 3
Property: Speed of sound, m/s (Liquid); method: Sing-around technique in a fixed-path interferometer
Temperature, K	Molality, mol/kg of 1-butyl-3-methylimidazolium salicylate	Pressure, kPa	Speed of sound, m/s	uncertainty
288.15	.1055	86.8	1484.38	
298.15	.1055	86.8	1511.92	
308.15	.1055	86.8	1532.44	
318.15	.1055	86.8	1547.3	
288.15	.2001	86.8	1499.08	
298.15	.2001	86.8	1524.51	
308.15	.2001	86.8	1543.55	
318.15	.2001	86.8	1555.88	
288.15	.3002	86.8	1513.56	
298.15	.3002	86.8	1536.99	
308.15	.3002	86.8	1553.78	
318.15	.3002	86.8	1564.82	
288.15	.1032	86.8	1484.42	
298.15	.1032	86.8	1511.99	
308.15	.1032	86.8	1532.34	
318.15	.1032	86.8	1546.8	
288.15	.2005	86.8	1499.5	
298.15	.2005	86.8	1524.77	
308.15	.2005	86.8	1543.34	
318.15	.2005	86.8	1555.99	
288.15	.2965	86.8	1513.86	
298.15	.2965	86.8	1537	
308.15	.2965	86.8	1553.79	
318.15	.2965	86.8	1565.04	
288.15	0	86.8	1466.65	
298.15	0	86.8	1496.86	
308.15	0	86.8	1519.74	
318.15	0	86.8	1536.36	

System: water + 1-butyl-3-methylimidazolium salicylate; phases: Liquid
Property: Refractive index (Na D-line) (Liquid); method: Standard Abbe refractometry
Temperature, K	Molality, mol/kg of 1-butyl-3-methylimidazolium salicylate	Pressure, kPa	Refractive index (Na D-line)	uncertainty
288.15	.1055	86.8	1.3383	
298.15	.1055	86.8	1.3376	
308.15	.1055	86.8	1.3365	
318.15	.1055	86.8	1.3352	
288.15	.2001	86.8	1.3427	
298.15	.2001	86.8	1.342	
308.15	.2001	86.8	1.3407	
318.15	.2001	86.8	1.3393	
288.15	.3002	86.8	1.3479	
298.15	.3002	86.8	1.3468	
308.15	.3002	86.8	1.3455	
318.15	.3002	86.8	1.344	
288.15	.1032	86.8	1.3381	
298.15	.1032	86.8	1.3376	
308.15	.1032	86.8	1.3365	
318.15	.1032	86.8	1.335	
288.15	.2005	86.8	1.3429	
298.15	.2005	86.8	1.342	
308.15	.2005	86.8	1.3408	
318.15	.2005	86.8	1.3395	
288.15	.2965	86.8	1.3479	
298.15	.2965	86.8	1.3468	
308.15	.2965	86.8	1.3456	
318.15	.2965	86.8	1.344	
288.15	0	86.8	1.3329	
298.15	0	86.8	1.3323	
308.15	0	86.8	1.3316	
318.15	0	86.8	1.3305	

System: water + 1-butyl-3-methylimidazolium salicylate; phases: Liquid
Property: Viscosity, Pa*s (Liquid); method: Falling or rolling sphere viscometry
Temperature, K	Molality, mol/kg of 1-butyl-3-methylimidazolium salicylate	Pressure, kPa	Viscosity, Pa*s	uncertainty
288.15	.1032	86.8	.001296	
298.15	.1032	86.8	.001042	
308.15	.1032	86.8	.000872	
318.15	.1032	86.8	.000751	
288.15	.2124	86.8	.001432	
298.15	.2124	86.8	.001159	
308.15	.2124	86.8	.000981	
318.15	.2124	86.8	.00087	
288.15	.3146	86.8	.001535	
298.15	.3146	86.8	.001256	
308.15	.3146	86.8	.001078	
318.15	.3146	86.8	.000962	
288.15	.1012	86.8	.001289	
298.15	.1012	86.8	.001037	
308.15	.1012	86.8	.000869	
318.15	.1012	86.8	.000748	
288.15	.2146	86.8	.00144	
298.15	.2146	86.8	.001162	
308.15	.2146	86.8	.000986	
318.15	.2146	86.8	.000876	
288.15	.3152	86.8	.001536	
298.15	.3152	86.8	.001253	
308.15	.3152	86.8	.001076	
318.15	.3152	86.8	.00096	

System: water + 1-butyl-3-methylimidazolium salicylate; phases: Liquid
Property: Mass density, kg/m3 (Liquid); method: Vibrating tube method
Temperature, K	Molality, mol/kg of 1-butyl-3-methylimidazolium salicylate	Pressure, kPa	Mass density, kg/m3	uncertainty
288.15	.1055	86.8	1005.04	
298.15	.1055	86.8	1002.65	
308.15	.1055	86.8	999.44	
318.15	.1055	86.8	995.43	
288.15	.2001	86.8	1010.28	
298.15	.2001	86.8	1007.67	
308.15	.2001	86.8	1004.28	
318.15	.2001	86.8	1000.19	
288.15	.3002	86.8	1015.82	
298.15	.3002	86.8	1012.91	
308.15	.3002	86.8	1009.41	
318.15	.3002	86.8	1004.98	
288.15	.1032	86.8	1004.94	
298.15	.1032	86.8	1002.65	
308.15	.1032	86.8	999.4	
318.15	.1032	86.8	995.42	
288.15	.2005	86.8	1010.45	
298.15	.2005	86.8	1007.91	
308.15	.2005	86.8	1004.44	
318.15	.2005	86.8	1000.27	
288.15	.2965	86.8	1015.79	
298.15	.2965	86.8	1012.99	
308.15	.2965	86.8	1009.39	
318.15	.2965	86.8	1005.07	
288.15	0	86.8	999.09	
298.15	0	86.8	997.05	
308.15	0	86.8	994.03	
318.15	0	86.8	990.2	
