Measured thermophysical data. Effect of halogen substitution on the enthalpies of solvation and hydrogen bonding of organic solutes in chlorobenzene and 1,2-dichlorobenzene derived using multi-parameter correlations
Source: Thermochim. Acta, 2015, 10.1016/j.tca.2015.08.015
Compound 1: chlorobenzene, C6H5Cl, purity 99.5%
Compound 2: 1,2-dichlorobenzene, C6H4Cl2, purity 99.5%
Compound 3: acetone, C3H6O, purity 99%
Compound 4: benzonitrile, C7H5N, purity 98%
Compound 5: butyl acetate, C6H12O2, purity 98%
Compound 6: butan-1-ol, C4H10O, purity 99%
Compound 7: butyl benzoate, C11H14O2, purity 99%
Compound 8: butyronitrile, C4H7N, purity 98%
Compound 9: 2-chlorophenol, C6H5ClO, purity 98%
Compound 10: decane, C10H22, purity 99%
Compound 11: 1-decanol, C10H22O, purity 98%
Compound 12: dichloromethane, CH2Cl2, purity 99%
Compound 13: N,N-dimethylacetamide, C4H9NO, purity 98%
Compound 14: 1,3-dimethoxy-2-hydroxybenzene, C8H10O3, purity 97%
Compound 15: n-dodecane, C12H26, purity 99%
Compound 16: ethyl acetate, C4H8O2, purity 99%
Compound 17: ethyl benzoate, C9H10O2, purity 98%
Compound 18: ethyl salicylate, C9H10O3, purity 98%
Compound 19: n-heptane, C7H16, purity 99%
Compound 20: 2-heptanone, C7H14O, purity 98%
Compound 21: 1-hexanol, C6H14O, purity 98%
Compound 22: indole, C8H7N, purity 98%
Compound 23: mesitylene, C9H12, purity 97%
Compound 24: 2-methoxyphenol, C7H8O2, purity 98%
Compound 25: 3-methoxyphenol, C7H8O2, purity 97%
Compound 26: 4-methoxyphenol, C7H8O2, purity 97%
Compound 27: methyl acetate, C3H6O2, purity 99%
Compound 28: methyl benzoate, C8H8O2, purity 98%
Compound 29: methyl propionate, C4H8O2, purity 99%
Compound 30: methyl salicylate, C8H8O3, purity 98%
Compound 31: n-nonane, C9H20, purity 99%
Compound 32: 2-nonanone, C9H18O, purity 98%
Compound 33: n-octane, C8H18, purity 99%
Compound 34: 2-octanone, C8H16O, purity 98%
Compound 35: 1-octanol, C8H18O, purity 98%
Compound 36: 1-pentanol, C5H12O, purity 98%
Compound 37: 2-pentanone, C5H10O, purity 98%
Compound 38: 3-picoline, C6H7N, purity 98%
Compound 39: 4-picoline, C6H7N, purity 98%
Compound 40: propionitrile, C3H5N, purity 98%
Compound 41: propyl acetate, C5H10O2, purity 98%
Compound 42: propyl benzoate, C10H12O2, purity 97%
Compound 43: pyrazole, C3H4N2, purity 98%
Compound 44: tetrachloromethane, CCl4, purity 99.5%
Compound 45: trichloromethane, CHCl3, purity 98%
Compound 46: acetonitrile, C2H3N, purity 99%
Compound 47: acetophenone, C8H8O, purity 98%
Compound 48: anisole, C7H8O, purity 98%
Compound 49: aniline, C6H7N, purity 99%
Compound 50: anthracene, C14H10, purity 99%
Compound 51: benzophenone, C13H10O, purity 99%
Compound 52: biphenyl, C12H10, purity 99%
Compound 53: bromobenzene, C6H5Br, purity 98%
Compound 54: butanone, C4H8O, purity 98%
Compound 55: 1-chlorobutane, C4H9Cl, purity 98%
Compound 56: di-n-butyl ether, C8H18O, purity 98%
Compound 57: 1,2-dichloropropane, C3H6Cl2, purity 98%
Compound 58: 1,4-dioxane, C4H8O2, purity 98%
Compound 59: diethyl ether, C4H10O, purity 98%
Compound 60: N,N-dimethylformamide, C3H7NO, purity 98%
Compound 61: ethanol, C2H6O, purity 98%
Compound 62: fluorobenzene, C6H5F, purity 99%
Compound 63: n-hexane, C6H14, purity 99%
Compound 64: 2-hydroxyacetophenone, C8H8O2, purity 98%
Compound 65: methanol, CH4O, purity 98%
Compound 66: naphthalene, C10H8, purity 98%
Compound 67: 2-picoline, C6H7N, purity 98%
Compound 68: 1-propanol, C3H8O, purity 98%
Compound 69: pyridine, C5H5N, purity 98%
Compound 70: tetrahydrofuran, C4H8O, purity 98%
Compound 71: tri-n-butylamine, C12H27N, purity 98%
Compound 72: o-xylene, C8H10, purity 99%
Compound 73: m-xylene, C8H10, purity 98%
Compound 74: p-xylene, C8H10, purity 99%

System: acetone + chlorobenzene; phases: Liquid
Fixed: Temperature, K = 298.15
Fixed: Pressure, kPa = 100
Property: Molar enthalpy of solution, kJ/mol (Liquid); method: Titration calorimetry
Mole fraction of acetone	Molar enthalpy of solution, kJ/mol	uncertainty
0	-.01	

System: benzonitrile + chlorobenzene; phases: Liquid
Fixed: Temperature, K = 298.15
Fixed: Pressure, kPa = 100
Property: Molar enthalpy of solution, kJ/mol (Liquid); method: Titration calorimetry
Mole fraction of benzonitrile	Molar enthalpy of solution, kJ/mol	uncertainty
0	.52	

System: chlorobenzene + butyl acetate; phases: Liquid
Fixed: Temperature, K = 298.15
Fixed: Pressure, kPa = 100
Property: Molar enthalpy of solution, kJ/mol (Liquid); method: Titration calorimetry
Mole fraction of butyl acetate	Molar enthalpy of solution, kJ/mol	uncertainty
0	-1.61	

System: butan-1-ol + chlorobenzene; phases: Liquid
Fixed: Temperature, K = 298.15
Fixed: Pressure, kPa = 100
Property: Molar enthalpy of solution, kJ/mol (Liquid); method: Titration calorimetry
Mole fraction of butan-1-ol	Molar enthalpy of solution, kJ/mol	uncertainty
0	15.87	

System: chlorobenzene + butyl benzoate; phases: Liquid
Fixed: Temperature, K = 298.15
Fixed: Pressure, kPa = 100
Property: Molar enthalpy of solution, kJ/mol (Liquid); method: Titration calorimetry
Mole fraction of butyl benzoate	Molar enthalpy of solution, kJ/mol	uncertainty
0	-.64	

System: chlorobenzene + butyronitrile; phases: Liquid
Fixed: Temperature, K = 298.15
Fixed: Pressure, kPa = 100
Property: Molar enthalpy of solution, kJ/mol (Liquid); method: Titration calorimetry
Mole fraction of butyronitrile	Molar enthalpy of solution, kJ/mol	uncertainty
0	.08	

System: 2-chlorophenol + chlorobenzene; phases: Liquid
Fixed: Temperature, K = 298.15
Fixed: Pressure, kPa = 100
Property: Molar enthalpy of solution, kJ/mol (Liquid); method: Titration calorimetry
Mole fraction of 2-chlorophenol	Molar enthalpy of solution, kJ/mol	uncertainty
0	-4.84	

System: chlorobenzene + decane; phases: Liquid
Fixed: Temperature, K = 298.15
Fixed: Pressure, kPa = 100
Property: Molar enthalpy of solution, kJ/mol (Liquid); method: Titration calorimetry
Mole fraction of decane	Molar enthalpy of solution, kJ/mol	uncertainty
0	3.62	

System: chlorobenzene + 1-decanol; phases: Liquid
Fixed: Temperature, K = 298.15
Fixed: Pressure, kPa = 100
Property: Molar enthalpy of solution, kJ/mol (Liquid); method: Titration calorimetry
Mole fraction of 1-decanol	Molar enthalpy of solution, kJ/mol	uncertainty
0	15.27	

System: dichloromethane + chlorobenzene; phases: Liquid
Fixed: Temperature, K = 298.15
Fixed: Pressure, kPa = 100
Property: Molar enthalpy of solution, kJ/mol (Liquid); method: Titration calorimetry
Mole fraction of dichloromethane	Molar enthalpy of solution, kJ/mol	uncertainty
0	.32	

System: chlorobenzene + N,N-dimethylacetamide; phases: Liquid
Fixed: Temperature, K = 298.15
Fixed: Pressure, kPa = 100
Property: Molar enthalpy of solution, kJ/mol (Liquid); method: Titration calorimetry
Mole fraction of N,N-dimethylacetamide	Molar enthalpy of solution, kJ/mol	uncertainty
0	-2.55	

System: 1,3-dimethoxy-2-hydroxybenzene + chlorobenzene; phases: Liquid
Fixed: Temperature, K = 298.15
Fixed: Pressure, kPa = 100
Property: Molar enthalpy of solution, kJ/mol (Liquid); method: Isoperibol calorimetry
Mole fraction of 1,3-dimethoxy-2-hydroxybenzene	Molar enthalpy of solution, kJ/mol	uncertainty
0	20.18	

System: chlorobenzene + n-dodecane; phases: Liquid
Fixed: Temperature, K = 298.15
Fixed: Pressure, kPa = 100
Property: Molar enthalpy of solution, kJ/mol (Liquid); method: Titration calorimetry
Mole fraction of n-dodecane	Molar enthalpy of solution, kJ/mol	uncertainty
0	4.27	

System: chlorobenzene + ethyl acetate; phases: Liquid
Fixed: Temperature, K = 298.15
Fixed: Pressure, kPa = 100
Property: Molar enthalpy of solution, kJ/mol (Liquid); method: Titration calorimetry
Mole fraction of ethyl acetate	Molar enthalpy of solution, kJ/mol	uncertainty
0	-.78	

System: ethyl benzoate + chlorobenzene; phases: Liquid
Fixed: Temperature, K = 298.15
Fixed: Pressure, kPa = 100
Property: Molar enthalpy of solution, kJ/mol (Liquid); method: Titration calorimetry
Mole fraction of ethyl benzoate	Molar enthalpy of solution, kJ/mol	uncertainty
0	-.44	

System: chlorobenzene + ethyl salicylate; phases: Liquid
Fixed: Temperature, K = 298.15
Fixed: Pressure, kPa = 100
Property: Molar enthalpy of solution, kJ/mol (Liquid); method: Titration calorimetry
Mole fraction of ethyl salicylate	Molar enthalpy of solution, kJ/mol	uncertainty
0	.09	

System: chlorobenzene + n-heptane; phases: Liquid
Fixed: Temperature, K = 298.15
Fixed: Pressure, kPa = 100
Property: Molar enthalpy of solution, kJ/mol (Liquid); method: Titration calorimetry
Mole fraction of n-heptane	Molar enthalpy of solution, kJ/mol	uncertainty
0	2.77	

System: chlorobenzene + 2-heptanone; phases: Liquid
Fixed: Temperature, K = 298.15
Fixed: Pressure, kPa = 100
Property: Molar enthalpy of solution, kJ/mol (Liquid); method: Titration calorimetry
Mole fraction of 2-heptanone	Molar enthalpy of solution, kJ/mol	uncertainty
0	-1.64	

System: chlorobenzene + 1-hexanol; phases: Liquid
Fixed: Temperature, K = 298.15
Fixed: Pressure, kPa = 100
Property: Molar enthalpy of solution, kJ/mol (Liquid); method: Titration calorimetry
Mole fraction of 1-hexanol	Molar enthalpy of solution, kJ/mol	uncertainty
0	15.19	

System: chlorobenzene + indole; phases: Liquid
Fixed: Temperature, K = 298.15
Fixed: Pressure, kPa = 100
Property: Molar enthalpy of solution, kJ/mol (Liquid); method: Isoperibol calorimetry
Mole fraction of indole	Molar enthalpy of solution, kJ/mol	uncertainty
0	13.62	

System: mesitylene + chlorobenzene; phases: Liquid
Fixed: Temperature, K = 298.15
Fixed: Pressure, kPa = 100
Property: Molar enthalpy of solution, kJ/mol (Liquid); method: Titration calorimetry
Mole fraction of mesitylene	Molar enthalpy of solution, kJ/mol	uncertainty
0	-.09	

System: 2-methoxyphenol + chlorobenzene; phases: Liquid
Fixed: Temperature, K = 298.15
Fixed: Pressure, kPa = 100
Property: Molar enthalpy of solution, kJ/mol (Liquid); method: Titration calorimetry
Mole fraction of 2-methoxyphenol	Molar enthalpy of solution, kJ/mol	uncertainty
0	4.69	

System: chlorobenzene + 3-methoxyphenol; phases: Liquid
Fixed: Temperature, K = 298.15
Fixed: Pressure, kPa = 100
Property: Molar enthalpy of solution, kJ/mol (Liquid); method: Titration calorimetry
Mole fraction of 3-methoxyphenol	Molar enthalpy of solution, kJ/mol	uncertainty
0	6.95	

System: chlorobenzene + 4-methoxyphenol; phases: Liquid
Fixed: Temperature, K = 298.15
Fixed: Pressure, kPa = 100
Property: Molar enthalpy of solution, kJ/mol (Liquid); method: Isoperibol calorimetry
Mole fraction of 4-methoxyphenol	Molar enthalpy of solution, kJ/mol	uncertainty
0	26.43	

System: methyl acetate + chlorobenzene; phases: Liquid
Fixed: Temperature, K = 298.15
Fixed: Pressure, kPa = 100
Property: Molar enthalpy of solution, kJ/mol (Liquid); method: Titration calorimetry
Mole fraction of methyl acetate	Molar enthalpy of solution, kJ/mol	uncertainty
0	.16	

System: methyl benzoate + chlorobenzene; phases: Liquid
Fixed: Temperature, K = 298.15
Fixed: Pressure, kPa = 100
Property: Molar enthalpy of solution, kJ/mol (Liquid); method: Titration calorimetry
Mole fraction of methyl benzoate	Molar enthalpy of solution, kJ/mol	uncertainty
0	.09	

System: chlorobenzene + methyl propionate; phases: Liquid
Fixed: Temperature, K = 298.15
Fixed: Pressure, kPa = 100
Property: Molar enthalpy of solution, kJ/mol (Liquid); method: Titration calorimetry
Mole fraction of methyl propionate	Molar enthalpy of solution, kJ/mol	uncertainty
0	-.34	

System: chlorobenzene + methyl salicylate; phases: Liquid
Fixed: Temperature, K = 298.15
Fixed: Pressure, kPa = 100
Property: Molar enthalpy of solution, kJ/mol (Liquid); method: Titration calorimetry
Mole fraction of methyl salicylate	Molar enthalpy of solution, kJ/mol	uncertainty
0	1.03	

System: chlorobenzene + n-nonane; phases: Liquid
Fixed: Temperature, K = 298.15
Fixed: Pressure, kPa = 100
Property: Molar enthalpy of solution, kJ/mol (Liquid); method: Titration calorimetry
Mole fraction of n-nonane	Molar enthalpy of solution, kJ/mol	uncertainty
0	3.39	

System: chlorobenzene + 2-nonanone; phases: Liquid
Fixed: Temperature, K = 298.15
Fixed: Pressure, kPa = 100
Property: Molar enthalpy of solution, kJ/mol (Liquid); method: Titration calorimetry
Mole fraction of 2-nonanone	Molar enthalpy of solution, kJ/mol	uncertainty
0	-1.43	

System: chlorobenzene + n-octane; phases: Liquid
Fixed: Temperature, K = 298.15
Fixed: Pressure, kPa = 100
Property: Molar enthalpy of solution, kJ/mol (Liquid); method: Titration calorimetry
Mole fraction of n-octane	Molar enthalpy of solution, kJ/mol	uncertainty
0	3.08	

System: chlorobenzene + 2-octanone; phases: Liquid
Fixed: Temperature, K = 298.15
Fixed: Pressure, kPa = 100
Property: Molar enthalpy of solution, kJ/mol (Liquid); method: Titration calorimetry
Mole fraction of 2-octanone	Molar enthalpy of solution, kJ/mol	uncertainty
0	-1.43	

System: chlorobenzene + 1-octanol; phases: Liquid
Fixed: Temperature, K = 298.15
Fixed: Pressure, kPa = 100
Property: Molar enthalpy of solution, kJ/mol (Liquid); method: Titration calorimetry
Mole fraction of 1-octanol	Molar enthalpy of solution, kJ/mol	uncertainty
0	15.11	

System: 1-pentanol + chlorobenzene; phases: Liquid
Fixed: Temperature, K = 298.15
Fixed: Pressure, kPa = 100
Property: Molar enthalpy of solution, kJ/mol (Liquid); method: Titration calorimetry
Mole fraction of 1-pentanol	Molar enthalpy of solution, kJ/mol	uncertainty
0	15.22	

System: 2-pentanone + chlorobenzene; phases: Liquid
Fixed: Temperature, K = 298.15
Fixed: Pressure, kPa = 100
Property: Molar enthalpy of solution, kJ/mol (Liquid); method: Titration calorimetry
Mole fraction of 2-pentanone	Molar enthalpy of solution, kJ/mol	uncertainty
0	-1.24	

System: chlorobenzene + 3-picoline; phases: Liquid
Fixed: Temperature, K = 298.15
Fixed: Pressure, kPa = 100
Property: Molar enthalpy of solution, kJ/mol (Liquid); method: Titration calorimetry
Mole fraction of 3-picoline	Molar enthalpy of solution, kJ/mol	uncertainty
0	-.39	

System: 4-picoline + chlorobenzene; phases: Liquid
Fixed: Temperature, K = 298.15
Fixed: Pressure, kPa = 100
Property: Molar enthalpy of solution, kJ/mol (Liquid); method: Titration calorimetry
Mole fraction of 4-picoline	Molar enthalpy of solution, kJ/mol	uncertainty
0	.06	

System: propionitrile + chlorobenzene; phases: Liquid
Fixed: Temperature, K = 298.15
Fixed: Pressure, kPa = 100
Property: Molar enthalpy of solution, kJ/mol (Liquid); method: Titration calorimetry
Mole fraction of propionitrile	Molar enthalpy of solution, kJ/mol	uncertainty
0	.73	

System: chlorobenzene + propyl acetate; phases: Liquid
Fixed: Temperature, K = 298.15
Fixed: Pressure, kPa = 100
Property: Molar enthalpy of solution, kJ/mol (Liquid); method: Titration calorimetry
Mole fraction of propyl acetate	Molar enthalpy of solution, kJ/mol	uncertainty
0	-1.25	

System: chlorobenzene + propyl benzoate; phases: Liquid
Fixed: Temperature, K = 298.15
Fixed: Pressure, kPa = 100
Property: Molar enthalpy of solution, kJ/mol (Liquid); method: Titration calorimetry
Mole fraction of propyl benzoate	Molar enthalpy of solution, kJ/mol	uncertainty
0	-.66	

System: chlorobenzene + pyrazole; phases: Liquid
Fixed: Temperature, K = 298.15
Fixed: Pressure, kPa = 100
Property: Molar enthalpy of solution, kJ/mol (Liquid); method: Isoperibol calorimetry
Mole fraction of pyrazole	Molar enthalpy of solution, kJ/mol	uncertainty
0	26.6	

System: tetrachloromethane + chlorobenzene; phases: Liquid
Fixed: Temperature, K = 298.15
Fixed: Pressure, kPa = 100
Property: Molar enthalpy of solution, kJ/mol (Liquid); method: Titration calorimetry
Mole fraction of tetrachloromethane	Molar enthalpy of solution, kJ/mol	uncertainty
0	-.25	

System: trichloromethane + chlorobenzene; phases: Liquid
Fixed: Temperature, K = 298.15
Fixed: Pressure, kPa = 100
Property: Molar enthalpy of solution, kJ/mol (Liquid); method: Titration calorimetry
Mole fraction of trichloromethane	Molar enthalpy of solution, kJ/mol	uncertainty
0	-.6	

System: acetonitrile + 1,2-dichlorobenzene; phases: Liquid
Fixed: Temperature, K = 298.15
Fixed: Pressure, kPa = 100
Property: Molar enthalpy of solution, kJ/mol (Liquid); method: Titration calorimetry
Mole fraction of acetonitrile	Molar enthalpy of solution, kJ/mol	uncertainty
0	3.23	

System: acetone + 1,2-dichlorobenzene; phases: Liquid
Fixed: Temperature, K = 298.15
Fixed: Pressure, kPa = 100
Property: Molar enthalpy of solution, kJ/mol (Liquid); method: Titration calorimetry
Mole fraction of acetone	Molar enthalpy of solution, kJ/mol	uncertainty
0	.55	

System: 1,2-dichlorobenzene + acetophenone; phases: Liquid
Fixed: Temperature, K = 298.15
Fixed: Pressure, kPa = 100
Property: Molar enthalpy of solution, kJ/mol (Liquid); method: Titration calorimetry
Mole fraction of acetophenone	Molar enthalpy of solution, kJ/mol	uncertainty
0	.78	

System: 1,2-dichlorobenzene + anisole; phases: Liquid
Fixed: Temperature, K = 298.15
Fixed: Pressure, kPa = 100
Property: Molar enthalpy of solution, kJ/mol (Liquid); method: Titration calorimetry
Mole fraction of anisole	Molar enthalpy of solution, kJ/mol	uncertainty
0	.42	

System: aniline + 1,2-dichlorobenzene; phases: Liquid
Fixed: Temperature, K = 298.15
Fixed: Pressure, kPa = 100
Property: Molar enthalpy of solution, kJ/mol (Liquid); method: Titration calorimetry
Mole fraction of aniline	Molar enthalpy of solution, kJ/mol	uncertainty
0	2.51	

System: 1,2-dichlorobenzene + anthracene; phases: Liquid
Fixed: Temperature, K = 298.15
Fixed: Pressure, kPa = 100
Property: Molar enthalpy of solution, kJ/mol (Liquid); method: Isoperibol calorimetry
Mole fraction of anthracene	Molar enthalpy of solution, kJ/mol	uncertainty
0	22.37	

System: 1,2-dichlorobenzene + benzonitrile; phases: Liquid
Fixed: Temperature, K = 298.15
Fixed: Pressure, kPa = 100
Property: Molar enthalpy of solution, kJ/mol (Liquid); method: Titration calorimetry
Mole fraction of benzonitrile	Molar enthalpy of solution, kJ/mol	uncertainty
0	.62	

System: 1,2-dichlorobenzene + benzophenone; phases: Liquid
Fixed: Temperature, K = 298.15
Fixed: Pressure, kPa = 100
Property: Molar enthalpy of solution, kJ/mol (Liquid); method: Isoperibol calorimetry
Mole fraction of benzophenone	Molar enthalpy of solution, kJ/mol	uncertainty
0	16.73	

System: biphenyl + 1,2-dichlorobenzene; phases: Liquid
Fixed: Temperature, K = 298.15
Fixed: Pressure, kPa = 100
Property: Molar enthalpy of solution, kJ/mol (Liquid); method: Isoperibol calorimetry
Mole fraction of biphenyl	Molar enthalpy of solution, kJ/mol	uncertainty
0	16.17	

System: 1,2-dichlorobenzene + bromobenzene; phases: Liquid
Fixed: Temperature, K = 298.15
Fixed: Pressure, kPa = 100
Property: Molar enthalpy of solution, kJ/mol (Liquid); method: Titration calorimetry
Mole fraction of bromobenzene	Molar enthalpy of solution, kJ/mol	uncertainty
0	.33	

System: butanone + 1,2-dichlorobenzene; phases: Liquid
Fixed: Temperature, K = 298.15
Fixed: Pressure, kPa = 100
Property: Molar enthalpy of solution, kJ/mol (Liquid); method: Titration calorimetry
Mole fraction of butanone	Molar enthalpy of solution, kJ/mol	uncertainty
0	-.46	

System: butan-1-ol + 1,2-dichlorobenzene; phases: Liquid
Fixed: Temperature, K = 298.15
Fixed: Pressure, kPa = 100
Property: Molar enthalpy of solution, kJ/mol (Liquid); method: Titration calorimetry
Mole fraction of butan-1-ol	Molar enthalpy of solution, kJ/mol	uncertainty
0	15.86	

System: 1,2-dichlorobenzene + butyl acetate; phases: Liquid
Fixed: Temperature, K = 298.15
Fixed: Pressure, kPa = 100
Property: Molar enthalpy of solution, kJ/mol (Liquid); method: Titration calorimetry
Mole fraction of butyl acetate	Molar enthalpy of solution, kJ/mol	uncertainty
0	-1	

System: 1,2-dichlorobenzene + butyl benzoate; phases: Liquid
Fixed: Temperature, K = 298.15
Fixed: Pressure, kPa = 100
Property: Molar enthalpy of solution, kJ/mol (Liquid); method: Titration calorimetry
Mole fraction of butyl benzoate	Molar enthalpy of solution, kJ/mol	uncertainty
0	-.71	

System: 1,2-dichlorobenzene + butyronitrile; phases: Liquid
Fixed: Temperature, K = 298.15
Fixed: Pressure, kPa = 100
Property: Molar enthalpy of solution, kJ/mol (Liquid); method: Titration calorimetry
Mole fraction of butyronitrile	Molar enthalpy of solution, kJ/mol	uncertainty
0	.82	

System: 1,2-dichlorobenzene + chlorobenzene; phases: Liquid
Fixed: Temperature, K = 298.15
Fixed: Pressure, kPa = 100
Property: Molar enthalpy of solution, kJ/mol (Liquid); method: Titration calorimetry
Mole fraction of chlorobenzene	Molar enthalpy of solution, kJ/mol	uncertainty
0	.26	

System: 1,2-dichlorobenzene + 1-chlorobutane; phases: Liquid
Fixed: Temperature, K = 298.15
Fixed: Pressure, kPa = 100
Property: Molar enthalpy of solution, kJ/mol (Liquid); method: Titration calorimetry
Mole fraction of 1-chlorobutane	Molar enthalpy of solution, kJ/mol	uncertainty
0	.1	

System: 1,2-dichlorobenzene + 2-chlorophenol; phases: Liquid
Fixed: Temperature, K = 298.15
Fixed: Pressure, kPa = 100
Property: Molar enthalpy of solution, kJ/mol (Liquid); method: Titration calorimetry
Mole fraction of 2-chlorophenol	Molar enthalpy of solution, kJ/mol	uncertainty
0	-3.21	

System: 1,2-dichlorobenzene + decane; phases: Liquid
Fixed: Temperature, K = 298.15
Fixed: Pressure, kPa = 100
Property: Molar enthalpy of solution, kJ/mol (Liquid); method: Titration calorimetry
Mole fraction of decane	Molar enthalpy of solution, kJ/mol	uncertainty
0	3.5	

System: 1,2-dichlorobenzene + 1-decanol; phases: Liquid
Fixed: Temperature, K = 298.15
Fixed: Pressure, kPa = 100
Property: Molar enthalpy of solution, kJ/mol (Liquid); method: Titration calorimetry
Mole fraction of 1-decanol	Molar enthalpy of solution, kJ/mol	uncertainty
0	15.6	

System: 1,2-dichlorobenzene + di-n-butyl ether; phases: Liquid
Fixed: Temperature, K = 298.15
Fixed: Pressure, kPa = 100
Property: Molar enthalpy of solution, kJ/mol (Liquid); method: Titration calorimetry
Mole fraction of di-n-butyl ether	Molar enthalpy of solution, kJ/mol	uncertainty
0	-.1	

System: 1,2-dichloropropane + 1,2-dichlorobenzene; phases: Liquid
Fixed: Temperature, K = 298.15
Fixed: Pressure, kPa = 100
Property: Molar enthalpy of solution, kJ/mol (Liquid); method: Titration calorimetry
Mole fraction of 1,2-dichloropropane	Molar enthalpy of solution, kJ/mol	uncertainty
0	1.16	

System: 1,2-dichlorobenzene + 1,4-dioxane; phases: Liquid
Fixed: Temperature, K = 298.15
Fixed: Pressure, kPa = 100
Property: Molar enthalpy of solution, kJ/mol (Liquid); method: Titration calorimetry
Mole fraction of 1,4-dioxane	Molar enthalpy of solution, kJ/mol	uncertainty
0	-.8	

System: 1,2-dichlorobenzene + n-dodecane; phases: Liquid
Fixed: Temperature, K = 298.15
Fixed: Pressure, kPa = 100
Property: Molar enthalpy of solution, kJ/mol (Liquid); method: Titration calorimetry
Mole fraction of n-dodecane	Molar enthalpy of solution, kJ/mol	uncertainty
0	3.98	

System: dichloromethane + 1,2-dichlorobenzene; phases: Liquid
Fixed: Temperature, K = 298.15
Fixed: Pressure, kPa = 100
Property: Molar enthalpy of solution, kJ/mol (Liquid); method: Titration calorimetry
Mole fraction of dichloromethane	Molar enthalpy of solution, kJ/mol	uncertainty
0	.95	

System: diethyl ether + 1,2-dichlorobenzene; phases: Liquid
Fixed: Temperature, K = 298.15
Fixed: Pressure, kPa = 100
Property: Molar enthalpy of solution, kJ/mol (Liquid); method: Titration calorimetry
Mole fraction of diethyl ether	Molar enthalpy of solution, kJ/mol	uncertainty
0	.92	

System: 1,3-dimethoxy-2-hydroxybenzene + 1,2-dichlorobenzene; phases: Liquid
Fixed: Temperature, K = 298.15
Fixed: Pressure, kPa = 100
Property: Molar enthalpy of solution, kJ/mol (Liquid); method: Isoperibol calorimetry
Mole fraction of 1,3-dimethoxy-2-hydroxybenzene	Molar enthalpy of solution, kJ/mol	uncertainty
0	20.65	

System: 1,2-dichlorobenzene + N,N-dimethylacetamide; phases: Liquid
Fixed: Temperature, K = 298.15
Fixed: Pressure, kPa = 100
Property: Molar enthalpy of solution, kJ/mol (Liquid); method: Titration calorimetry
Mole fraction of N,N-dimethylacetamide	Molar enthalpy of solution, kJ/mol	uncertainty
0	-2.21	

System: N,N-dimethylformamide + 1,2-dichlorobenzene; phases: Liquid
Fixed: Temperature, K = 298.15
Fixed: Pressure, kPa = 100
Property: Molar enthalpy of solution, kJ/mol (Liquid); method: Titration calorimetry
Mole fraction of N,N-dimethylformamide	Molar enthalpy of solution, kJ/mol	uncertainty
0	-.37	

System: ethanol + 1,2-dichlorobenzene; phases: Liquid
Fixed: Temperature, K = 298.15
Fixed: Pressure, kPa = 100
Property: Molar enthalpy of solution, kJ/mol (Liquid); method: Titration calorimetry
Mole fraction of ethanol	Molar enthalpy of solution, kJ/mol	uncertainty
0	15.96	

System: 1,2-dichlorobenzene + ethyl acetate; phases: Liquid
Fixed: Temperature, K = 298.15
Fixed: Pressure, kPa = 100
Property: Molar enthalpy of solution, kJ/mol (Liquid); method: Titration calorimetry
Mole fraction of ethyl acetate	Molar enthalpy of solution, kJ/mol	uncertainty
0	-.3	

System: ethyl benzoate + 1,2-dichlorobenzene; phases: Liquid
Fixed: Temperature, K = 298.15
Fixed: Pressure, kPa = 100
Property: Molar enthalpy of solution, kJ/mol (Liquid); method: Titration calorimetry
Mole fraction of ethyl benzoate	Molar enthalpy of solution, kJ/mol	uncertainty
0	-.28	

System: 1,2-dichlorobenzene + ethyl salicylate; phases: Liquid
Fixed: Temperature, K = 298.15
Fixed: Pressure, kPa = 100
Property: Molar enthalpy of solution, kJ/mol (Liquid); method: Titration calorimetry
Mole fraction of ethyl salicylate	Molar enthalpy of solution, kJ/mol	uncertainty
0	.1	

System: 1,2-dichlorobenzene + fluorobenzene; phases: Liquid
Fixed: Temperature, K = 298.15
Fixed: Pressure, kPa = 100
Property: Molar enthalpy of solution, kJ/mol (Liquid); method: Titration calorimetry
Mole fraction of fluorobenzene	Molar enthalpy of solution, kJ/mol	uncertainty
0	.69	

System: 1,2-dichlorobenzene + n-heptane; phases: Liquid
Fixed: Temperature, K = 298.15
Fixed: Pressure, kPa = 100
Property: Molar enthalpy of solution, kJ/mol (Liquid); method: Titration calorimetry
Mole fraction of n-heptane	Molar enthalpy of solution, kJ/mol	uncertainty
0	2.83	

System: 1,2-dichlorobenzene + 2-heptanone; phases: Liquid
Fixed: Temperature, K = 298.15
Fixed: Pressure, kPa = 100
Property: Molar enthalpy of solution, kJ/mol (Liquid); method: Titration calorimetry
Mole fraction of 2-heptanone	Molar enthalpy of solution, kJ/mol	uncertainty
0	-1.31	

System: 1,2-dichlorobenzene + n-hexane; phases: Liquid
Fixed: Temperature, K = 298.15
Fixed: Pressure, kPa = 100
Property: Molar enthalpy of solution, kJ/mol (Liquid); method: Titration calorimetry
Mole fraction of n-hexane	Molar enthalpy of solution, kJ/mol	uncertainty
0	2.64	

System: 1,2-dichlorobenzene + 1-hexanol; phases: Liquid
Fixed: Temperature, K = 298.15
Fixed: Pressure, kPa = 100
Property: Molar enthalpy of solution, kJ/mol (Liquid); method: Titration calorimetry
Mole fraction of 1-hexanol	Molar enthalpy of solution, kJ/mol	uncertainty
0	15.4	

System: 1,2-dichlorobenzene + 2-hydroxyacetophenone; phases: Liquid
Fixed: Temperature, K = 298.15
Fixed: Pressure, kPa = 100
Property: Molar enthalpy of solution, kJ/mol (Liquid); method: Titration calorimetry
Mole fraction of 2-hydroxyacetophenone	Molar enthalpy of solution, kJ/mol	uncertainty
0	.88	

System: 1,2-dichlorobenzene + indole; phases: Liquid
Fixed: Temperature, K = 298.15
Fixed: Pressure, kPa = 100
Property: Molar enthalpy of solution, kJ/mol (Liquid); method: Isoperibol calorimetry
Mole fraction of indole	Molar enthalpy of solution, kJ/mol	uncertainty
0	12.52	

System: methanol + 1,2-dichlorobenzene; phases: Liquid
Fixed: Temperature, K = 298.15
Fixed: Pressure, kPa = 100
Property: Molar enthalpy of solution, kJ/mol (Liquid); method: Titration calorimetry
Mole fraction of methanol	Molar enthalpy of solution, kJ/mol	uncertainty
0	15	

System: 2-methoxyphenol + 1,2-dichlorobenzene; phases: Liquid
Fixed: Temperature, K = 298.15
Fixed: Pressure, kPa = 100
Property: Molar enthalpy of solution, kJ/mol (Liquid); method: Titration calorimetry
Mole fraction of 2-methoxyphenol	Molar enthalpy of solution, kJ/mol	uncertainty
0	4.53	

System: 1,2-dichlorobenzene + 3-methoxyphenol; phases: Liquid
Fixed: Temperature, K = 298.15
Fixed: Pressure, kPa = 100
Property: Molar enthalpy of solution, kJ/mol (Liquid); method: Titration calorimetry
Mole fraction of 3-methoxyphenol	Molar enthalpy of solution, kJ/mol	uncertainty
0	9.14	

System: 1,2-dichlorobenzene + 4-methoxyphenol; phases: Liquid
Fixed: Temperature, K = 298.15
Fixed: Pressure, kPa = 100
Property: Molar enthalpy of solution, kJ/mol (Liquid); method: Isoperibol calorimetry
Mole fraction of 4-methoxyphenol	Molar enthalpy of solution, kJ/mol	uncertainty
0	27.43	

System: methyl acetate + 1,2-dichlorobenzene; phases: Liquid
Fixed: Temperature, K = 298.15
Fixed: Pressure, kPa = 100
Property: Molar enthalpy of solution, kJ/mol (Liquid); method: Titration calorimetry
Mole fraction of methyl acetate	Molar enthalpy of solution, kJ/mol	uncertainty
0	.46	

System: methyl benzoate + 1,2-dichlorobenzene; phases: Liquid
Fixed: Temperature, K = 298.15
Fixed: Pressure, kPa = 100
Property: Molar enthalpy of solution, kJ/mol (Liquid); method: Titration calorimetry
Mole fraction of methyl benzoate	Molar enthalpy of solution, kJ/mol	uncertainty
0	.15	

System: 1,2-dichlorobenzene + mesitylene; phases: Liquid
Fixed: Temperature, K = 298.15
Fixed: Pressure, kPa = 100
Property: Molar enthalpy of solution, kJ/mol (Liquid); method: Titration calorimetry
Mole fraction of mesitylene	Molar enthalpy of solution, kJ/mol	uncertainty
0	-.22	

System: 1,2-dichlorobenzene + methyl propionate; phases: Liquid
Fixed: Temperature, K = 298.15
Fixed: Pressure, kPa = 100
Property: Molar enthalpy of solution, kJ/mol (Liquid); method: Titration calorimetry
Mole fraction of methyl propionate	Molar enthalpy of solution, kJ/mol	uncertainty
0	-.39	

System: 1,2-dichlorobenzene + methyl salicylate; phases: Liquid
Fixed: Temperature, K = 298.15
Fixed: Pressure, kPa = 100
Property: Molar enthalpy of solution, kJ/mol (Liquid); method: Titration calorimetry
Mole fraction of methyl salicylate	Molar enthalpy of solution, kJ/mol	uncertainty
0	.65	

System: naphthalene + 1,2-dichlorobenzene; phases: Liquid
Fixed: Temperature, K = 298.15
Fixed: Pressure, kPa = 100
Property: Molar enthalpy of solution, kJ/mol (Liquid); method: Isoperibol calorimetry
Mole fraction of naphthalene	Molar enthalpy of solution, kJ/mol	uncertainty
0	17.35	

System: 1,2-dichlorobenzene + n-nonane; phases: Liquid
Fixed: Temperature, K = 298.15
Fixed: Pressure, kPa = 100
Property: Molar enthalpy of solution, kJ/mol (Liquid); method: Titration calorimetry
Mole fraction of n-nonane	Molar enthalpy of solution, kJ/mol	uncertainty
0	3.27	

System: 1,2-dichlorobenzene + 2-nonanone; phases: Liquid
Fixed: Temperature, K = 298.15
Fixed: Pressure, kPa = 100
Property: Molar enthalpy of solution, kJ/mol (Liquid); method: Titration calorimetry
Mole fraction of 2-nonanone	Molar enthalpy of solution, kJ/mol	uncertainty
0	-1.32	

System: 1,2-dichlorobenzene + n-octane; phases: Liquid
Fixed: Temperature, K = 298.15
Fixed: Pressure, kPa = 100
Property: Molar enthalpy of solution, kJ/mol (Liquid); method: Titration calorimetry
Mole fraction of n-octane	Molar enthalpy of solution, kJ/mol	uncertainty
0	3	

System: 1,2-dichlorobenzene + 1-octanol; phases: Liquid
Fixed: Temperature, K = 298.15
Fixed: Pressure, kPa = 100
Property: Molar enthalpy of solution, kJ/mol (Liquid); method: Titration calorimetry
Mole fraction of 1-octanol	Molar enthalpy of solution, kJ/mol	uncertainty
0	15.47	

System: 1,2-dichlorobenzene + 2-octanone; phases: Liquid
Fixed: Temperature, K = 298.15
Fixed: Pressure, kPa = 100
Property: Molar enthalpy of solution, kJ/mol (Liquid); method: Titration calorimetry
Mole fraction of 2-octanone	Molar enthalpy of solution, kJ/mol	uncertainty
0	-1.3	

System: 1,2-dichlorobenzene + 2-pentanone; phases: Liquid
Fixed: Temperature, K = 298.15
Fixed: Pressure, kPa = 100
Property: Molar enthalpy of solution, kJ/mol (Liquid); method: Titration calorimetry
Mole fraction of 2-pentanone	Molar enthalpy of solution, kJ/mol	uncertainty
0	-.92	

System: 1-pentanol + 1,2-dichlorobenzene; phases: Liquid
Fixed: Temperature, K = 298.15
Fixed: Pressure, kPa = 100
Property: Molar enthalpy of solution, kJ/mol (Liquid); method: Titration calorimetry
Mole fraction of 1-pentanol	Molar enthalpy of solution, kJ/mol	uncertainty
0	15.31	

System: 1,2-dichlorobenzene + 2-picoline; phases: Liquid
Fixed: Temperature, K = 298.15
Fixed: Pressure, kPa = 100
Property: Molar enthalpy of solution, kJ/mol (Liquid); method: Titration calorimetry
Mole fraction of 2-picoline	Molar enthalpy of solution, kJ/mol	uncertainty
0	1.11	

System: 1,2-dichlorobenzene + 3-picoline; phases: Liquid
Fixed: Temperature, K = 298.15
Fixed: Pressure, kPa = 100
Property: Molar enthalpy of solution, kJ/mol (Liquid); method: Titration calorimetry
Mole fraction of 3-picoline	Molar enthalpy of solution, kJ/mol	uncertainty
0	1.05	

System: 1,2-dichlorobenzene + 4-picoline; phases: Liquid
Fixed: Temperature, K = 298.15
Fixed: Pressure, kPa = 100
Property: Molar enthalpy of solution, kJ/mol (Liquid); method: Titration calorimetry
Mole fraction of 4-picoline	Molar enthalpy of solution, kJ/mol	uncertainty
0	1.53	

System: 1-propanol + 1,2-dichlorobenzene; phases: Liquid
Fixed: Temperature, K = 298.15
Fixed: Pressure, kPa = 100
Property: Molar enthalpy of solution, kJ/mol (Liquid); method: Titration calorimetry
Mole fraction of 1-propanol	Molar enthalpy of solution, kJ/mol	uncertainty
0	15.96	

System: 1,2-dichlorobenzene + propionitrile; phases: Liquid
Fixed: Temperature, K = 298.15
Fixed: Pressure, kPa = 100
Property: Molar enthalpy of solution, kJ/mol (Liquid); method: Titration calorimetry
Mole fraction of propionitrile	Molar enthalpy of solution, kJ/mol	uncertainty
0	1.56	

System: 1,2-dichlorobenzene + propyl acetate; phases: Liquid
Fixed: Temperature, K = 298.15
Fixed: Pressure, kPa = 100
Property: Molar enthalpy of solution, kJ/mol (Liquid); method: Titration calorimetry
Mole fraction of propyl acetate	Molar enthalpy of solution, kJ/mol	uncertainty
0	-.76	

System: 1,2-dichlorobenzene + propyl benzoate; phases: Liquid
Fixed: Temperature, K = 298.15
Fixed: Pressure, kPa = 100
Property: Molar enthalpy of solution, kJ/mol (Liquid); method: Titration calorimetry
Mole fraction of propyl benzoate	Molar enthalpy of solution, kJ/mol	uncertainty
0	-.52	

System: 1,2-dichlorobenzene + pyrazole; phases: Liquid
Fixed: Temperature, K = 298.15
Fixed: Pressure, kPa = 100
Property: Molar enthalpy of solution, kJ/mol (Liquid); method: Isoperibol calorimetry
Mole fraction of pyrazole	Molar enthalpy of solution, kJ/mol	uncertainty
0	24.39	

System: 1,2-dichlorobenzene + pyridine; phases: Liquid
Fixed: Temperature, K = 298.15
Fixed: Pressure, kPa = 100
Property: Molar enthalpy of solution, kJ/mol (Liquid); method: Titration calorimetry
Mole fraction of pyridine	Molar enthalpy of solution, kJ/mol	uncertainty
0	1.62	

System: 1,2-dichlorobenzene + tetrahydrofuran; phases: Liquid
Fixed: Temperature, K = 298.15
Fixed: Pressure, kPa = 100
Property: Molar enthalpy of solution, kJ/mol (Liquid); method: Titration calorimetry
Mole fraction of tetrahydrofuran	Molar enthalpy of solution, kJ/mol	uncertainty
0	-.91	

System: 1,2-dichlorobenzene + tri-n-butylamine; phases: Liquid
Fixed: Temperature, K = 298.15
Fixed: Pressure, kPa = 100
Property: Molar enthalpy of solution, kJ/mol (Liquid); method: Titration calorimetry
Mole fraction of tri-n-butylamine	Molar enthalpy of solution, kJ/mol	uncertainty
0	2.17	

System: trichloromethane + 1,2-dichlorobenzene; phases: Liquid
Fixed: Temperature, K = 298.15
Fixed: Pressure, kPa = 100
Property: Molar enthalpy of solution, kJ/mol (Liquid); method: Titration calorimetry
Mole fraction of trichloromethane	Molar enthalpy of solution, kJ/mol	uncertainty
0	.05	

System: o-xylene + 1,2-dichlorobenzene; phases: Liquid
Fixed: Temperature, K = 298.15
Fixed: Pressure, kPa = 100
Property: Molar enthalpy of solution, kJ/mol (Liquid); method: Titration calorimetry
Mole fraction of o-xylene	Molar enthalpy of solution, kJ/mol	uncertainty
0	-.34	

System: 1,2-dichlorobenzene + m-xylene; phases: Liquid
Fixed: Temperature, K = 298.15
Fixed: Pressure, kPa = 100
Property: Molar enthalpy of solution, kJ/mol (Liquid); method: Titration calorimetry
Mole fraction of m-xylene	Molar enthalpy of solution, kJ/mol	uncertainty
0	-.27	

System: 1,2-dichlorobenzene + p-xylene; phases: Liquid
Fixed: Temperature, K = 298.15
Fixed: Pressure, kPa = 100
Property: Molar enthalpy of solution, kJ/mol (Liquid); method: Titration calorimetry
Mole fraction of p-xylene	Molar enthalpy of solution, kJ/mol	uncertainty
0	-.29	
