Measured thermophysical data. Volumetric and electromagnetic properties of binary mixtures consist of benzene derivatives at different temperature and ternary mixtures with 1,2-dichloroethane at T = 293.15 K with application of the Prigogine-Flory-Patterson theory and PC-SAFT
Source: Thermochim. Acta, 2016, 10.1016/j.tca.2016.06.023
Compound 1: 1,2-dichloroethane, C2H4Cl2, purity 99.8%
Compound 2: bromobenzene, C6H5Br, purity 99%
Compound 3: chlorobenzene, C6H5Cl, purity 99.5%
Compound 4: nitrobenzene, C6H5NO2, purity 99%

System: nitrobenzene + bromobenzene; phases: Liquid
Fixed: Pressure, kPa = 81.5
Property: Mass density, kg/m3 (Liquid); method: Vibrating tube method
Temperature, K	Mole fraction of bromobenzene	Mass density, kg/m3	uncertainty
293.15	1	1495.52	
293.15	.8963	1464.97	
293.15	.8018	1437.33	
293.15	.6987	1407.3	
293.15	.5974	1377.81	
293.15	.505	1350.9	
293.15	.3968	1319.31	
293.15	.2985	1290.56	
293.15	.2013	1262.07	
293.15	.0998	1232.31	
293.15	0	1203.05	
303.15	1	1481.97	
303.15	.8963	1451.69	
303.15	.8018	1424.41	
303.15	.6987	1394.76	
303.15	.5974	1365.65	
303.15	.505	1339.07	
303.15	.3968	1307.88	
303.15	.2985	1279.49	
303.15	.2013	1251.35	
303.15	.0998	1221.95	
303.15	0	1193.15	
313.15	1	1468.41	
313.15	.8963	1438.42	
313.15	.8018	1411.45	
313.15	.6987	1382.18	
313.15	.5974	1353.48	
313.15	.505	1327.25	
313.15	.3968	1296.44	
313.15	.2985	1268.39	
313.15	.2013	1240.6	
313.15	.0998	1211.59	
313.15	0	1183.21	
323.15	1	1454.85	
323.15	.8963	1425.19	
323.15	.8018	1398.53	
323.15	.6987	1369.62	
323.15	.5974	1341.27	
323.15	.505	1315.36	
323.15	.3968	1284.95	
323.15	.2985	1257.29	
323.15	.2013	1229.85	
323.15	.0998	1201.25	
323.15	0	1173.27	
333.15	1	1441.22	
333.15	.8963	1411.84	
333.15	.8018	1385.53	
333.15	.6987	1357.01	
333.15	.5974	1329.01	
333.15	.505	1303.45	
333.15	.3968	1273.45	
333.15	.2985	1246.12	
333.15	.2013	1219.06	
333.15	.0998	1190.87	
333.15	0	1163.32	

System: nitrobenzene + bromobenzene; phases: Liquid
Fixed: Pressure, kPa = 81.5
Property: Refractive index (Na D-line) (Liquid); method: Standard Abbe refractometry
Temperature, K	Mole fraction of bromobenzene	Refractive index (Na D-line)	uncertainty
293.15	1	1.55981	
293.15	.8963	1.55906	
293.15	.8018	1.55838	
293.15	.6987	1.55764	
293.15	.5974	1.5569	
293.15	.505	1.55622	
293.15	.3968	1.55542	
293.15	.2985	1.55468	
293.15	.2013	1.55394	
293.15	.0998	1.55317	
293.15	0	1.55241	
303.15	1	1.55442	
303.15	.8963	1.55375	
303.15	.8018	1.55313	
303.15	.6987	1.55245	
303.15	.5974	1.55177	
303.15	.505	1.55115	
303.15	.3968	1.55041	
303.15	.2985	1.54973	
303.15	.2013	1.54905	
303.15	.0998	1.54834	
303.15	0	1.54763	
313.15	1	1.5489	
313.15	.8963	1.54831	
313.15	.8018	1.54777	
313.15	.6987	1.54718	
313.15	.5974	1.54658	
313.15	.505	1.54603	
313.15	.3968	1.54538	
313.15	.2985	1.54477	
313.15	.2013	1.54416	
313.15	.0998	1.54352	
313.15	0	1.54288	
323.15	1	1.54319	
323.15	.8963	1.54269	
323.15	.8018	1.54223	
323.15	.6987	1.54171	
323.15	.5974	1.5412	
323.15	.505	1.54072	
323.15	.3968	1.54015	
323.15	.2985	1.53962	
323.15	.2013	1.53909	
323.15	.0998	1.53852	
323.15	0	1.53795	
333.15	1	1.53742	
333.15	.8963	1.53748	
333.15	.8018	1.53704	
333.15	.6987	1.53654	
333.15	.5974	1.53605	
333.15	.505	1.53559	
333.15	.3968	1.53503	
333.15	.2985	1.53452	
333.15	.2013	1.534	
333.15	.0998	1.53345	
333.15	0	1.53289	

System: bromobenzene + chlorobenzene; phases: Liquid
Fixed: Pressure, kPa = 81.5
Property: Mass density, kg/m3 (Liquid); method: Vibrating tube method
Temperature, K	Mole fraction of chlorobenzene	Mass density, kg/m3	uncertainty
293.15	1	1106.49	
293.15	.898979	1147.37	
293.15	.797557	1187.96	
293.15	.698547	1227.24	
293.15	.601408	1265.46	
293.15	.500282	1304.91	
293.15	.400467	1343.53	
293.15	.302531	1381.12	
293.15	.218814	1413.03	
293.15	.100431	1457.81	
293.15	0	1495.52	
303.15	1	1095.71	
303.15	.8989	1136.37	
303.15	.7975	1176.65	
303.15	.6985	1215.65	
303.15	.6014	1253.57	
303.15	.5002	1292.73	
303.15	.4004	1331.07	
303.15	.3025	1368.44	
303.15	.2188	1400.11	
303.15	.1004	1444.57	
303.15	0	1481.97	
313.15	1	1084.86	
313.15	.8989	1125.28	
313.15	.7975	1165.32	
313.15	.6985	1204.01	
313.15	.6014	1241.67	
313.15	.5002	1280.55	
313.15	.4004	1318.65	
313.15	.3025	1355.72	
313.15	.2188	1387.2	
313.15	.1004	1431.29	
313.15	0	1468.41	
323.15	1	1073.96	
323.15	.8989	1114.13	
323.15	.7975	1153.89	
323.15	.6985	1192.33	
323.15	.6014	1229.71	
323.15	.5002	1268.32	
323.15	.4004	1306.14	
323.15	.3025	1342.96	
323.15	.2188	1374.22	
323.15	.1004	1418.03	
323.15	0	1454.85	
333.15	1	1063.01	
333.15	.8989	1102.93	
333.15	.7975	1142.42	
333.15	.6985	1180.59	
333.15	.6014	1217.71	
333.15	.5002	1256.04	
333.15	.4004	1293.58	
333.15	.3025	1330.15	
333.15	.2188	1361.19	
333.15	.1004	1404.71	
333.15	0	1441.22	

System: bromobenzene + chlorobenzene; phases: Liquid
Fixed: Pressure, kPa = 81.5
Property: Refractive index (Na D-line) (Liquid); method: Standard Abbe refractometry
Temperature, K	Mole fraction of chlorobenzene	Refractive index (Na D-line)	uncertainty
293.15	1	1.52455	
293.15	.898979	1.52802	
293.15	.797557	1.53149	
293.15	.698547	1.53488	
293.15	.601408	1.53824	
293.15	.500282	1.54178	
293.15	.400467	1.54531	
293.15	.302531	1.54881	
293.15	.218814	1.55183	
293.15	.100431	1.55614	
293.15	0	1.55981	
303.15	1	1.51902	
303.15	.8989	1.52252	
303.15	.7975	1.52602	
303.15	.6985	1.52943	
303.15	.6014	1.5328	
303.15	.5002	1.53635	
303.15	.4004	1.5399	
303.15	.3025	1.54341	
303.15	.2188	1.54645	
303.15	.1004	1.55075	
303.15	0	1.55442	
313.15	1	1.51346	
313.15	.8989	1.51697	
313.15	.7975	1.52049	
313.15	.6985	1.52391	
313.15	.6014	1.52729	
313.15	.5002	1.53084	
313.15	.4004	1.53439	
313.15	.3025	1.53791	
313.15	.2188	1.54094	
313.15	.1004	1.54525	
313.15	0	1.5489	
323.15	1	1.50781	
323.15	.8989	1.51133	
323.15	.7975	1.51484	
323.15	.6985	1.51827	
323.15	.6014	1.52165	
323.15	.5002	1.5252	
323.15	.4004	1.52874	
323.15	.3025	1.53225	
323.15	.2188	1.53528	
323.15	.1004	1.53956	
323.15	0	1.54319	
333.15	1	1.50223	
333.15	.8989	1.50574	
333.15	.7975	1.50924	
333.15	.6985	1.51266	
333.15	.6014	1.51602	
333.15	.5002	1.51956	
333.15	.4004	1.52308	
333.15	.3025	1.52657	
333.15	.2188	1.52957	
333.15	.1004	1.53383	
333.15	0	1.53742	

System: nitrobenzene + chlorobenzene; phases: Liquid
Fixed: Pressure, kPa = 81.5
Property: Mass density, kg/m3 (Liquid); method: Vibrating tube method
Temperature, K	Mole fraction of chlorobenzene	Mass density, kg/m3	uncertainty
293.15	1	1106.49	
293.15	.8748	1119.07	
293.15	.7553	1130.91	
293.15	.6479	1141.41	
293.15	.5425	1151.59	
293.15	.491	1156.55	
293.15	.3967	1165.55	
293.15	.2994	1174.79	
293.15	.2018	1184.02	
293.15	.1792	1186.15	
293.15	0	1203.05	
303.15	1	1095.71	
303.15	.8748	1108.4	
303.15	.7553	1120.36	
303.15	.6479	1130.96	
303.15	.5425	1141.23	
303.15	.491	1146.24	
303.15	.3967	1155.32	
303.15	.2994	1164.64	
303.15	.2018	1173.95	
303.15	.1792	1176.1	
303.15	0	1193.15	
313.15	1	1084.86	
313.15	.8748	1097.7	
313.15	.7553	1109.75	
313.15	.6479	1120.45	
313.15	.5425	1130.83	
313.15	.491	1135.88	
313.15	.3967	1145.05	
313.15	.2994	1154.47	
313.15	.2018	1163.86	
313.15	.1792	1166.03	
313.15	0	1183.21	
323.15	1	1073.96	
323.15	.8748	1086.93	
323.15	.7553	1099.09	
323.15	.6479	1109.9	
323.15	.5425	1120.39	
323.15	.491	1125.49	
323.15	.3967	1134.75	
323.15	.2994	1144.27	
323.15	.2018	1153.76	
323.15	.1792	1155.95	
323.15	0	1173.27	
333.15	1	1063.01	
333.15	.8748	1076.14	
333.15	.7553	1088.41	
333.15	.6479	1099.31	
333.15	.5425	1109.89	
333.15	.491	1115.04	
333.15	.3967	1124.4	
333.15	.2994	1134.02	
333.15	.2018	1143.62	
333.15	.1792	1145.83	
333.15	0	1163.32	

System: nitrobenzene + chlorobenzene; phases: Liquid
Fixed: Pressure, kPa = 81.5
Property: Refractive index (Na D-line) (Liquid); method: Standard Abbe refractometry
Temperature, K	Mole fraction of chlorobenzene	Refractive index (Na D-line)	uncertainty
293.15	1	1.52455	
293.15	.8748	1.52777	
293.15	.7553	1.53092	
293.15	.6479	1.53381	
293.15	.5425	1.5367	
293.15	.491	1.53813	
293.15	.3967	1.54078	
293.15	.2994	1.54356	
293.15	.2018	1.54638	
293.15	.1792	1.54704	
293.15	0	1.55241	
303.15	1	1.51902	
303.15	.8748	1.52252	
303.15	.7553	1.52581	
303.15	.6479	1.52879	
303.15	.5425	1.53172	
303.15	.491	1.53317	
303.15	.3967	1.53584	
303.15	.2994	1.53864	
303.15	.2018	1.5415	
303.15	.1792	1.54217	
303.15	0	1.54763	
313.15	1	1.51346	
313.15	.8748	1.51723	
313.15	.7553	1.52072	
313.15	.6479	1.52381	
313.15	.5425	1.52682	
313.15	.491	1.52829	
313.15	.3967	1.531	
313.15	.2994	1.53383	
313.15	.2018	1.53671	
313.15	.1792	1.53739	
313.15	0	1.54288	
323.15	1	1.50781	
323.15	.8748	1.51185	
323.15	.7553	1.51554	
323.15	.6479	1.51876	
323.15	.5425	1.52186	
323.15	.491	1.52338	
323.15	.3967	1.52612	
323.15	.2994	1.52896	
323.15	.2018	1.53184	
323.15	.1792	1.53251	
323.15	0	1.53795	
333.15	1	1.50223	
333.15	.8748	1.50652	
333.15	.7553	1.5104	
333.15	.6479	1.51377	
333.15	.5425	1.51697	
333.15	.491	1.51851	
333.15	.3967	1.52129	
333.15	.2994	1.52412	
333.15	.2018	1.52695	
333.15	.1792	1.52761	
333.15	0	1.53289	

System: 1,2-dichloroethane + bromobenzene + chlorobenzene; phases: Liquid
Fixed: Pressure, kPa = 81.5
Fixed: Temperature, K = 293.15
Property: Mass density, kg/m3 (Liquid); method: Vibrating tube method
Mole fraction of 1,2-dichloroethane	Mole fraction of chlorobenzene	Mass density, kg/m3	uncertainty
.0503	.0575	1464.07	
.0523	.2506	1389.57	
.0523	.1516	1427.7	
.057	.8507	1150.46	
.0501	.9116	1127.66	
.0515	.7085	1209.47	
.0491	.4931	1295.69	
.0519	.2995	1370.7	
.0526	.1006	1447.19	
.1009	.0509	1456.48	
.101	.2553	1376.81	
.1048	.4544	1297.14	
.099	.363	1334.88	
.0977	.8606	1134.48	
.2011	.252	1354.85	
.2005	.1563	1393.52	
.1577	.0366	1450.37	
.1989	.761	1145.86	
.1978	.559	1230.36	
.199	.3567	1312.96	
.4642	.3727	1235.46	
.7146	.1098	1283.95	
.4792	.402	1218.17	
.421	.4988	1192.48	
.3626	.5508	1187.05	
.3029	.6566	1159.13	
.5081	.0454	1367.16	
.4017	.2523	1304.79	
.3976	.4561	1217.99	
.4011	.5559	1173.35	
.4019	.3529	1261.51	
.4145	.1506	1345.01	
.5007	.2531	1278.08	
.5282	.4298	1191.12	
.5979	.2561	1249.49	
.5995	.354	1204.15	
.1894	.0526	1437.37	
.8491	.0493	1274.18	
.8505	.101	1248.35	
.9002	.0512	1257.88	

System: nitrobenzene + 1,2-dichloroethane + bromobenzene; phases: Liquid
Fixed: Pressure, kPa = 81.5
Fixed: Temperature, K = 293.15
Property: Mass density, kg/m3 (Liquid); method: Vibrating tube method
Mole fraction of 1,2-dichloroethane	Mole fraction of bromobenzene	Mass density, kg/m3	uncertainty
.0501	.0565	1221.73	
.0505	.2497	1279.07	
.2053	.1511	1257.73	
.1566	.8002	1451.82	
.0491	.9106	1474.2	
.0516	.7065	1414.02	
.1501	.7571	1437.96	
.0522	.3005	1294.16	
.0522	.1003	1234.78	
.1007	.0513	1222.38	
.101	.2563	1283.89	
.1043	.8054	1448.28	
.1004	.6629	1405.28	
.0957	.8598	1463.76	
.2041	.2503	1287.99	
.1007	.0513	1222.35	
.1983	.6586	1412.53	
.2009	.7691	1446.63	
.1973	.5604	1382.35	
.2582	.1556	1261.84	
.3155	.1508	1263.53	
.4804	.4017	1354.96	
.4134	.4998	1381.31	
.3656	.5521	1393.7	
.3037	.6506	1419.37	
.4501	.0484	1237.96	
.4032	.253	1301.21	
.3988	.4532	1365.01	
.4006	.5562	1398.12	
.3656	.5521	1393.76	
.414	.1515	1269.39	
.5	.2571	1309.18	
.5296	.4303	1368.41	
.5988	.2558	1315.9	
.5983	.3537	1348.71	
.6543	.2514	1318.57	
.7498	.1065	1275.29	
.803	.0512	1259.08	
.8019	.1015	1277.04	
.7011	.2522	1322.56	

System: nitrobenzene + 1,2-dichloroethane + chlorobenzene; phases: Liquid
Fixed: Pressure, kPa = 81.5
Fixed: Temperature, K = 293.15
Property: Mass density, kg/m3 (Liquid); method: Vibrating tube method
Mole fraction of 1,2-dichloroethane	Mole fraction of chlorobenzene	Mass density, kg/m3	uncertainty
.0521	.1507	1190.66	
.0507	.1982	1186.03	
.052	.2513	1180.95	
.0525	.299	1176.37	
.0518	.3507	1171.36	
.0498	.4012	1166.42	
.0518	.4509	1161.65	
.0501	.4927	1157.53	
.0549	.5512	1151.92	
.0504	.6018	1146.87	
.0563	.6514	1142.08	
.0511	.7079	1136.42	
.0489	.7519	1131.95	
.0582	.7914	1128.14	
.0532	.8601	1121.13	
.0509	.9108	1115.97	
.1076	.1514	1192.5	
.1005	.2544	1182.19	
.0987	.3518	1172.59	
.1078	.4551	1162.66	
.1032	.5601	1152.08	
.1006	.6627	1141.76	
.1104	.7507	1132.99	
.0987	.8613	1121.51	
.1507	.2498	1184.25	
.2019	.2519	1185.68	
.2014	.4568	1164.81	
.199	.6554	1144.26	
.2009	.7611	1133.2	
.1988	.5602	1154.12	
.201	.3562	1175.07	
.2502	.1498	1197.82	
.3092	.6559	1146.26	
.4141	.1511	1204.07	
.6017	.1078	1217.15	
.7158	.1106	1222.34	
.7032	.1718	1214.29	
.8489	.0498	1237.05	
.8509	.1014	1230.56	
.9015	.0509	1239.96	
