Measured thermophysical data. Physicochemical investigation of platinum dichloride polymorphism
Source: Thermochim. Acta, 2009, 10.1016/j.tca.2008.10.020
Compound 1: platinum chloride (PtCl2), Cl2Pt, purity 99%

System: platinum chloride (PtCl2); phases: Crystal 2, Crystal 1, Air at 1 atmosphere
Property: Triple point temperature, K (Crystal 2); method: DSC/DTA
Triple point temperature, K	uncertainty
660	5

System: platinum chloride (PtCl2); phases: Crystal 2, Crystal 1, Air at 1 atmosphere
Property: Molar enthalpy of transition or fusion, kJ/mol (Crystal 2); method: DSC/DTA
Molar enthalpy of transition or fusion, kJ/mol	uncertainty
.167	.017
