Measured thermophysical data. Kinetics and enthalpy of nitroglycerin evaporation from double base propellants  by isothermal thermogravimetry
Source: Thermochim. Acta, 2010, 10.1016/j.tca.2010.06.014
Compound 1: glycerol trinitrate, C3H5N3O9

System: glycerol trinitrate; phases: Liquid, Gas
Property: Vapor or sublimation pressure, kPa (Liquid); method: DSC
Temperature, K	Vapor or sublimation pressure, kPa	uncertainty
298.15	.00007	.000007
303.15	.00014	.000014
313.15	.00046	.000046
323.15	.0014	.00014
333.15	.00387	.000387
343.15	.00981	.000981
353.15	.02313	.002313
363.15	.05111	.005111
373.15	.10657	.010657
383.15	.21101	.021101
393.15	.39881	.039881
403.15	.72282	.072282
413.15	1.26136	.126136
423.15	2.12673	.212673
433.15	3.47531	.347531
443.15	5.51911	.551911
453.15	8.53868	.853868
463.15	12.89716	1.289716
473.15	19.05531	1.905531
483.15	27.58702	2.758702
493.15	39.19526	3.919526
503.15	54.72784	5.472784
513.15	75.19289	7.519289
523.15	101.77353	10.177353

System: glycerol trinitrate; phases: Liquid, Gas
Property: Vapor or sublimation pressure, kPa (Liquid); method: DSC
Temperature, K	Vapor or sublimation pressure, kPa	uncertainty
298.15	.00007	.000007
303.15	.00014	.000014
313.15	.00046	.000046
323.15	.0014	.00014
333.15	.00387	.000387
343.15	.00981	.000981
353.15	.02313	.002313
363.15	.05111	.005111
373.15	.10658	.010658
383.15	.21101	.021101
393.15	.39882	.039882
403.15	.72284	.072284
413.15	1.26138	.126138
423.15	2.12676	.212676
433.15	3.47536	.347536
443.15	5.5192	.55192
453.15	8.53881	.853881
463.15	12.89736	1.289736
473.15	19.05559	1.905559
483.15	27.58744	2.758744
493.15	39.19584	3.919584
503.15	54.72866	5.472866
513.15	75.19402	7.519402

System: glycerol trinitrate; phases: Liquid, Gas
Property: Vapor or sublimation pressure, kPa (Liquid); method: DSC
Temperature, K	Vapor or sublimation pressure, kPa	uncertainty
298.15	.000071	.0000071
303.15	.000137	.0000137
313.15	.000462	.0000462
323.15	.001402	.0001402
333.15	.003866	.0003866
343.15	.009811	.0009811
353.15	.023132	.0023132
363.15	.05111	.005111
373.15	.106574	.0106574
383.15	.211011	.0211011
393.15	.398811	.0398811
403.15	.722824	.0722824
413.15	1.261361	.1261361
423.15	2.126731	.2126731
433.15	3.475312	.3475312
443.15	5.519112	.5519112
453.15	8.538679	.8538679
463.15	12.897165	1.2897165
473.15	19.055309	1.9055309
483.15	27.587021	2.7587021
493.15	39.195257	3.9195257
503.15	54.727839	5.4727839
513.15	75.192888	7.5192888
