Measured thermophysical data. Heat Capacity of Several Mixed-Solvent Desiccants  Containing Glycol + Water + MgCl2
Source: Thermochim. Acta, 2012, 10.1016/j.tca.2012.02.017
Compound 1: bis(2-hydroxyethyl) ether, C4H10O3, purity 99.9%
Compound 2: 3,6-dioxa-1,8-octanediol, C6H14O4, purity 99.9%
Compound 3: tetraethylene glycol, C8H18O5, purity 99.5%
Compound 4: propylene glycol, C3H8O2, purity 99.8%
Compound 5: 3,3'-oxybispropanol, C6H14O3, purity 99%
Compound 6: tripropylene glycol, C9H20O4, purity 99%
Compound 7: water, H2O, purity 99.8%
Compound 8: magnesium chloride, Cl2Mg, purity 99%

System: 3,3'-oxybispropanol; phases: Liquid
Fixed: Pressure, kPa = 101.325
Property: Molar heat capacity at constant pressure, J/K/mol (Liquid); method: Large sample (1 g) DSC
Temperature, K	Molar heat capacity at constant pressure, J/K/mol	uncertainty
303.15	329	1.6
313.15	335.9	1.5
323.15	342	1.3
333.15	348.5	1.1
343.15	355.1	.8
353.15	362.6	.1

System: water + tripropylene glycol; phases: Liquid
Fixed: Pressure, kPa = 101
Property: Molar heat capacity at constant pressure, J/K/mol (Liquid); method: Large sample (1 g) DSC
Temperature, K	Mole fraction of tripropylene glycol	Molar heat capacity at constant pressure, J/K/mol	uncertainty
303.15	.2	158.9	1.589
308.15	.2	160.5	1.605
313.15	.2	162.2	1.622
318.15	.2	163.4	1.634
323.15	.2	164.9	1.649
328.15	.2	166.2	1.662
333.15	.2	167.8	1.678
338.15	.2	169.1	1.691
343.15	.2	170.7	1.707
348.15	.2	172.2	1.722
353.15	.2	173.9	1.739
303.15	.4	234.7	2.347
308.15	.4	237.2	2.372
313.15	.4	240	2.4
318.15	.4	241.6	2.416
323.15	.4	244.5	2.445
328.15	.4	246.6	2.466
333.15	.4	249.9	2.499
338.15	.4	252.2	2.522
343.15	.4	254.8	2.548
348.15	.4	257.4	2.574
353.15	.4	260.2	2.602
303.15	.5	271.9	2.719
308.15	.5	275.1	2.751
313.15	.5	278.1	2.781
318.15	.5	280.9	2.809
323.15	.5	283.2	2.832
328.15	.5	286.1	2.861
333.15	.5	289.3	2.893
338.15	.5	292.5	2.925
343.15	.5	295.5	2.955
348.15	.5	298.5	2.985
353.15	.5	302.1	3.021
303.15	.6	309	3.09
308.15	.6	312.1	3.121
313.15	.6	315.6	3.156
318.15	.6	317.9	3.179
323.15	.6	321.6	3.216
328.15	.6	324.7	3.247
333.15	.6	328.3	3.283
338.15	.6	331.3	3.313
343.15	.6	334.9	3.349
348.15	.6	338.2	3.382
353.15	.6	342.1	3.421
303.15	.8	381.4	3.814
308.15	.8	385.8	3.858
313.15	.8	389.6	3.896
318.15	.8	392.4	3.924
323.15	.8	396.3	3.963
328.15	.8	400.5	4.005
333.15	.8	404.1	4.041
338.15	.8	407.6	4.076
343.15	.8	411.8	4.118
348.15	.8	416	4.16
353.15	.8	420.3	4.203

System: bis(2-hydroxyethyl) ether + water + magnesium chloride; phases: Liquid
Fixed: Pressure, kPa = 101
Property: Molar heat capacity at constant pressure, J/K/mol (Liquid); method: Large sample (1 g) DSC
Temperature, K	Mass fraction of bis(2-hydroxyethyl) ether	Mass fraction of water	Molar heat capacity at constant pressure, J/K/mol	uncertainty
303.15	.4	.56	176.2	1.762
308.15	.4	.56	178.1	1.781
313.15	.4	.56	179.8	1.798
318.15	.4	.56	180.6	1.806
323.15	.4	.56	182.1	1.821
328.15	.4	.56	182.8	1.828
333.15	.4	.56	184.4	1.844
338.15	.4	.56	185.4	1.854
343.15	.4	.56	186.7	1.867
348.15	.4	.56	187.8	1.878
353.15	.4	.56	189.2	1.892
303.15	.4	.51	182.9	1.829
308.15	.4	.51	184.8	1.848
313.15	.4	.51	186.4	1.864
318.15	.4	.51	187.5	1.875
323.15	.4	.51	189.1	1.891
328.15	.4	.51	190.2	1.902
333.15	.4	.51	191.7	1.917
338.15	.4	.51	193	1.93
343.15	.4	.51	194.3	1.943
348.15	.4	.51	195.5	1.955
353.15	.4	.51	197	1.97
303.15	.4	.44	203.6	2.036
308.15	.4	.44	205.6	2.056
313.15	.4	.44	207.3	2.073
318.15	.4	.44	208.4	2.084
323.15	.4	.44	210	2.1
328.15	.4	.44	211.2	2.112
333.15	.4	.44	213	2.13
338.15	.4	.44	214.2	2.142
343.15	.4	.44	215.6	2.156
348.15	.4	.44	217	2.17
353.15	.4	.44	218.5	2.185

System: 3,6-dioxa-1,8-octanediol + water + magnesium chloride; phases: Liquid
Fixed: Pressure, kPa = 101
Property: Molar heat capacity at constant pressure, J/K/mol (Liquid); method: Large sample (1 g) DSC
Temperature, K	Mass fraction of 3,6-dioxa-1,8-octanediol	Mass fraction of water	Molar heat capacity at constant pressure, J/K/mol	uncertainty
303.15	.4	.56	232.4	2.324
308.15	.4	.56	234.5	2.345
313.15	.4	.56	236.3	2.363
318.15	.4	.56	237.7	2.377
323.15	.4	.56	239.5	2.395
328.15	.4	.56	241	2.41
333.15	.4	.56	242.9	2.429
338.15	.4	.56	244.2	2.442
343.15	.4	.56	245.9	2.459
348.15	.4	.56	247.4	2.474
353.15	.4	.56	249	2.49
303.15	.4	.51	246.2	2.462
308.15	.4	.51	248.4	2.484
313.15	.4	.51	250.1	2.501
318.15	.4	.51	251.5	2.515
323.15	.4	.51	253.3	2.533
328.15	.4	.51	254.7	2.547
333.15	.4	.51	256.6	2.566
338.15	.4	.51	258.1	2.581
343.15	.4	.51	259.6	2.596
348.15	.4	.51	261.2	2.612
353.15	.4	.51	262.9	2.629
303.15	.4	.44	284.2	2.842
308.15	.4	.44	286.5	2.865
313.15	.4	.44	288.5	2.885
318.15	.4	.44	289.6	2.896
323.15	.4	.44	291.4	2.914
328.15	.4	.44	293	2.93
333.15	.4	.44	295.2	2.952
338.15	.4	.44	296.5	2.965
343.15	.4	.44	298.3	2.983
348.15	.4	.44	300	3
353.15	.4	.44	302	3.02

System: tetraethylene glycol + water + magnesium chloride; phases: Liquid
Fixed: Pressure, kPa = 101
Property: Molar heat capacity at constant pressure, J/K/mol (Liquid); method: Large sample (1 g) DSC
Temperature, K	Mass fraction of tetraethylene glycol	Mass fraction of water	Molar heat capacity at constant pressure, J/K/mol	uncertainty
303.15	.4	.56	281.2	2.812
308.15	.4	.56	283.8	2.838
313.15	.4	.56	285.6	2.856
318.15	.4	.56	286.9	2.869
323.15	.4	.56	288.8	2.888
328.15	.4	.56	290	2.9
333.15	.4	.56	291.8	2.918
338.15	.4	.56	293.3	2.933
343.15	.4	.56	294.9	2.949
348.15	.4	.56	296.3	2.963
353.15	.4	.56	298.1	2.981
303.15	.4	.51	291.3	2.913
308.15	.4	.51	294.1	2.941
313.15	.4	.51	295.8	2.958
318.15	.4	.51	296.8	2.968
323.15	.4	.51	298.7	2.987
328.15	.4	.51	300	3
333.15	.4	.51	301.8	3.018
338.15	.4	.51	303.3	3.033
343.15	.4	.51	305.3	3.053
348.15	.4	.51	306.8	3.068
353.15	.4	.51	309	3.09
303.15	.4	.44	313.6	3.136
308.15	.4	.44	316.4	3.164
313.15	.4	.44	318.5	3.185
318.15	.4	.44	319.5	3.195
323.15	.4	.44	321.6	3.216
328.15	.4	.44	322.9	3.229
333.15	.4	.44	325.4	3.254
338.15	.4	.44	327	3.27
343.15	.4	.44	329.3	3.293
348.15	.4	.44	331	3.31
353.15	.4	.44	333.2	3.332

System: propylene glycol + water + magnesium chloride; phases: Liquid
Fixed: Pressure, kPa = 101
Property: Molar heat capacity at constant pressure, J/K/mol (Liquid); method: Large sample (1 g) DSC
Temperature, K	Mass fraction of propylene glycol	Mass fraction of water	Molar heat capacity at constant pressure, J/K/mol	uncertainty
303.15	.4	.56	163.1	1.631
308.15	.4	.56	164.5	1.645
313.15	.4	.56	165.5	1.655
318.15	.4	.56	166.1	1.661
323.15	.4	.56	167.1	1.671
328.15	.4	.56	167.8	1.678
333.15	.4	.56	169	1.69
338.15	.4	.56	169.9	1.699
343.15	.4	.56	170.8	1.708
348.15	.4	.56	171.8	1.718
353.15	.4	.56	173.1	1.731
303.15	.4	.51	176.2	1.762
308.15	.4	.51	177.6	1.776
313.15	.4	.51	178.7	1.787
318.15	.4	.51	179.2	1.792
323.15	.4	.51	180.1	1.801
328.15	.4	.51	180.9	1.809
333.15	.4	.51	182.1	1.821
338.15	.4	.51	182.9	1.829
343.15	.4	.51	183.9	1.839
348.15	.4	.51	185.1	1.851
353.15	.4	.51	186.1	1.861
303.15	.4	.44	190.6	1.906
308.15	.4	.44	192.4	1.924
313.15	.4	.44	193.8	1.938
318.15	.4	.44	194.6	1.946
323.15	.4	.44	196.1	1.961
328.15	.4	.44	197.1	1.971
333.15	.4	.44	198.6	1.986
338.15	.4	.44	200	2
343.15	.4	.44	201.3	2.013
348.15	.4	.44	202.7	2.027
353.15	.4	.44	204.4	2.044

System: water + magnesium chloride + 3,3'-oxybispropanol; phases: Liquid
Fixed: Pressure, kPa = 101
Property: Molar heat capacity at constant pressure, J/K/mol (Liquid); method: Large sample (1 g) DSC
Temperature, K	Mass fraction of 3,3'-oxybispropanol	Mass fraction of water	Molar heat capacity at constant pressure, J/K/mol	uncertainty
303.15	.4	.56	237.1	2.371
308.15	.4	.56	238.6	2.386
313.15	.4	.56	239.9	2.399
318.15	.4	.56	240.3	2.403
323.15	.4	.56	241.3	2.413
328.15	.4	.56	241.9	2.419
333.15	.4	.56	243.1	2.431
338.15	.4	.56	244.1	2.441
343.15	.4	.56	244.7	2.447
348.15	.4	.56	245.8	2.458
353.15	.4	.56	247	2.47
303.15	.4	.51	244.7	2.447
308.15	.4	.51	246.4	2.464
313.15	.4	.51	247.8	2.478
318.15	.4	.51	248.2	2.482
323.15	.4	.51	249.3	2.493
328.15	.4	.51	250	2.5
333.15	.4	.51	251.5	2.515
338.15	.4	.51	252.5	2.525
343.15	.4	.51	253.7	2.537
348.15	.4	.51	255	2.55
353.15	.4	.51	256.6	2.566
303.15	.4	.44	262.5	2.625
308.15	.4	.44	264.3	2.643
313.15	.4	.44	265.8	2.658
318.15	.4	.44	266.4	2.664
323.15	.4	.44	267.8	2.678
328.15	.4	.44	268.7	2.687
333.15	.4	.44	270.4	2.704
338.15	.4	.44	271.6	2.716
343.15	.4	.44	273.1	2.731
348.15	.4	.44	274.8	2.748
353.15	.4	.44	276.6	2.766

System: water + magnesium chloride + tripropylene glycol; phases: Liquid
Fixed: Pressure, kPa = 101
Property: Molar heat capacity at constant pressure, J/K/mol (Liquid); method: Large sample (1 g) DSC
Temperature, K	Mass fraction of tripropylene glycol	Mass fraction of water	Molar heat capacity at constant pressure, J/K/mol	uncertainty
303.15	.4	.56	306.1	3.061
308.15	.4	.56	307.9	3.079
313.15	.4	.56	309.8	3.098
318.15	.4	.56	310.9	3.109
323.15	.4	.56	312.3	3.123
328.15	.4	.56	313.4	3.134
333.15	.4	.56	315.1	3.151
338.15	.4	.56	316.5	3.165
343.15	.4	.56	317.6	3.176
348.15	.4	.56	319.6	3.196
353.15	.4	.56	321.7	3.217
303.15	.4	.51	315.1	3.151
308.15	.4	.51	316.8	3.168
313.15	.4	.51	317.9	3.179
318.15	.4	.51	319.4	3.194
323.15	.4	.51	320.9	3.209
328.15	.4	.51	322.1	3.221
333.15	.4	.51	323.8	3.238
338.15	.4	.51	324.9	3.249
343.15	.4	.51	326.7	3.267
348.15	.4	.51	328.3	3.283
353.15	.4	.51	329.9	3.299
303.15	.4	.44	340.5	3.405
308.15	.4	.44	342.7	3.427
313.15	.4	.44	344.5	3.445
318.15	.4	.44	345.5	3.455
323.15	.4	.44	347.4	3.474
328.15	.4	.44	348.7	3.487
333.15	.4	.44	350.7	3.507
338.15	.4	.44	352.4	3.524
343.15	.4	.44	354	3.54
348.15	.4	.44	356	3.56
353.15	.4	.44	358.3	3.583
