Measured thermophysical data. Low-temperature heat capacity of Al(C11H19O2)3
Source: Thermochim. Acta, 2014, 10.1016/j.tca.2014.09.017
Compound 1: tris(2,2,6,6-tetramethyl-3,5-heptandionato)aluminium, C33H57AlO6

System: tris(2,2,6,6-tetramethyl-3,5-heptandionato)aluminium; phases: Crystal, Liquid, Air at 1 atmosphere
Property: Normal melting temperature, K (Crystal); method: Visual observation
Normal melting temperature, K	uncertainty
536	

System: tris(2,2,6,6-tetramethyl-3,5-heptandionato)aluminium; phases: Crystal
Fixed: Pressure, kPa = 101.325
Property: Molar heat capacity at constant pressure, J/K/mol (Crystal); method: Small (less than 1 g) adiabatic calorimetry
Temperature, K	Molar heat capacity at constant pressure, J/K/mol	uncertainty
6.17	6.542	1
7.76	11.98	1
8.89	16.47	1
9.85	20.58	1
11.12	26.55	1
12.7	34.31	1
14.13	41.8	1
16.04	51.6	1
18.78	64.54	1
21.94	79.72	.3
25.77	95.95	.3
30.11	112.9	.3
34.24	128.4	.3
39.87	147.8	.3
45.89	168.1	.3
50.17	182.7	.3
54.68	198	.3
59.82	215.9	.3
65.09	234.1	.3
70.13	251.9	.3
74.68	268.2	.3
79.77	286.5	.3
81.65	293.2	.15
84.01	302.3	.15
84.06	302.2	.15
88.56	318.4	.15
88.8	319.8	.15
92.94	334.4	.15
93.08	335.4	.15
96.57	347.7	.15
97.49	351.2	.15
100.48	361.6	.15
101.5	365.7	.15
104.66	377.1	.15
111.35	400.6	.15
115.96	416	.15
120.61	431	.15
124.91	444.7	.15
128.89	457.3	.15
132.77	469.5	.15
136.99	482.6	.15
141.32	495.8	.15
145.36	507.9	.15
149.31	519	.15
153.18	530.5	.15
157.62	543.3	.15
162.87	557.7	.15
168.04	572.5	.15
172.87	585.5	.15
177.63	598.5	.15
182.32	611.1	.15
187.37	623.2	.15
192.74	637.2	.15
197.42	649.1	.15
203.21	662.6	.15
208.3	675.5	.15
213.29	687.3	.15
218.28	699.1	.15
223.25	710.3	.15
228.16	722.1	.15
233.01	732.1	.15
238.37	744.6	.15
244.43	758.3	.15
250.64	772.6	.15
256.75	786.7	.15
262.86	800.9	.15
268.85	814.6	.15
274.69	828.5	.15
280.72	842.3	.15
287.18	857.3	.15
293.48	871.7	.15
299.58	885.3	.15
304.21	896.1	.15
309.88	909.3	.15
314.41	919.7	.15
320.11	932.9	.15
