Measured thermophysical data. Application of a DSC based vapor pressure method for examining the extent of ideality in associating binary mixtures with narrow boiling range oil cuts as a mixture component
Source: Thermochim. Acta, 2016, 10.1016/j.tca.2016.05.011
Compound 1: o-tert-butylphenol, C10H14O, purity 98.5%
Compound 2: benzene, C6H6, purity 99.8%
Compound 3: toluene, C7H8, purity 99.8%

System: o-tert-butylphenol; phases: Liquid, Gas
Property: Boiling temperature at pressure P, K (Liquid); method: DSC
Pressure, kPa	Boiling temperature at pressure P, K	uncertainty
9.9	418.5	
19.82	438.6	
29.75	451.7	
49.63	469.4	
64.61	479.2	

System: toluene; phases: Liquid, Gas
Property: Boiling temperature at pressure P, K (Liquid); method: DSC
Pressure, kPa	Boiling temperature at pressure P, K	uncertainty
29.65	345.5	
49.44	360.6	
69.2	371.1	
101.6	384.3	
247.5	418.6	

System: benzene + toluene; phases: Liquid, Gas
Fixed: Mole fraction of benzene = .5
Property: Boiling temperature at pressure P, K (Liquid); method: DSC
Pressure, kPa	Boiling temperature at pressure P, K	uncertainty
41.72	338.2	
49.54	343.3	
64	351.2	
99.21	365.6	
196.68	390.6	
