Measured thermophysical data. The solid liquid phase diagrams of binary mixtures of even saturated fatty acids differing by six carbon atoms
Source: Thermochim. Acta, 2009, 10.1016/j.tca.2009.06.018
Compound 1: caprylic acid, C8H16O2, purity 99%
Compound 2: capric acid, C10H20O2, purity 99%
Compound 3: lauric acid, C12H24O2, purity 99%
Compound 4: myristic acid, C14H28O2, purity 99%
Compound 5: palmitic acid, C16H32O2, purity 99%
Compound 6: stearic acid, C18H36O2, purity 97%

System: caprylic acid; phases: Crystal, Liquid, Air at 1 atmosphere
Property: Normal melting temperature, K (Crystal); method: DSC/DTA
Normal melting temperature, K	uncertainty
289.63	

System: capric acid; phases: Crystal, Liquid, Air at 1 atmosphere
Property: Normal melting temperature, K (Crystal); method: DSC/DTA
Normal melting temperature, K	uncertainty
305.46	

System: lauric acid; phases: Crystal, Liquid, Air at 1 atmosphere
Property: Normal melting temperature, K (Crystal); method: DSC/DTA
Normal melting temperature, K	uncertainty
318.07	

System: myristic acid; phases: Crystal, Liquid, Air at 1 atmosphere
Property: Normal melting temperature, K (Crystal); method: DSC/DTA
Normal melting temperature, K	uncertainty
328.88	

System: palmitic acid; phases: Crystal, Liquid, Air at 1 atmosphere
Property: Normal melting temperature, K (Crystal); method: DSC/DTA
Normal melting temperature, K	uncertainty
337.22	

System: stearic acid; phases: Crystal, Liquid, Air at 1 atmosphere
Property: Normal melting temperature, K (Crystal); method: DSC/DTA
Normal melting temperature, K	uncertainty
343.98	

System: stearic acid + lauric acid; phases: Liquid, Crystal
Fixed: Pressure, kPa = 101.325
Property: Solid-liquid equilibrium temperature, K (Liquid); method: DSC/DTA
Mole fraction of lauric acid	Solid-liquid equilibrium temperature, K	uncertainty
0	343.98	
.1003	341.47	
.1994	339.38	
.2999	337.16	
.4005	334.86	
.4999	331.93	
.6007	328.53	
.6477	327.3	
.7002	322.13	
.7999	316.17	
.8485	312.31	
.8999	313.04	
.9499	316.23	
1	318.07	

System: caprylic acid + myristic acid; phases: Liquid, Crystal
Fixed: Pressure, kPa = 101.325
Property: Solid-liquid equilibrium temperature, K (Liquid); method: DSC/DTA
Mole fraction of caprylic acid	Solid-liquid equilibrium temperature, K	uncertainty
0	328.88	
.1	325.55	
.2001	323.27	
.2999	320.31	
.3998	317.62	
.5	313.86	
.6	307.57	
.6991	303.61	
.7996	297.88	
.8999	284.6	
1	289.63	

System: palmitic acid + capric acid; phases: Liquid, Crystal
Fixed: Pressure, kPa = 101.325
Property: Solid-liquid equilibrium temperature, K (Liquid); method: DSC/DTA
Mole fraction of capric acid	Solid-liquid equilibrium temperature, K	uncertainty
0	337.22	
.1207	334.41	
.1981	331.28	
.2993	328.95	
.3991	326.1	
.5032	322.74	
.5998	319.51	
.7043	313.43	
.7496	305.79	
.7937	304.69	
.8484	299.37	
.9009	298.41	
.9502	302.9	
1	305.46	
