Measured thermophysical data. Thermodynamics of the amino acid -ethylene glycol pair interaction
Source: Thermochim. Acta, 2014, 10.1016/j.tca.2014.03.044
Compound 1: ethylene glycol, C2H6O2
Compound 2: glycine, C2H5NO2
Compound 3: L-histidine, C6H9N3O2
Compound 4: L-phenylalanine, C9H11NO2
Compound 5: benzene, C6H6
Compound 6: water, H2O
Compound 7: 1-butanol, C4H10O
Compound 8: L-alanine, C3H7NO2

System: glycine + ethylene glycol + water; phases: Liquid
Fixed: Pressure, kPa = 101.3
Fixed: Molality, mol/kg of glycine = .002
Property: Molar enthalpy of solution, kJ/mol (Liquid); method: Isoperibol calorimetry
Temperature, K	Solvent: Mole fraction of ethylene glycol	Molar enthalpy of solution, kJ/mol	uncertainty
298.15	0	14.17	
298.15	.01	14.37	
298.15	.015	14.4	
298.15	.025	14.52	
298.15	.035	14.67	
298.15	.045	14.76	
298.15	.05	14.8	
298.15	.06	14.86	
298.15	.08	14.96	
298.15	.085	14.98	
298.15	.1	15.04	
298.15	.112	15.06	
313.15	0	13.5	
313.15	.0101	13.65	
313.15	.0201	13.77	
313.15	.0332	13.9	
313.15	.0498	14.02	
313.15	.0757	14.18	
313.15	.095	14.3	
313.15	.1115	14.38	

System: L-histidine + ethylene glycol + water; phases: Liquid
Fixed: Pressure, kPa = 101.3
Fixed: Molality, mol/kg of L-histidine = .002
Property: Molar enthalpy of solution, kJ/mol (Liquid); method: Isoperibol calorimetry
Temperature, K	Solvent: Mole fraction of ethylene glycol	Molar enthalpy of solution, kJ/mol	uncertainty
298.15	0	14.22	
298.15	.005	14.39	
298.15	.008	14.51	
298.15	.01	14.67	
298.15	.013	14.78	
298.15	.015	14.86	
298.15	.02	15.02	
298.15	.03	15.26	
298.15	.05	15.57	
298.15	.07	15.83	
298.15	.09	15.9	
298.15	.1	15.92	
298.15	.119	15.89	
313.15	0	15.34	
313.15	.0054	15.47	
313.15	.0102	15.58	
313.15	.0201	15.74	
313.15	.0385	16.11	
313.15	.0649	16.39	
313.15	.0791	16.44	
313.15	.1117	16.44	

System: L-phenylalanine + ethylene glycol + water; phases: Liquid
Fixed: Pressure, kPa = 101.3
Fixed: Molality, mol/kg of L-phenylalanine = .002
Property: Molar enthalpy of solution, kJ/mol (Liquid); method: Isoperibol calorimetry
Temperature, K	Solvent: Mole fraction of ethylene glycol	Molar enthalpy of solution, kJ/mol	uncertainty
298.15	0	8.33	
298.15	.011	9.13	
298.15	.026	9.99	
298.15	.032	10.33	
298.15	.051	11.4	
298.15	.061	11.85	
298.15	.078	12.71	
298.15	.107	13.81	
298.15	.124	14.38	
313.15	0	11	
313.15	.0119	11.76	
313.15	.0201	12.26	
313.15	.0352	13.18	
313.15	.0474	13.79	
313.15	.0723	14.85	
313.15	.0888	15.53	
313.15	.121	16.52	

System: benzene + ethylene glycol + water; phases: Liquid
Fixed: Pressure, kPa = 101.3
Fixed: Molality, mol/kg of benzene = .002
Property: Molar enthalpy of solution, kJ/mol (Liquid); method: Isoperibol calorimetry
Temperature, K	Solvent: Mole fraction of ethylene glycol	Molar enthalpy of solution, kJ/mol	uncertainty
298.15	0	2.14	
298.15	.005	2.62	
298.15	.01	2.79	
298.15	.015	3.06	
298.15	.02	3.73	
298.15	.03	4.38	
298.15	.04	5.09	
298.15	.055	5.88	
298.15	.07	6.72	
298.15	.085	7.29	
298.15	.095	7.56	
298.15	.098	7.62	
298.15	.1	7.7	
298.15	.11	8.03	
298.15	.12	8.13	
298.15	.13	8.14	
298.15	.14	8.1	
298.15	.15	8.08	
313.15	0	5.6	
313.15	.01	6.37	
313.15	.02	7.17	
313.15	.035	8.14	
313.15	.05	8.74	
313.15	.081	9.57	
313.15	.1	9.93	
313.15	.12	10.44	
313.15	.15	10.61	

System: glycine + water; phases: Liquid
Property: Molar enthalpy of solution, kJ/mol (Liquid); method: Isoperibol calorimetry
Temperature, K	Pressure, kPa	Molality, mol/kg of glycine	Molar enthalpy of solution, kJ/mol	uncertainty
298.15	101.3	.002	14.17	
313.15	101.3	.002	13.5	

System: L-histidine + water; phases: Liquid
Property: Molar enthalpy of solution, kJ/mol (Liquid); method: Isoperibol calorimetry
Temperature, K	Pressure, kPa	Molality, mol/kg of L-histidine	Molar enthalpy of solution, kJ/mol	uncertainty
298.15	101.3	.002	14.22	
313.15	101.3	.002	15.34	

System: L-phenylalanine + water; phases: Liquid
Property: Molar enthalpy of solution, kJ/mol (Liquid); method: Isoperibol calorimetry
Temperature, K	Pressure, kPa	Molality, mol/kg of L-phenylalanine	Molar enthalpy of solution, kJ/mol	uncertainty
298.15	101.3	.002	8.33	
313.15	101.3	.002	11	

System: benzene + water; phases: Liquid
Property: Molar enthalpy of solution, kJ/mol (Liquid); method: Isoperibol calorimetry
Temperature, K	Pressure, kPa	Molality, mol/kg of benzene	Molar enthalpy of solution, kJ/mol	uncertainty
298.15	101.3	.002	2.14	
313.15	101.3	.002	5.6	
