Measured thermophysical data. Studies of viscosities of dilute solutions of alkylamines  in non-electrolyte solvents  III. Alkylamines in butanols 303.15K
Source: Thermochim. Acta, 2009, 10.1016/j.tca.2009.02.005
Compound 1: propylamine, C3H9N
Compound 2: butylamine, C4H11N
Compound 3: dipropylamine, C6H15N
Compound 4: dibutylamine, C8H19N
Compound 5: triethylamine, C6H15N
Compound 6: tripropylamine, C9H21N
Compound 7: tributylamine, C12H27N
Compound 8: 1-butanol, C4H10O
Compound 9: 2-butanol, dl-, C4H10O

System: propylamine; phases: Liquid
Fixed: Pressure, kPa = 101.325
Property: Mass density, kg/m3 (Liquid); method: Vibrating tube method
Temperature, K	Mass density, kg/m3	uncertainty
303.15	706.1	

System: propylamine; phases: Liquid
Fixed: Pressure, kPa = 101.325
Property: Viscosity, Pa*s (Liquid); method: Capillary tube (Ostwald; Ubbelohde) method
Temperature, K	Viscosity, Pa*s	uncertainty
303.15	.0003527	.000002

System: butylamine; phases: Liquid
Fixed: Pressure, kPa = 101.325
Property: Mass density, kg/m3 (Liquid); method: Vibrating tube method
Temperature, K	Mass density, kg/m3	uncertainty
303.15	728.65	

System: butylamine; phases: Liquid
Fixed: Pressure, kPa = 101.325
Property: Viscosity, Pa*s (Liquid); method: Capillary tube (Ostwald; Ubbelohde) method
Temperature, K	Viscosity, Pa*s	uncertainty
303.15	.0004442	.000002

System: dipropylamine; phases: Liquid
Fixed: Pressure, kPa = 101.325
Property: Mass density, kg/m3 (Liquid); method: Vibrating tube method
Temperature, K	Mass density, kg/m3	uncertainty
303.15	731.21	

System: dipropylamine; phases: Liquid
Fixed: Pressure, kPa = 101.325
Property: Viscosity, Pa*s (Liquid); method: Capillary tube (Ostwald; Ubbelohde) method
Temperature, K	Viscosity, Pa*s	uncertainty
303.15	.0005118	.000002

System: dibutylamine; phases: Liquid
Fixed: Pressure, kPa = 101.325
Property: Mass density, kg/m3 (Liquid); method: Vibrating tube method
Temperature, K	Mass density, kg/m3	uncertainty
303.15	752.28	

System: dibutylamine; phases: Liquid
Fixed: Pressure, kPa = 101.325
Property: Viscosity, Pa*s (Liquid); method: Capillary tube (Ostwald; Ubbelohde) method
Temperature, K	Viscosity, Pa*s	uncertainty
303.15	.0007584	.000002

System: triethylamine; phases: Liquid
Fixed: Pressure, kPa = 101.325
Property: Mass density, kg/m3 (Liquid); method: Vibrating tube method
Temperature, K	Mass density, kg/m3	uncertainty
303.15	718.44	

System: triethylamine; phases: Liquid
Fixed: Pressure, kPa = 101.325
Property: Viscosity, Pa*s (Liquid); method: Capillary tube (Ostwald; Ubbelohde) method
Temperature, K	Viscosity, Pa*s	uncertainty
303.15	.0003296	.000002

System: tripropylamine; phases: Liquid
Fixed: Pressure, kPa = 101.325
Property: Mass density, kg/m3 (Liquid); method: Vibrating tube method
Temperature, K	Mass density, kg/m3	uncertainty
303.15	749.15	

System: tripropylamine; phases: Liquid
Fixed: Pressure, kPa = 101.325
Property: Viscosity, Pa*s (Liquid); method: Capillary tube (Ostwald; Ubbelohde) method
Temperature, K	Viscosity, Pa*s	uncertainty
303.15	.0005977	.000002

System: tributylamine; phases: Liquid
Fixed: Pressure, kPa = 101.325
Property: Mass density, kg/m3 (Liquid); method: Vibrating tube method
Temperature, K	Mass density, kg/m3	uncertainty
303.15	770.21	

System: tributylamine; phases: Liquid
Fixed: Pressure, kPa = 101.325
Property: Viscosity, Pa*s (Liquid); method: Capillary tube (Ostwald; Ubbelohde) method
Temperature, K	Viscosity, Pa*s	uncertainty
303.15	.001167	.000002

System: 1-butanol; phases: Liquid
Fixed: Pressure, kPa = 101.325
Property: Mass density, kg/m3 (Liquid); method: Vibrating tube method
Temperature, K	Mass density, kg/m3	uncertainty
303.15	801.92	

System: 1-butanol; phases: Liquid
Fixed: Pressure, kPa = 101.325
Property: Viscosity, Pa*s (Liquid); method: Capillary tube (Ostwald; Ubbelohde) method
Temperature, K	Viscosity, Pa*s	uncertainty
303.15	.002255	.000002

System: 2-butanol, dl-; phases: Liquid
Fixed: Pressure, kPa = 101.325
Property: Mass density, kg/m3 (Liquid); method: Vibrating tube method
Temperature, K	Mass density, kg/m3	uncertainty
303.15	798.4	

System: 2-butanol, dl-; phases: Liquid
Fixed: Pressure, kPa = 101.325
Property: Viscosity, Pa*s (Liquid); method: Capillary tube (Ostwald; Ubbelohde) method
Temperature, K	Viscosity, Pa*s	uncertainty
303.15	.002471	.000002

System: 1-butanol + propylamine; phases: Liquid
Fixed: Temperature, K = 303.15
Fixed: Pressure, kPa = 101
Property: Viscosity, Pa*s (Liquid); method: Capillary tube (Ostwald; Ubbelohde) method
Molality, mol/kg of propylamine	Viscosity, Pa*s	uncertainty
.1619	.0022138	.000002
.3046	.0021853	.000002
.4275	.0021599	.000002
.5845	.0021334	.000002
.6943	.0021134	.000002
.896	.0020827	.000002
1.061	.0020531	.000002
1.1109	.0020377	.000002
1.276	.0020131	.000002

System: 1-butanol + butylamine; phases: Liquid
Fixed: Temperature, K = 303.15
Fixed: Pressure, kPa = 101
Property: Viscosity, Pa*s (Liquid); method: Capillary tube (Ostwald; Ubbelohde) method
Molality, mol/kg of butylamine	Viscosity, Pa*s	uncertainty
.1457	.0022279	.000002
.283	.0022049	.000002
.3843	.0021848	.000002
.5808	.0021546	.000002
.7106	.0021352	.000002
.8452	.0021157	.000002
1.0536	.0020874	.000002
1.226	.0020592	.000002
1.3374	.0020399	.000002

System: 1-butanol + dipropylamine; phases: Liquid
Fixed: Temperature, K = 303.15
Fixed: Pressure, kPa = 101
Property: Viscosity, Pa*s (Liquid); method: Capillary tube (Ostwald; Ubbelohde) method
Molality, mol/kg of dipropylamine	Viscosity, Pa*s	uncertainty
.137	.0022247	.000002
.264	.0021958	.000002
.4699	.002165	.000002
.5753	.002145	.000002
.7035	.0021211	.000002
.8388	.0020981	.000002
1.0188	.0020642	.000002
1.1582	.0020404	.000002
1.3643	.0020059	.000002

System: 1-butanol + dibutylamine; phases: Liquid
Fixed: Temperature, K = 303.15
Fixed: Pressure, kPa = 101
Property: Viscosity, Pa*s (Liquid); method: Capillary tube (Ostwald; Ubbelohde) method
Molality, mol/kg of dibutylamine	Viscosity, Pa*s	uncertainty
.1576	.0022299	.000002
.2477	.0022133	.000002
.3385	.0021982	.000002
.4782	.0021774	.000002
.5849	.0021632	.000002
.6889	.00215	.000002
.8093	.0021338	.000002
.912	.0021197	.000002
1.5228	.0020305	.000002

System: 1-butanol + triethylamine; phases: Liquid
Fixed: Temperature, K = 303.15
Fixed: Pressure, kPa = 101
Property: Viscosity, Pa*s (Liquid); method: Capillary tube (Ostwald; Ubbelohde) method
Molality, mol/kg of triethylamine	Viscosity, Pa*s	uncertainty
.1482	.0022234	.000002
.3064	.0021928	.000002
.4546	.0021621	.000002
.588	.0021335	.000002
.7471	.0020976	.000002
.8993	.0020759	.000002
1.0564	.0020522	.000002
1.2402	.0020194	.000002
1.4181	.0019908	.000002

System: 1-butanol + tripropylamine; phases: Liquid
Fixed: Temperature, K = 303.15
Fixed: Pressure, kPa = 101
Property: Viscosity, Pa*s (Liquid); method: Capillary tube (Ostwald; Ubbelohde) method
Molality, mol/kg of tripropylamine	Viscosity, Pa*s	uncertainty
.1619	.0022249	.000002
.2673	.0022009	.000002
.4223	.0021783	.000002
.562	.0021568	.000002
.7232	.0021335	.000002
.8871	.0021124	.000002
1.0794	.0020846	.000002
1.1762	.002074	.000002
1.2751	.0020595	.000002

System: 1-butanol + tributylamine; phases: Liquid
Fixed: Temperature, K = 303.15
Fixed: Pressure, kPa = 101
Property: Viscosity, Pa*s (Liquid); method: Capillary tube (Ostwald; Ubbelohde) method
Molality, mol/kg of tributylamine	Viscosity, Pa*s	uncertainty
.1056	.0022447	.000002
.1995	.0022358	.000002
.3155	.0022259	.000002
.4693	.0022108	.000002
.6263	.0021971	.000002
.702	.0021906	.000002
.8541	.0021778	.000002
1.0578	.0021603	.000002
1.3219	.0021385	.000002

System: 2-butanol, dl- + propylamine; phases: Liquid
Fixed: Temperature, K = 303.15
Fixed: Pressure, kPa = 101
Property: Viscosity, Pa*s (Liquid); method: Capillary tube (Ostwald; Ubbelohde) method
Molality, mol/kg of propylamine	Viscosity, Pa*s	uncertainty
.1148	.0024391	.000002
.2577	.002408	.000002
.4034	.0023769	.000002
.5894	.0023427	.000002
.6475	.0023289	.000002
.8257	.0023003	.000002
.9822	.0022766	.000002
1.1085	.0022527	.000002
1.2557	.0022239	.000002

System: 2-butanol, dl- + butylamine; phases: Liquid
Fixed: Temperature, K = 303.15
Fixed: Pressure, kPa = 101
Property: Viscosity, Pa*s (Liquid); method: Capillary tube (Ostwald; Ubbelohde) method
Molality, mol/kg of butylamine	Viscosity, Pa*s	uncertainty
.1381	.0024378	.000002
.2757	.0024102	.000002
.4237	.0023811	.000002
.5356	.0023644	.000002
.7262	.0023324	.000002
.8465	.0023126	.000002
1.0474	.0022834	.000002
1.2178	.0022598	.000002
1.4233	.0022287	.000002

System: 2-butanol, dl- + dipropylamine; phases: Liquid
Fixed: Temperature, K = 303.15
Fixed: Pressure, kPa = 101
Property: Viscosity, Pa*s (Liquid); method: Capillary tube (Ostwald; Ubbelohde) method
Molality, mol/kg of dipropylamine	Viscosity, Pa*s	uncertainty
.1289	.0024416	.000002
.2847	.0024112	.000002
.4493	.0023811	.000002
.5873	.0023584	.000002
.7095	.0023356	.000002
.8501	.0023129	.000002
1.0231	.0022859	.000002
1.2835	.0022506	.000002
1.3405	.0022384	.000002

System: 2-butanol, dl- + dibutylamine; phases: Liquid
Fixed: Temperature, K = 303.15
Fixed: Pressure, kPa = 101
Property: Viscosity, Pa*s (Liquid); method: Capillary tube (Ostwald; Ubbelohde) method
Molality, mol/kg of dibutylamine	Viscosity, Pa*s	uncertainty
.1146	.0024461	.000002
.2439	.0024201	.000002
.3771	.0023984	.000002
.4423	.0023891	.000002
.592	.0023692	.000002
.713	.0023529	.000002
.8628	.0023322	.000002
.9566	.0023198	.000002
1.111	.0022987	.000002

System: 2-butanol, dl- + triethylamine; phases: Liquid
Fixed: Temperature, K = 303.15
Fixed: Pressure, kPa = 101
Property: Viscosity, Pa*s (Liquid); method: Capillary tube (Ostwald; Ubbelohde) method
Molality, mol/kg of triethylamine	Viscosity, Pa*s	uncertainty
.1482	.0024358	.000002
.3064	.0024061	.000002
.4546	.0023803	.000002
.588	.0023566	.000002
.7471	.0023304	.000002
.8993	.0023015	.000002
1.0564	.0022762	.000002
1.2402	.0022461	.000002
1.4181	.0022166	.000002

System: 2-butanol, dl- + tripropylamine; phases: Liquid
Fixed: Temperature, K = 303.15
Fixed: Pressure, kPa = 101
Property: Viscosity, Pa*s (Liquid); method: Capillary tube (Ostwald; Ubbelohde) method
Molality, mol/kg of tripropylamine	Viscosity, Pa*s	uncertainty
.1232	.0024484	.000002
.2757	.0024229	.000002
.4146	.0023999	.000002
.5621	.0023787	.000002
.7411	.0023519	.000002
.8822	.0023323	.000002
.9695	.0023171	.000002
1.1517	.0022913	.000002
1.3633	.0022643	.000002

System: 2-butanol, dl- + tributylamine; phases: Liquid
Fixed: Temperature, K = 303.15
Fixed: Pressure, kPa = 101
Property: Viscosity, Pa*s (Liquid); method: Capillary tube (Ostwald; Ubbelohde) method
Molality, mol/kg of tributylamine	Viscosity, Pa*s	uncertainty
.1538	.0024562	.000002
.3007	.0024388	.000002
.4554	.0024233	.000002
.5935	.0024093	.000002
.7036	.0023987	.000002
.8296	.0023867	.000002
.9923	.0023716	.000002
1.1389	.0023588	.000002
1.3052	.0023445	.000002
