Measured thermophysical data. Differential scanning calorimetric studies on the thermotropic phase behavior of dry and hydrated forms of N-acyltyramines
Source: Thermochim. Acta, 2014, 10.1016/j.tca.2014.03.030
Compound 1: N-decanoyltyramine, C18H29NO2
Compound 2: N-lauroyltyramine, C20H33NO2
Compound 3: N-myristoyltyramine, C22H37NO2
Compound 4: N-palmitoyltyramine, C24H41NO2

System: N-decanoyltyramine; phases: Crystal, Liquid, Air at 1 atmosphere
Property: Normal melting temperature, K (Crystal); method: DSC/DTA
Normal melting temperature, K	uncertainty
354.62	

System: N-decanoyltyramine; phases: Crystal, Liquid, Air at 1 atmosphere
Property: Molar enthalpy of transition or fusion, kJ/mol (Crystal); method: DSC
Molar enthalpy of transition or fusion, kJ/mol	uncertainty
21.25472	

System: N-lauroyltyramine; phases: Crystal, Liquid, Air at 1 atmosphere
Property: Normal melting temperature, K (Crystal); method: DSC/DTA
Normal melting temperature, K	uncertainty
364.54	

System: N-lauroyltyramine; phases: Crystal, Liquid, Air at 1 atmosphere
Property: Molar enthalpy of transition or fusion, kJ/mol (Crystal); method: DSC
Molar enthalpy of transition or fusion, kJ/mol	uncertainty
27.99096	

System: N-myristoyltyramine; phases: Crystal 1, Liquid, Air at 1 atmosphere
Property: Normal melting temperature, K (Crystal 1); method: DSC/DTA
Normal melting temperature, K	uncertainty
371.2	

System: N-myristoyltyramine; phases: Crystal 1, Liquid, Air at 1 atmosphere
Property: Molar enthalpy of transition or fusion, kJ/mol (Crystal 1); method: DSC
Molar enthalpy of transition or fusion, kJ/mol	uncertainty
43.63912	

System: N-palmitoyltyramine; phases: Crystal 1, Liquid, Air at 1 atmosphere
Property: Normal melting temperature, K (Crystal 1); method: DSC/DTA
Normal melting temperature, K	uncertainty
376.91	

System: N-palmitoyltyramine; phases: Crystal 1, Liquid, Air at 1 atmosphere
Property: Molar enthalpy of transition or fusion, kJ/mol (Crystal 1); method: DSC
Molar enthalpy of transition or fusion, kJ/mol	uncertainty
49.5804	
