Measured thermophysical data. Thermodynamic excess quantities of ternary Au Co Pd melts by computer-aided  Knudsen cell mass spectrometry
Source: Thermochim. Acta, 2009, 10.1016/j.tca.2009.05.010
Compound 1: gold, Au
Compound 2: cobalt, Co
Compound 3: palladium, Pd

System: palladium + cobalt + gold; phases: Liquid
Fixed: Temperature, K = 1800
Fixed: Pressure, kPa = 101.325
Property: Excess molar Gibbs energy, kJ/mol (Liquid); method: Knudsen
Mole fraction of cobalt	Mole fraction of palladium	Excess molar Gibbs energy, kJ/mol	uncertainty
.5	0	3.06	
.45	.1	1.69	
.4	.2	.455	
.35	.3	-.594	
.3	.4	-1.43	
.25	.5	-2.01	
.2	.6	-2.31	
.15	.7	-2.29	
.1	.8	-1.93	
.05	.9	-1.17	

System: palladium + cobalt + gold; phases: Liquid
Fixed: Temperature, K = 1800
Fixed: Pressure, kPa = 101.325
Property: Excess molar Gibbs energy, kJ/mol (Liquid); method: Knudsen
Mole fraction of palladium	Mole fraction of gold	Excess molar Gibbs energy, kJ/mol	uncertainty
.5	0	-5.75	
.45	.1	-3.63	
.4	.2	-2.13	
.35	.3	-1.14	
.3	.4	-.529	
.25	.5	-.196	
.2	.6	-.048	
.15	.7	-.006	
.1	.8	-.01	
.05	.9	-.016	

System: palladium + cobalt + gold; phases: Liquid
Fixed: Temperature, K = 1800
Fixed: Pressure, kPa = 101.325
Property: Excess molar enthalpy (molar enthalpy of mixing), kJ/mol (Liquid); method: Knudsen
Mole fraction of palladium	Mole fraction of gold	Excess molar enthalpy (molar enthalpy of mixing), kJ/mol	uncertainty
.5	0	-12.8	
.45	.1	-7.4	
.4	.2	-3.78	
.35	.3	-1.64	
.3	.4	-.643	
.25	.5	-.472	
.2	.6	-.793	
.15	.7	-1.27	
.1	.8	-1.55	
.05	.9	-1.26	

System: palladium + cobalt + gold; phases: Liquid
Fixed: Temperature, K = 1800
Fixed: Pressure, kPa = 101.325
Property: Excess molar enthalpy (molar enthalpy of mixing), kJ/mol (Liquid); method: Knudsen
Mole fraction of cobalt	Mole fraction of palladium	Excess molar enthalpy (molar enthalpy of mixing), kJ/mol	uncertainty
.5	0	3.06	
.45	.1	1.69	
.4	.2	.455	
.35	.3	-.594	
.3	.4	-1.43	
.25	.5	-2.01	
.2	.6	-2.31	
.15	.7	-2.29	
.1	.8	-1.93	
.05	.9	-1.17	
