Measured thermophysical data. Enthalpies of solution of a-alanyl-a-alanine in aqueous solution of amides at 298.15 K
Source: Thermochim. Acta, 2012, 10.1016/j.tca.2012.02.028
Compound 1: .beta.-alanine, N-.beta.-alanyl-, C6H12N2O3, purity 98%
Compound 2: N,N-dimethylformamide, C3H7NO, purity 99%
Compound 3: formimidic acid, CH3NO, purity 99%
Compound 4: NMF, C2H5NO, purity 99%
Compound 5: acetamide, N,N-dimethyl-, C4H9NO, purity 99%
Compound 6: water, H2O, purity 99.9%

System: formimidic acid + .beta.-alanine, N-.beta.-alanyl- + water; phases: Liquid
Fixed: Molality, mol/kg of .beta.-alanine, N-.beta.-alanyl- = .01
Fixed: Temperature, K = 298.15
Fixed: Pressure, kPa = 101
Property: Molar enthalpy of solution, kJ/mol (Liquid); method: Isoperibol calorimetry
Solvent: Molality, mol/kg of formimidic acid	Molar enthalpy of solution, kJ/mol	uncertainty
1.242	5.11	.02
2.345	4.78	.02
3.748	4.59	.02
5.079	4.24	.01
7.521	3.74	.01
8.477	3.51	.01
10.867	3.36	.01
12.756	3.21	.01
17.652	3.35	.01
25.445	3.91	.02
35.557	3.91	.02

System: NMF + .beta.-alanine, N-.beta.-alanyl- + water; phases: Liquid
Fixed: Molality, mol/kg of .beta.-alanine, N-.beta.-alanyl- = .01
Fixed: Temperature, K = 298.15
Fixed: Pressure, kPa = 101
Property: Molar enthalpy of solution, kJ/mol (Liquid); method: Isoperibol calorimetry
Solvent: Molality, mol/kg of NMF	Molar enthalpy of solution, kJ/mol	uncertainty
.721	6.23	.02
1.536	6.63	.02
2.415	6.86	.01
3.396	7.35	.01
4.457	7.69	.02
5.599	8.16	.01
6.914	8.63	.01
8.409	9.11	.01
10.087	9.2	.01
12.006	9.24	.01
16.781	8.94	.01
34.557	7.98	.02

System: N,N-dimethylformamide + .beta.-alanine, N-.beta.-alanyl- + water; phases: Liquid
Fixed: Molality, mol/kg of .beta.-alanine, N-.beta.-alanyl- = .01
Fixed: Temperature, K = 298.15
Fixed: Pressure, kPa = 101
Property: Molar enthalpy of solution, kJ/mol (Liquid); method: Isoperibol calorimetry
Solvent: Molality, mol/kg of N,N-dimethylformamide	Molar enthalpy of solution, kJ/mol	uncertainty
.717	6.38	.02
1.193	6.84	.02
2.102	7.51	.02
2.598	7.94	.01
3.528	8.57	.01
4.372	9.16	.01
5.586	10.09	.01
6.503	10.63	.01
9.282	11.76	.01
12.996	13.22	.01
18.183	14.03	.01
25.926	15.07	.02

System: acetamide, N,N-dimethyl- + .beta.-alanine, N-.beta.-alanyl- + water; phases: Liquid
Fixed: Molality, mol/kg of .beta.-alanine, N-.beta.-alanyl- = .01
Fixed: Temperature, K = 298.15
Fixed: Pressure, kPa = 101
Property: Molar enthalpy of solution, kJ/mol (Liquid); method: Isoperibol calorimetry
Solvent: Molality, mol/kg of acetamide, N,N-dimethyl-	Molar enthalpy of solution, kJ/mol	uncertainty
.476	6.28	.02
.978	6.66	.02
1.553	7.08	.01
2.136	7.61	.01
2.852	8.24	.01
3.565	8.98	.01
4.439	9.64	.01
5.368	10.66	.01
6.472	11.32	.01
7.714	12.11	.02
10.759	13.93	.02
17.797	16.13	.03
