Measured thermophysical data. Thermodynamics of mixtures containing amines. XVI. CE pm of 1-butanol, 1-octanol or 1-decanol + benzylamine systems at (298.15, 308.15, 318.15 and 333.15) K
Source: Thermochim. Acta, 2015, 10.1016/j.tca.2014.10.018
Compound 1: benzylamine, C7H9N, purity 99%
Compound 2: 1-octanol, C8H18O, purity 99.5%
Compound 3: 1-butanol, C4H10O, purity 99.5%
Compound 4: 1-decanol, C10H22O, purity 99%

System: benzylamine; phases: Liquid
Fixed: Pressure, kPa = 101.325
Property: Mass density, kg/m3 (Liquid); method: Vibrating tube method
Temperature, K	Mass density, kg/m3	uncertainty
298.15	978.337	.05

System: benzylamine; phases: Liquid
Property: Molar heat capacity at constant pressure, J/K/mol (Liquid); method: Small sample (50 mg) scanning calorimetry
Temperature, K	Pressure, kPa	Molar heat capacity at constant pressure, J/K/mol	uncertainty
298.15	100	207.31	2.0731
308.15	100	209.39	2.0939
318.15	100	211.89	2.1189
333.15	100	215.89	2.1589

System: 1-octanol; phases: Liquid
Fixed: Pressure, kPa = 101.325
Property: Mass density, kg/m3 (Liquid); method: Vibrating tube method
Temperature, K	Mass density, kg/m3	uncertainty
298.15	821.72	.05

System: 1-octanol; phases: Liquid
Property: Molar heat capacity at constant pressure, J/K/mol (Liquid); method: Small sample (50 mg) scanning calorimetry
Temperature, K	Pressure, kPa	Molar heat capacity at constant pressure, J/K/mol	uncertainty
298.15	100	304.25	3.0425
308.15	100	314.61	3.1461
318.15	100	326.2	3.262
333.15	100	344.13	3.4413

System: 1-butanol; phases: Liquid
Fixed: Pressure, kPa = 101.325
Property: Mass density, kg/m3 (Liquid); method: Vibrating tube method
Temperature, K	Mass density, kg/m3	uncertainty
298.15	805.901	.05

System: 1-butanol; phases: Liquid
Property: Molar heat capacity at constant pressure, J/K/mol (Liquid); method: Small sample (50 mg) scanning calorimetry
Temperature, K	Pressure, kPa	Molar heat capacity at constant pressure, J/K/mol	uncertainty
298.15	100	177.5	1.775
308.15	100	184.68	1.8468
318.15	100	192.41	1.9241
333.15	100	205.35	2.0535

System: 1-decanol; phases: Liquid
Fixed: Pressure, kPa = 101.325
Property: Mass density, kg/m3 (Liquid); method: Vibrating tube method
Temperature, K	Mass density, kg/m3	uncertainty
298.15	826.58	.05

System: 1-decanol; phases: Liquid
Property: Molar heat capacity at constant pressure, J/K/mol (Liquid); method: Small sample (50 mg) scanning calorimetry
Temperature, K	Pressure, kPa	Molar heat capacity at constant pressure, J/K/mol	uncertainty
298.15	100	370.16	3.7016
308.15	100	382.22	3.8222
318.15	100	394.98	3.9498
333.15	100	413.83	4.1383

System: 1-butanol + benzylamine; phases: Liquid
Fixed: Pressure, kPa = 100
Property: Molar heat capacity at constant pressure, J/K/mol (Liquid); method: Small sample (50 mg) scanning calorimetry
Temperature, K	Mole fraction of 1-butanol	Molar heat capacity at constant pressure, J/K/mol	uncertainty
298.15	0	207.31	2.0731
298.15	.1035	206.55	2.0655
298.15	.2	206.78	2.0678
298.15	.3026	207.34	2.0734
298.15	.4314	205.85	2.0585
298.15	.5009	204.29	2.0429
298.15	.597	201.29	2.0129
298.15	.7931	191.73	1.9173
298.15	.9006	184.92	1.8492
298.15	1	177.5	1.775
308.15	0	209.39	2.0939
308.15	.1035	209.09	2.0909
308.15	.2	209.91	2.0991
308.15	.3026	210.89	2.1089
308.15	.4314	209.32	2.0932
308.15	.5009	208.67	2.0867
308.15	.597	206.17	2.0617
308.15	.7931	197.6	1.976
308.15	.9006	191.19	1.9119
308.15	1	184.68	1.8468
318.15	0	211.89	2.1189
318.15	.1035	212.54	2.1254
318.15	.2	213.5	2.135
318.15	.3026	214.94	2.1494
318.15	.4314	213.73	2.1373
318.15	.5009	213.07	2.1307
318.15	.597	211.08	2.1108
318.15	.7931	203.86	2.0386
318.15	.9006	198.37	1.9837
318.15	1	192.41	1.9241
333.15	0	215.89	2.1589
333.15	.1035	216.96	2.1696
333.15	.2	219.28	2.1928
333.15	.3026	221.26	2.2126
333.15	.4314	220.33	2.2033
333.15	.5009	220.51	2.2051
333.15	.597	219.17	2.1917
333.15	.7931	213.72	2.1372
333.15	.9006	209.69	2.0969
333.15	1	205.35	2.0535

System: benzylamine + 1-octanol; phases: Liquid
Fixed: Pressure, kPa = 100
Property: Molar heat capacity at constant pressure, J/K/mol (Liquid); method: Small sample (50 mg) scanning calorimetry
Temperature, K	Mole fraction of 1-octanol	Molar heat capacity at constant pressure, J/K/mol	uncertainty
298.15	0	207.31	2.0731
298.15	.1002	218.92	2.1892
298.15	.1998	231.67	2.3167
298.15	.2916	243.46	2.4346
298.15	.4017	257.18	2.5718
298.15	.6089	278.57	2.7857
298.15	.7344	287.84	2.8784
298.15	.7971	292.56	2.9256
298.15	.8536	296.7	2.967
298.15	.8998	299.32	2.9932
298.15	.9452	301.2	3.012
298.15	1	304.25	3.0425
308.15	0	209.39	2.0939
308.15	.1002	221.77	2.2177
308.15	.1998	235.09	2.3509
308.15	.2916	246.96	2.4696
308.15	.4017	261.52	2.6152
308.15	.4925	272.65	2.7265
308.15	.6089	284.2	2.842
308.15	.7971	300.41	3.0041
308.15	.8536	305.29	3.0529
308.15	.8998	308.46	3.0846
308.15	.9452	311.09	3.1109
308.15	1	314.61	3.1461
318.15	0	211.89	2.1189
318.15	.1002	224.92	2.2492
318.15	.1998	238.74	2.3874
318.15	.2916	251.64	2.5164
318.15	.4017	266.25	2.6625
318.15	.4925	277.91	2.7791
318.15	.6089	290.53	2.9053
318.15	.7344	302.87	3.0287
318.15	.7971	308.84	3.0884
318.15	.8536	314.37	3.1437
318.15	.8998	318.46	3.1846
318.15	.9452	321.96	3.2196
318.15	1	326.2	3.262
333.15	0	215.89	2.1589
333.15	.1002	230.12	2.3012
333.15	.1998	244.51	2.4451
333.15	.2916	258.04	2.5804
333.15	.4017	273.91	2.7391
333.15	.4925	286.46	2.8646
333.15	.6089	300.44	3.0044
333.15	.7971	322.27	3.2227
333.15	.8998	334.07	3.3407
333.15	.9452	338.62	3.3862
333.15	1	344.13	3.4413

System: benzylamine + 1-decanol; phases: Liquid
Fixed: Pressure, kPa = 100
Property: Molar heat capacity at constant pressure, J/K/mol (Liquid); method: Small sample (50 mg) scanning calorimetry
Temperature, K	Mole fraction of 1-decanol	Molar heat capacity at constant pressure, J/K/mol	uncertainty
298.15	0	207.31	2.0731
298.15	.1009	225.95	2.2595
298.15	.1927	242.91	2.4291
298.15	.2535	255.1	2.551
298.15	.2965	263.2	2.632
298.15	.4044	283.01	2.8301
298.15	.4948	299.51	2.9951
298.15	.5954	316.56	3.1656
298.15	.6972	332.05	3.3205
298.15	.7998	347.09	3.4709
298.15	.898	360.26	3.6026
298.15	.9448	365.23	3.6523
298.15	1	370.16	3.7016
308.15	0	209.39	2.0939
308.15	.1009	229.04	2.2904
308.15	.1927	246.48	2.4648
308.15	.2535	259.17	2.5917
308.15	.2965	267.45	2.6745
308.15	.4044	287.86	2.8786
308.15	.4948	305.01	3.0501
308.15	.5954	322.95	3.2295
308.15	.6972	339.49	3.3949
308.15	.7998	355.82	3.5582
308.15	.898	370.16	3.7016
308.15	.9448	376.43	3.7643
308.15	1	382.22	3.8222
318.15	0	211.89	2.1189
318.15	.1009	232.17	2.3217
318.15	.1927	250.57	2.5057
318.15	.2535	263	2.63
318.15	.2965	272.13	2.7213
318.15	.4044	293.29	2.9329
318.15	.4948	311.14	3.1114
318.15	.5954	329.88	3.2988
318.15	.6972	347.86	3.4786
318.15	.7998	365.52	3.6552
318.15	.898	381.27	3.8127
318.15	.9448	388.18	3.8818
318.15	1	394.98	3.9498
333.15	0	215.89	2.1589
333.15	.1009	237.73	2.3773
333.15	.1927	256.68	2.5668
333.15	.2535	270.23	2.7023
333.15	.2965	279.3	2.793
333.15	.4044	301.41	3.0141
333.15	.4948	320.29	3.2029
333.15	.5954	340.56	3.4056
333.15	.6972	360.26	3.6026
333.15	.7998	380.04	3.8004
333.15	.898	398.14	3.9814
333.15	.9448	406.05	4.0605
333.15	1	413.83	4.1383
