Measured thermophysical data. Determination of standard molar enthalpies of formation for the two lead borates:  Pb4B10O19*2.5H2O and Pb6B11O18(OH)9
Source: Thermochim. Acta, 2011, 10.1016/j.tca.2011.01.002
Compound 1: Pb4B10O19Â·2.5H2O, B10H5O21.5Pb4, purity 98%
Compound 2: Pb6B11O18(OH)9, B11H9O27Pb6, purity 98%
Compound 3: plumbous oxide, OPb
Compound 4: boric acid, BH3O3
Compound 5: water, H2O

Reaction: 1 Pb4B10O19Â·2.5H2O + -4 plumbous oxide + -10 boric acid + 12.5 water
Property: Molar enthalpy of reaction, kJ/mol
31.96

Reaction: 1 Pb6B11O18(OH)9 + -6 plumbous oxide + -11 boric acid + 12 water
Property: Molar enthalpy of reaction, kJ/mol
-46.25
