Measured thermophysical data. Reconciling thermal and structural data from the polymorphic transitions of malonamide
Source: Thermochim. Acta, 2009, 10.1016/j.tca.2008.10.019
Compound 1: malonamide, C3H6N2O2

System: malonamide; phases: Crystal, Liquid, Air at 1 atmosphere
Property: Molar enthalpy of transition or fusion, kJ/mol (Crystal); method: DSC/DTA
Molar enthalpy of transition or fusion, kJ/mol	uncertainty
23215.725348	

System: malonamide; phases: Crystal, Liquid, Air at 1 atmosphere
Property: Normal melting temperature, K (Crystal); method: DSC/DTA
Normal melting temperature, K	uncertainty
443.15	
