Measured thermophysical data. Studies of heterogeneous interactions between N-acetyl-N'-methyl-L-a-amino acid amides and  urea molecules in water at 298.15 K
Source: Thermochim. Acta, 2010, 10.1016/j.tca.2009.12.017
Compound 1: N-acetyl-N'-methyl-L-alpha-threoninamide, C7H13N2O3
Compound 2: N-acetyl-N'-methyl-L-alpha-tyrosinamide, C12H17N2O3
Compound 3: N-acetyl-N'-methyl-L-alpha-histidinamide, C9H14N4O2
Compound 4: N-acetyl-N'-methyl-L-alpha-tryptophanamide, C14H15N3O2
Compound 5: urea, CH4N2O
Compound 6: water, H2O, purity 99.8%

System: N-acetyl-N'-methyl-L-alpha-tyrosinamide; phases: Crystal, Liquid, Air at 1 atmosphere
Property: Normal melting temperature, K (Crystal); method: Boetius hot stage apparatus
Normal melting temperature, K	uncertainty
199	1

System: N-acetyl-N'-methyl-L-alpha-histidinamide; phases: Crystal, Liquid, Air at 1 atmosphere
Property: Normal melting temperature, K (Crystal); method: Boetius hot stage apparatus
Normal melting temperature, K	uncertainty
262	3

System: N-acetyl-N'-methyl-L-alpha-tryptophanamide; phases: Crystal, Liquid, Air at 1 atmosphere
Property: Normal melting temperature, K (Crystal); method: Boetius hot stage apparatus
Normal melting temperature, K	uncertainty
189	1

System: urea + water + N-acetyl-N'-methyl-L-alpha-threoninamide; phases: Liquid
Fixed: Mole fraction of N-acetyl-N'-methyl-L-alpha-threoninamide = 0
Fixed: Pressure, kPa = 101
Fixed: Temperature, K = 298.15
Property: Molar enthalpy of solution, kJ/mol (Liquid); method: Isoperibol calorimetry
Solvent: Molality, mol/kg of urea	Molar enthalpy of solution, kJ/mol	uncertainty
0	-6.95	-.03475
.5	-7.02	-.0351
1	-7.1	-.0355
2	-7.17	-.03585
2.5	-7.21	-.03605
3	-7.24	-.0362

System: urea + N-acetyl-N'-methyl-L-alpha-tyrosinamide + water; phases: Liquid
Fixed: Mole fraction of N-acetyl-N'-methyl-L-alpha-tyrosinamide = 0
Fixed: Pressure, kPa = 101
Fixed: Temperature, K = 298.15
Property: Molar enthalpy of solution, kJ/mol (Liquid); method: Isoperibol calorimetry
Solvent: Molality, mol/kg of urea	Molar enthalpy of solution, kJ/mol	uncertainty
0	11.64	.0582
.25	11.5	.0575
.5	11.35	.05675
1	10.98	.0549
1.5	10.63	.05315
2	10.3	.0515
2.5	10	.05
3	9.65	.04825

System: urea + N-acetyl-N'-methyl-L-alpha-histidinamide + water; phases: Liquid
Fixed: Mole fraction of N-acetyl-N'-methyl-L-alpha-histidinamide = 0
Fixed: Pressure, kPa = 101
Fixed: Temperature, K = 298.15
Property: Molar enthalpy of solution, kJ/mol (Liquid); method: Isoperibol calorimetry
Solvent: Molality, mol/kg of urea	Molar enthalpy of solution, kJ/mol	uncertainty
0	12.05	.06025
.5	11.56	.0578
1	11.1	.0555
1.5	10.67	.05335
2	10.34	.0517
2.5	10.27	.05135
3	10.24	.0512

System: urea + N-acetyl-N'-methyl-L-alpha-tryptophanamide + water; phases: Liquid
Fixed: Mole fraction of N-acetyl-N'-methyl-L-alpha-tryptophanamide = 0
Fixed: Pressure, kPa = 101
Fixed: Temperature, K = 298.15
Property: Molar enthalpy of solution, kJ/mol (Liquid); method: Isoperibol calorimetry
Solvent: Molality, mol/kg of urea	Molar enthalpy of solution, kJ/mol	uncertainty
0	13.5	.0675
.25	13.16	.0658
.5	12.74	.0637
1	12.1	.0605
1.5	11.68	.0584
2	11.22	.0561
2.5	11.1	.0555
3	11	.055
