Measured thermophysical data. Phase diagram of ionic liquid aqueous two-phase systems with N-butylpyridinium tetrafluoroborate, ammonium Citrate/Sodium acetate, and water from 308.15 K to 328.15 K
Source: Thermochim. Acta, 2016, 10.1016/j.tca.2016.03.030
Compound 1: N-butylpyridinium tetrafluoroborate, C9H14BF4N, purity 99%
Compound 2: sodium acetate, C2H3NaO2, purity 99%
Compound 3: water, H2O
Compound 4: triammonium citrate, C6H17N3O7, purity 99%

System: sodium acetate + water + N-butylpyridinium tetrafluoroborate; phases: Liquid mixture 1, Liquid mixture 2
Fixed: Pressure, kPa = 101.325
Property: Mass fraction of sodium acetate (Liquid mixture 1); method: Titration method
Temperature, K	Mass fraction of N-butylpyridinium tetrafluoroborate	Mass fraction of sodium acetate	uncertainty
308.15	.7199	.0253	
308.15	.6859	.0271	
308.15	.6583	.0287	
308.15	.6304	.0307	
308.15	.5999	.0331	
308.15	.58	.0353	
308.15	.5648	.0373	
308.15	.5483	.0394	
308.15	.5334	.0406	
308.15	.5174	.0432	
308.15	.5006	.0452	
308.15	.4951	.046	
308.15	.49	.047	
308.15	.4815	.0479	
308.15	.4731	.0492	
308.15	.4659	.0506	
308.15	.4609	.0511	
308.15	.4537	.0521	
308.15	.4422	.0539	
308.15	.4311	.056	
308.15	.4211	.0577	
308.15	.4089	.0604	
308.15	.3985	.062	
308.15	.3934	.0634	
308.15	.3898	.0647	
308.15	.3847	.0654	
308.15	.3792	.0663	
308.15	.3737	.0675	
308.15	.3688	.0682	
308.15	.3631	.07	
308.15	.3571	.0704	
308.15	.3475	.0724	
308.15	.3446	.0734	
308.15	.3401	.0743	
308.15	.3364	.0749	
308.15	.3338	.0758	
308.15	.3246	.0766	
308.15	.318	.0785	
308.15	.3137	.0797	
308.15	.3061	.082	
308.15	.3032	.0829	
308.15	.2973	.0847	
308.15	.2888	.0875	
308.15	.2815	.0899	
308.15	.2761	.0918	
308.15	.2703	.094	
308.15	.2655	.0958	
308.15	.2626	.0969	
308.15	.2593	.0982	
308.15	.2555	.0997	
308.15	.2488	.1025	
308.15	.2442	.1045	
308.15	.2425	.1047	
308.15	.2401	.1063	
308.15	.236	.1082	
308.15	.2325	.1099	
308.15	.2303	.1117	
308.15	.224	.1141	
308.15	.2206	.1167	
308.15	.2171	.1188	
308.15	.2127	.1209	
308.15	.2114	.1215	
308.15	.2087	.1228	
308.15	.2067	.1245	
308.15	.2034	.1271	
308.15	.197	.131	
308.15	.1919	.1338	
308.15	.1879	.1383	
308.15	.1834	.1409	
308.15	.1803	.1447	
308.15	.1775	.1476	
308.15	.173	.1514	
308.15	.1685	.155	
308.15	.1648	.1586	
308.15	.1626	.1619	
308.15	.1598	.1655	
308.15	.1558	.1697	
308.15	.1537	.1764	
308.15	.1499	.1833	
308.15	.1456	.1908	
318.15	.7595	.0321	
318.15	.73	.0343	
318.15	.7031	.0365	
318.15	.679	.0386	
318.15	.6595	.0404	
318.15	.6334	.043	
318.15	.6186	.0445	
318.15	.5984	.0467	
318.15	.5824	.0485	
318.15	.563	.0509	
318.15	.5483	.0527	
318.15	.5282	.0554	
318.15	.5144	.0574	
318.15	.504	.0589	
318.15	.4932	.0606	
318.15	.4525	.0674	
318.15	.434	.0708	
318.15	.4186	.0739	
318.15	.4124	.0752	
318.15	.4055	.0767	
318.15	.3995	.078	
318.15	.3943	.0791	
318.15	.3877	.0807	
318.15	.383	.0818	
318.15	.3794	.0826	
318.15	.3735	.0841	
318.15	.3711	.0847	
318.15	.3681	.0856	
318.15	.3604	.0874	
318.15	.3588	.0878	
318.15	.3539	.0892	
318.15	.3488	.0905	
318.15	.3436	.092	
318.15	.341	.0927	
318.15	.3367	.094	
318.15	.3317	.0955	
318.15	.329	.0963	
318.15	.3264	.0971	
318.15	.3237	.098	
318.15	.3204	.099	
318.15	.3132	.1014	
318.15	.3081	.1031	
318.15	.3071	.1037	
318.15	.3062	.1037	
318.15	.3014	.1054	
318.15	.2991	.1062	
318.15	.2966	.1071	
318.15	.2921	.1088	
318.15	.2864	.1109	
318.15	.2842	.1118	
318.15	.2813	.1121	
318.15	.2772	.1146	
318.15	.2672	.1182	
318.15	.2514	.1241	
318.15	.2444	.1286	
318.15	.2407	.1303	
318.15	.2337	.1345	
318.15	.23	.1364	
318.15	.2241	.1402	
318.15	.2177	.1433	
318.15	.2101	.1484	
318.15	.2086	.1501	
318.15	.2048	.153	
318.15	.2007	.1562	
318.15	.1986	.1585	
318.15	.1895	.1654	
318.15	.185	.1693	
318.15	.1806	.1738	
318.15	.1789	.1762	
318.15	.1744	.1814	
318.15	.1688	.1855	
318.15	.1621	.1892	
318.15	.16	.1933	
318.15	.1584	.1981	
318.15	.152	.2081	
318.15	.1364	.2365	
318.15	.1225	.2755	
318.15	.1208	.3006	
328.15	.6823	.0415	
328.15	.6519	.044	
328.15	.6368	.0457	
328.15	.62	.0469	
328.15	.61	.0479	
328.15	.596	.0495	
328.15	.5785	.0518	
328.15	.569	.0538	
328.15	.5448	.0567	
328.15	.5249	.0601	
328.15	.5128	.0614	
328.15	.4989	.0643	
328.15	.4862	.0669	
328.15	.4793	.0682	
328.15	.4616	.0718	
328.15	.4518	.074	
328.15	.4354	.078	
328.15	.4283	.0797	
328.15	.4228	.0811	
328.15	.4055	.0858	
328.15	.3909	.0899	
328.15	.3891	.0904	
328.15	.3874	.091	
328.15	.3869	.0911	
328.15	.3733	.0953	
328.15	.3688	.0967	
328.15	.3606	.0994	
328.15	.3588	.1	
328.15	.3558	.101	
328.15	.3483	.1036	
328.15	.3471	.104	
328.15	.3411	.1062	
328.15	.3392	.1069	
328.15	.3362	.108	
328.15	.3322	.1095	
328.15	.3287	.1109	
328.15	.3249	.1123	
328.15	.3204	.1141	
328.15	.3195	.1145	
328.15	.3194	.1145	
328.15	.319	.1147	
328.15	.3172	.1154	
328.15	.3168	.1156	
328.15	.3103	.1183	
328.15	.3084	.1191	
328.15	.3062	.12	
328.15	.3034	.1213	
328.15	.3031	.1214	
328.15	.3006	.1225	
328.15	.2976	.1238	
328.15	.2955	.1248	
328.15	.2945	.1252	
328.15	.2918	.1265	
328.15	.2918	.1265	
328.15	.29	.1273	
328.15	.2887	.1279	
328.15	.2869	.1288	
328.15	.2866	.1289	
328.15	.2853	.1295	
328.15	.2839	.1302	
328.15	.2826	.1308	
328.15	.2784	.1329	
328.15	.2773	.1334	
328.15	.2744	.1349	
328.15	.2744	.1349	
328.15	.271	.1366	
328.15	.2677	.1383	
328.15	.2612	.1416	
328.15	.2533	.1458	
328.15	.2459	.1495	
328.15	.2383	.1535	
328.15	.2286	.1591	
328.15	.2229	.1624	
328.15	.2192	.1656	
328.15	.2151	.1683	
328.15	.2114	.1715	
328.15	.2048	.1762	
328.15	.1998	.1798	
328.15	.1957	.1822	
328.15	.1898	.186	
328.15	.1862	.1913	
328.15	.1807	.1958	
328.15	.1763	.2019	
328.15	.1703	.2088	
328.15	.1655	.2159	
328.15	.1578	.2215	
328.15	.1566	.2277	
328.15	.1496	.2367	
328.15	.1452	.2461	
328.15	.1426	.2523	
328.15	.1404	.257	
328.15	.1376	.2618	
328.15	.1355	.2661	
328.15	.1334	.2727	

System: triammonium citrate + water + N-butylpyridinium tetrafluoroborate; phases: Liquid mixture 1, Liquid mixture 2
Fixed: Pressure, kPa = 101.325
Property: Mass fraction of triammonium citrate (Liquid mixture 1); method: Titration method
Temperature, K	Mass fraction of N-butylpyridinium tetrafluoroborate	Mass fraction of triammonium citrate	uncertainty
308.15	.5797	.0227	
308.15	.5655	.024	
308.15	.5376	.0268	
308.15	.5255	.0282	
308.15	.5098	.03	
308.15	.5004	.0311	
308.15	.4928	.0321	
308.15	.4848	.0331	
308.15	.4765	.0342	
308.15	.4693	.0352	
308.15	.4527	.0377	
308.15	.4467	.0386	
308.15	.4403	.0396	
308.15	.4338	.0406	
308.15	.4228	.0425	
308.15	.4174	.0434	
308.15	.4075	.0444	
308.15	.4035	.0452	
308.15	.3967	.0458	
308.15	.3865	.0478	
308.15	.3832	.0485	
308.15	.3766	.0498	
308.15	.37	.0513	
308.15	.3668	.052	
308.15	.3642	.0525	
308.15	.358	.054	
308.15	.3555	.0545	
308.15	.3499	.0559	
308.15	.3445	.0573	
308.15	.3381	.0587	
308.15	.3334	.0599	
308.15	.3314	.0605	
308.15	.3273	.0615	
308.15	.3255	.062	
308.15	.3217	.063	
308.15	.3172	.0643	
308.15	.3134	.0654	
308.15	.3121	.0657	
308.15	.3071	.0671	
308.15	.3043	.068	
308.15	.3017	.0689	
308.15	.2971	.0702	
308.15	.2942	.0711	
308.15	.2914	.072	
308.15	.2889	.0728	
308.15	.2878	.0732	
308.15	.285	.0741	
308.15	.2816	.0748	
308.15	.2788	.076	
308.15	.276	.0771	
308.15	.2738	.0779	
308.15	.272	.0785	
308.15	.269	.0796	
308.15	.265	.0811	
308.15	.2612	.0824	
308.15	.2605	.0831	
308.15	.2575	.0839	
308.15	.2562	.0843	
308.15	.2554	.0847	
308.15	.2533	.0858	
308.15	.2494	.0868	
308.15	.2473	.0873	
308.15	.2443	.0886	
308.15	.2395	.0905	
308.15	.2365	.0917	
308.15	.2347	.0922	
308.15	.2319	.0934	
308.15	.229	.0946	
308.15	.2255	.0963	
308.15	.2233	.0975	
308.15	.2213	.0985	
308.15	.2173	.1	
308.15	.216	.1015	
308.15	.2138	.103	
308.15	.2117	.1041	
308.15	.2093	.1053	
308.15	.2062	.1069	
308.15	.204	.1078	
308.15	.2003	.1096	
308.15	.1953	.1123	
308.15	.1919	.1142	
308.15	.1905	.115	
308.15	.1882	.1164	
308.15	.1855	.1183	
308.15	.1842	.119	
308.15	.1833	.1195	
308.15	.1822	.1203	
308.15	.1797	.1222	
308.15	.1786	.1241	
308.15	.1756	.1259	
308.15	.1734	.1276	
308.15	.1711	.1293	
308.15	.1688	.131	
308.15	.1668	.1327	
308.15	.1653	.1341	
308.15	.1638	.1363	
308.15	.1618	.1378	
308.15	.1606	.139	
308.15	.1591	.1397	
308.15	.1581	.1408	
308.15	.1573	.1412	
308.15	.1561	.1423	
308.15	.1542	.1438	
308.15	.1524	.1453	
308.15	.1514	.1465	
308.15	.1499	.1473	
308.15	.1487	.1488	
308.15	.1467	.1501	
308.15	.1458	.151	
308.15	.1441	.1525	
308.15	.1425	.1549	
308.15	.1409	.1559	
308.15	.1393	.1577	
308.15	.1376	.1595	
308.15	.1364	.1606	
308.15	.1343	.1633	
308.15	.1331	.1647	
308.15	.132	.1653	
308.15	.1306	.1669	
308.15	.1285	.1706	
308.15	.1277	.1723	
308.15	.1272	.174	
313.15	.5557	.0277	
313.15	.5417	.029	
313.15	.5314	.0302	
313.15	.5226	.0311	
313.15	.5146	.0321	
313.15	.5068	.0332	
313.15	.494	.0338	
313.15	.4887	.0351	
313.15	.4822	.0361	
313.15	.4742	.0372	
313.15	.4659	.0384	
313.15	.4468	.041	
313.15	.4325	.0433	
313.15	.4182	.0453	
313.15	.4064	.0475	
313.15	.3976	.0496	
313.15	.3875	.0517	
313.15	.3756	.0541	
313.15	.3648	.056	
313.15	.3577	.0571	
313.15	.3516	.0585	
313.15	.3462	.06	
313.15	.3398	.062	
313.15	.3296	.0647	
313.15	.3271	.0654	
313.15	.3215	.0669	
313.15	.3156	.0686	
313.15	.3107	.0701	
313.15	.3063	.0715	
313.15	.3023	.0728	
313.15	.2996	.0736	
313.15	.2947	.0753	
313.15	.2916	.0763	
313.15	.2894	.0771	
313.15	.2859	.0784	
313.15	.2825	.0796	
313.15	.28	.0806	
313.15	.2772	.0816	
313.15	.2744	.0827	
313.15	.2721	.0836	
313.15	.2649	.0866	
313.15	.2625	.0877	
313.15	.2585	.0894	
313.15	.2552	.0909	
313.15	.2417	.0961	
313.15	.2375	.098	
313.15	.237	.0982	
313.15	.2323	.1005	
313.15	.2305	.1014	
313.15	.2286	.1023	
313.15	.2272	.103	
313.15	.2227	.1053	
313.15	.2204	.1065	
313.15	.2194	.1071	
313.15	.2162	.1088	
313.15	.2138	.1102	
313.15	.2026	.1167	
313.15	.2003	.1181	
313.15	.1967	.1217	
313.15	.1947	.124	
313.15	.1909	.1259	
313.15	.1871	.1285	
313.15	.1829	.1308	
313.15	.1784	.1337	
313.15	.1754	.1369	
313.15	.1719	.14	
313.15	.1673	.143	
313.15	.1638	.1455	
313.15	.1608	.147	
313.15	.1578	.1487	
313.15	.154	.1506	
313.15	.1518	.1527	
313.15	.1492	.1557	
313.15	.1463	.1585	
313.15	.1468	.1596	
313.15	.142	.1644	
313.15	.141	.1645	
313.15	.1393	.1665	
313.15	.1392	.1682	
313.15	.1365	.1721	
313.15	.1348	.1736	
313.15	.1333	.1755	
313.15	.1339	.1763	
313.15	.1314	.1776	
313.15	.1311	.182	
313.15	.127	.1845	
313.15	.1266	.1889	
313.15	.1222	.192	
313.15	.1219	.1963	
318.15	.6292	.0223	
318.15	.5903	.0262	
318.15	.5755	.0278	
318.15	.561	.0292	
318.15	.5439	.0307	
318.15	.5226	.033	
318.15	.5013	.0355	
318.15	.4867	.0378	
318.15	.4757	.0397	
318.15	.4646	.0412	
318.15	.4556	.0418	
318.15	.4464	.0443	
318.15	.4379	.0461	
318.15	.4243	.0472	
318.15	.4166	.0492	
318.15	.4085	.0511	
318.15	.4013	.0531	
318.15	.3928	.0549	
318.15	.386	.0561	
318.15	.3793	.0578	
318.15	.3729	.0597	
318.15	.3662	.0611	
318.15	.3568	.0623	
318.15	.3482	.0657	
318.15	.3425	.0673	
318.15	.3374	.0686	
318.15	.3296	.0694	
318.15	.3248	.0708	
318.15	.3202	.072	
318.15	.3131	.0751	
318.15	.3085	.0762	
318.15	.305	.0774	
318.15	.3017	.0786	
318.15	.3003	.0791	
318.15	.2973	.0802	
318.15	.2947	.0812	
318.15	.2921	.0822	
318.15	.2857	.0846	
318.15	.2796	.087	
318.15	.2773	.0879	
318.15	.2753	.0887	
318.15	.2714	.0905	
318.15	.2615	.0948	
318.15	.2542	.098	
318.15	.2396	.1049	
318.15	.2317	.1089	
318.15	.2196	.1155	
318.15	.217	.117	
318.15	.2095	.1214	
318.15	.2092	.1216	
318.15	.2023	.126	
318.15	.1983	.131	
318.15	.1909	.1359	
318.15	.1829	.1409	
318.15	.1696	.1495	
318.15	.1667	.1514	
318.15	.1567	.1584	
318.15	.1463	.1665	
318.15	.1425	.1724	
318.15	.1395	.1763	
318.15	.1372	.18	
318.15	.1352	.1834	
318.15	.1322	.1864	
318.15	.13	.1904	
318.15	.1277	.1944	
318.15	.1262	.1981	
328.15	.6957	.0193	
328.15	.6244	.0256	
328.15	.5756	.0308	
328.15	.548	.0342	
328.15	.5197	.0369	
328.15	.5036	.0401	
328.15	.4884	.0433	
328.15	.4655	.0463	
328.15	.4456	.0497	
328.15	.4273	.0535	
328.15	.4171	.0561	
328.15	.4083	.0582	
328.15	.3963	.0615	
328.15	.3855	.0634	
328.15	.3631	.0696	
328.15	.3561	.0714	
328.15	.3415	.0747	
328.15	.3311	.0785	
328.15	.3249	.0802	
328.15	.3167	.0815	
328.15	.2995	.0876	
328.15	.2868	.0925	
328.15	.2726	.0982	
328.15	.2672	.1006	
328.15	.2581	.1046	
328.15	.254	.1065	
328.15	.2539	.1065	
328.15	.2473	.1096	
328.15	.2438	.1113	
328.15	.241	.1127	
328.15	.2404	.113	
328.15	.2352	.1157	
328.15	.2297	.1185	
328.15	.2232	.122	
328.15	.2209	.1232	
328.15	.2159	.126	
328.15	.2131	.1276	
328.15	.2094	.1298	
328.15	.208	.1306	
328.15	.204	.133	
328.15	.1994	.1369	
328.15	.1933	.1397	
328.15	.1895	.1421	
328.15	.1857	.1446	
328.15	.1792	.149	
328.15	.1749	.1521	
328.15	.1704	.1573	
328.15	.1646	.1619	
328.15	.1593	.1661	
328.15	.155	.1699	
328.15	.1505	.175	
328.15	.1463	.178	
328.15	.1425	.1857	
328.15	.1387	.1902	
328.15	.1352	.1963	
328.15	.1322	.2028	
328.15	.13	.2091	
328.15	.1269	.2148	
328.15	.1247	.2226	
328.15	.1224	.2306	
328.15	.1204	.238	
