Measured thermophysical data. Thermal conductivity enhancement of ethylene glycol and water with graphene nanoplatelets
Source: Thermochim. Acta, 2016, 10.1016/j.tca.2016.09.002
Compound 1: ethylene glycol, C2H6O2, purity 99%
Compound 2: water, H2O, purity 99%
Compound 3: sodium deoxycholate, C24H39NaO4, purity 97%

System: ethylene glycol; phases: Liquid
Fixed: Pressure, kPa = 101.325
Property: Thermal conductivity, W/m/K (Liquid); method: Hot wire method
Temperature, K	Thermal conductivity, W/m/K	uncertainty
303.15	.254	
313.15	.256	
323.15	.26	

System: water; phases: Liquid
Fixed: Pressure, kPa = 101.325
Property: Thermal conductivity, W/m/K (Liquid); method: Hot wire method
Temperature, K	Thermal conductivity, W/m/K	uncertainty
303.15	.607	
313.15	.621	
323.15	.631	

System: ethylene glycol + sodium deoxycholate; phases: Liquid
Fixed: Pressure, kPa = 100.7
Fixed: Temperature, K = 303.15
Property: Thermal conductivity, W/m/K (Liquid); method: Hot wire method
Mass fraction of sodium deoxycholate	Thermal conductivity, W/m/K	uncertainty
.00761	.259	

System: sodium deoxycholate + water; phases: Liquid
Fixed: Pressure, kPa = 100.7
Fixed: Temperature, K = 303.15
Property: Thermal conductivity, W/m/K (Liquid); method: Hot wire method
Mass fraction of sodium deoxycholate	Thermal conductivity, W/m/K	uncertainty
.0085	.617	
