Measured thermophysical data. Enthalpies of L-proline dissolution in aqueous solution of N,N-dimethylformamide at 293.15-308.15 K
Source: Thermochim. Acta, 2015, 10.1016/j.tca.2015.03.007
Compound 1: L-proline, C5H9NO2, purity 99%
Compound 2: dimethylformamide, C3H7NO, purity 99%
Compound 3: water, H2O
Compound 4: potassium chloride, ClK, purity 99%

System: dimethylformamide + L-proline + water; phases: Liquid
Fixed: Pressure, kPa = 100.5
Fixed: Mole fraction of L-proline = 0
Property: Molar enthalpy of solution, kJ/mol (Liquid); method: Isoperibol calorimetry
Temperature, K	Solvent: Molality, mol/kg of dimethylformamide	Molar enthalpy of solution, kJ/mol	uncertainty
293.15	0	-3.82	.01
293.15	.579	-3.08	.01
293.15	1.192	-2.33	.02
293.15	1.833	-1.61	.01
293.15	2.561	-.97	.01
293.15	3.303	-.11	.02
293.15	4.203	.78	.02
293.15	5.159	1.77	.01
293.15	6.233	2.61	.01
293.15	7.59	3.63	.02
293.15	9.045	4.57	.02
293.15	12.536	6.85	.02
298.15	0	-3.22	.02
298.15	.579	-2.55	.02
298.15	1.192	-1.76	.01
298.15	1.833	-.86	.01
298.15	2.561	-.28	.01
298.15	3.303	.55	.01
298.15	4.203	1.49	.01
298.15	5.159	2.27	.02
298.15	6.233	3.17	.01
298.15	7.59	4.24	.02
298.15	9.045	5.43	.02
298.15	12.536	7.52	.02
303.15	0	-2.47	.02
303.15	.579	-1.71	.01
303.15	1.192	-1.02	.01
303.15	1.833	-.18	.02
303.15	2.561	.61	.02
303.15	3.303	1.39	.01
303.15	4.203	2.36	.02
303.15	5.159	3.22	.02
303.15	6.233	4.37	.02
303.15	7.59	5.33	.02
303.15	9.045	6.38	.01
303.15	12.536	8.37	.02
308.15	0	-1.9	.02
308.15	.579	-1.11	.01
308.15	1.192	-.34	.01
308.15	1.833	.23	.01
308.15	2.561	1.19	.01
308.15	3.303	2.07	.02
308.15	4.203	3.05	.02
308.15	5.159	4.06	.02
308.15	6.233	5.33	.02
308.15	7.59	6.36	.01
308.15	9.045	7.29	.02
308.15	12.536	9.42	.02

System: L-proline + water; phases: Liquid
Property: Molar enthalpy of solution, kJ/mol (Liquid); method: Isoperibol calorimetry
Temperature, K	Molality, mol/kg of L-proline	Pressure, kPa	Molar enthalpy of solution, kJ/mol	uncertainty
293.15	0	100.5	-3.82	.01
298.15	0	100.5	-3.22	.02
303.15	0	100.5	-2.47	.02
308.15	0	100.5	-1.9	.02

System: potassium chloride + water; phases: Liquid
Fixed: Temperature, K = 298.15
Fixed: Pressure, kPa = 100.5
Property: Molar enthalpy of solution, kJ/mol (Liquid); method: Isoperibol calorimetry
Molality, mol/kg of potassium chloride	Molar enthalpy of solution, kJ/mol	uncertainty
.0081	17.435	.02
.0113	17.363	.02
.012	17.375	.02
.0139	17.425	.02
.0184	17.442	.02
.0198	17.383	.02
.0215	17.463	.02
.0412	17.479	.02
.0434	17.506	.02
.0509	17.532	.02
