Measured thermophysical data. Preparation, luminescence and thermal properties of lanthanide  complexes with 2-chloro-4-fluorobenzoic acid
Source: Thermochim. Acta, 2011, 10.1016/j.tca.2011.03.007
Compound 1: europium 2-chloro-4-fluorobenzoate 1,10-phenanthroline complex, C19H11ClEuFN2O2
Compound 2: terbium 2-chloro-4-fluorobenzoate 1,10-phenanthroline complex, C19H11ClFN2O2Tb
Compound 3: holmium 2-chloro-4-fluorobenzoate 1,10-phenanthroline complex, C19H11ClFHoN2O2

System: europium 2-chloro-4-fluorobenzoate 1,10-phenanthroline complex; phases: Crystal
Fixed: Pressure, kPa = 101.325
Property: Molar heat capacity at constant pressure, J/K/mol (Crystal); method: Large sample (1 g) DSC
Temperature, K	Molar heat capacity at constant pressure, J/K/mol	uncertainty
259.15	1129.44	5.6472
262.726	1163.86	5.8193
266.302	1184.53	5.92265
269.878	1204.46	6.0223
273.454	1225.16	6.1258
277.03	1244.21	6.22105
280.606	1267.99	6.33995
284.182	1293.18	6.4659
287.758	1320.72	6.6036
291.334	1351.34	6.7567
294.91	1383.09	6.91545
298.486	1416.39	7.08195
302.062	1450.02	7.2501
305.638	1490.72	7.4536
309.214	1526.31	7.63155
312.79	1561.24	7.8062
316.366	1596.73	7.98365
319.942	1622.05	8.11025
323.518	1642.59	8.21295
327.094	1659.75	8.29875
330.67	1665.95	8.32975
334.246	1672.46	8.3623
337.822	1672.98	8.3649
341.398	1671.02	8.3551
344.974	1670.17	8.35085
348.55	1665.91	8.32955
352.126	1671.48	8.3574
355.702	1681.02	8.4051
359.278	1693.4	8.467
362.854	1713.07	8.56535
366.43	1729.96	8.6498
370.006	1748.55	8.74275
373.582	1764.38	8.8219
377.158	1788.02	8.9401
380.734	1803.6	9.018
384.31	1826.15	9.13075
387.886	1843.94	9.2197
391.462	1864.4	9.322
395.038	1885.33	9.42665
398.614	1904.18	9.5209
402.19	1924.14	9.6207
405.766	1942.49	9.71245
409.342	1962.22	9.8111
412.918	1988.37	9.94185
416.494	2012.11	10.06055
420.07	2032.77	10.16385
423.646	2053.57	10.26785
427.222	2082.92	10.4146
430.798	2099.93	10.49965
434.374	2131.96	10.6598
437.95	2149.37	10.74685
441.526	2174.2	10.871
445.102	2196.45	10.98225
448.678	2225.16	11.1258
452.254	2251.96	11.2598
455.83	2281.41	11.40705
459.406	2304.97	11.52485
462.982	2333.85	11.66925
466.558	2351.92	11.7596
470.134	2382.04	11.9102
473.71	2408.57	12.04285
477.286	2439.11	12.19555
480.862	2463.1	12.3155
484.438	2489.34	12.4467
488.014	2513.78	12.5689
491.59	2538.41	12.69205

System: europium 2-chloro-4-fluorobenzoate 1,10-phenanthroline complex; phases: Crystal
Fixed: Pressure, kPa = 101.325
Property: Molar heat capacity at constant pressure, J/K/mol (Crystal); method: Small sample (50 mg) DSC
Temperature, K	Molar heat capacity at constant pressure, J/K/mol	uncertainty
259.15	1118.37	5.59185
269.15	1206.62	6.0331
279.15	1251.36	6.2568
289.15	1329.53	6.64765
298.15	1422.65	7.11325
299.15	1433.34	7.1667
309.15	1533.26	7.6663
319.15	1607.48	8.0374
329.15	1650.64	8.2532
339.15	1671.11	8.35555
349.15	1683.82	8.4191
359.15	1702.87	8.51435
369.15	1736.67	8.68335
379.15	1786.25	8.93125
389.15	1846.78	9.2339
399.15	1910.95	9.55475
409.15	1972.92	9.8646
419.15	2031.15	10.15575
429.15	2088.96	10.4448
439.15	2152.27	10.76135
449.15	2225.08	11.1254
459.15	2304.79	11.52395
469.15	2381.2	11.906
479.15	2445.35	12.22675
489.15	2516.92	12.5846

System: europium 2-chloro-4-fluorobenzoate 1,10-phenanthroline complex; phases: Crystal
Fixed: Pressure, kPa = 101.325
Property: Molar enthalpy, kJ/mol (Crystal); method: Small sample (50 mg) DSC
Temperature, K	Molar enthalpy, kJ/mol	uncertainty
259.15	-49.271	-.246355
269.15	-37.538	-.18769
279.15	-25.263	-.126315
289.15	-12.391	-.061955
298.15	0	0
299.15	1.442	.00721
309.15	16.29	.08145
319.15	32.021	.160105
329.15	48.336	.24168
339.15	64.958	.32479
349.15	81.732	.40866
359.15	98.656	.49328
369.15	115.84	.5792
379.15	133.443	.667215
389.15	151.602	.75801
399.15	170.391	.851955
409.15	189.814	.94907
419.15	209.837	1.049185
429.15	230.436	1.15218
439.15	251.636	1.25818
449.15	273.515	1.367575
459.15	296.162	1.48081
469.15	319.6	1.598
479.15	343.743	1.718715
489.15	368.524	1.84262

System: europium 2-chloro-4-fluorobenzoate 1,10-phenanthroline complex; phases: Crystal
Fixed: Pressure, kPa = 101.325
Property: Molar entropy, J/K/mol (Crystal); method: Small sample (50 mg) DSC
Temperature, K	Molar entropy, J/K/mol	uncertainty
259.15	-176.68	-.8834
269.15	-132.26	-.6613
279.15	-87.49	-.43745
289.15	-42.19	-.21095
298.15	0	0
299.15	4.83	.02415
309.15	53.64	.2682
319.15	103.71	.51855
329.15	154.04	.7702
339.15	203.79	1.01895
349.15	252.53	1.26265
359.15	300.32	1.5016
369.15	347.51	1.73755
379.15	394.56	1.9728
389.15	441.83	2.20915
399.15	489.5	2.4475
409.15	537.55	2.68775
419.15	585.9	2.9295
429.15	634.46	3.1723
439.15	683.29	3.41645
449.15	732.55	3.66275
459.15	782.42	3.9121
469.15	832.91	4.16455
479.15	883.83	4.41915
489.15	935.01	4.67505

System: terbium 2-chloro-4-fluorobenzoate 1,10-phenanthroline complex; phases: Crystal
Fixed: Pressure, kPa = 101.325
Property: Molar heat capacity at constant pressure, J/K/mol (Crystal); method: Large sample (1 g) DSC
Temperature, K	Molar heat capacity at constant pressure, J/K/mol	uncertainty
259.15	904.54	4.5227
262.726	935.35	4.67675
266.302	956.39	4.78195
269.878	970.66	4.8533
273.454	988.46	4.9423
277.03	1006.86	5.0343
280.606	1025.72	5.1286
284.182	1048.36	5.2418
287.758	1068.35	5.34175
291.334	1094.91	5.47455
294.91	1120.19	5.60095
298.486	1145.29	5.72645
302.062	1170.58	5.8529
305.638	1199.73	5.99865
309.214	1223.54	6.1177
312.79	1249.06	6.2453
316.366	1271.3	6.3565
319.942	1289.98	6.4499
323.518	1310.1	6.5505
327.094	1328.63	6.64315
330.67	1344.12	6.7206
334.246	1351.62	6.7581
337.822	1354.31	6.77155
341.398	1348.56	6.7428
344.974	1339.99	6.69995
348.55	1337.33	6.68665
352.126	1344.78	6.7239
355.702	1349.23	6.74615
359.278	1360.71	6.80355
362.854	1369.69	6.84845
366.43	1380.87	6.90435
370.006	1392.32	6.9616
373.582	1403.67	7.01835
377.158	1416.3	7.0815
380.734	1427.84	7.1392
384.31	1439.25	7.19625
387.886	1453.3	7.2665
391.462	1466.3	7.3315
395.038	1480.15	7.40075
398.614	1492.84	7.4642
402.19	1505.32	7.5266
405.766	1520.46	7.6023
409.342	1530.24	7.6512
412.918	1540.28	7.7014
416.494	1553.74	7.7687
420.07	1568.07	7.84035
423.646	1582.97	7.91485
427.222	1595.9	7.9795
430.798	1606.18	8.0309
434.374	1621.88	8.1094
437.95	1630.73	8.15365
441.526	1646.84	8.2342
445.102	1652.29	8.26145
448.678	1667.3	8.3365
452.254	1674.8	8.374
455.83	1687.04	8.4352
459.406	1698.06	8.4903
462.982	1710.08	8.5504
466.558	1720.5	8.6025
470.134	1731.96	8.6598
473.71	1742.24	8.7112
477.286	1754.56	8.7728
480.862	1764.47	8.82235
484.438	1775.86	8.8793
488.014	1787.07	8.93535
491.59	1797.58	8.9879

System: terbium 2-chloro-4-fluorobenzoate 1,10-phenanthroline complex; phases: Crystal
Fixed: Pressure, kPa = 101.325
Property: Molar heat capacity at constant pressure, J/K/mol (Crystal); method: Small sample (50 mg) DSC
Temperature, K	Molar heat capacity at constant pressure, J/K/mol	uncertainty
259.15	898.06	4.4903
269.15	973.17	4.86585
279.15	1014.46	5.0723
289.15	1075.9	5.3795
298.15	1146.23	5.73115
299.15	1154.29	5.77145
309.15	1230.46	6.1523
319.15	1289.16	6.4458
329.15	1325.56	6.6278
339.15	1344.17	6.72085
349.15	1354.51	6.77255
359.15	1366.34	6.8317
369.15	1386.27	6.93135
379.15	1416.19	7.08095
389.15	1453.83	7.26915
399.15	1494.57	7.47285
409.15	1533.87	7.66935
419.15	1569.28	7.8464
429.15	1601.24	8.0062
439.15	1632.33	8.16165
449.15	1665.09	8.32545
459.15	1699.38	8.4969
469.15	1731.38	8.6569
479.15	1757.47	8.78735
489.15	1787.77	8.93885

System: terbium 2-chloro-4-fluorobenzoate 1,10-phenanthroline complex; phases: Crystal
Fixed: Pressure, kPa = 101.325
Property: Molar enthalpy, kJ/mol (Crystal); method: Small sample (50 mg) DSC
Temperature, K	Molar enthalpy, kJ/mol	uncertainty
259.15	-39.8	-.199
269.15	-30.367	-.151835
279.15	-20.437	-.102185
289.15	-10.005	-.050025
298.15	0	0
299.15	1.162	.00581
309.15	13.096	.06548
319.15	25.712	.12856
329.15	38.804	.19402
339.15	52.164	.26082
349.15	65.66	.3283
359.15	79.259	.396295
369.15	93.014	.46507
379.15	107.019	.535095
389.15	121.364	.60682
399.15	136.106	.68053
409.15	151.251	.756255
419.15	166.771	.833855
429.15	182.625	.913125
439.15	198.793	.993965
449.15	215.278	1.07639
459.15	232.101	1.160505
469.15	249.259	1.246295
479.15	266.708	1.33354
489.15	284.418	1.42209

System: terbium 2-chloro-4-fluorobenzoate 1,10-phenanthroline complex; phases: Crystal
Fixed: Pressure, kPa = 101.325
Property: Molar entropy, J/K/mol (Crystal); method: Small sample (50 mg) DSC
Temperature, K	Molar entropy, J/K/mol	uncertainty
259.15	-142.71	-.71355
269.15	-107	-.535
279.15	-70.78	-.3539
289.15	-34.07	-.17035
298.15	0	0
299.15	3.89	.01945
309.15	43.12	.2156
319.15	83.28	.4164
329.15	123.67	.61835
339.15	163.65	.81825
349.15	202.87	1.01435
359.15	241.27	1.20635
369.15	279.04	1.3952
379.15	316.47	1.58235
389.15	353.82	1.7691
399.15	391.22	1.9561
409.15	428.69	2.14345
419.15	466.16	2.3308
429.15	503.54	2.5177
439.15	540.78	2.7039
449.15	577.9	2.8895
459.15	614.94	3.0747
469.15	651.91	3.25955
479.15	688.71	3.44355
489.15	725.29	3.62645

System: holmium 2-chloro-4-fluorobenzoate 1,10-phenanthroline complex; phases: Crystal
Fixed: Pressure, kPa = 101.325
Property: Molar heat capacity at constant pressure, J/K/mol (Crystal); method: Large sample (1 g) DSC
Temperature, K	Molar heat capacity at constant pressure, J/K/mol	uncertainty
259.15	807	4.035
262.726	828.65	4.14325
266.302	840.34	4.2017
269.878	853.71	4.26855
273.454	869.11	4.34555
277.03	882.91	4.41455
280.606	896.87	4.48435
284.182	918.12	4.5906
287.758	938.25	4.69125
291.334	961.88	4.8094
294.91	986.7	4.9335
298.486	1014.98	5.0749
302.062	1040.89	5.20445
305.638	1070.35	5.35175
309.214	1096.78	5.4839
312.79	1122.41	5.61205
316.366	1147.46	5.7373
319.942	1168.04	5.8402
323.518	1180.04	5.9002
327.094	1185.09	5.92545
330.67	1182.65	5.91325
334.246	1182.34	5.9117
337.822	1166.23	5.83115
341.398	1157.44	5.7872
344.974	1140.39	5.70195
348.55	1125.68	5.6284
352.126	1121.73	5.60865
355.702	1122.54	5.6127
359.278	1129.34	5.6467
362.854	1136.84	5.6842
366.43	1138.85	5.69425
370.006	1150.4	5.752
373.582	1159.8	5.799
377.158	1167.75	5.83875
380.734	1174.7	5.8735
384.31	1183.7	5.9185
387.886	1194.18	5.9709
391.462	1204.25	6.02125
395.038	1213.89	6.06945
398.614	1226.92	6.1346
402.19	1234.56	6.1728
405.766	1242.11	6.21055
409.342	1252.87	6.26435
412.918	1269.09	6.34545
416.494	1278.99	6.39495
420.07	1287.98	6.4399
423.646	1296.02	6.4801
427.222	1306.83	6.53415
430.798	1315.68	6.5784
434.374	1329.04	6.6452
437.95	1336.78	6.6839
441.526	1346.87	6.73435
445.102	1360.05	6.80025
448.678	1362.13	6.81065
452.254	1370.87	6.85435
455.83	1376.86	6.8843
459.406	1382.96	6.9148
462.982	1395.96	6.9798
466.558	1400.48	7.0024
470.134	1409.96	7.0498
473.71	1419.28	7.0964
477.286	1423.39	7.11695
480.862	1428.48	7.1424
484.438	1434.96	7.1748
488.014	1432.69	7.16345
491.59	1438.02	7.1901

System: holmium 2-chloro-4-fluorobenzoate 1,10-phenanthroline complex; phases: Crystal
Fixed: Pressure, kPa = 101.325
Property: Molar heat capacity at constant pressure, J/K/mol (Crystal); method: Small sample (50 mg) DSC
Temperature, K	Molar heat capacity at constant pressure, J/K/mol	uncertainty
259.15	795.59	3.97795
269.15	857.47	4.28735
279.15	884.2	4.421
289.15	944.59	4.72295
298.15	1019.76	5.0988
299.15	1028.33	5.14165
309.15	1105.6	5.528
319.15	1154.94	5.7747
329.15	1171.36	5.8568
339.15	1163.62	5.8181
349.15	1147.05	5.73525
359.15	1136.34	5.6817
369.15	1140.48	5.7024
379.15	1161	5.805
389.15	1193.12	5.9656
399.15	1229.06	6.1453
409.15	1261.86	6.3093
419.15	1288.42	6.4421
429.15	1310.45	6.55225
439.15	1332.79	6.66395
449.15	1359.49	6.79745
459.15	1389.28	6.9464
469.15	1414.07	7.07035
479.15	1425.53	7.12765
489.15	1437.98	7.1899

System: holmium 2-chloro-4-fluorobenzoate 1,10-phenanthroline complex; phases: Crystal
Fixed: Pressure, kPa = 101.325
Property: Molar enthalpy, kJ/mol (Crystal); method: Small sample (50 mg) DSC
Temperature, K	Molar enthalpy, kJ/mol	uncertainty
259.15	-35.008	-.17504
269.15	-26.647	-.133235
279.15	-17.957	-.089785
289.15	-8.843	-.044215
298.15	0	0
299.15	1.034	.00517
309.15	11.721	.058605
319.15	23.052	.11526
329.15	34.709	.173545
339.15	46.398	.23199
349.15	57.952	.28976
359.15	69.359	.346795
369.15	80.729	.403645
379.15	92.224	.46112
389.15	103.988	.51994
399.15	116.099	.580495
409.15	128.559	.642795
419.15	141.315	.706575
429.15	154.312	.77156
439.15	167.526	.83763
449.15	180.983	.904915
459.15	194.727	.973635
469.15	208.752	1.04376
479.15	222.962	1.11481
489.15	237.259	1.186295

System: holmium 2-chloro-4-fluorobenzoate 1,10-phenanthroline complex; phases: Crystal
Fixed: Pressure, kPa = 101.325
Property: Molar entropy, J/K/mol (Crystal); method: Small sample (50 mg) DSC
Temperature, K	Molar entropy, J/K/mol	uncertainty
259.15	-125.53	-.62765
269.15	-93.88	-.4694
279.15	-62.18	-.3109
289.15	-30.11	-.15055
298.15	0	0
299.15	3.46	.0173
309.15	38.6	.193
319.15	74.66	.3733
329.15	110.62	.5531
339.15	145.61	.72805
349.15	179.18	.8959
359.15	211.4	1.057
369.15	242.62	1.2131
379.15	273.34	1.3667
389.15	303.97	1.51985
399.15	334.69	1.67345
409.15	365.52	1.8276
419.15	396.32	1.9816
429.15	426.97	2.13485
439.15	457.4	2.287
449.15	487.7	2.4385
459.15	517.96	2.5898
469.15	548.18	2.7409
479.15	578.15	2.89075
489.15	607.68	3.0384
