Measured thermophysical data. Does Alkyl Chain Length Really Matter? Structure-Property  Relationships in Thermochemistry of Ionic Liquids.
Source: Thermochim. Acta, 2013, 10.1016/j.tca.2013.04.003
Compound 1: 1-ethyl-3-methylimidazolium chloride, C6H11ClN2, purity 99%
Compound 2: 1-n-butyl-3-methylimidazolium chloride, C8H15ClN2, purity 99%
Compound 3: 1-methyl-3-pentylimidazolium chloride, C9H17ClN2, purity 99%
Compound 4: 1-hexyl-3-methylimidazolium chloride, C10H19ClN2, purity 99%
Compound 5: 1-methyl-3-octylimidazolium chloride, C12H23ClN2, purity 99%
Compound 6: 1-methyl-3-propylimidazolium chloride, C7H13ClN2, purity 99%
Compound 7: 1-heptyl-3-methylimidazolium chloride, C11H21ClN2, purity 99%
Compound 8: 1,3-dimethylimidazolium chloride, C5H9ClN2, purity 99%
Compound 9: 1,3-dimethyl-1H-imidazolium bromide, C5H9BrN2, purity 99%
Compound 10: 1-ethyl-3-methylimidazolium bromide, C6H11BrN2, purity 99%
Compound 11: 1-n-butyl-3-methylimidazolium bromide, C8H15BrN2, purity 99%
Compound 12: 3-hexyl-1-methyl-1H-imidazolium bromide, C10H19BrN2, purity 99%
Compound 13: 1-methyl-3-octylimidazolium bromide, C12H23BrN2, purity 99%
Compound 14: 1-methyl-3-propylimidazolium bromide, C7H13BrN2, purity 99%
Compound 15: 1-butylpyridinium bromide, C9H14BrN, purity 99%
Compound 16: 1-butyl-1-methylpyrrolidinium chloride, C9H20ClN, purity 98%
Compound 17: 1-hexyl-1-methylpyrrolidinium chloride, C11H24ClN, purity 98%
Compound 18: 1-octyl-1-methylpyrrolidinium chloride, C13H28ClN, purity 98%
Compound 19: 1-ethylpyridinium bromide, C7H10BrN, purity 98%
Compound 20: 1-propylpyridinium bromide, C8H12BrN, purity 98%
Compound 21: 1-ethyl-1-methylpyrrolidinium chloride, C7H16ClN, purity 98%
Compound 22: 1-methyl-1-propylpyrrolidinium chloride, C8H18ClN, purity 98%
Compound 23: 1-methylpyridinium chloride, C6H8ClN, purity 98%
Compound 24: amyl chloride, C5H11Cl, purity 99%
Compound 25: 1-methylimidazole, C4H6N2, purity 99%
Compound 26: n-hexyl chloride, C6H13Cl, purity 99%
Compound 27: heptane, 1-chloro-, C7H15Cl, purity 99%
Compound 28: octyl chloride, C8H17Cl, purity 99%

System: 1-ethyl-3-methylimidazolium chloride; phases: Crystal, Liquid, Air at 1 atmosphere
Property: Molar enthalpy of transition or fusion, kJ/mol (Crystal); method: DSC/DTA
Molar enthalpy of transition or fusion, kJ/mol	uncertainty
15.5	

System: 1-ethyl-3-methylimidazolium chloride; phases: Crystal, Liquid, Air at 1 atmosphere
Property: Normal melting temperature, K (Crystal); method: DSC/DTA
Normal melting temperature, K	uncertainty
360.7	

System: 1-ethyl-3-methylimidazolium chloride; phases: Liquid
Property: Molar heat capacity at constant pressure, J/K/mol (Liquid); method: Small sample (50 mg) DSC
Temperature, K	Pressure, kPa	Molar heat capacity at constant pressure, J/K/mol	uncertainty
298	101.325	235	

System: 1-ethyl-3-methylimidazolium chloride; phases: Liquid, Gas
Property: Molar enthalpy of vaporization or sublimation, kJ/mol (Liquid); method: TGA
Temperature, K	Molar enthalpy of vaporization or sublimation, kJ/mol	uncertainty
432.1	126.9	

System: 1-n-butyl-3-methylimidazolium chloride; phases: Crystal, Liquid, Air at 1 atmosphere
Property: Molar enthalpy of transition or fusion, kJ/mol (Crystal); method: DSC/DTA
Molar enthalpy of transition or fusion, kJ/mol	uncertainty
21.7	

System: 1-n-butyl-3-methylimidazolium chloride; phases: Crystal, Liquid, Air at 1 atmosphere
Property: Normal melting temperature, K (Crystal); method: DSC/DTA
Normal melting temperature, K	uncertainty
341.8	

System: 1-n-butyl-3-methylimidazolium chloride; phases: Liquid
Property: Molar heat capacity at constant pressure, J/K/mol (Liquid); method: Small sample (50 mg) DSC
Temperature, K	Pressure, kPa	Molar heat capacity at constant pressure, J/K/mol	uncertainty
298	101.325	317	

System: 1-methyl-3-pentylimidazolium chloride; phases: Crystal, Liquid, Air at 1 atmosphere
Property: Molar enthalpy of transition or fusion, kJ/mol (Crystal); method: DSC/DTA
Molar enthalpy of transition or fusion, kJ/mol	uncertainty
18.9	

System: 1-methyl-3-pentylimidazolium chloride; phases: Crystal, Liquid, Air at 1 atmosphere
Property: Normal melting temperature, K (Crystal); method: DSC/DTA
Normal melting temperature, K	uncertainty
350	

System: 1-hexyl-3-methylimidazolium chloride; phases: Crystal, Liquid, Air at 1 atmosphere
Property: Molar enthalpy of transition or fusion, kJ/mol (Crystal); method: DSC/DTA
Molar enthalpy of transition or fusion, kJ/mol	uncertainty
10.2	

System: 1-hexyl-3-methylimidazolium chloride; phases: Crystal, Liquid, Air at 1 atmosphere
Property: Normal melting temperature, K (Crystal); method: DSC/DTA
Normal melting temperature, K	uncertainty
188	

System: 1-hexyl-3-methylimidazolium chloride; phases: Liquid
Property: Molar heat capacity at constant pressure, J/K/mol (Liquid); method: Small sample (50 mg) DSC
Temperature, K	Pressure, kPa	Molar heat capacity at constant pressure, J/K/mol	uncertainty
298	101.325	381	

System: 1-hexyl-3-methylimidazolium chloride; phases: Liquid, Gas
Property: Molar enthalpy of vaporization or sublimation, kJ/mol (Liquid); method: TGA
Temperature, K	Molar enthalpy of vaporization or sublimation, kJ/mol	uncertainty
432.4	143.9	

System: 1-methyl-3-octylimidazolium chloride; phases: Crystal, Liquid, Air at 1 atmosphere
Property: Molar enthalpy of transition or fusion, kJ/mol (Crystal); method: DSC/DTA
Molar enthalpy of transition or fusion, kJ/mol	uncertainty
10.3	

System: 1-methyl-3-octylimidazolium chloride; phases: Crystal, Liquid, Air at 1 atmosphere
Property: Normal melting temperature, K (Crystal); method: DSC/DTA
Normal melting temperature, K	uncertainty
191	

System: 1-methyl-3-octylimidazolium chloride; phases: Liquid
Property: Molar heat capacity at constant pressure, J/K/mol (Liquid); method: Small sample (50 mg) DSC
Temperature, K	Pressure, kPa	Molar heat capacity at constant pressure, J/K/mol	uncertainty
298	101.325	445	

System: 1-methyl-3-propylimidazolium chloride; phases: Crystal, Liquid, Air at 1 atmosphere
Property: Molar enthalpy of transition or fusion, kJ/mol (Crystal); method: DSC/DTA
Molar enthalpy of transition or fusion, kJ/mol	uncertainty
10.1	

System: 1-methyl-3-propylimidazolium chloride; phases: Crystal, Liquid, Air at 1 atmosphere
Property: Normal melting temperature, K (Crystal); method: DSC/DTA
Normal melting temperature, K	uncertainty
325.2	

System: 1-heptyl-3-methylimidazolium chloride; phases: Crystal, Liquid, Air at 1 atmosphere
Property: Molar enthalpy of transition or fusion, kJ/mol (Crystal); method: DSC/DTA
Molar enthalpy of transition or fusion, kJ/mol	uncertainty
10.2	

System: 1-heptyl-3-methylimidazolium chloride; phases: Crystal, Liquid, Air at 1 atmosphere
Property: Normal melting temperature, K (Crystal); method: DSC/DTA
Normal melting temperature, K	uncertainty
190	

System: 1,3-dimethylimidazolium chloride; phases: Crystal, Liquid, Air at 1 atmosphere
Property: Molar enthalpy of transition or fusion, kJ/mol (Crystal); method: DSC/DTA
Molar enthalpy of transition or fusion, kJ/mol	uncertainty
21.5	

System: 1,3-dimethylimidazolium chloride; phases: Crystal, Liquid, Air at 1 atmosphere
Property: Normal melting temperature, K (Crystal); method: DSC/DTA
Normal melting temperature, K	uncertainty
398	

System: 1,3-dimethyl-1H-imidazolium bromide; phases: Crystal, Liquid, Air at 1 atmosphere
Property: Molar enthalpy of transition or fusion, kJ/mol (Crystal); method: DSC/DTA
Molar enthalpy of transition or fusion, kJ/mol	uncertainty
20.7	

System: 1,3-dimethyl-1H-imidazolium bromide; phases: Crystal, Liquid, Air at 1 atmosphere
Property: Normal melting temperature, K (Crystal); method: DSC/DTA
Normal melting temperature, K	uncertainty
383	

System: 1,3-dimethyl-1H-imidazolium bromide; phases: Liquid
Property: Molar heat capacity at constant pressure, J/K/mol (Liquid); method: Small sample (50 mg) DSC
Temperature, K	Pressure, kPa	Molar heat capacity at constant pressure, J/K/mol	uncertainty
298	101.325	215	

System: 1-ethyl-3-methylimidazolium bromide; phases: Crystal, Liquid, Air at 1 atmosphere
Property: Molar enthalpy of transition or fusion, kJ/mol (Crystal); method: DSC/DTA
Molar enthalpy of transition or fusion, kJ/mol	uncertainty
18.3	

System: 1-ethyl-3-methylimidazolium bromide; phases: Crystal, Liquid, Air at 1 atmosphere
Property: Normal melting temperature, K (Crystal); method: DSC/DTA
Normal melting temperature, K	uncertainty
349.9	

System: 1-ethyl-3-methylimidazolium bromide; phases: Liquid
Property: Molar heat capacity at constant pressure, J/K/mol (Liquid); method: Small sample (50 mg) DSC
Temperature, K	Pressure, kPa	Molar heat capacity at constant pressure, J/K/mol	uncertainty
298	101.325	247	

System: 1-n-butyl-3-methylimidazolium bromide; phases: Crystal, Liquid, Air at 1 atmosphere
Property: Molar enthalpy of transition or fusion, kJ/mol (Crystal); method: DSC/DTA
Molar enthalpy of transition or fusion, kJ/mol	uncertainty
13.5	

System: 1-n-butyl-3-methylimidazolium bromide; phases: Crystal, Liquid, Air at 1 atmosphere
Property: Normal melting temperature, K (Crystal); method: DSC/DTA
Normal melting temperature, K	uncertainty
351.4	

System: 1-n-butyl-3-methylimidazolium bromide; phases: Liquid
Property: Molar heat capacity at constant pressure, J/K/mol (Liquid); method: Small sample (50 mg) DSC
Temperature, K	Pressure, kPa	Molar heat capacity at constant pressure, J/K/mol	uncertainty
298	101.325	311	

System: 3-hexyl-1-methyl-1H-imidazolium bromide; phases: Liquid
Property: Molar heat capacity at constant pressure, J/K/mol (Liquid); method: Small sample (50 mg) DSC
Temperature, K	Pressure, kPa	Molar heat capacity at constant pressure, J/K/mol	uncertainty
298	101.325	376	

System: 1-methyl-3-octylimidazolium bromide; phases: Liquid
Property: Molar heat capacity at constant pressure, J/K/mol (Liquid); method: Small sample (50 mg) DSC
Temperature, K	Pressure, kPa	Molar heat capacity at constant pressure, J/K/mol	uncertainty
298	101.325	440	

System: 1-methyl-3-propylimidazolium bromide; phases: Crystal, Liquid, Air at 1 atmosphere
Property: Molar enthalpy of transition or fusion, kJ/mol (Crystal); method: DSC/DTA
Molar enthalpy of transition or fusion, kJ/mol	uncertainty
13.5	

System: 1-methyl-3-propylimidazolium bromide; phases: Crystal, Liquid, Air at 1 atmosphere
Property: Normal melting temperature, K (Crystal); method: DSC/DTA
Normal melting temperature, K	uncertainty
314.7	

System: 1-butylpyridinium bromide; phases: Crystal, Liquid, Air at 1 atmosphere
Property: Molar enthalpy of transition or fusion, kJ/mol (Crystal); method: DSC/DTA
Molar enthalpy of transition or fusion, kJ/mol	uncertainty
20.4	

System: 1-butylpyridinium bromide; phases: Crystal, Liquid, Air at 1 atmosphere
Property: Normal melting temperature, K (Crystal); method: DSC/DTA
Normal melting temperature, K	uncertainty
378	

System: 1-butyl-1-methylpyrrolidinium chloride; phases: Crystal, Liquid, Air at 1 atmosphere
Property: Normal melting temperature, K (Crystal); method: DSC/DTA
Normal melting temperature, K	uncertainty
472.5	

System: 1-butyl-1-methylpyrrolidinium chloride; phases: Crystal, Liquid, Air at 1 atmosphere
Property: Molar enthalpy of transition or fusion, kJ/mol (Crystal); method: DSC/DTA
Molar enthalpy of transition or fusion, kJ/mol	uncertainty
25.9	

System: 1-hexyl-1-methylpyrrolidinium chloride; phases: Crystal, Liquid, Air at 1 atmosphere
Property: Normal melting temperature, K (Crystal); method: DSC/DTA
Normal melting temperature, K	uncertainty
457	

System: 1-hexyl-1-methylpyrrolidinium chloride; phases: Crystal, Liquid, Air at 1 atmosphere
Property: Molar enthalpy of transition or fusion, kJ/mol (Crystal); method: DSC/DTA
Molar enthalpy of transition or fusion, kJ/mol	uncertainty
23.8	

System: 1-octyl-1-methylpyrrolidinium chloride; phases: Crystal, Liquid, Air at 1 atmosphere
Property: Normal melting temperature, K (Crystal); method: DSC/DTA
Normal melting temperature, K	uncertainty
432	

System: 1-octyl-1-methylpyrrolidinium chloride; phases: Crystal, Liquid, Air at 1 atmosphere
Property: Molar enthalpy of transition or fusion, kJ/mol (Crystal); method: DSC/DTA
Molar enthalpy of transition or fusion, kJ/mol	uncertainty
22.7	

System: 1-ethylpyridinium bromide; phases: Crystal, Liquid, Air at 1 atmosphere
Property: Normal melting temperature, K (Crystal); method: DSC/DTA
Normal melting temperature, K	uncertainty
391.3	

System: 1-ethylpyridinium bromide; phases: Crystal, Liquid, Air at 1 atmosphere
Property: Molar enthalpy of transition or fusion, kJ/mol (Crystal); method: DSC/DTA
Molar enthalpy of transition or fusion, kJ/mol	uncertainty
12.8	

System: 1-propylpyridinium bromide; phases: Crystal, Liquid, Air at 1 atmosphere
Property: Normal melting temperature, K (Crystal); method: DSC/DTA
Normal melting temperature, K	uncertainty
342.8	

System: 1-propylpyridinium bromide; phases: Crystal, Liquid, Air at 1 atmosphere
Property: Molar enthalpy of transition or fusion, kJ/mol (Crystal); method: DSC/DTA
Molar enthalpy of transition or fusion, kJ/mol	uncertainty
11	

System: 1-ethyl-1-methylpyrrolidinium chloride; phases: Crystal, Liquid, Air at 1 atmosphere
Property: Normal melting temperature, K (Crystal); method: DSC/DTA
Normal melting temperature, K	uncertainty
557	

System: 1-ethyl-1-methylpyrrolidinium chloride; phases: Crystal, Liquid, Air at 1 atmosphere
Property: Molar enthalpy of transition or fusion, kJ/mol (Crystal); method: DSC/DTA
Molar enthalpy of transition or fusion, kJ/mol	uncertainty
33.2	

System: 1-methyl-1-propylpyrrolidinium chloride; phases: Crystal, Liquid, Air at 1 atmosphere
Property: Normal melting temperature, K (Crystal); method: DSC/DTA
Normal melting temperature, K	uncertainty
323.5	

System: 1-methyl-1-propylpyrrolidinium chloride; phases: Crystal, Liquid, Air at 1 atmosphere
Property: Molar enthalpy of transition or fusion, kJ/mol (Crystal); method: DSC/DTA
Molar enthalpy of transition or fusion, kJ/mol	uncertainty
26.5	

System: 1-methylpyridinium chloride; phases: Crystal, Liquid, Air at 1 atmosphere
Property: Normal melting temperature, K (Crystal); method: DSC/DTA
Normal melting temperature, K	uncertainty
417	

System: 1-methylpyridinium chloride; phases: Crystal, Liquid, Air at 1 atmosphere
Property: Molar enthalpy of transition or fusion, kJ/mol (Crystal); method: DSC/DTA
Molar enthalpy of transition or fusion, kJ/mol	uncertainty
22.5	

Reaction: -1 amyl chloride + -1 1-methylimidazole + 1 1-methyl-3-pentylimidazolium chloride
Property: Molar enthalpy of reaction, kJ/mol
-76.4

Reaction: -1 n-hexyl chloride + -1 1-methylimidazole + 1 1-hexyl-3-methylimidazolium chloride
Property: Molar enthalpy of reaction, kJ/mol
-77.4

Reaction: -1 1-methylimidazole + -1 heptane, 1-chloro- + 1 1-heptyl-3-methylimidazolium chloride
Property: Molar enthalpy of reaction, kJ/mol
-75.8

Reaction: -1 octyl chloride + -1 1-methylimidazole + 1 1-methyl-3-octylimidazolium chloride
Property: Molar enthalpy of reaction, kJ/mol
-77
