Measured thermophysical data. Physico-chemical exploration of solution behaviour of some metal perchlorates prevailing in N-methyl formamide with the manifestation of ion solvent consequences
Source: Thermochim. Acta, 2015, 10.1016/j.tca.2015.03.023
Compound 1: lithium perchlorate, ClLiO4, purity 99%
Compound 2: sodium perchlorate, ClNaO4, purity 99%
Compound 3: potassium perchlorate, ClKO4, purity 99%
Compound 4: formamide, N-methyl-, C2H5NO, purity 99.5%

System: formamide, N-methyl-; phases: Liquid
Fixed: Pressure, kPa = 101.325
Property: Mass density, kg/m3 (Liquid); method: Vibrating tube method
Temperature, K	Mass density, kg/m3	uncertainty
298.15	999.12	.5

System: formamide, N-methyl-; phases: Liquid
Fixed: Pressure, kPa = 101.325
Property: Viscosity, Pa*s (Liquid); method: Capillary tube (Ostwald; Ubbelohde) method
Temperature, K	Viscosity, Pa*s	uncertainty
298.15	.001653	.00001653

System: formamide, N-methyl-; phases: Liquid
Fixed: Frequency, MHz = 1
Property: Speed of sound, m/s (Liquid); method: Linear variable-path acoustic interferometer
Pressure, kPa	Temperature, K	Speed of sound, m/s	uncertainty
100	298.15	1430.3	1

System: formamide, N-methyl- + lithium perchlorate; phases: Liquid
Fixed: Pressure, kPa = 100
Fixed: Temperature, K = 298.15
Property: Molar conductivity, S*m2/mol (Liquid); method: Alternating current cell with electrodes
Molality, mol/kg of lithium perchlorate	Molar conductivity, S*m2/mol	uncertainty
.00012144	.000939	.0001
.00014617	.000926	.0001
.00018171	.000907	.0001
.00020363	.000895	.0001
.00022831	.000879	.0001
.00025249	.000875	.0001
.00027523	.000854	.0001
.00029998	.000841	.0001
.00032436	.000831	.0001
.0003557	.000815	.0001
.00037558	.000809	.0001
.0004004	.000795	.0001
.00044058	.000783	.0001
.00046872	.000769	.0001

System: formamide, N-methyl- + lithium perchlorate; phases: Liquid
Fixed: Pressure, kPa = 100
Fixed: Temperature, K = 298.15
Property: Mass density, kg/m3 (Liquid); method: Vibrating tube method
Molality, mol/kg of lithium perchlorate	Mass density, kg/m3	uncertainty
.015	999.44	.5
.0301	999.85	.5
.0452	1000.33	.5
.0603	1000.86	.5
.0755	1001.44	.5
.0907	1002.06	.5
0	999.12	.5

System: formamide, N-methyl- + lithium perchlorate; phases: Liquid
Fixed: Pressure, kPa = 100
Fixed: Temperature, K = 298.15
Property: Viscosity, Pa*s (Liquid); method: Capillary tube (Ostwald; Ubbelohde) method
Molality, mol/kg of lithium perchlorate	Viscosity, Pa*s	uncertainty
.015	.001668	.00001668
.0301	.001682	.00001682
.0452	.001696	.00001696
.0603	.00171	.0000171
.0755	.001725	.00001725
.0907	.001738	.00001738
0	.001653	.00001653

System: formamide, N-methyl- + lithium perchlorate; phases: Liquid
Fixed: Pressure, kPa = 100
Fixed: Temperature, K = 298.15
Fixed: Frequency, MHz = 1
Property: Speed of sound, m/s (Liquid); method: Linear variable-path acoustic interferometer
Molality, mol/kg of lithium perchlorate	Speed of sound, m/s	uncertainty
.015	1433.8	1
.0301	1447.3	1
.0452	1468.1	1
.0604	1494.8	1
.0755	1529.4	1
.0907	1569.9	1
0	1430.3	1

System: formamide, N-methyl- + sodium perchlorate; phases: Liquid
Fixed: Pressure, kPa = 100
Fixed: Temperature, K = 298.15
Property: Molar conductivity, S*m2/mol (Liquid); method: Alternating current cell with electrodes
Molality, mol/kg of sodium perchlorate	Molar conductivity, S*m2/mol	uncertainty
.00018333	.00113	.0001
.00025536	.001109	.0001
.00032472	.001086	.0001
.00037947	.001067	.0001
.00043974	.001047	.0001
.0005067	.001026	.0001
.00055885	.001013	.0001
.00062101	.00099	.0001
.00067652	.000978	.0001
.00074311	.000963	.0001
.00078456	.000956	.0001
.00082197	.000947	.0001
.00088328	.000925	.0001
.00096224	.000906	.0001

System: formamide, N-methyl- + sodium perchlorate; phases: Liquid
Fixed: Pressure, kPa = 100
Fixed: Temperature, K = 298.15
Property: Mass density, kg/m3 (Liquid); method: Vibrating tube method
Molality, mol/kg of sodium perchlorate	Mass density, kg/m3	uncertainty
.0145	999.72	.5
.0298	1000.43	.5
.0448	1001.19	.5
.0599	1001.99	.5
.0751	1002.84	.5
.0902	1003.73	.5
0	999.12	.5

System: formamide, N-methyl- + sodium perchlorate; phases: Liquid
Fixed: Pressure, kPa = 100
Fixed: Temperature, K = 298.15
Property: Viscosity, Pa*s (Liquid); method: Capillary tube (Ostwald; Ubbelohde) method
Molality, mol/kg of sodium perchlorate	Viscosity, Pa*s	uncertainty
.0145	.001664	.00001664
.0298	.001674	.00001674
.0448	.001683	.00001683
.0599	.001692	.00001692
.0751	.001702	.00001702
.0902	.001711	.00001711
0	.001653	.00001653

System: formamide, N-methyl- + sodium perchlorate; phases: Liquid
Fixed: Pressure, kPa = 100
Fixed: Temperature, K = 298.15
Fixed: Frequency, MHz = 1
Property: Speed of sound, m/s (Liquid); method: Linear variable-path acoustic interferometer
Molality, mol/kg of sodium perchlorate	Speed of sound, m/s	uncertainty
.0145	1434.9	1
.0298	1449.6	1
.0448	1470.8	1
.0599	1499.1	1
.0751	1534.9	1
.0902	1576.7	1
0	1430.3	1

System: formamide, N-methyl- + potassium perchlorate; phases: Liquid
Fixed: Pressure, kPa = 100
Fixed: Temperature, K = 298.15
Property: Molar conductivity, S*m2/mol (Liquid); method: Alternating current cell with electrodes
Molality, mol/kg of potassium perchlorate	Molar conductivity, S*m2/mol	uncertainty
.00044394	.001188	.0001
.00052854	.001165	.0001
.0006265	.001155	.0001
.00068382	.001135	.0001
.000722	.001126	.0001
.00078456	.001119	.0001
.00084739	.001117	.0001
.00091264	.001096	.0001
.00096845	.001089	.0001
.0010569	.001081	.0001
.00114853	.001062	.0001
.00121592	.001053	.0001
.00129025	.001031	.0001
.0013594	.001025	.0001

System: formamide, N-methyl- + potassium perchlorate; phases: Liquid
Fixed: Pressure, kPa = 100
Fixed: Temperature, K = 298.15
Property: Mass density, kg/m3 (Liquid); method: Vibrating tube method
Molality, mol/kg of potassium perchlorate	Mass density, kg/m3	uncertainty
.0153	1000.04	.5
.0304	1001.02	.5
.0457	1002.07	.5
.0609	1003.15	.5
.0759	1004.25	.5
.0911	1005.39	.5
0	999.12	.5

System: formamide, N-methyl- + potassium perchlorate; phases: Liquid
Fixed: Pressure, kPa = 100
Fixed: Temperature, K = 298.15
Property: Viscosity, Pa*s (Liquid); method: Capillary tube (Ostwald; Ubbelohde) method
Molality, mol/kg of potassium perchlorate	Viscosity, Pa*s	uncertainty
.0153	.00166	.0000166
.0304	.001665	.00001665
.0457	.001669	.00001669
.0609	.001674	.00001674
.0759	.001677	.00001677
.0911	.001681	.00001681
0	.001653	.00001653

System: formamide, N-methyl- + potassium perchlorate; phases: Liquid
Fixed: Pressure, kPa = 100
Fixed: Temperature, K = 298.15
Fixed: Frequency, MHz = 1
Property: Speed of sound, m/s (Liquid); method: Linear variable-path acoustic interferometer
Molality, mol/kg of potassium perchlorate	Speed of sound, m/s	uncertainty
.0153	1435.8	1
.0304	1449.9	1
.0457	1471.8	1
.0609	1499.7	1
.0759	1533.7	1
.0911	1577.6	1
0	1430.3	1
