Measured thermophysical data. Evaluation of thermodynamic properties of fluid mixtures by PC-SAFT model
Source: Thermochim. Acta, 2014, 10.1016/j.tca.2014.07.022
Compound 1: methyl isobutyl ketone, C6H12O, purity 99%
Compound 2: 2-propanol, C3H8O, purity 99%
Compound 3: 2-butanol, C4H10O, purity 99%
Compound 4: 2-pentanol, C5H12O, purity 99%

System: methyl isobutyl ketone; phases: Liquid
Property: Mass density, kg/m3 (Liquid); method: Vibrating tube method
Temperature, K	Pressure, kPa	Mass density, kg/m3	uncertainty
293.15	100	800.8	.2
298.15	100	796.1	.2
303.15	100	791.6	.2
308.15	100	786.9	.2
313.15	100	782.3	.2
318.15	100	777.6	.2
323.15	100	773	.2

System: methyl isobutyl ketone; phases: Liquid
Property: Viscosity, Pa*s (Liquid); method: Concentric cylinders viscometry
Temperature, K	Pressure, kPa	Viscosity, Pa*s	uncertainty
293.15	100	.000588	.00001176
298.15	100	.000554	.00001108
303.15	100	.000523	.00001046
308.15	100	.000493	.00000986
313.15	100	.000463	.00000926
318.15	100	.000437	.00000874
323.15	100	.00041	.0000082

System: 2-propanol; phases: Liquid
Property: Mass density, kg/m3 (Liquid); method: Vibrating tube method
Temperature, K	Pressure, kPa	Mass density, kg/m3	uncertainty
293.15	100	785.4	.2
298.15	100	781.1	.2
303.15	100	776.8	.2
308.15	100	772.4	.2
313.15	100	768	.2
318.15	100	763.4	.2
323.15	100	758.8	.2

System: 2-propanol; phases: Liquid
Property: Viscosity, Pa*s (Liquid); method: Concentric cylinders viscometry
Temperature, K	Pressure, kPa	Viscosity, Pa*s	uncertainty
293.15	100	.002417	.00004834
298.15	100	.002083	.00004166
303.15	100	.0018	.000036
308.15	100	.001561	.00003122
313.15	100	.001359	.00002718
318.15	100	.001189	.00002378
323.15	100	.001047	.00002094

System: 2-butanol; phases: Liquid
Property: Mass density, kg/m3 (Liquid); method: Vibrating tube method
Temperature, K	Pressure, kPa	Mass density, kg/m3	uncertainty
293.15	100	806.7	.2
298.15	100	802.7	.2
303.15	100	798.4	.2
308.15	100	794.1	.2
313.15	100	789.8	.2
318.15	100	785.2	.2
323.15	100	780.6	.2

System: 2-butanol; phases: Liquid
Property: Viscosity, Pa*s (Liquid); method: Concentric cylinders viscometry
Temperature, K	Pressure, kPa	Viscosity, Pa*s	uncertainty
293.15	100	.00367	.0000734
298.15	100	.00304	.0000608
303.15	100	.00254	.0000508
308.15	100	.002128	.00004256
313.15	100	.001805	.0000361
318.15	100	.001538	.00003076
323.15	100	.001325	.0000265

System: 2-pentanol; phases: Liquid
Property: Mass density, kg/m3 (Liquid); method: Vibrating tube method
Temperature, K	Pressure, kPa	Mass density, kg/m3	uncertainty
293.15	100	809.3	.2
298.15	100	805.3	.2
303.15	100	801.2	.2
308.15	100	797	.2
313.15	100	792.7	.2
318.15	100	788.4	.2
323.15	100	784	.2

System: 2-pentanol; phases: Liquid
Property: Viscosity, Pa*s (Liquid); method: Concentric cylinders viscometry
Temperature, K	Pressure, kPa	Viscosity, Pa*s	uncertainty
293.15	100	.003974	.00007948
298.15	100	.003277	.00006554
303.15	100	.002717	.00005434
308.15	100	.002282	.00004564
313.15	100	.001931	.00003862
318.15	100	.001647	.00003294
323.15	100	.001419	.00002838

System: 2-propanol + methyl isobutyl ketone; phases: Liquid
Fixed: Pressure, kPa = 100
Property: Mass density, kg/m3 (Liquid); method: Vibrating tube method
Temperature, K	Mole fraction of methyl isobutyl ketone	Mass density, kg/m3	uncertainty
293.15	0	785.4	.2
293.15	.067	786.4	.2
293.15	.1344	787.5	.2
293.15	.2044	788.6	.2
293.15	.3035	790.2	.2
293.15	.3848	791.4	.2
293.15	.5098	793.4	.2
293.15	.5987	794.7	.2
293.15	.6986	796.3	.2
293.15	.8138	798	.2
293.15	.9278	799.8	.2
293.15	1	800.8	.2
298.15	0	781.1	.2
298.15	.067	782.1	.2
298.15	.1344	783.1	.2
298.15	.2044	784.1	.2
298.15	.3035	785.6	.2
298.15	.3848	786.8	.2
298.15	.5098	788.6	.2
298.15	.5987	790	.2
298.15	.6986	791.5	.2
298.15	.8138	793.2	.2
298.15	.9278	795	.2
298.15	1	796.1	.2
303.15	0	776.8	.2
303.15	.067	777.7	.2
303.15	.1344	778.6	.2
303.15	.2044	779.6	.2
303.15	.3035	781	.2
303.15	.3848	782.2	.2
303.15	.5098	784	.2
303.15	.5987	785.4	.2
303.15	.6986	786.9	.2
303.15	.8138	788.7	.2
303.15	.9278	790.5	.2
303.15	1	791.6	.2
308.15	0	772.4	.2
308.15	.067	773.2	.2
308.15	.1344	774.1	.2
308.15	.2044	775	.2
308.15	.3035	776.4	.2
308.15	.3848	777.5	.2
308.15	.5098	779.3	.2
308.15	.5987	780.7	.2
308.15	.6986	782.2	.2
308.15	.8138	784	.2
308.15	.9278	785.7	.2
308.15	1	786.9	.2
313.15	0	768	.2
313.15	.067	768.7	.2
313.15	.1344	769.5	.2
313.15	.2044	770.4	.2
313.15	.3035	771.8	.2
313.15	.3848	772.9	.2
313.15	.5098	774.7	.2
313.15	.5987	776	.2
313.15	.6986	777.5	.2
313.15	.8138	779.3	.2
313.15	.9278	781.1	.2
313.15	1	782.3	.2
318.15	0	763.4	.2
318.15	.067	764.1	.2
318.15	.1344	764.8	.2
318.15	.2044	765.7	.2
318.15	.3035	767	.2
318.15	.3848	768.1	.2
318.15	.5098	769.9	.2
318.15	.5987	771.2	.2
318.15	.6986	772.7	.2
318.15	.8138	774.6	.2
318.15	.9278	776.4	.2
318.15	1	777.6	.2
323.15	0	758.8	.2
323.15	.067	759.4	.2
323.15	.1344	760.2	.2
323.15	.2044	761	.2
323.15	.3035	762.3	.2
323.15	.3848	763.4	.2
323.15	.5098	765.2	.2
323.15	.5987	766.5	.2
323.15	.6986	768.1	.2
323.15	.8138	769.9	.2
323.15	.9278	771.8	.2
323.15	1	773	.2

System: 2-propanol + methyl isobutyl ketone; phases: Liquid
Fixed: Pressure, kPa = 100
Property: Viscosity, Pa*s (Liquid); method: Concentric cylinders viscometry
Temperature, K	Mole fraction of methyl isobutyl ketone	Viscosity, Pa*s	uncertainty
293.15	0	.002417	.00004834
293.15	.067	.001722	.00003444
293.15	.1344	.001361	.00002722
293.15	.2044	.001141	.00002282
293.15	.3035	.000962	.00001924
293.15	.3848	.000856	.00001712
293.15	.5098	.000737	.00001474
293.15	.5987	.000691	.00001382
293.15	.6986	.000651	.00001302
293.15	.8138	.000619	.00001238
293.15	.9278	.000605	.0000121
293.15	1	.000588	.00001176
298.15	0	.002083	.00004166
298.15	.067	.001516	.00003032
298.15	.1344	.001217	.00002434
298.15	.2044	.001029	.00002058
298.15	.3035	.000877	.00001754
298.15	.3848	.000784	.00001568
298.15	.5098	.000684	.00001368
298.15	.5987	.00064	.0000128
298.15	.6986	.000608	.00001216
298.15	.8138	.000581	.00001162
298.15	.9278	.000568	.00001136
298.15	1	.000554	.00001108
303.15	0	.0018	.000036
303.15	.067	.001346	.00002692
303.15	.1344	.00109	.0000218
303.15	.2044	.000932	.00001864
303.15	.3035	.0008	.000016
303.15	.3848	.000725	.0000145
303.15	.5098	.000638	.00001276
303.15	.5987	.000601	.00001202
303.15	.6986	.000571	.00001142
303.15	.8138	.000547	.00001094
303.15	.9278	.000534	.00001068
303.15	1	.000523	.00001046
308.15	0	.001561	.00003122
308.15	.067	.00119	.0000238
308.15	.1344	.000985	.0000197
308.15	.2044	.000849	.00001698
308.15	.3035	.000736	.00001472
308.15	.3848	.000669	.00001338
308.15	.5098	.000594	.00001188
308.15	.5987	.000562	.00001124
308.15	.6986	.000536	.00001072
308.15	.8138	.000515	.0000103
308.15	.9278	.000503	.00001006
308.15	1	.000493	.00000986
313.15	0	.001359	.00002718
313.15	.067	.001059	.00002118
313.15	.1344	.000884	.00001768
313.15	.2044	.000769	.00001538
313.15	.3035	.000675	.0000135
313.15	.3848	.000619	.00001238
313.15	.5098	.000555	.0000111
313.15	.5987	.000528	.00001056
313.15	.6986	.000505	.0000101
313.15	.8138	.000486	.00000972
313.15	.9278	.000473	.00000946
313.15	1	.000463	.00000926
318.15	0	.001189	.00002378
318.15	.067	.000949	.00001898
318.15	.1344	.000799	.00001598
318.15	.2044	.000695	.0000139
318.15	.3035	.000615	.0000123
318.15	.3848	.000565	.0000113
318.15	.5098	.000516	.00001032
318.15	.5987	.000495	.0000099
318.15	.6986	.000475	.0000095
318.15	.8138	.000459	.00000918
318.15	.9278	.000447	.00000894
318.15	1	.000437	.00000874
323.15	0	.001047	.00002094
323.15	.067	.000845	.0000169
323.15	.1344	.000718	.00001436
323.15	.2044	.000629	.00001258
323.15	.3035	.00056	.0000112
323.15	.3848	.00052	.0000104
323.15	.5098	.00048	.0000096
323.15	.5987	.000462	.00000924
323.15	.6986	.000448	.00000896
323.15	.8138	.000435	.0000087
323.15	.9278	.000422	.00000844
323.15	1	.00041	.0000082

System: 2-butanol + methyl isobutyl ketone; phases: Liquid
Fixed: Pressure, kPa = 100
Property: Mass density, kg/m3 (Liquid); method: Vibrating tube method
Temperature, K	Mole fraction of methyl isobutyl ketone	Mass density, kg/m3	uncertainty
293.15	0	806.7	.2
293.15	.1002	805.1	.2
293.15	.1905	803.8	.2
293.15	.2801	802.8	.2
293.15	.4054	801.7	.2
293.15	.4891	801.2	.2
293.15	.6123	800.7	.2
293.15	.6942	800.5	.2
293.15	.779	800.5	.2
293.15	.8747	800.5	.2
293.15	.9522	800.7	.2
293.15	1	800.8	.2
298.15	0	802.7	.2
298.15	.1002	800.9	.2
298.15	.1905	799.5	.2
298.15	.2801	798.4	.2
298.15	.4054	797.2	.2
298.15	.4891	796.6	.2
298.15	.6123	796	.2
298.15	.6942	795.9	.2
298.15	.779	795.8	.2
298.15	.8747	795.8	.2
298.15	.9522	796	.2
298.15	1	796.1	.2
303.15	0	798.4	.2
303.15	.1002	796.4	.2
303.15	.1905	795	.2
303.15	.2801	793.9	.2
303.15	.4054	792.6	.2
303.15	.4891	792.1	.2
303.15	.6123	791.5	.2
303.15	.6942	791.3	.2
303.15	.779	791.2	.2
303.15	.8747	791.3	.2
303.15	.9522	791.4	.2
303.15	1	791.6	.2
308.15	0	794.1	.2
308.15	.1002	792	.2
308.15	.1905	790.5	.2
308.15	.2801	789.3	.2
308.15	.4054	788	.2
308.15	.4891	787.4	.2
308.15	.6123	786.7	.2
308.15	.6942	786.5	.2
308.15	.779	786.5	.2
308.15	.8747	786.5	.2
308.15	.9522	786.7	.2
308.15	1	786.9	.2
313.15	0	789.8	.2
313.15	.1002	787.6	.2
313.15	.1905	786	.2
313.15	.2801	784.7	.2
313.15	.4054	783.4	.2
313.15	.4891	782.7	.2
313.15	.6123	782.1	.2
313.15	.6942	781.9	.2
313.15	.779	781.8	.2
313.15	.8747	781.9	.2
313.15	.9522	782.1	.2
313.15	1	782.3	.2
318.15	0	785.2	.2
318.15	.1002	783	.2
318.15	.1905	781.3	.2
318.15	.2801	780	.2
318.15	.4054	778.6	.2
318.15	.4891	777.9	.2
318.15	.6123	777.3	.2
318.15	.6942	777.1	.2
318.15	.779	777	.2
318.15	.8747	777.1	.2
318.15	.9522	777.4	.2
318.15	1	777.6	.2
323.15	0	780.6	.2
323.15	.1002	778.3	.2
323.15	.1905	776.6	.2
323.15	.2801	775.3	.2
323.15	.4054	773.8	.2
323.15	.4891	773.2	.2
323.15	.6123	772.6	.2
323.15	.6942	772.4	.2
323.15	.779	772.3	.2
323.15	.8747	772.5	.2
323.15	.9522	772.7	.2
323.15	1	773	.2

System: 2-butanol + methyl isobutyl ketone; phases: Liquid
Fixed: Pressure, kPa = 100
Property: Viscosity, Pa*s (Liquid); method: Concentric cylinders viscometry
Temperature, K	Mole fraction of methyl isobutyl ketone	Viscosity, Pa*s	uncertainty
293.15	0	.00367	.0000734
293.15	.1002	.002361	.00004722
293.15	.1905	.001802	.00003604
293.15	.2801	.001468	.00002936
293.15	.4054	.001162	.00002324
293.15	.4891	.001001	.00002002
293.15	.6123	.00084	.0000168
293.15	.6942	.000771	.00001542
293.15	.779	.000713	.00001426
293.15	.8747	.000646	.00001292
293.15	.9522	.000614	.00001228
293.15	1	.000588	.00001176
298.15	0	.00304	.0000608
298.15	.1002	.002041	.00004082
298.15	.1905	.001598	.00003196
298.15	.2801	.001311	.00002622
298.15	.4054	.001053	.00002106
298.15	.4891	.000916	.00001832
298.15	.6123	.000776	.00001552
298.15	.6942	.000717	.00001434
298.15	.779	.000666	.00001332
298.15	.8747	.000607	.00001214
298.15	.9522	.000582	.00001164
298.15	1	.000554	.00001108
303.15	0	.00254	.0000508
303.15	.1002	.001762	.00003524
303.15	.1905	.001403	.00002806
303.15	.2801	.001173	.00002346
303.15	.4054	.000955	.0000191
303.15	.4891	.00084	.0000168
303.15	.6123	.000716	.00001432
303.15	.6942	.000668	.00001336
303.15	.779	.000621	.00001242
303.15	.8747	.000569	.00001138
303.15	.9522	.000545	.0000109
303.15	1	.000523	.00001046
308.15	0	.002128	.00004256
308.15	.1002	.001531	.00003062
308.15	.1905	.001247	.00002494
308.15	.2801	.001055	.0000211
308.15	.4054	.00087	.0000174
308.15	.4891	.000775	.0000155
308.15	.6123	.000664	.00001328
308.15	.6942	.000623	.00001246
308.15	.779	.000582	.00001164
308.15	.8747	.000536	.00001072
308.15	.9522	.000513	.00001026
308.15	1	.000493	.00000986
313.15	0	.001805	.0000361
313.15	.1002	.001341	.00002682
313.15	.1905	.0011	.000022
313.15	.2801	.00094	.0000188
313.15	.4054	.000787	.00001574
313.15	.4891	.000708	.00001416
313.15	.6123	.000621	.00001242
313.15	.6942	.00058	.0000116
313.15	.779	.000544	.00001088
313.15	.8747	.000505	.0000101
313.15	.9522	.000485	.0000097
313.15	1	.000463	.00000926
318.15	0	.001538	.00003076
318.15	.1002	.001181	.00002362
318.15	.1905	.000984	.00001968
318.15	.2801	.000847	.00001694
318.15	.4054	.000715	.0000143
318.15	.4891	.000649	.00001298
318.15	.6123	.000575	.0000115
318.15	.6942	.000535	.0000107
318.15	.779	.000505	.0000101
318.15	.8747	.000477	.00000954
318.15	.9522	.000458	.00000916
318.15	1	.000437	.00000874
323.15	0	.001325	.0000265
323.15	.1002	.001035	.0000207
323.15	.1905	.00088	.0000176
323.15	.2801	.000772	.00001544
323.15	.4054	.000662	.00001324
323.15	.4891	.000603	.00001206
323.15	.6123	.000535	.0000107
323.15	.6942	.000501	.00001002
323.15	.779	.000471	.00000942
323.15	.8747	.000449	.00000898
323.15	.9522	.000434	.00000868
323.15	1	.00041	.0000082

System: methyl isobutyl ketone + 2-pentanol; phases: Liquid
Fixed: Pressure, kPa = 100
Property: Mass density, kg/m3 (Liquid); method: Vibrating tube method
Temperature, K	Mole fraction of methyl isobutyl ketone	Mass density, kg/m3	uncertainty
293.15	0	809.3	.2
293.15	.0812	807.6	.2
293.15	.1588	806.2	.2
293.15	.2391	804.9	.2
293.15	.3508	803.3	.2
293.15	.4441	802.4	.2
293.15	.561	801.4	.2
293.15	.6484	800.9	.2
293.15	.741	800.7	.2
293.15	.8528	800.5	.2
293.15	.9406	800.7	.2
293.15	1	800.8	.2
298.15	0	805.3	.2
298.15	.0812	803.5	.2
298.15	.1588	801.9	.2
298.15	.2391	800.6	.2
298.15	.3508	799	.2
298.15	.4441	797.9	.2
298.15	.561	796.9	.2
298.15	.6484	796.4	.2
298.15	.741	796	.2
298.15	.8528	795.9	.2
298.15	.9406	795.9	.2
298.15	1	796.1	.2
303.15	0	801.2	.2
303.15	.0812	799.3	.2
303.15	.1588	797.7	.2
303.15	.2391	796.3	.2
303.15	.3508	794.6	.2
303.15	.4441	793.5	.2
303.15	.561	792.4	.2
303.15	.6484	791.9	.2
303.15	.741	791.5	.2
303.15	.8528	791.3	.2
303.15	.9406	791.4	.2
303.15	1	791.6	.2
308.15	0	797	.2
308.15	.0812	795	.2
308.15	.1588	793.4	.2
308.15	.2391	791.9	.2
308.15	.3508	790.1	.2
308.15	.4441	788.9	.2
308.15	.561	787.8	.2
308.15	.6484	787.2	.2
308.15	.741	786.8	.2
308.15	.8528	786.6	.2
308.15	.9406	786.7	.2
308.15	1	786.9	.2
313.15	0	792.7	.2
313.15	.0812	790.6	.2
313.15	.1588	788.9	.2
313.15	.2391	787.4	.2
313.15	.3508	785.6	.2
313.15	.4441	784.3	.2
313.15	.561	783.2	.2
313.15	.6484	782.6	.2
313.15	.741	782.2	.2
313.15	.8528	782	.2
313.15	.9406	782.1	.2
313.15	1	782.3	.2
318.15	0	788.4	.2
318.15	.0812	786.3	.2
318.15	.1588	784.5	.2
318.15	.2391	782.9	.2
318.15	.3508	781	.2
318.15	.4441	779.8	.2
318.15	.561	778.6	.2
318.15	.6484	778	.2
318.15	.741	777.6	.2
318.15	.8528	777.3	.2
318.15	.9406	777.4	.2
318.15	1	777.6	.2
323.15	0	784	.2
323.15	.0812	781.9	.2
323.15	.1588	780	.2
323.15	.2391	778.4	.2
323.15	.3508	776.5	.2
323.15	.4441	775.2	.2
323.15	.561	774	.2
323.15	.6484	773.4	.2
323.15	.741	772.9	.2
323.15	.8528	772.7	.2
323.15	.9406	772.8	.2
323.15	1	773	.2

System: methyl isobutyl ketone + 2-pentanol; phases: Liquid
Fixed: Pressure, kPa = 100
Property: Viscosity, Pa*s (Liquid); method: Concentric cylinders viscometry
Temperature, K	Mole fraction of methyl isobutyl ketone	Viscosity, Pa*s	uncertainty
293.15	0	.003974	.00007948
293.15	.0812	.002699	.00005398
293.15	.1588	.00209	.0000418
293.15	.2391	.001709	.00003418
293.15	.3508	.001366	.00002732
293.15	.4441	.00114	.0000228
293.15	.561	.000924	.00001848
293.15	.6484	.000818	.00001636
293.15	.741	.00074	.0000148
293.15	.8528	.000671	.00001342
293.15	.9406	.00063	.0000126
293.15	1	.000588	.00001176
298.15	0	.003277	.00006554
298.15	.0812	.002326	.00004652
298.15	.1588	.00183	.0000366
298.15	.2391	.001496	.00002992
298.15	.3508	.001202	.00002404
298.15	.4441	.001018	.00002036
298.15	.561	.00085	.000017
298.15	.6484	.000767	.00001534
298.15	.741	.00069	.0000138
298.15	.8528	.00063	.0000126
298.15	.9406	.00059	.0000118
298.15	1	.000554	.00001108
303.15	0	.002717	.00005434
303.15	.0812	.002029	.00004058
303.15	.1588	.001619	.00003238
303.15	.2391	.001333	.00002666
303.15	.3508	.001078	.00002156
303.15	.4441	.000928	.00001856
303.15	.561	.000787	.00001574
303.15	.6484	.000711	.00001422
303.15	.741	.000641	.00001282
303.15	.8528	.000589	.00001178
303.15	.9406	.000553	.00001106
303.15	1	.000523	.00001046
308.15	0	.002282	.00004564
308.15	.0812	.001757	.00003514
308.15	.1588	.001429	.00002858
308.15	.2391	.001185	.0000237
308.15	.3508	.000966	.00001932
308.15	.4441	.000842	.00001684
308.15	.561	.000728	.00001456
308.15	.6484	.000663	.00001326
308.15	.741	.0006	.000012
308.15	.8528	.000554	.00001108
308.15	.9406	.000526	.00001052
308.15	1	.000493	.00000986
313.15	0	.001931	.00003862
313.15	.0812	.00152	.0000304
313.15	.1588	.001249	.00002498
313.15	.2391	.001051	.00002102
313.15	.3508	.000876	.00001752
313.15	.4441	.000773	.00001546
313.15	.561	.000675	.0000135
313.15	.6484	.000617	.00001234
313.15	.741	.000561	.00001122
313.15	.8528	.000522	.00001044
313.15	.9406	.000497	.00000994
313.15	1	.000463	.00000926
318.15	0	.001647	.00003294
318.15	.0812	.001329	.00002658
318.15	.1588	.001116	.00002232
318.15	.2391	.000949	.00001898
318.15	.3508	.0008	.000016
318.15	.4441	.000712	.00001424
318.15	.561	.000627	.00001254
318.15	.6484	.000577	.00001154
318.15	.741	.00053	.0000106
318.15	.8528	.000492	.00000984
318.15	.9406	.000465	.0000093
318.15	1	.000437	.00000874
323.15	0	.001419	.00002838
323.15	.0812	.001168	.00002336
323.15	.1588	.000995	.0000199
323.15	.2391	.000855	.0000171
323.15	.3508	.000729	.00001458
323.15	.4441	.000654	.00001308
323.15	.561	.000583	.00001166
323.15	.6484	.000543	.00001086
323.15	.741	.000505	.0000101
323.15	.8528	.000468	.00000936
323.15	.9406	.000445	.0000089
323.15	1	.00041	.0000082
