Measured thermophysical data. Densities, isobaric expansivities and isothermal compressibilities of the thiocyanate-based ionic  liquids at temperatures (298.15 to 348.15) K and pressures up to 10 MPa.
Source: Thermochim. Acta, 2012, 10.1016/j.tca.2011.11.009
Compound 1: 1-ethyl-3-methylimidazolium thiocyanate, C7H11N3S, purity 98%
Compound 2: 1-butyl-3-methylimidazolium thiocyanate, C9H15N3S, purity 99%
Compound 3: 1-butyl-4-methylpyridinium thiocyanate, C11H16N2S, purity 98%

System: 1-ethyl-3-methylimidazolium thiocyanate; phases: Liquid
Property: Mass density, kg/m3 (Liquid); method: Vibrating tube method
Temperature, K	Pressure, kPa	Mass density, kg/m3	uncertainty
298.15	100	1116.69	.2
298.15	200	1116.71	.2
298.15	300	1116.72	.2
298.15	400	1116.77	.2
298.15	500	1116.82	.2
298.15	600	1116.86	.2
298.15	800	1116.92	.2
298.15	1000	1117	.2
298.15	2000	1117.35	.2
298.15	4000	1118.04	.2
298.15	6000	1118.74	.2
298.15	8000	1119.43	.2
298.15	10000	1120.11	.2
308.15	100	1110.39	.2
308.15	200	1110.42	.2
308.15	300	1110.47	.2
308.15	400	1110.5	.2
308.15	500	1110.54	.2
308.15	600	1110.59	.2
308.15	800	1110.68	.2
308.15	1000	1110.74	.2
308.15	2000	1111.1	.2
308.15	4000	1111.81	.2
308.15	6000	1112.53	.2
308.15	8000	1113.24	.2
308.15	10000	1113.94	.2
318.15	100	1104.8	.2
318.15	200	1104.83	.2
318.15	300	1104.87	.2
318.15	400	1104.91	.2
318.15	500	1104.97	.2
318.15	600	1105	.2
318.15	800	1105.04	.2
318.15	1000	1105.13	.2
318.15	2000	1105.5	.2
318.15	4000	1106.24	.2
318.15	6000	1106.96	.2
318.15	8000	1107.68	.2
318.15	10000	1108.39	.2
328.15	100	1098.18	.2
328.15	200	1098.22	.2
328.15	300	1098.27	.2
328.15	400	1098.31	.2
328.15	500	1098.32	.2
328.15	600	1098.38	.2
328.15	800	1098.43	.2
328.15	1000	1098.54	.2
328.15	2000	1098.87	.2
328.15	4000	1099.64	.2
328.15	6000	1100.38	.2
328.15	8000	1101.1	.2
328.15	10000	1101.83	.2
338.15	100	1092.87	.2
338.15	200	1092.93	.2
338.15	300	1092.97	.2
338.15	400	1093	.2
338.15	500	1093.05	.2
338.15	600	1093.11	.2
338.15	800	1093.18	.2
338.15	1000	1093.24	.2
338.15	2000	1093.64	.2
338.15	4000	1094.38	.2
338.15	6000	1095.15	.2
338.15	8000	1095.91	.2
338.15	10000	1096.65	.2

System: 1-butyl-3-methylimidazolium thiocyanate; phases: Liquid
Property: Mass density, kg/m3 (Liquid); method: Vibrating tube method
Temperature, K	Pressure, kPa	Mass density, kg/m3	uncertainty
298.15	100	1070.18	.2
298.15	200	1070.23	.2
298.15	300	1070.25	.2
298.15	400	1070.29	.2
298.15	500	1070.32	.2
298.15	600	1070.36	.2
298.15	800	1070.43	.2
298.15	1000	1070.5	.2
298.15	2000	1070.88	.2
298.15	4000	1071.63	.2
298.15	6000	1072.37	.2
298.15	8000	1073.11	.2
298.15	10000	1073.83	.2
308.15	100	1063.9	.2
308.15	200	1063.94	.2
308.15	300	1064.03	.2
308.15	400	1064.09	.2
308.15	500	1064.13	.2
308.15	600	1064.18	.2
308.15	800	1064.29	.2
308.15	1000	1064.35	.2
308.15	2000	1064.73	.2
308.15	4000	1065.48	.2
308.15	6000	1066.26	.2
308.15	8000	1067.02	.2
308.15	10000	1067.77	.2
318.15	100	1058.33	.2
318.15	200	1058.37	.2
318.15	300	1058.41	.2
318.15	400	1058.45	.2
318.15	500	1058.5	.2
318.15	600	1058.54	.2
318.15	800	1058.61	.2
318.15	1000	1058.68	.2
318.15	2000	1059.07	.2
318.15	4000	1059.88	.2
318.15	6000	1060.63	.2
318.15	8000	1061.43	.2
318.15	10000	1062.18	.2
328.15	100	1052.54	.2
328.15	200	1052.59	.2
328.15	300	1052.62	.2
328.15	400	1052.69	.2
328.15	500	1052.69	.2
328.15	600	1052.75	.2
328.15	800	1052.82	.2
328.15	1000	1052.94	.2
328.15	2000	1053.31	.2
328.15	4000	1054.11	.2
328.15	6000	1054.91	.2
328.15	8000	1055.68	.2
328.15	10000	1056.48	.2
338.15	100	1046.94	.2
338.15	200	1047.03	.2
338.15	300	1047.05	.2
338.15	400	1047.1	.2
338.15	500	1047.14	.2
338.15	600	1047.17	.2
338.15	800	1047.27	.2
338.15	1000	1047.33	.2
338.15	2000	1047.74	.2
338.15	4000	1048.56	.2
338.15	6000	1049.39	.2
338.15	8000	1050.19	.2
338.15	10000	1050.99	.2

System: 1-butyl-4-methylpyridinium thiocyanate; phases: Liquid
Property: Mass density, kg/m3 (Liquid); method: Vibrating tube method
Temperature, K	Pressure, kPa	Mass density, kg/m3	uncertainty
298.15	100	1061.57	.2
298.15	200	1061.61	.2
298.15	300	1061.64	.2
298.15	400	1061.66	.2
298.15	500	1061.7	.2
298.15	600	1061.74	.2
298.15	800	1061.81	.2
298.15	1000	1061.88	.2
298.15	2000	1062.24	.2
298.15	4000	1062.95	.2
298.15	6000	1063.68	.2
298.15	8000	1064.4	.2
298.15	10000	1065.1	.2
308.15	100	1055.36	.2
308.15	200	1055.39	.2
308.15	300	1055.43	.2
308.15	400	1055.48	.2
308.15	500	1055.53	.2
308.15	600	1055.59	.2
308.15	800	1055.69	.2
308.15	1000	1055.77	.2
308.15	2000	1056.11	.2
308.15	4000	1056.86	.2
308.15	6000	1057.62	.2
308.15	8000	1058.35	.2
308.15	10000	1059.08	.2
318.15	100	1049.83	.2
318.15	200	1049.88	.2
318.15	300	1049.93	.2
318.15	400	1049.96	.2
318.15	500	1050.03	.2
318.15	600	1050.06	.2
318.15	800	1050.13	.2
318.15	1000	1050.2	.2
318.15	2000	1050.6	.2
318.15	4000	1051.37	.2
318.15	6000	1052.12	.2
318.15	8000	1052.88	.2
318.15	10000	1053.61	.2
328.15	100	1044.2	.2
328.15	200	1044.23	.2
328.15	300	1044.29	.2
328.15	400	1044.33	.2
328.15	500	1044.34	.2
328.15	600	1044.41	.2
328.15	800	1044.45	.2
328.15	1000	1044.55	.2
328.15	2000	1044.93	.2
328.15	4000	1045.71	.2
328.15	6000	1046.49	.2
328.15	8000	1047.26	.2
328.15	10000	1048.01	.2
338.15	100	1037.12	.2
338.15	200	1037.15	.2
338.15	300	1037.18	.2
338.15	400	1037.18	.2
338.15	500	1037.24	.2
338.15	600	1037.29	.2
338.15	800	1037.35	.2
338.15	1000	1037.43	.2
338.15	2000	1037.83	.2
338.15	4000	1038.61	.2
338.15	6000	1039.4	.2
338.15	8000	1040.18	.2
338.15	10000	1040.98	.2
