Measured thermophysical data. DIELECTRIC AND REFRACTIVE INDEX MEASUREMENTS FOR THE  SYSTEMS 1-PENTANOL + 2,5,8,11,14-PENTAOXAPENTADECANE, OR FOR  2,5,8,11,14-PENTAOXAPENTADECANE + OCTANE AT (293.15-303.15) K.
Source: Thermochim. Acta, 2013, 10.1016/j.tca.2012.10.024
Compound 1: pentan-1-ol, C5H12O, purity 99%
Compound 2: n-octane, C8H18, purity 99%
Compound 3: dimethoxytetraglycol, C10H22O5, purity 98%

System: pentan-1-ol; phases: Liquid
Fixed: Pressure, kPa = 101.325
Property: Relative permittivity at zero frequency (Liquid); method: Parallel plate capacitor
Temperature, K	Relative permittivity at zero frequency	uncertainty
293.15	15.739	.47217
298.15	15.158	.45474
303.15	14.579	.43737

System: pentan-1-ol; phases: Liquid
Fixed: Pressure, kPa = 101.325
Property: Refractive index (Na D-line) (Liquid); method: Standard Abbe refractometry
Temperature, K	Refractive index (Na D-line)	uncertainty
293.15	1.41	.0003
298.15	1.4082	.0003
303.15	1.4061	.0003

System: n-octane; phases: Liquid
Fixed: Pressure, kPa = 101.325
Property: Relative permittivity at zero frequency (Liquid); method: Parallel plate capacitor
Temperature, K	Relative permittivity at zero frequency	uncertainty
293.15	1.968	.05904
298.15	1.961	.05883
303.15	1.954	.05862

System: n-octane; phases: Liquid
Fixed: Pressure, kPa = 101.325
Property: Refractive index (Na D-line) (Liquid); method: Standard Abbe refractometry
Temperature, K	Refractive index (Na D-line)	uncertainty
293.15	1.3976	.0003
298.15	1.3952	.0003
303.15	1.3929	.0003

System: dimethoxytetraglycol; phases: Liquid
Fixed: Pressure, kPa = 101.325
Property: Mass density, kg/m3 (Liquid); method: Pycnometric method
Temperature, K	Mass density, kg/m3	uncertainty
293.15	1011.06	
298.15	1007.07	
303.15	1002.49	

System: dimethoxytetraglycol; phases: Liquid
Fixed: Pressure, kPa = 101.325
Property: Relative permittivity at zero frequency (Liquid); method: Parallel plate capacitor
Temperature, K	Relative permittivity at zero frequency	uncertainty
293.15	7.939	.23817
298.15	7.816	.23448
303.15	7.692	.23076

System: dimethoxytetraglycol; phases: Liquid
Fixed: Pressure, kPa = 101.325
Property: Refractive index (Na D-line) (Liquid); method: Standard Abbe refractometry
Temperature, K	Refractive index (Na D-line)	uncertainty
293.15	1.4326	.0003
298.15	1.4306	.0003
303.15	1.4286	.0003

System: pentan-1-ol + dimethoxytetraglycol; phases: Liquid
Fixed: Pressure, kPa = 101
Property: Relative permittivity at zero frequency (Liquid); method: Parallel plate capacitor
Temperature, K	Mole fraction of pentan-1-ol	Relative permittivity at zero frequency	uncertainty
293.15	.0505	7.99	.2397
293.15	.1002	7.97	.2391
293.15	.1509	8.043	.24129
293.15	.1919	8.041	.24123
293.15	.2458	8.132	.24396
293.15	.291	8.15	.2445
293.15	.3384	8.271	.24813
293.15	.3986	8.344	.25032
293.15	.4554	8.523	.25569
293.15	.493	8.615	.25845
293.15	.5496	8.857	.26571
293.15	.5931	9.027	.27081
293.15	.6455	9.353	.28059
293.15	.6979	9.71	.2913
293.15	.7424	10.138	.30414
293.15	.7959	10.73	.3219
293.15	.8372	11.351	.34053
293.15	.8679	11.894	.35682
293.15	.8987	12.519	.37557
293.15	.9225	13.119	.39357
293.15	.9488	13.878	.41634
293.15	.9793	14.929	.44787
298.15	.0505	7.863	.23589
298.15	.1002	7.843	.23529
298.15	.1509	7.911	.23733
298.15	.1919	7.906	.23718
298.15	.2458	7.993	.23979
298.15	.291	8.009	.24027
298.15	.3384	8.119	.24357
298.15	.3986	8.186	.24558
298.15	.4554	8.35	.2505
298.15	.493	8.438	.25314
298.15	.5496	8.662	.25986
298.15	.5931	8.819	.26457
298.15	.6455	9.122	.27366
298.15	.6979	9.454	.28362
298.15	.7424	9.853	.29559
298.15	.7959	10.413	.31239
298.15	.8372	10.992	.32976
298.15	.8679	11.506	.34518
298.15	.8987	12.102	.36306
298.15	.9225	12.665	.37995
298.15	.9488	13.383	.40149
298.15	.9793	14.377	.43131
303.15	.0505	7.737	.23211
303.15	.1002	7.715	.23145
303.15	.1509	7.779	.23337
303.15	.1919	7.771	.23313
303.15	.2458	7.854	.23562
303.15	.291	7.866	.23598
303.15	.3384	7.968	.23904
303.15	.3986	8.029	.24087
303.15	.4554	8.18	.2454
303.15	.493	8.26	.2478
303.15	.5496	8.469	.25407
303.15	.5931	8.615	.25845
303.15	.6455	8.896	.26688
303.15	.6979	9.203	.27609
303.15	.7424	9.577	.28731
303.15	.7959	10.103	.30309
303.15	.8372	10.643	.31929
303.15	.8679	11.123	.33369
303.15	.8987	11.691	.35073
303.15	.9225	12.217	.36651
303.15	.9488	12.896	.38688
303.15	.9793	13.834	.41502

System: pentan-1-ol + dimethoxytetraglycol; phases: Liquid
Fixed: Pressure, kPa = 101
Property: Refractive index (Na D-line) (Liquid); method: Standard Abbe refractometry
Temperature, K	Mole fraction of pentan-1-ol	Refractive index (Na D-line)	uncertainty
293.15	.0505	1.4319	.0003
293.15	.1002	1.4315	.0003
293.15	.1509	1.4305	.0003
293.15	.1919	1.4301	.0003
293.15	.2458	1.4291	.0003
293.15	.291	1.4285	.0003
293.15	.3384	1.4276	.0003
293.15	.3986	1.4265	.0003
293.15	.4554	1.4256	.0003
293.15	.493	1.4248	.0003
293.15	.5496	1.4236	.0003
293.15	.5931	1.4227	.0003
293.15	.6455	1.4214	.0003
293.15	.6979	1.42	.0003
293.15	.7424	1.4188	.0003
293.15	.7959	1.4172	.0003
293.15	.8372	1.4159	.0003
293.15	.8679	1.4149	.0003
293.15	.8987	1.4139	.0003
293.15	.9225	1.413	.0003
293.15	.9488	1.412	.0003
293.15	.9793	1.4109	.0003
298.15	.0505	1.4302	.0003
298.15	.1002	1.4294	.0003
298.15	.1509	1.4286	.0003
298.15	.1919	1.4281	.0003
298.15	.2458	1.4272	.0003
298.15	.291	1.4265	.0003
298.15	.3384	1.4256	.0003
298.15	.3986	1.4246	.0003
298.15	.4554	1.4235	.0003
298.15	.493	1.4229	.0003
298.15	.5496	1.4217	.0003
298.15	.5931	1.4207	.0003
298.15	.6455	1.4194	.0003
298.15	.6979	1.4181	.0003
298.15	.7424	1.4168	.0003
298.15	.7959	1.4153	.0003
298.15	.8372	1.4141	.0003
298.15	.8679	1.4131	.0003
298.15	.8987	1.4121	.0003
298.15	.9225	1.4112	.0003
298.15	.9488	1.4102	.0003
298.15	.9793	1.409	.0003
303.15	.0505	1.4279	.0003
303.15	.1002	1.4273	.0003
303.15	.1509	1.4265	.0003
303.15	.1919	1.4259	.0003
303.15	.2458	1.4251	.0003
303.15	.291	1.4244	.0003
303.15	.3384	1.4236	.0003
303.15	.3986	1.4225	.0003
303.15	.4554	1.4215	.0003
303.15	.493	1.4207	.0003
303.15	.5496	1.4196	.0003
303.15	.5931	1.4186	.0003
303.15	.6455	1.4174	.0003
303.15	.6979	1.416	.0003
303.15	.7424	1.4148	.0003
303.15	.7959	1.4133	.0003
303.15	.8372	1.4121	.0003
303.15	.8679	1.4111	.0003
303.15	.8987	1.41	.0003
303.15	.9225	1.4092	.0003
303.15	.9488	1.4081	.0003
303.15	.9793	1.407	.0003

System: n-octane + dimethoxytetraglycol; phases: Liquid
Fixed: Pressure, kPa = 101
Property: Relative permittivity at zero frequency (Liquid); method: Parallel plate capacitor
Temperature, K	Mole fraction of dimethoxytetraglycol	Relative permittivity at zero frequency	uncertainty
293.15	.033	2.107	.06321
293.15	.0659	2.254	.06762
293.15	.0998	2.413	.07239
293.15	.133	2.577	.07731
293.15	.1645	2.736	.08208
293.15	.2003	2.922	.08766
293.15	.2488	3.19	.0957
293.15	.3002	3.476	.10428
293.15	.3486	3.762	.11286
293.15	.3951	4.03	.1209
293.15	.4461	4.347	.13041
293.15	.5092	4.738	.14214
293.15	.5516	5.005	.15015
293.15	.6003	5.313	.15939
293.15	.6409	5.578	.16734
293.15	.693	5.909	.17727
293.15	.7072	6.004	.18012
293.15	.7515	6.298	.18894
293.15	.8002	6.622	.19866
293.15	.8461	6.943	.20829
293.15	.8985	7.279	.21837
293.15	.9441	7.585	.22755
298.15	.033	2.098	.06294
298.15	.0659	2.242	.06726
298.15	.0998	2.398	.07194
298.15	.133	2.558	.07674
298.15	.1645	2.715	.08145
298.15	.2003	2.896	.08688
298.15	.2488	3.158	.09474
298.15	.3002	3.438	.10314
298.15	.3486	3.718	.11154
298.15	.3951	3.981	.11943
298.15	.4461	4.291	.12873
298.15	.5092	4.674	.14022
298.15	.5516	4.937	.14811
298.15	.6003	5.238	.15714
298.15	.6409	5.499	.16497
298.15	.693	5.823	.17469
298.15	.7072	5.916	.17748
298.15	.7515	6.205	.18615
298.15	.8002	6.523	.19569
298.15	.8461	6.838	.20514
298.15	.8985	7.168	.21504
298.15	.9441	7.469	.22407
303.15	.033	2.088	.06264
303.15	.0659	2.23	.0669
303.15	.0998	2.382	.07146
303.15	.133	2.538	.07614
303.15	.1645	2.693	.08079
303.15	.2003	2.87	.0861
303.15	.2488	3.126	.09378
303.15	.3002	3.4	.102
303.15	.3486	3.675	.11025
303.15	.3951	3.931	.11793
303.15	.4461	4.234	.12702
303.15	.5092	4.61	.1383
303.15	.5516	4.867	.14601
303.15	.6003	5.163	.15489
303.15	.6409	5.42	.1626
303.15	.693	5.736	.17208
303.15	.7072	5.827	.17481
303.15	.7515	6.111	.18333
303.15	.8002	6.421	.19263
303.15	.8461	6.732	.20196
303.15	.8985	7.057	.21171
303.15	.9441	7.351	.22053

System: n-octane + dimethoxytetraglycol; phases: Liquid
Fixed: Pressure, kPa = 101
Property: Refractive index (Na D-line) (Liquid); method: Standard Abbe refractometry
Temperature, K	Mole fraction of dimethoxytetraglycol	Refractive index (Na D-line)	uncertainty
293.15	.0503	1.3993	.0003
293.15	.1003	1.4011	.0003
293.15	.1515	1.4031	.0003
293.15	.2061	1.4052	.0003
293.15	.245	1.4067	.0003
293.15	.305	1.4091	.0003
293.15	.3569	1.4111	.0003
293.15	.4054	1.4127	.0003
293.15	.4487	1.4144	.0003
293.15	.5043	1.4163	.0003
293.15	.5537	1.4182	.0003
293.15	.5963	1.4195	.0003
293.15	.6473	1.4213	.0003
293.15	.693	1.4228	.0003
293.15	.7515	1.4248	.0003
293.15	.8067	1.4268	.0003
293.15	.8475	1.4281	.0003
293.15	.8941	1.4295	.0003
293.15	.947	1.431	.0003
298.15	.0503	1.3969	.0003
298.15	.1003	1.3987	.0003
298.15	.1515	1.4007	.0003
298.15	.2061	1.4028	.0003
298.15	.245	1.4043	.0003
298.15	.305	1.4067	.0003
298.15	.3569	1.4087	.0003
298.15	.4054	1.4106	.0003
298.15	.4487	1.4122	.0003
298.15	.5043	1.4142	.0003
298.15	.5537	1.4159	.0003
298.15	.5963	1.4173	.0003
298.15	.6473	1.4191	.0003
298.15	.693	1.4208	.0003
298.15	.7515	1.4227	.0003
298.15	.8067	1.4248	.0003
298.15	.8475	1.426	.0003
298.15	.8941	1.4275	.0003
298.15	.947	1.429	.0003
303.15	.0503	1.3946	.0003
303.15	.1003	1.3965	.0003
303.15	.1515	1.3985	.0003
303.15	.2061	1.4006	.0003
303.15	.245	1.4021	.0003
303.15	.305	1.4045	.0003
303.15	.3569	1.4065	.0003
303.15	.4054	1.4084	.0003
303.15	.4487	1.41	.0003
303.15	.5043	1.4121	.0003
303.15	.5537	1.4138	.0003
303.15	.5963	1.4151	.0003
303.15	.6473	1.417	.0003
303.15	.693	1.4186	.0003
303.15	.7515	1.4207	.0003
303.15	.8067	1.423	.0003
303.15	.8475	1.4239	.0003
303.15	.8941	1.4256	.0003
303.15	.947	1.4271	.0003
