Measured thermophysical data. Formation mechanism, crystallite growth and electrical conductivity of nano-crystalline CuxFe3-xO4 (0.75 less than x less than 1.25) spinels prepared by glycine-nitrate process
Source: Thermochim. Acta, 2016, 10.1016/j.tca.2016.07.001
Compound 1: copper ferrite (CuFe2O4), CuFe2O4

System: copper ferrite (CuFe2O4); phases: Crystal
Fixed: Pressure, kPa = 101.325
Property: Electrical conductivity, S/m (Crystal); method: Direct current cell with electrodes
Temperature, K	Electrical conductivity, S/m	uncertainty
923.15	450	
973.15	510	
1023.15	650	
1073.15	760	
