Measured thermophysical data. Enthalpies of solution of L-phenylalanine in aqueous  solution of amides at 298.15 K.
Source: Thermochim. Acta, 2013, 10.1016/j.tca.2012.11.004
Compound 1: L-phenylalanine, C9H11NO2, purity 99%
Compound 2: carbamaldehyde, CH3NO, purity 99.5%
Compound 3: NMF, C2H5NO, purity 99%
Compound 4: N,N-dimethylformamide, C3H7NO, purity 99.5%
Compound 5: acetamide, N,N-dimethyl-, C4H9NO, purity 99.8%
Compound 6: water, H2O

System: carbamaldehyde; phases: Liquid
Fixed: Pressure, kPa = 101.325
Property: Mass density, kg/m3 (Liquid); method: Vibrating tube method
Temperature, K	Mass density, kg/m3	uncertainty
298.15	1129.16	.015

System: carbamaldehyde; phases: Liquid
Fixed: Pressure, kPa = 101.325
Property: Refractive index (Na D-line) (Liquid); method: Standard Abbe refractometry
Temperature, K	Refractive index (Na D-line)	uncertainty
298.15	1.4465	.0001

System: NMF; phases: Liquid
Fixed: Pressure, kPa = 101.325
Property: Mass density, kg/m3 (Liquid); method: Vibrating tube method
Temperature, K	Mass density, kg/m3	uncertainty
298.15	998.94	.015

System: NMF; phases: Liquid
Fixed: Pressure, kPa = 101.325
Property: Refractive index (Na D-line) (Liquid); method: Standard Abbe refractometry
Temperature, K	Refractive index (Na D-line)	uncertainty
298.15	1.4302	.0001

System: N,N-dimethylformamide; phases: Liquid
Fixed: Pressure, kPa = 101.325
Property: Mass density, kg/m3 (Liquid); method: Vibrating tube method
Temperature, K	Mass density, kg/m3	uncertainty
298.15	943.9	.015

System: N,N-dimethylformamide; phases: Liquid
Fixed: Pressure, kPa = 101.325
Property: Refractive index (Na D-line) (Liquid); method: Standard Abbe refractometry
Temperature, K	Refractive index (Na D-line)	uncertainty
298.15	1.4281	.0001

System: acetamide, N,N-dimethyl-; phases: Liquid
Fixed: Pressure, kPa = 101.325
Property: Mass density, kg/m3 (Liquid); method: Vibrating tube method
Temperature, K	Mass density, kg/m3	uncertainty
298.15	936.38	.015

System: acetamide, N,N-dimethyl-; phases: Liquid
Fixed: Pressure, kPa = 101.325
Property: Refractive index (Na D-line) (Liquid); method: Standard Abbe refractometry
Temperature, K	Refractive index (Na D-line)	uncertainty
298.1	1.4358	.0001

System: L-phenylalanine + carbamaldehyde + water; phases: Liquid
Fixed: Molality, mol/kg of L-phenylalanine = .01
Fixed: Pressure, kPa = 101
Property: Molar enthalpy of solution, kJ/mol (Liquid); method: Isoperibol calorimetry
Temperature, K	Solvent: Molality, mol/kg of carbamaldehyde	Molar enthalpy of solution, kJ/mol	uncertainty
298.15	1.242	8.21	.02
298.15	2.345	8.08	.02
298.15	3.748	7.94	.02
298.15	5.079	7.87	.01
298.15	7.521	7.69	.02
298.15	8.477	7.6	.01
298.15	10.867	7.48	.01
298.15	12.756	7.37	.02
298.15	17.652	7.19	.01
298.15	25.445	7.11	.02
298.15	35.557	7.05	.02

System: L-phenylalanine + NMF + water; phases: Liquid
Fixed: Molality, mol/kg of L-phenylalanine = .01
Fixed: Pressure, kPa = 101
Property: Molar enthalpy of solution, kJ/mol (Liquid); method: Isoperibol calorimetry
Temperature, K	Solvent: Molality, mol/kg of NMF	Molar enthalpy of solution, kJ/mol	uncertainty
298.15	.721	8.44	.02
298.15	1.536	8.71	.02
298.15	2.415	8.92	.01
298.15	3.396	9.06	.01
298.15	4.457	9.21	.02
298.15	5.599	9.65	.01
298.15	6.914	9.86	.02
298.15	8.409	10.16	.01
298.15	10.087	10.25	.01
298.15	12.006	10.52	.01
298.15	16.781	10.03	.02

System: L-phenylalanine + N,N-dimethylformamide + water; phases: Liquid
Fixed: Molality, mol/kg of L-phenylalanine = .01
Fixed: Pressure, kPa = 101
Property: Molar enthalpy of solution, kJ/mol (Liquid); method: Isoperibol calorimetry
Temperature, K	Solvent: Molality, mol/kg of N,N-dimethylformamide	Molar enthalpy of solution, kJ/mol	uncertainty
298.15	.717	8.85	.02
298.15	1.193	9.18	.02
298.15	2.102	9.73	.02
298.15	2.598	10.08	.01
298.15	3.528	10.37	.01
298.15	4.372	11.19	.02
298.15	5.586	11.54	.01
298.15	6.503	11.79	.01
298.15	9.282	12.68	.01
298.15	12.996	13.41	.01
298.15	18.183	12.86	.02
298.15	25.926	10.39	.02

System: L-phenylalanine + acetamide, N,N-dimethyl- + water; phases: Liquid
Fixed: Molality, mol/kg of L-phenylalanine = .01
Fixed: Pressure, kPa = 101
Property: Molar enthalpy of solution, kJ/mol (Liquid); method: Isoperibol calorimetry
Temperature, K	Solvent: Molality, mol/kg of acetamide, N,N-dimethyl-	Molar enthalpy of solution, kJ/mol	uncertainty
298.15	.476	9.48	.02
298.15	.978	10.87	.02
298.15	1.553	11.77	.02
298.15	2.136	13.27	.01
298.15	2.852	14.36	.01
298.15	3.565	15.42	.01
298.15	4.439	16.67	.01
298.15	5.368	17.65	.01
298.15	6.472	18.91	.01
298.15	7.714	19.23	.02
298.15	10.759	20.09	.02
