Measured thermophysical data. Thermodynamic functions for U0.45Pu0.55N
Source: Thermochim. Acta, 2007
Compound 1: U0.45Pu0.55N, NPu0.55U0.45, purity 95%

System: U0.45Pu0.55N; phases: Crystal
Property: Molar enthalpy, kJ/mol (Crystal); method: Drop calorimetry
Lower temperature, K	Upper temperature, K	Molar enthalpy, kJ/mol	uncertainty
298	1025	38.657	3.09256
298	1073	41.519	3.32152
298	1115	43.794	3.50352
298	1169	46.576	3.72608
298	1218	49.503	3.96024
298	1263	52.065	4.1652
298	1306	54.985	4.3988
298	1349	57.693	4.61544
298	1387	59.662	4.77296
298	1424	62.315	4.9852
298	1481	65.726	5.25808
298	1529	69.534	5.56272
298	1590	73.771	5.90168
298	1634	76.547	6.12376
298	1681	80.234	6.41872
298	1737	84.262	6.74096
298	1775	86.861	6.94888

System: U0.45Pu0.55N; phases: Crystal
Fixed: Pressure, kPa = 101.325
Property: Molar enthalpy, kJ/mol (Crystal); method: Drop calorimetry
Temperature, K	Molar enthalpy, kJ/mol	uncertainty
300	.09	.0072
400	5.035	.4028
500	10.106	.80848
600	15.303	1.22424
700	20.626	1.65008
800	26.074	2.08592
900	31.648	2.53184
1000	37.348	2.98784
1100	44.174	3.53392
1200	49.125	3.93
1300	55.203	4.41624
1400	61.406	4.91248
1500	67.735	5.4188
1600	74.189	5.93512
1700	80.77	6.4616
1800	87.476	6.99808

System: U0.45Pu0.55N; phases: Crystal
Fixed: Pressure, kPa = 101.325
Property: Molar heat capacity at constant pressure, J/K/mol (Crystal); method: Drop calorimetry
Temperature, K	Molar heat capacity at constant pressure, J/K/mol	uncertainty
298	48.799	3.90392
300	48.822	3.90576
400	50.08	4.0064
500	51.338	4.10704
600	52.596	4.20768
700	53.854	4.30832
800	55.112	4.40896
900	56.37	4.5096
1000	57.628	4.61024
1100	58.886	4.71088
1200	60.144	4.81152
1300	61.402	4.91216
1400	62.66	5.0128
1500	63.918	5.11344
1600	65.176	5.21408
1700	66.434	5.31472
1800	67.692	5.41536

System: U0.45Pu0.55N; phases: Crystal
Fixed: Pressure, kPa = 101.325
Property: Molar entropy, J/K/mol (Crystal); method: Drop calorimetry
Temperature, K	Molar entropy, J/K/mol	uncertainty
298	69.462	5.55696
300	69.764	5.58112
400	83.982	6.71856
500	95.292	7.62336
600	104.763	8.38104
700	112.965	9.0372
800	120.239	9.61912
900	126.803	10.14424
1000	132.807	10.62456
1100	138.358	11.06864
1200	143.536	11.48288
1300	148.4	11.872
1400	152.996	12.23968
1500	157.362	12.58896
1600	161.528	12.92224
1700	165.517	13.24136
1800	169.35	13.548
