Measured thermophysical data. Heat Capacity, Thermal Conductivity and Thermal Diffusivity of Aqueous Sulfolane Solutions
Source: Thermochim. Acta, 2013, 10.1016/j.tca.2013.03.017
Compound 1: tetramethylene sulfone, C4H8O2S, purity 99%
Compound 2: water, H2O, purity 99%

System: tetramethylene sulfone; phases: Liquid
Property: Molar heat capacity at constant pressure, J/K/mol (Liquid); method: Small sample (50 mg) DSC
Temperature, K	Pressure, kPa	Molar heat capacity at constant pressure, J/K/mol	uncertainty
303.15	101.325	181.5	.2
313.15	101.325	185.1	.2
323.15	101.325	188.7	.1
333.15	101.325	192.3	.2
343.15	101.325	194.3	.2
353.15	101.325	197.8	.1

System: tetramethylene sulfone; phases: Liquid
Property: Thermal conductivity, W/m/K (Liquid); method: Hot wire method
Temperature, K	Pressure, kPa	Thermal conductivity, W/m/K	uncertainty
303.15	101.325	.1678	.0002
313.15	101.325	.1656	.0005
323.15	101.325	.1634	.0004
333.15	101.325	.1616	.0004
343.15	101.325	.1593	.0004
353.15	101.325	.1581	.0003

System: water; phases: Liquid
Property: Molar heat capacity at constant pressure, J/K/mol (Liquid); method: Small sample (50 mg) DSC
Temperature, K	Pressure, kPa	Molar heat capacity at constant pressure, J/K/mol	uncertainty
303.15	101.325	75.3	.1
313.15	101.325	75.26	.07
323.15	101.325	75.3	.05
333.15	101.325	75.39	.08
343.15	101.325	75.48	.07
353.15	101.325	75.6	.02

System: water; phases: Liquid
Property: Thermal conductivity, W/m/K (Liquid); method: Hot wire method
Temperature, K	Pressure, kPa	Thermal conductivity, W/m/K	uncertainty
303.15	101.325	.6137	.0006
313.15	101.325	.6307	.0015
323.15	101.325	.6437	.0015
333.15	101.325	.6548	.0015
343.15	101.325	.6632	.0015
353.15	101.325	.67	.0013

System: tetramethylene sulfone + water; phases: Liquid
Fixed: Pressure, kPa = 101
Property: Molar heat capacity at constant pressure, J/K/mol (Liquid); method: Small sample (50 mg) DSC
Temperature, K	Mole fraction of tetramethylene sulfone	Molar heat capacity at constant pressure, J/K/mol	uncertainty
303.15	0	75.3	.1506
303.15	.1	87.62	.17524
303.15	.198	99.49	.19898
303.15	.299	112	.224
303.15	.397	123.4	.2468
303.15	.493	133.8	.2676
303.15	.6	144.9	.2898
303.15	.699	154.4	.3088
303.15	.8	163.7	.3274
303.15	.899	172.4	.3448
303.15	1	181.5	.363
313.15	0	75.26	.15052
313.15	.1	88.47	.17694
313.15	.198	100.9	.2018
313.15	.299	113.9	.2278
313.15	.397	125.6	.2512
313.15	.493	136.4	.2728
313.15	.6	148	.296
313.15	.699	157.9	.3158
313.15	.8	167.2	.3344
313.15	.899	176	.352
313.15	1	185.1	.3702
323.15	0	75.3	.1506
323.15	.1	89.1	.1782
323.15	.198	102.2	.2044
323.15	.299	115.3	.2306
323.15	.397	127.5	.255
323.15	.493	138.8	.2776
323.15	.6	150.6	.3012
323.15	.699	160.9	.3218
323.15	.8	170.9	.3418
323.15	.899	179.7	.3594
323.15	1	188.7	.3774
333.15	0	75.39	.15078
333.15	.1	89.75	.1795
333.15	.198	103.6	.2072
333.15	.299	117.3	.2346
333.15	.397	129.9	.2598
333.15	.493	141.5	.283
333.15	.6	153.8	.3076
333.15	.699	164.5	.329
333.15	.8	174.3	.3486
333.15	.899	183.3	.3666
333.15	1	192.3	.3846
343.15	0	75.48	.15096
343.15	.1	90.42	.18084
343.15	.198	104.5	.209
343.15	.299	118.5	.237
343.15	.397	131.7	.2634
343.15	.493	143.5	.287
343.15	.6	155.8	.3116
343.15	.699	166.4	.3328
343.15	.8	176.4	.3528
343.15	.899	185.6	.3712
343.15	1	194.3	.3886
353.15	0	75.6	.1512
353.15	.1	91.42	.18284
353.15	.198	106.2	.2124
353.15	.299	120.8	.2416
353.15	.397	134	.268
353.15	.493	146.1	.2922
353.15	.6	158.8	.3176
353.15	.699	169.6	.3392
353.15	.8	179.9	.3598
353.15	.899	189.2	.3784
353.15	1	197.8	.3956

System: tetramethylene sulfone + water; phases: Liquid
Fixed: Pressure, kPa = 101
Property: Thermal conductivity, W/m/K (Liquid); method: Hot wire method
Temperature, K	Mole fraction of tetramethylene sulfone	Thermal conductivity, W/m/K	uncertainty
303.15	0	.6137	.0006
303.15	.1	.3861	.0004
303.15	.198	.296	.0003
303.15	.299	.2563	.0002
303.15	.397	.2358	.0002
303.15	.493	.2206	.0002
303.15	.6	.2028	.0002
303.15	.699	.1911	.0002
303.15	.8	.1809	.0002
303.15	.899	.1739	.0002
303.15	1	.1678	.0002
313.15	0	.6307	.0015
313.15	.1	.3969	.0011
313.15	.198	.2979	.0008
313.15	.299	.2583	.0007
313.15	.397	.2334	.0007
313.15	.493	.22	.0006
313.15	.6	.2012	.0006
313.15	.699	.1896	.0005
313.15	.8	.1797	.0005
313.15	.899	.1719	.0005
313.15	1	.1656	.0005
323.15	0	.6437	.0015
323.15	.1	.4026	.001
323.15	.198	.2965	.0007
323.15	.299	.2558	.0006
323.15	.397	.2316	.0006
323.15	.493	.2167	.0005
323.15	.6	.1993	.0005
323.15	.699	.1883	.0005
323.15	.8	.1788	.0004
323.15	.899	.1715	.0004
323.15	1	.1634	.0004
333.15	0	.6548	.0015
333.15	.1	.4084	.001
333.15	.198	.295	.0007
333.15	.299	.2507	.0006
333.15	.397	.2304	.0005
333.15	.493	.2133	.0005
333.15	.6	.1986	.0005
333.15	.699	.1876	.0004
333.15	.8	.1779	.0004
333.15	.899	.1699	.0004
333.15	1	.1616	.0004
343.15	0	.6632	.0015
343.15	.1	.4085	.0009
343.15	.198	.2893	.0006
343.15	.299	.2417	.0005
343.15	.397	.2229	.0005
343.15	.493	.2092	.0005
343.15	.6	.1966	.0004
343.15	.699	.1852	.0004
343.15	.8	.1765	.0004
343.15	.899	.1676	.0004
343.15	1	.1593	.0004
353.15	0	.67	.0013
353.15	.1	.4058	.0008
353.15	.198	.287	.0006
353.15	.299	.2399	.0005
353.15	.397	.2185	.0004
353.15	.493	.204	.0004
353.15	.6	.1921	.0004
353.15	.699	.1817	.0004
353.15	.8	.173	.0003
353.15	.899	.1657	.0003
353.15	1	.1581	.0003
