Measured thermophysical data. Surface tension of light rare earth fluoride molten salts electrolytesystem
Source: Thermochim. Acta, 2016, 10.1016/j.tca.2016.03.033
Compound 1: lanthanum trifluoride, F3La, purity 99%
Compound 2: neodymium fluoride, F3Nd, purity 99%
Compound 3: lanthanum oxide, La2O3, purity 99%
Compound 4: neodymium(III) oxide, Nd2O3, purity 99%
Compound 5: lithium monofluoride (LiF), FLi, purity 99%
Compound 6: sodium fluoride, FNa, purity 99%
Compound 7: potassium chloride, ClK, purity 99%

System: sodium fluoride; phases: Liquid, Air at 1 atmosphere
Property: Surface tension liquid-gas, N/m (Liquid); method: Ring tensiometer
Temperature, K	Surface tension liquid-gas, N/m	uncertainty
1325	.18714	

System: potassium chloride; phases: Liquid, Air at 1 atmosphere
Property: Surface tension liquid-gas, N/m (Liquid); method: Ring tensiometer
Temperature, K	Surface tension liquid-gas, N/m	uncertainty
1230	.08614	

System: lithium monofluoride (LiF) + lanthanum trifluoride; phases: Liquid, Air at 1 atmosphere
Property: Surface tension liquid-gas, N/m (Liquid); method: Ring tensiometer
Temperature, K	Mole fraction of lanthanum trifluoride	Surface tension liquid-gas, N/m	uncertainty
1223	.2	.2573	
1248	.2	.2549	
1273	.2	.2518	
1298	.2	.2493	
1323	.2	.247	
1348	.2	.2444	
1373	.2	.2421	
1398	.2	.2392	
1423	.2	.2369	
1223	.25	.2647	
1248	.25	.2621	
1273	.25	.259	
1298	.25	.2563	
1323	.25	.2536	
1348	.25	.2512	
1373	.25	.2488	
1398	.25	.2467	
1423	.25	.2439	
1223	.3	.2722	
1248	.3	.2695	
1273	.3	.2672	
1298	.3	.2649	
1323	.3	.2621	
1348	.3	.2589	
1373	.3	.2565	
1398	.3	.2538	
1423	.3	.2513	
1298	.35	.2742	
1323	.35	.2714	
1348	.35	.2683	
1373	.35	.265	
1398	.35	.2622	
1423	.35	.2598	
1323	.4	.2817	
1348	.4	.2791	
1373	.4	.2765	
1398	.4	.274	
1423	.4	.2709	

System: lithium monofluoride (LiF) + neodymium fluoride; phases: Liquid, Air at 1 atmosphere
Property: Surface tension liquid-gas, N/m (Liquid); method: Ring tensiometer
Temperature, K	Mole fraction of neodymium fluoride	Surface tension liquid-gas, N/m	uncertainty
1223	.2	.2491	
1248	.2	.2472	
1273	.2	.2443	
1298	.2	.2419	
1323	.2	.2396	
1348	.2	.2373	
1373	.2	.2352	
1398	.2	.2329	
1423	.2	.2308	
1223	.25	.2583	
1248	.25	.2557	
1273	.25	.2535	
1298	.25	.2509	
1323	.25	.2493	
1348	.25	.2463	
1373	.25	.2436	
1398	.25	.2404	
1423	.25	.2391	
1223	.3	.2678	
1248	.3	.2649	
1273	.3	.2627	
1298	.3	.2595	
1323	.3	.257	
1348	.3	.2545	
1373	.3	.2516	
1398	.3	.2493	
1423	.3	.2469	
1223	.35	.2792	
1248	.35	.2768	
1273	.35	.2733	
1298	.35	.2704	
1323	.35	.2681	
1348	.35	.266	
1373	.35	.2627	
1398	.35	.2604	
1423	.35	.2573	
1273	.4	.2841	
1298	.4	.2807	
1323	.4	.2796	
1348	.4	.2768	
1373	.4	.2741	
1398	.4	.2721	
1423	.4	.2682	

System: lanthanum oxide + lithium monofluoride (LiF) + lanthanum trifluoride; phases: Liquid, Air at 1 atmosphere
Fixed: Temperature, K = 1323
Property: Surface tension liquid-gas, N/m (Liquid); method: Ring tensiometer
Solvent: Mole fraction of lanthanum trifluoride	Mass fraction of lanthanum oxide	Surface tension liquid-gas, N/m	uncertainty
.2	0	.247	
.2	.005	.2501	
.2	.0099	.2523	
.2	.0148	.2557	
.25	0	.2536	
.25	.005	.2565	
.25	.0099	.2581	
.25	.0148	.262	
.25	.0196	.2643	
.3	0	.2621	
.3	.005	.2654	
.3	.0099	.2673	
.3	.0148	.27	
.3	.0196	.2719	
.35	0	.2714	
.35	.005	.2737	
.35	.0099	.2773	
.35	.0148	.2802	
.35	.0196	.2827	
.35	.0244	.2845	

System: neodymium(III) oxide + lithium monofluoride (LiF) + neodymium fluoride; phases: Liquid, Air at 1 atmosphere
Fixed: Temperature, K = 1323
Property: Surface tension liquid-gas, N/m (Liquid); method: Ring tensiometer
Solvent: Mole fraction of neodymium fluoride	Mass fraction of neodymium(III) oxide	Surface tension liquid-gas, N/m	uncertainty
.2	0	.2396	
.2	.005	.2419	
.2	.0099	.2443	
.2	.0148	.2468	
.25	0	.2493	
.25	.005	.2521	
.25	.0099	.2546	
.25	.0148	.2569	
.25	.0196	.2582	
.3	0	.257	
.3	.005	.2594	
.3	.0099	.2617	
.3	.0148	.2642	
.3	.0196	.2667	
.35	0	.2681	
.35	.005	.2705	
.35	.0099	.2731	
.35	.0148	.2755	
.35	.0196	.2777	
.35	.0244	.2795	
.4	0	.2796	
.4	.005	.2821	
.4	.0099	.2843	
.4	.0148	.2868	
.4	.0196	.2893	
.4	.0244	.2917	
