Measured thermophysical data. Thermodynamic properties of tetrabutylammonium iodide and tetrabutylammonium tetraphenylborate
Source: Thermochim. Acta, 2009, 10.1016/j.tca.2008.10.017
Compound 1: tetrabutylammonium iodide, C16H36IN
Compound 2: 1-butanaminium, N,N,N-tributyl-, tetraphenylborate(1-), C40H56BN

System: tetrabutylammonium iodide; phases: Crystal 1, Liquid, Gas
Property: Triple point temperature, K (Crystal 1); method: DSC/DTA
Triple point temperature, K	uncertainty
423.2	

System: tetrabutylammonium iodide; phases: Crystal 1, Liquid, Gas
Property: Molar enthalpy of transition or fusion, kJ/mol (Crystal 1); method: DSC/DTA
Molar enthalpy of transition or fusion, kJ/mol	uncertainty
9	

System: tetrabutylammonium iodide; phases: Crystal 2, Crystal 1, Gas
Property: Triple point temperature, K (Crystal 2); method: DSC/DTA
Triple point temperature, K	uncertainty
398.7	

System: tetrabutylammonium iodide; phases: Crystal 2, Crystal 1, Gas
Property: Molar enthalpy of transition or fusion, kJ/mol (Crystal 2); method: DSC/DTA
Molar enthalpy of transition or fusion, kJ/mol	uncertainty
27.8	

System: tetrabutylammonium iodide; phases: Crystal 2
Fixed: Pressure, kPa = 101.325
Property: Molar heat capacity at constant pressure, J/K/mol (Crystal 2); method: Small (less than 1 g) adiabatic calorimetry
Temperature, K	Molar heat capacity at constant pressure, J/K/mol	uncertainty
5	.875	.00175
10	6.91	.01382
20	32.91	.06582
30	62.21	.12442
40	90.12	.18024
50	113.7	.2274
60	135.4	.2708
70	156.1	.3122
80	172.8	.3456
90	189.7	.3794
100	204.1	.4082
110	217.9	.4358
120	230.8	.4616
130	242.9	.4858
140	254.4	.5088
150	265.4	.5308
160	276.3	.5526
170	287.1	.5742
180	297.8	.5956
190	308.6	.6172
200	319.4	.6388
210	330.4	.6608
220	341.7	.6834
230	353.2	.7064
240	365.1	.7302
250	377.4	.7548
260	390.2	.7804
270	403.3	.8066
273.15	407.6	.8152
280	416.9	.8338
290	430.8	.8616
298.15	442.5	.885
300	445.2	.8904
310	460.1	.9202
320	475.7	.9514
330	492.4	.9848
340	511	1.022
350	532.3	1.0646

System: tetrabutylammonium iodide; phases: Crystal 2
Fixed: Pressure, kPa = 101.325
Property: Molar enthalpy, kJ/mol (Crystal 2); method: Small (less than 1 g) adiabatic calorimetry
Temperature, K	Molar enthalpy, kJ/mol	uncertainty
5	.00111	.00000222
10	.0174	.0000348
20	.2072	.0004144
30	.6831	.0013662
40	1.448	.002896
50	2.471	.004942
60	3.716	.007432
70	5.177	.010354
80	6.824	.013648
90	8.636	.017272
100	10.6	.0212
110	12.72	.02544
120	14.96	.02992
130	17.33	.03466
140	19.82	.03964
150	22.42	.04484
160	25.12	.05024
170	27.94	.05588
180	30.87	.06174
190	33.9	.0678
200	37.04	.07408
210	40.29	.08058
220	43.65	.0873
230	47.12	.09424
240	50.71	.10142
250	54.42	.10884
260	58.26	.11652
270	62.23	.12446
273.15	63.51	.12702
280	66.33	.13266
290	70.57	.14114
298.15	74.13	.14826
300	74.95	.1499
310	79.47	.15894
320	84.15	.1683
330	88.99	.17798
340	94.01	.18802
350	99.22	.19844

System: tetrabutylammonium iodide; phases: Crystal 2
Fixed: Pressure, kPa = 101.325
Property: Molar entropy, J/K/mol (Crystal 2); method: Small (less than 1 g) adiabatic calorimetry
Temperature, K	Molar entropy, J/K/mol	uncertainty
5	.292	.000584
10	2.32	.00464
20	14.45	.0289
30	33.35	.0667
40	55.15	.1103
50	77.88	.15576
60	100.5	.201
70	123	.246
80	145	.29
90	166.3	.3326
100	187	.374
110	207.1	.4142
120	226.7	.4534
130	245.6	.4912
140	264	.528
150	282	.564
160	299.4	.5988
170	316.5	.633
180	333.2	.6664
190	349.6	.6992
200	365.7	.7314
210	381.6	.7632
220	397.2	.7944
230	412.6	.8252
240	427.9	.8558
250	443.1	.8862
260	458.1	.9162
270	473.1	.9462
273.15	477.8	.9556
280	488	.976
290	502.9	1.0058
298.15	515	1.03
300	517.7	1.0354
310	532.6	1.0652
320	547.4	1.0948
330	562.3	1.1246
340	577.3	1.1546
350	592.4	1.1848

System: tetrabutylammonium iodide; phases: Crystal 2
Fixed: Pressure, kPa = 101.325
Property: Molar heat capacity at constant pressure, J/K/mol (Crystal 2); method: Small (less than 1 g) adiabatic calorimetry
Temperature, K	Molar heat capacity at constant pressure, J/K/mol	uncertainty
5.6	.546	
5.7	.62	
5.82	.735	
5.88	.786	
6.15	1.05	
6.33	1.24	
6.6	1.54	
6.69	1.67	
6.89	1.87	
6.98	2.05	
7.07	2.12	
7.26	2.39	
7.35	2.49	
7.45	2.68	
7.54	2.82	
7.74	3.02	
8.03	3.55	
8.14	3.66	
8.24	3.76	
8.45	4.16	
8.55	4.34	
8.66	4.58	
8.77	4.69	
8.87	4.87	
9.09	5.28	
9.2	5.43	
9.42	5.78	
9.53	5.96	
9.76	6.52	
9.87	6.76	
9.98	6.85	
10.26	7.37	
10.71	8.33	
11.16	9.2	
11.61	10.3	
12.08	11.3	
12.55	12.5	
13.04	13.6	
13.53	14.9	
14.03	16	
14.54	17.2	
15.05	18.56	
15.57	19.98	
16.09	21.47	
16.61	22.94	
17.14	24.46	
17.67	25.9	
18.2	27.48	
18.76	29	
19.31	30.77	
19.85	32.46	
20.98	35.93	
22.55	40.49	
24.16	45.21	
25.78	49.77	
27.42	54.6	
29.07	59.44	
30.73	64.36	
32.39	69.26	
34.07	74.01	
35.76	78.8	
37.45	83.46	
39.15	87.9	
40.85	92.36	
42.56	96.45	
44.26	100.6	
45.97	104.7	
47.72	108.8	
49.44	112.6	
51.16	116.5	
52.88	120.1	
54.61	123.5	
56.34	127.3	
58.07	131	
59.8	134.9	
61.53	138.8	
63.27	142.4	
65.01	146.4	
66.75	150	
68.49	153.6	
72.19	159.7	
74.35	163.7	
76.49	167.2	
78.63	170.6	
80.76	173.7	
82.88	177.6	
85.33	181.8	
84.02	179.7	
87.83	185.8	
89.91	189.2	
91.99	192.3	
94.06	195.1	
96.13	198.4	
98.18	201.3	
100.24	204.2	
102.48	208.5	
104.92	211.3	
107.37	214.8	
109.82	217.8	
112.27	220.9	
114.75	224.1	
117.24	227.3	
119.7	230.1	
122.11	233.2	
124.58	236.3	
127.05	239.3	
129.51	242.1	
131.98	245.1	
134.46	248.1	
136.93	251	
139.4	253.8	
141.88	256.5	
144.36	259.3	
146.84	262.3	
149.32	264.6	
151.8	267.5	
154.28	270.5	
156.76	273	
159.25	275.4	
161.68	277.9	
164.17	280.8	
166.66	283.6	
169.14	286.4	
171.63	288.8	
174.12	291.3	
179.09	296.7	
181.58	299.2	
184.06	302	
186.55	304.6	
189.03	307.5	
191.52	310	
194	312.6	
196.48	315.8	
198.96	318.2	
201.37	321.1	
203.83	324	
206.3	326.7	
208.78	329.1	
211.25	332.3	
213.73	334	
216.22	337	
218.7	339.9	
221.19	342.7	
223.68	345.9	
226.17	348.6	
228.67	351.6	
231.16	354.6	
233.66	357.7	
235.16	359.3	
237.7	362.3	
238.66	363.9	
241.12	366.7	
243.63	369.8	
246.14	372.6	
248.65	375.9	
251.17	379.2	
253.68	382.1	
256.2	385.3	
258.72	388.5	
261.24	392	
263.76	395.2	
266.29	398.2	
268.81	401.5	
271.34	405	
273.87	408.1	
276.4	411.5	
278.93	415	
281.43	418.6	
283.96	421.7	
286.49	425.5	
289.02	429.5	
291.54	433.4	
294.07	436.3	
296.58	439.9	
299.1	443.6	
301.98	449.2	
305.32	453.3	
308.64	459.7	
311.93	464	
315.18	468.4	
318.42	473.1	
321.63	477.8	
324.82	483	
327.99	488.3	
331.13	493.9	
334.25	499.5	
337.34	505.8	
340.41	511.9	
343.45	518.1	
346.47	524.6	
349.45	530.9	
352.15	537.6	

System: 1-butanaminium, N,N,N-tributyl-, tetraphenylborate(1-); phases: Crystal 1, Liquid, Gas
Property: Triple point temperature, K (Crystal 1); method: DSC/DTA
Triple point temperature, K	uncertainty
512.3	

System: 1-butanaminium, N,N,N-tributyl-, tetraphenylborate(1-); phases: Crystal 1, Liquid, Gas
Property: Molar enthalpy of transition or fusion, kJ/mol (Crystal 1); method: DSC/DTA
Molar enthalpy of transition or fusion, kJ/mol	uncertainty
43.9	

System: 1-butanaminium, N,N,N-tributyl-, tetraphenylborate(1-); phases: Crystal 2, Crystal 1, Gas
Property: Triple point temperature, K (Crystal 2); method: DSC/DTA
Triple point temperature, K	uncertainty
454.7	

System: 1-butanaminium, N,N,N-tributyl-, tetraphenylborate(1-); phases: Crystal 2, Crystal 1, Gas
Property: Molar enthalpy of transition or fusion, kJ/mol (Crystal 2); method: DSC/DTA
Molar enthalpy of transition or fusion, kJ/mol	uncertainty
6.53	

System: 1-butanaminium, N,N,N-tributyl-, tetraphenylborate(1-); phases: Crystal 2
Fixed: Pressure, kPa = 101.325
Property: Molar heat capacity at constant pressure, J/K/mol (Crystal 2); method: Small (less than 1 g) adiabatic calorimetry
Temperature, K	Molar heat capacity at constant pressure, J/K/mol	uncertainty
5	2.95	.0059
10	16.9	.0338
20	57.29	.11458
30	102.4	.2048
40	146.5	.293
50	181.9	.3638
60	216	.432
70	252.2	.5044
80	278.8	.5576
90	306.7	.6134
100	330.5	.661
110	354.3	.7086
120	377.3	.7546
130	399.7	.7994
140	421.8	.8436
150	443.8	.8876
160	466.1	.9322
170	488.9	.9778
180	512.5	1.025
190	537	1.074
200	562.4	1.1248
210	588.9	1.1778
220	616.2	1.2324
230	644.3	1.2886
240	672.9	1.3458
250	702	1.404
260	731.3	1.4626
270	760.5	1.521
273.15	769.6	1.5392
280	789.4	1.5788
290	817.9	1.6358
298.15	840.7	1.6814
300	845.8	1.6916
310	873	1.746
320	899.3	1.7986
330	925	1.85
340	949.8	1.8996
350	974.1	1.9482

System: 1-butanaminium, N,N,N-tributyl-, tetraphenylborate(1-); phases: Crystal 2
Fixed: Pressure, kPa = 101.325
Property: Molar enthalpy, kJ/mol (Crystal 2); method: Small (less than 1 g) adiabatic calorimetry
Temperature, K	Molar enthalpy, kJ/mol	uncertainty
5	.00371	.00000742
10	.0501	.0001002
20	.4077	.0008154
30	1.206	.002412
40	2.458	.004916
50	4.108	.008216
60	6.091	.012182
70	8.438	.016876
80	11.1	.0222
90	14.02	.02804
100	17.21	.03442
110	20.64	.04128
120	24.29	.04858
130	28.18	.05636
140	32.29	.06458
150	36.62	.07324
160	41.16	.08232
170	45.94	.09188
180	50.95	.1019
190	56.19	.11238
200	61.69	.12338
210	67.44	.13488
220	73.47	.14694
230	79.77	.15954
240	86.36	.17272
250	93.23	.18646
260	100.4	.2008
270	107.9	.2158
273.15	110.3	.2206
280	115.6	.2312
290	123.6	.2472
298.15	130.4	.2608
300	132	.264
310	140.6	.2812
320	149.4	.2988
330	158.5	.317
340	167.9	.3358
350	177.5	.355

System: 1-butanaminium, N,N,N-tributyl-, tetraphenylborate(1-); phases: Crystal 2
Fixed: Pressure, kPa = 101.325
Property: Molar entropy, J/K/mol (Crystal 2); method: Small (less than 1 g) adiabatic calorimetry
Temperature, K	Molar entropy, J/K/mol	uncertainty
5	.992	.001984
10	6.862	.013724
20	30.07	.06014
30	61.84	.12368
40	97.53	.19506
50	134.2	.2684
60	170.3	.3406
70	206.4	.4128
80	241.9	.4838
90	276.3	.5526
100	309.8	.6196
110	342.5	.685
120	374.3	.7486
130	405.4	.8108
140	435.8	.8716
150	465.7	.9314
160	495	.99
170	523.9	1.0478
180	552.6	1.1052
190	580.9	1.1618
200	609.1	1.2182
210	637.2	1.2744
220	665.2	1.3304
230	693.2	1.3864
240	721.2	1.4424
250	749.3	1.4986
260	777.4	1.5548
270	805.5	1.611
273.15	814.4	1.6288
280	833.7	1.6674
290	861.9	1.7238
298.15	884.9	1.7698
300	890.1	1.7802
310	918.3	1.8366
320	946.4	1.8928
330	974.5	1.949
340	1002	2.004
350	1030	2.06

System: 1-butanaminium, N,N,N-tributyl-, tetraphenylborate(1-); phases: Crystal 2
Fixed: Pressure, kPa = 101.325
Property: Molar heat capacity at constant pressure, J/K/mol (Crystal 2); method: Small (less than 1 g) adiabatic calorimetry
Temperature, K	Molar heat capacity at constant pressure, J/K/mol	uncertainty
5.22	2.76	
5.4	3.07	
5.46	3.29	
5.52	3.36	
5.71	3.73	
6.2	4.93	
6.47	5.66	
6.65	6.21	
6.92	7.2	
7.11	7.71	
7.4	8.7	
7.59	9.29	
7.69	9.66	
8.09	10.9	
8.49	12.2	
8.6	12.5	
8.7	13	
8.81	13	
8.92	13.6	
9.14	14.1	
9.36	14.8	
9.47	15.2	
9.58	15.6	
9.69	15.9	
9.91	16.6	
10.02	16.9	
10.29	18	
10.74	19.3	
11.19	20.9	
11.64	22.7	
12.1	24.2	
12.58	25.8	
13.06	27.9	
13.56	29.6	
14.06	31.2	
14.59	32.99	
15.1	35.38	
15.62	37.7	
16.14	39.59	
16.66	42.24	
17.19	44.26	
17.73	46.7	
18.27	48.86	
18.81	51.61	
19.35	53.97	
19.9	56.66	
21.05	62.57	
22.62	69.35	
24.2	76.46	
25.81	83.29	
27.43	90.53	
29.06	98	
30.69	105.7	
32.34	113.2	
34	121.1	
35.67	128.5	
37.34	135.6	
39.02	142.5	
40.71	149.5	
42.4	156.3	
44.1	161.9	
45.8	168.1	
47.54	173.9	
49.25	179.6	
50.96	185.1	
52.68	190.8	
54.39	195.9	
56.11	201.5	
57.84	207.7	
59.56	214.2	
61.29	220.4	
63.02	227.1	
64.75	234.4	
66.48	241.9	
68.22	247.6	
69.96	253.4	
74.05	264.8	
76.18	269.3	
78.31	274.5	
80.42	279.4	
83.42	287.5	
82.52	284.8	
86.03	295.8	
88.1	301.2	
90.15	307	
92.2	311.4	
94.23	317.1	
96.26	321.3	
98.28	325.2	
100.28	329.4	
102.47	338.2	
104.86	343.2	
107.26	347.8	
109.66	353.1	
112.07	359	
114.51	365.4	
116.96	371	
119.3	374.9	
121.72	381.1	
124.15	386.2	
126.58	392	
129	397.8	
131.44	402.6	
133.87	407.8	
136.3	413.7	
138.74	419.5	
141.18	425.2	
143.62	429.8	
146.06	435.7	
148.51	440.3	
152.46	446.6	
155.61	456.7	
158.06	461.4	
160.5	467	
162.95	473.2	
165.4	479.2	
167.85	484	
170.3	490.6	
172.74	495.3	
175.19	501.3	
177.64	506.9	
180.09	512.5	
182.53	517.7	
184.98	524.7	
187.42	531.4	
189.87	537.1	
192.23	542.6	
194.68	548.5	
197.12	554.4	
199.56	561.4	
201.99	567.9	
204.41	573.9	
206.84	580.4	
209.27	587	
211.71	593.5	
214.15	600.1	
216.59	605.8	
219.03	613.8	
221.49	620.7	
223.94	626.4	
226.4	634.3	
228.87	640	
231.26	647.8	
233.74	654.7	
236.21	661.5	
238.69	668.9	
241.18	676.5	
243.67	683.3	
246.16	691.2	
248.66	697.5	
251.16	705.5	
253.67	713.3	
256.18	719.3	
258.69	728	
261.21	735	
263.73	743.5	
266.26	750.1	
268.79	757.5	
271.3	765.4	
273.84	772.2	
276.38	779.4	
278.92	786.1	
281.46	793.9	
284.01	801.6	
286.55	808	
289.09	815.1	
291.63	822.8	
294.17	829.2	
296.71	835.7	
299.24	842.9	
302.14	846.3	
305.49	854.6	
308.81	865.7	
312.07	874.3	
315.31	883.9	
318.51	893.6	
321.67	903.1	
324.81	911.4	
327.91	920.1	
330.98	928.7	
334.02	936.7	
337.03	944.4	
340.01	951.1	
342.96	958.8	
345.87	965.2	
348.74	970.5	
351.22	976.4	
354.01	981.2	
