Measured thermophysical data. Investigation on thermophysical properties of RE6UO12(s) (RE = La, Pr, Nd, Sm)
Source: Thermochim. Acta, 2016, 10.1016/j.tca.2016.06.004
Compound 1: lanthanum uranium oxide, La6O12U, purity 99.7%
Compound 2: praseodymium uranium oxide (Pr6UO12), O12Pr6U, purity 99.2%
Compound 3: neodymium uranium oxide (Nd6UO12), Nd6O12U, purity 98.7%
Compound 4: samarium uranium oxide, O12Sm6U, purity 99.5%

System: lanthanum uranium oxide; phases: Crystal
Fixed: Pressure, kPa = 101.325
Property: Mass density, kg/m3 (Crystal); method: X-ray diffraction
Temperature, K	Mass density, kg/m3	uncertainty
298.15	6606	5

System: lanthanum uranium oxide; phases: Crystal
Fixed: Pressure, kPa = 101.325
Property: Molar heat capacity at constant pressure, J/K/mol (Crystal); method: Small sample (50 mg) scanning calorimetry
Temperature, K	Molar heat capacity at constant pressure, J/K/mol	uncertainty
300	409.3	
310	412.6	
320	416.2	
330	420.3	
340	423	
350	427.7	
360	429.5	
370	431.8	
380	433.7	
390	436.2	
400	438.7	
410	440.9	
420	441.1	
430	443.9	
440	444.9	
450	446.7	
460	449.6	
470	450	
480	452.6	
490	454.3	
500	456.1	
510	456.3	
520	457.2	
530	458.3	
540	459.6	
550	461.4	
560	463.5	
570	464.7	
580	465.8	
590	466.9	
600	468.3	
610	468.5	
620	469	
630	470.1	
640	470.4	
650	472.6	
660	472.9	
670	473.9	
680	474.5	
690	474.1	
700	475.4	
710	475.9	
720	476.7	
730	477.3	
740	478.6	
750	479.8	
760	480.4	
770	481.2	
780	482.2	
790	481.3	
800	483.1	
810	482.5	
820	485.2	
830	485.6	
840	485	
850	486.4	
860	488.6	
870	489.8	

System: praseodymium uranium oxide (Pr6UO12); phases: Crystal
Fixed: Pressure, kPa = 101.325
Property: Mass density, kg/m3 (Crystal); method: X-ray diffraction
Temperature, K	Mass density, kg/m3	uncertainty
298.15	7057	
298	7057	
373	7056	
473	7018	
573	7000	
673	6982	
773	6960	
873	6937	
973	6917	
1073	6917	
1173	6910	
1273	6897	

System: praseodymium uranium oxide (Pr6UO12); phases: Crystal
Fixed: Pressure, kPa = 101.325
Property: Molar heat capacity at constant pressure, J/K/mol (Crystal); method: Small sample (50 mg) scanning calorimetry
Temperature, K	Molar heat capacity at constant pressure, J/K/mol	uncertainty
298	443.4	
308	455.1	
318	456.3	
328	461.6	
338	469.1	
348	468.4	
358	477.6	
368	481.8	
378	484.1	
388	486.8	
398	489	
378	478.8	
388	483.4	
398	487.5	
408	489.5	
418	491.5	
428	493	
438	495.1	
448	496.7	
458	498	
468	500.8	
478	505.6	
488	507.4	
498	509.1	
508	511.1	
518	512.1	
528	514.6	
538	517.8	
548	521.1	
558	520.5	
568	521.2	
578	522.2	
588	522.7	
598	524	
608	525.3	
618	526.5	
628	527.4	
638	529	
648	529.4	
658	532.5	
668	533.9	
678	532.4	
688	533.3	
698	534.3	
708	535.2	
718	535.7	
728	537.5	
738	538	
748	539	
758	539.4	
768	540	
778	541.1	
788	541.9	
798	542.7	
808	542.5	
818	543.8	
828	543	
838	545.6	
848	545.5	
858	545.6	
868	546.7	

System: neodymium uranium oxide (Nd6UO12); phases: Crystal
Fixed: Pressure, kPa = 101.325
Property: Mass density, kg/m3 (Crystal); method: X-ray diffraction
Temperature, K	Mass density, kg/m3	uncertainty
298.15	7272	4

System: neodymium uranium oxide (Nd6UO12); phases: Crystal, Air at 1 atmosphere
Property: Electrical conductivity, S/m (Crystal); method: Alternating current cell with electrodes
Temperature, K	Electrical conductivity, S/m	uncertainty
573	.0000014	
623	.000008	
673	.000031	
723	.000088	
773	.00025	
823	.000642	
873	.001524	
923	.003555	

System: neodymium uranium oxide (Nd6UO12); phases: Crystal, Gas
Property: Electrical conductivity, S/m (Crystal); method: Alternating current cell with electrodes
Temperature, K	Electrical conductivity, S/m	uncertainty
573	.0000033	
623	.00001	
673	.000046	
723	.00019	
773	.000591	
823	.001444	
873	.004171	
923	.0116	

System: neodymium uranium oxide (Nd6UO12); phases: Crystal
Fixed: Pressure, kPa = 101.325
Property: Molar heat capacity at constant pressure, J/K/mol (Crystal); method: Small sample (50 mg) scanning calorimetry
Temperature, K	Molar heat capacity at constant pressure, J/K/mol	uncertainty
300	441.9	
310	450.4	
320	455.8	
330	460.1	
340	463.3	
350	466.5	
360	468	
370	471	
380	474.5	
390	477.2	
400	482.2	
410	488.3	
420	491.8	
430	489.8	
439	494.8	
450	497.8	
460	496.1	
470	501	
480	503.5	
490	505.5	
500	507.1	
510	505.1	
520	512	
530	511.8	
540	511.8	
550	511.6	
560	511.5	
570	512.2	
580	516.5	
590	515.3	
600	517.8	
610	519	
620	521.6	
630	520.7	
640	519	
650	522	
660	523.3	
670	525.8	
680	526.6	
690	525.9	
700	527.5	
709	530.6	
720	528.7	
730	532.3	
740	531.6	
750	531.5	
760	533.8	
770	531.9	
780	534.1	
790	537.1	
800	539.5	
810	539.1	
820	540.1	
830	540.5	
840	540.4	
850	540.9	
860	543.7	
870	544.7	

System: samarium uranium oxide; phases: Crystal
Fixed: Pressure, kPa = 101.325
Property: Mass density, kg/m3 (Crystal); method: X-ray diffraction
Temperature, K	Mass density, kg/m3	uncertainty
298.15	7718	
298	7718	
373	7717	
473	7691	
573	7669	
673	7650	
773	7628	
873	7608	
973	7589	
1073	7554	
1173	7552	
1273	7526	

System: samarium uranium oxide; phases: Crystal
Fixed: Pressure, kPa = 101.325
Property: Molar heat capacity at constant pressure, J/K/mol (Crystal); method: Small sample (50 mg) scanning calorimetry
Temperature, K	Molar heat capacity at constant pressure, J/K/mol	uncertainty
300	418.8	
310	424.8	
320	429	
330	433.3	
340	438.3	
350	443.4	
360	447.5	
370	456.6	
380	462	
390	470	
400	477.1	
410	477.8	
420	481.2	
430	489.5	
440	489.7	
450	491.6	
460	494.2	
470	498	
480	505.6	
490	508.9	
500	511.9	
510	514.6	
520	515.7	
530	516.3	
540	517.4	
550	517.8	
560	520.5	
570	523.2	
580	522.6	
590	523.2	
600	524.8	
610	525.7	
620	526.9	
630	527.9	
640	528.5	
650	530.6	
660	533.2	
670	535.7	
680	537.1	
690	537.9	
700	539.6	
710	540.9	
720	541.5	
730	542.6	
740	543	
750	543.4	
760	544.7	
770	547.4	
780	550.6	
790	554.3	
800	557.2	
810	558.7	
820	558.8	
830	560.6	
840	560.3	
850	560.1	
860	560.4	
870	560.2	
