Measured thermophysical data. Heat capacity for the Eu2Zr2O7 and phase relations in the ZrO2-Eu2O3 system: experimental  studies and calculations
Source: Thermochim. Acta, 2013, 10.1016/j.tca.2013.02.009
Compound 1: europium zirconate, Eu2O7Zr2, purity 98%
Compound 2: yttrium(III) oxide, O3Y2

System: europium zirconate; phases: Crystal
Fixed: Pressure, kPa = 101.325
Property: Mass density, kg/m3 (Crystal); method: X-ray diffraction
Temperature, K	Mass density, kg/m3	uncertainty
293	6793	

System: europium zirconate; phases: Crystal
Fixed: Pressure, kPa = 101.325
Property: Molar heat capacity at constant pressure, J/K/mol (Crystal); method: Large sample (1 g) DSC
Temperature, K	Molar heat capacity at constant pressure, J/K/mol	uncertainty
293	231.57	4.6314
303	233.36	4.6672
313	235.75	4.715
333	238.15	4.763
353	241.74	4.8348
603	295.72	5.9144
613	296.65	5.933
623	297.53	5.9506
633	298.37	5.9674
643	299.17	5.9834
653	299.93	5.9986
663	300.65	6.013
673	301.34	6.0268
683	302	6.04
693	302.62	6.0524
703	303.21	6.0642
713	303.78	6.0756
723	304.32	6.0864
733	304.84	6.0968
743	305.33	6.1066
753	305.8	6.116
763	306.25	6.125
773	306.68	6.1336
783	307.09	6.1418
793	307.49	6.1498
803	307.87	6.1574
813	308.04	6.1608
823	308.57	6.1714
833	308.9	6.178
843	309.22	6.1844
853	309.52	6.1904
863	309.81	6.1962
873	310.09	6.2018
883	310.36	6.2072
893	310.61	6.2122
903	310.86	6.2172
913	311.1	6.222
923	311.32	6.2264
933	311.54	6.2308
943	311.75	6.235
953	311.94	6.2388
963	312.14	6.2428
973	312.32	6.2464
983	312.49	6.2498
993	312.66	6.2532
1003	312.82	6.2564
1013	312.98	6.2596
1023	313.13	6.2626
1033	313.27	6.2654
1043	313.41	6.2682
1053	313.54	6.2708
1063	313.66	6.2732
1073	313.78	6.2756
1083	313.9	6.278
1093	314.01	6.2802
1103	314.11	6.2822
1113	314.21	6.2842
1123	314.31	6.2862
1133	314.4	6.288
1143	314.49	6.2898
1153	314.58	6.2916
1163	314.66	6.2932
1173	314.73	6.2946
1183	314.81	6.2962
1193	314.88	6.2976
1203	314.94	6.2988
1213	315.01	6.3002
1223	315.07	6.3014
1233	315.12	6.3024
1243	315.18	6.3036
1253	315.23	6.3046
1263	315.28	6.3056
1273	315.32	6.3064

System: yttrium(III) oxide; phases: Crystal
Fixed: Pressure, kPa = 101.325
Property: Molar heat capacity at constant pressure, J/K/mol (Crystal); method: Large sample (1 g) DSC
Temperature, K	Molar heat capacity at constant pressure, J/K/mol	uncertainty
603	122.98	2.4596
613	123.25	2.465
623	123.52	2.4704
633	123.77	2.4754
643	124	2.48
653	124.22	2.4844
663	124.43	2.4886
673	124.63	2.4926
683	124.82	2.4964
693	125	2.5
703	125.16	2.5032
713	125.32	2.5064
723	125.47	2.5094
733	125.62	2.5124
743	125.75	2.515
753	125.88	2.5176
763	126	2.52
773	126.12	2.5224
783	126.22	2.5244
793	126.33	2.5266
803	126.42	2.5284
813	126.52	2.5304
823	126.6	2.532
833	126.68	2.5336
843	126.76	2.5352
853	126.83	2.5366
863	126.9	2.538
873	126.97	2.5394
883	127.03	2.5406
893	127.09	2.5418
903	127.14	2.5428
913	127.19	2.5438
923	127.24	2.5448
933	127.28	2.5456
943	127.32	2.5464
953	127.36	2.5472
963	127.4	2.548
973	127.43	2.5486
983	127.46	2.5492
993	127.49	2.5498
1003	127.52	2.5504
1013	127.54	2.5508
1023	127.57	2.5514
1033	127.59	2.5518
1043	127.61	2.5522
1053	127.62	2.5524
1063	127.64	2.5528
1073	127.65	2.553
1083	127.66	2.5532
1093	127.67	2.5534
1103	127.68	2.5536
1113	127.68	2.5536
1123	127.68	2.5536
1133	127.69	2.5538
1143	127.69	2.5538
1153	127.69	2.5538
1163	127.7	2.554
1173	127.7	2.554
1183	127.7	2.554
1193	127.7	2.554
1203	127.69	2.5538
