Measured thermophysical data. Investigation of Potassium Sulphate - Calcium Sulphate Binary System by Knudsen Effusion Mass  Spectrometry
Source: Thermochim. Acta, 2014, 10.1016/j.tca.2013.10.024
Compound 1: dipotassium sulfate, K2O4S
Compound 2: calcium sulfate, CaO4S

System: dipotassium sulfate; phases: Crystal, Gas
Property: Vapor or sublimation pressure, kPa (Crystal); method: Knudsen effusion method
Temperature, K	Vapor or sublimation pressure, kPa	uncertainty
1239	.000181025915	.0000181025915
1241	.000166752518	.0000166752518
1243	.000294268199	.0000294268199
1244	.000185994399	.0000185994399
1244	.000176548378	.0000176548378
1244	.000281542989	.0000281542989
1250	.000346771597	.0000346771597
1258	.000326357403	.0000326357403
1259	.000367934512	.0000367934512
1260	.000447062045	.0000447062045
1264	.000565151327	.0000565151327
1267	.000520071549	.0000520071549
1272	.000513780308	.0000513780308
1272	.000576478825	.0000576478825
1275	.000655422889	.0000655422889
1283	.000788779482	.0000788779482
1283	.000928206984	.0000928206984
1283	.000748089636	.0000748089636
1287	.000769631555	.0000769631555
1287	.000878787942	.0000878787942
1290	.000932838134	.0000932838134
1292	.000852979097	.0000852979097
1297	.001091704344	.0001091704344
1300	.001088884276	.0001088884276
1306	.001457319635	.0001457319635
1311	.001558784289	.0001558784289
1313	.001473083922	.0001473083922
1193	.000022551229	.0000022551229
1202	.000032683428	.0000032683428
1214	.000045916917	.0000045916917
1224	.000061195431	.0000061195431
1218	.000042737002	.0000042737002
1233	.000061734619	.0000061734619
1225	.000059842308	.0000059842308
1243	.000100062	.0000100062
1238	.000074484511	.0000074484511
1235	.000069663997	.0000069663997
1250	.000097067064	.0000097067064
1240	.00009575569	.000009575569
1259	.000151576539	.0000151576539
1255	.000118806526	.0000118806526
1253	.000109133138	.0000109133138
1269	.000153635992	.0000153635992
1260	.000162348206	.0000162348206
1273	.000161652904	.0000161652904
1273	.000191870504	.0000191870504
1287	.00024415036	.000024415036
1281	.000278353829	.0000278353829
1302	.000458576618	.0000458576618
1292	.000373908379	.0000373908379
1303	.00036590394	.000036590394
1300	.000398114875	.0000398114875
1315	.00060362261	.000060362261
1309	.000535067156	.0000535067156
1318	.000658578936	.0000658578936
1330	.000855325478	.0000855325478
1326	.000829635553	.0000829635553
1201	.000040693355	.0000040693355
1212	.000044674409	.0000044674409
1214	.000058406956	.0000058406956
1221	.000075837854	.0000075837854
1226	.00007236405	.000007236405
1235	.000112532763	.0000112532763
1239	.000128762005	.0000128762005
1248	.000145270952	.0000145270952
1254	.000194899909	.0000194899909
1259	.000218663931	.0000218663931
1268	.000260542938	.0000260542938
1268	.000298842409	.0000298842409
1272	.000301637965	.0000301637965
1276	.000342231775	.0000342231775
1286	.00043326974	.000043326974
1288	.000520284306	.0000520284306
1290	.000462181379	.0000462181379
1292	.00053226638	.000053226638
1304	.000623772342	.0000623772342
1305	.000667585101	.0000667585101
1309	.000794976718	.0000794976718
1314	.000881831291	.0000881831291
1320	.001023664062	.0001023664062
1325	.00118815242	.000118815242
1330	.001277801513	.0001277801513
1332	.001415263073	.0001415263073
1336	.001412339493	.0001412339493
1228	.000097497273	.0000097497273
1207	.000058311437	.0000058311437
1246	.000172929184	.0000172929184
1223	.000094968456	.0000094968456
1265	.00029366624	.000029366624
1245	.000167127445	.0000167127445
1244	.000160509908	.0000160509908
1282	.000452025562	.0000452025562
1264	.000278909519	.0000278909519
1263	.000265624334	.0000265624334
1300	.000591098745	.0000591098745
1283	.0004537255	.00004537255
1280	.000412638179	.0000412638179
1302	.000654712334	.0000654712334
1296	.000599194173	.0000599194173
1325	.001093112389	.0001093112389
1318	.000915979055	.0000915979055
1317	.000929015039	.0000929015039
1341	.001475373631	.0001475373631
1334	.00134012871	.000134012871
1343	.001564133803	.0001564133803
1335	.001459319934	.0001459319934
1355	.001940716677	.0001940716677
1349	.001744145634	.0001744145634
1347	.001720517471	.0001720517471
1359	.00202216291	.000202216291
1352	.001919170847	.0001919170847
1227	.000119655311	.0000119655311
1228	.000133472674	.0000133472674
1238	.00015403491	.000015403491
1246	.000191450306	.0000191450306
1247	.000209302312	.0000209302312
1248	.00021736091	.000021736091
1255	.000282949044	.0000282949044
1258	.000280985156	.0000280985156
1265	.000344310464	.0000344310464
1267	.000360247915	.0000360247915
1268	.000378737098	.0000378737098
1268	.000350325331	.0000350325331
1271	.000390363343	.0000390363343
1277	.000463029999	.0000463029999
1281	.000528528342	.0000528528342
1283	.000511279818	.0000511279818
1287	.000629383136	.0000629383136
1288	.000567069743	.0000567069743
1288	.000592159225	.0000592159225
1296	.00065933504	.000065933504
1300	.000753202329	.0000753202329
1301	.000778552388	.0000778552388
1305	.000851488942	.0000851488942
1305	.000880141711	.0000880141711
1305	.00081141762	.000081141762
1308	.000905738219	.0000905738219
1314	.000999973875	.0000999973875

System: calcium sulfate + dipotassium sulfate; phases: Liquid, Gas
Property: (Relative) activity of dipotassium sulfate (Liquid); method: MS-Knudsen
Mole fraction of dipotassium sulfate	Temperature, K	(Relative) activity of dipotassium sulfate	uncertainty
.05	1156	.696566721	.03482833605
.05	1166	.611754837	.03058774185
.05	1176	.53845701	.0269228505
.05	1186	.474962515	.02374812575
.05	1196	.419835221	.02099176105
.05	1206	.371866424	.0185933212
.05	1216	.3300363	.016501815
.05	1226	.293482282	.0146741141
.05	1236	.261473079	.01307365395
.05	1246	.233387252	.0116693626
.05	1256	.20869551	.0104347755
.05	1266	.186946046	.0093473023
.05	1276	.167752356	.0083876178
.05	1286	.150783099	.00753915495
.05	1296	.13575363	.0067876815
.35	1135	.862036083	.04310180415
.35	1145	.76984	.038492
.35	1155	.688853076	.0344426538
.35	1165	.617562964	.0308781482
.35	1175	.554681224	.0277340612
.35	1185	.499106036	.0249553018
.35	1195	.449893329	.02249466645
.35	1205	.406232397	.02031161985
.35	1215	.367425549	.01837127745
.35	1225	.332871084	.0166435542
.35	1235	.302049009	.01510245045
.35	1245	.27450904	.013725452
.35	1255	.24986	.012493
.35	1265	.227763689	.01138818445
.35	1275	.207922839	.01039614195
.35	1285	.19008	.009504
.35	1295	.174008932	.0087004466
.35	1307	.156786673	.00783933365
.5	1152	.526048897	.02630244485
.5	1162	.495902008	.0247951004
.5	1172	.467953819	.02339769095
.5	1182	.442014382	.0221007191
.5	1192	.41791249	.0208956245
.5	1202	.395493616	.0197746808
.5	1212	.374618095	.01873090475
.5	1222	.35516	.017758
.5	1232	.337003374	.0168501687
.5	1242	.320045705	.01600228525
.5	1252	.304192107	.01520960535
.5	1262	.289356703	.01446783515
.5	1272	.275461288	.0137730644
.5	1282	.262434563	.01312172815
.5	1292	.250211451	.01251057255
.5	1302	.238732482	.0119366241
.5	1312	.227943261	.01139716305
.5	1322	.217793971	.01088969855
.5	1329	.211045619	.01055228095
.65	1163	.717065468	.0358532734
.65	1173	.697367109	.03486835545
.65	1183	.678529341	.03392646705
.65	1193	.660503587	.03302517935
.65	1203	.643244578	.0321622289
.65	1213	.626710086	.0313355043
.65	1223	.610860692	.0305430346
.65	1233	.59566	.029783
.65	1243	.581072277	.02905361385
.65	1253	.567066595	.02835332975
.65	1263	.553612344	.0276806172
.65	1273	.540681243	.02703406215
.65	1283	.528246769	.02641233845
.65	1293	.516284029	.02581420145
.65	1303	.50477	.0252385
.65	1313	.493681635	.02468408175
.65	1323	.482999343	.02414996715
.65	1331	.474732517	.02373662585
.8	1139	.875685716	.0437842858
.8	1149	.870615135	.04353075675
.8	1159	.86566066	.043283033
.8	1169	.860818425	.04304092125
.8	1179	.856084733	.04280423665
.8	1189	.851456045	.04257280225
.8	1199	.84692897	.0423464485
.8	1209	.8425	.042125
.8	1219	.838166806	.0419083403
.8	1229	.833925619	.04169628095
.8	1239	.829773839	.04148869195
.8	1249	.825708717	.04128543585
.8	1259	.821727616	.0410863808
.8	1269	.817828002	.0408914001
.8	1279	.814007442	.0407003721
.8	1289	.810263597	.04051317985
.8	1299	.806594218	.0403297109
.8	1309	.802997141	.04014985705
.8	1319	.799470286	.0399735143
.8	1332	.794987069	.03974935345
.9	1228	.924500554	.0462250277
.9	1238	.915423631	.04577118155
.9	1248	.906579164	.0453289582
.9	1258	.897958738	.0448979369
.9	1268	.889554325	.04447771625
.9	1278	.881358264	.0440679132
.9	1288	.87336324	.043668162
.9	1298	.865562267	.04327811335
