Measured thermophysical data. Additive scheme for calculation of solvation enthalpies of heterocyclic aromatic compounds. Sublimation/vaporization enthalpy at 298.15 K
Source: Thermochim. Acta, 2016, 10.1016/j.tca.2016.03.031
Compound 1: benzene, C6H6
Compound 2: furan, C4H4O
Compound 3: thiophene, C4H4S
Compound 4: 1,4-benzoquinone, C6H4O2, purity 98.0%
Compound 5: quinoline, C9H7N
Compound 6: phthalazine, C8H6N2, purity 98.0%
Compound 7: 2-phenylpyridine, C11H9N, purity 97.0%
Compound 8: 3-phenylpyridine, C11H9N, purity 98.0%
Compound 9: benzo[h]quinoline, C13H9N, purity 97.0%
Compound 10: 1,4-naphthaquinone, C10H6O2
Compound 11: 9-fluorenone, C13H8O, purity 98.0%
Compound 12: 9,10-anthraquinone, C14H8O2, purity 97.0%
Compound 13: 9,10-phenanthrenequinone, C14H8O2, purity 99.0%
Compound 14: benzanthrone, C17H10O, purity 98.0%
Compound 15: indole, C8H7N, purity 99.0%
Compound 16: carbazole, C12H9N, purity 99.0%
Compound 17: 1-methylindole, C9H9N, purity 97.0%
Compound 18: 9-methylcarbazole, C13H11N, purity 99.0%
Compound 19: 1-benzothiophene, C8H6S, purity 98.0%
Compound 20: thianthrene, C12H8S2, purity 97.0%
Compound 21: benzofuran, C8H6O, purity 99.0%
Compound 22: dibenzofuran, C12H8O, purity 98.0%
Compound 23: oxazole, C3H3NO, purity 98.0%
Compound 24: thiazole, C3H3NS, purity 99.0%
Compound 25: phenoxazine, C12H9NO, purity 97.0%
Compound 26: phenothiazine, C12H9NS, purity 98.0%
Compound 27: xanthone, C13H8O2
Compound 28: phenanthridine, C13H9N, purity 99.0%
Compound 29: benzotriazole, C6H5N3, purity 99.0%

System: benzene + furan; phases: Liquid
Fixed: Temperature, K = 298.15
Fixed: Pressure, kPa = 100
Property: Molar enthalpy of solution, kJ/mol (Liquid); method: Titration calorimetry
Mole fraction of furan	Molar enthalpy of solution, kJ/mol	uncertainty
0	.35	

System: benzene + thiophene; phases: Liquid
Fixed: Temperature, K = 298.15
Fixed: Pressure, kPa = 100
Property: Molar enthalpy of solution, kJ/mol (Liquid); method: Titration calorimetry
Mole fraction of thiophene	Molar enthalpy of solution, kJ/mol	uncertainty
0	.12	

System: benzene + 1,4-benzoquinone; phases: Liquid
Fixed: Temperature, K = 298.15
Fixed: Pressure, kPa = 100
Property: Molar enthalpy of solution, kJ/mol (Liquid); method: Power-compensation calorimetry
Mole fraction of 1,4-benzoquinone	Molar enthalpy of solution, kJ/mol	uncertainty
0	17.07	

System: benzene + quinoline; phases: Liquid
Fixed: Temperature, K = 298.15
Fixed: Pressure, kPa = 100
Property: Molar enthalpy of solution, kJ/mol (Liquid); method: Titration calorimetry
Mole fraction of quinoline	Molar enthalpy of solution, kJ/mol	uncertainty
0	.91	

System: benzene + phthalazine; phases: Liquid
Fixed: Temperature, K = 298.15
Fixed: Pressure, kPa = 100
Property: Molar enthalpy of solution, kJ/mol (Liquid); method: Power-compensation calorimetry
Mole fraction of phthalazine	Molar enthalpy of solution, kJ/mol	uncertainty
0	15.06	

System: benzene + 2-phenylpyridine; phases: Liquid
Fixed: Temperature, K = 298.15
Fixed: Pressure, kPa = 100
Property: Molar enthalpy of solution, kJ/mol (Liquid); method: Titration calorimetry
Mole fraction of 2-phenylpyridine	Molar enthalpy of solution, kJ/mol	uncertainty
0	1.66	

System: benzene + 3-phenylpyridine; phases: Liquid
Fixed: Temperature, K = 298.15
Fixed: Pressure, kPa = 100
Property: Molar enthalpy of solution, kJ/mol (Liquid); method: Titration calorimetry
Mole fraction of 3-phenylpyridine	Molar enthalpy of solution, kJ/mol	uncertainty
0	1.1	

System: benzene + benzo[h]quinoline; phases: Liquid
Fixed: Temperature, K = 298.15
Fixed: Pressure, kPa = 100
Property: Molar enthalpy of solution, kJ/mol (Liquid); method: Power-compensation calorimetry
Mole fraction of benzo[h]quinoline	Molar enthalpy of solution, kJ/mol	uncertainty
0	12.61	

System: benzene + phenanthridine; phases: Liquid
Fixed: Temperature, K = 298.15
Fixed: Pressure, kPa = 100
Property: Molar enthalpy of solution, kJ/mol (Liquid); method: Power-compensation calorimetry
Mole fraction of phenanthridine	Molar enthalpy of solution, kJ/mol	uncertainty
0	20.02	

System: benzene + 1,4-naphthaquinone; phases: Liquid
Fixed: Temperature, K = 298.15
Fixed: Pressure, kPa = 100
Property: Molar enthalpy of solution, kJ/mol (Liquid); method: Power-compensation calorimetry
Mole fraction of 1,4-naphthaquinone	Molar enthalpy of solution, kJ/mol	uncertainty
0	25.54	

System: benzene + 9-fluorenone; phases: Liquid
Fixed: Temperature, K = 298.15
Fixed: Pressure, kPa = 100
Property: Molar enthalpy of solution, kJ/mol (Liquid); method: Power-compensation calorimetry
Mole fraction of 9-fluorenone	Molar enthalpy of solution, kJ/mol	uncertainty
0	16.42	

System: benzene + 9,10-anthraquinone; phases: Liquid
Fixed: Temperature, K = 298.15
Fixed: Pressure, kPa = 100
Property: Molar enthalpy of solution, kJ/mol (Liquid); method: Power-compensation calorimetry
Mole fraction of 9,10-anthraquinone	Molar enthalpy of solution, kJ/mol	uncertainty
0	25.56	

System: benzene + 9,10-phenanthrenequinone; phases: Liquid
Fixed: Temperature, K = 298.15
Fixed: Pressure, kPa = 100
Property: Molar enthalpy of solution, kJ/mol (Liquid); method: Power-compensation calorimetry
Mole fraction of 9,10-phenanthrenequinone	Molar enthalpy of solution, kJ/mol	uncertainty
0	19.96	

System: benzene + benzanthrone; phases: Liquid
Fixed: Temperature, K = 298.15
Fixed: Pressure, kPa = 100
Property: Molar enthalpy of solution, kJ/mol (Liquid); method: Power-compensation calorimetry
Mole fraction of benzanthrone	Molar enthalpy of solution, kJ/mol	uncertainty
0	25.07	

System: benzene + indole; phases: Liquid
Fixed: Temperature, K = 298.15
Fixed: Pressure, kPa = 100
Property: Molar enthalpy of solution, kJ/mol (Liquid); method: Power-compensation calorimetry
Mole fraction of indole	Molar enthalpy of solution, kJ/mol	uncertainty
0	12.68	

System: benzene + carbazole; phases: Liquid
Fixed: Temperature, K = 298.15
Fixed: Pressure, kPa = 100
Property: Molar enthalpy of solution, kJ/mol (Liquid); method: Power-compensation calorimetry
Mole fraction of carbazole	Molar enthalpy of solution, kJ/mol	uncertainty
0	21.46	

System: benzene + 1-methylindole; phases: Liquid
Fixed: Temperature, K = 298.15
Fixed: Pressure, kPa = 100
Property: Molar enthalpy of solution, kJ/mol (Liquid); method: Titration calorimetry
Mole fraction of 1-methylindole	Molar enthalpy of solution, kJ/mol	uncertainty
0	1.01	

System: benzene + 9-methylcarbazole; phases: Liquid
Fixed: Temperature, K = 298.15
Fixed: Pressure, kPa = 100
Property: Molar enthalpy of solution, kJ/mol (Liquid); method: Power-compensation calorimetry
Mole fraction of 9-methylcarbazole	Molar enthalpy of solution, kJ/mol	uncertainty
0	17.3	

System: benzene + 1-benzothiophene; phases: Liquid
Fixed: Temperature, K = 298.15
Fixed: Pressure, kPa = 100
Property: Molar enthalpy of solution, kJ/mol (Liquid); method: Power-compensation calorimetry
Mole fraction of 1-benzothiophene	Molar enthalpy of solution, kJ/mol	uncertainty
0	9.36	

System: benzene + thianthrene; phases: Liquid
Fixed: Temperature, K = 298.15
Fixed: Pressure, kPa = 100
Property: Molar enthalpy of solution, kJ/mol (Liquid); method: Power-compensation calorimetry
Mole fraction of thianthrene	Molar enthalpy of solution, kJ/mol	uncertainty
0	22.48	

System: benzene + benzofuran; phases: Liquid
Fixed: Temperature, K = 298.15
Fixed: Pressure, kPa = 100
Property: Molar enthalpy of solution, kJ/mol (Liquid); method: Titration calorimetry
Mole fraction of benzofuran	Molar enthalpy of solution, kJ/mol	uncertainty
0	-.13	

System: benzene + dibenzofuran; phases: Liquid
Fixed: Temperature, K = 298.15
Fixed: Pressure, kPa = 100
Property: Molar enthalpy of solution, kJ/mol (Liquid); method: Power-compensation calorimetry
Mole fraction of dibenzofuran	Molar enthalpy of solution, kJ/mol	uncertainty
0	16.62	

System: benzene + oxazole; phases: Liquid
Fixed: Temperature, K = 298.15
Fixed: Pressure, kPa = 100
Property: Molar enthalpy of solution, kJ/mol (Liquid); method: Titration calorimetry
Mole fraction of oxazole	Molar enthalpy of solution, kJ/mol	uncertainty
0	3.1	

System: benzene + thiazole; phases: Liquid
Fixed: Temperature, K = 298.15
Fixed: Pressure, kPa = 100
Property: Molar enthalpy of solution, kJ/mol (Liquid); method: Titration calorimetry
Mole fraction of thiazole	Molar enthalpy of solution, kJ/mol	uncertainty
0	1.24	

System: benzene + phenoxazine; phases: Liquid
Fixed: Temperature, K = 298.15
Fixed: Pressure, kPa = 100
Property: Molar enthalpy of solution, kJ/mol (Liquid); method: Power-compensation calorimetry
Mole fraction of phenoxazine	Molar enthalpy of solution, kJ/mol	uncertainty
0	17.35	

System: benzene + phenothiazine; phases: Liquid
Fixed: Temperature, K = 298.15
Fixed: Pressure, kPa = 100
Property: Molar enthalpy of solution, kJ/mol (Liquid); method: Power-compensation calorimetry
Mole fraction of phenothiazine	Molar enthalpy of solution, kJ/mol	uncertainty
0	20.07	

System: benzene + xanthone; phases: Liquid
Fixed: Temperature, K = 298.15
Fixed: Pressure, kPa = 100
Property: Molar enthalpy of solution, kJ/mol (Liquid); method: Power-compensation calorimetry
Mole fraction of xanthone	Molar enthalpy of solution, kJ/mol	uncertainty
0	22.85	

System: benzene + benzotriazole; phases: Liquid
Fixed: Temperature, K = 298.15
Fixed: Pressure, kPa = 100
Property: Molar enthalpy of solution, kJ/mol (Liquid); method: Power-compensation calorimetry
Mole fraction of benzotriazole	Molar enthalpy of solution, kJ/mol	uncertainty
0	21.2	
