Measured thermophysical data. Thermodynamic properties of vitamin B2
Source: Thermochim. Acta, 2014, 10.1016/j.tca.2013.09.032
Compound 1: riboflavin, C17H20N4O6, purity 98%
Compound 2: carbon dioxide, CO2
Compound 3: nitrogen, N2
Compound 4: water, H2O
Compound 5: oxygen, O2

System: riboflavin; phases: Crystal
Fixed: Pressure, kPa = 101.325
Property: Molar heat capacity at constant pressure, J/K/mol (Crystal); method: Vacuum adiabatic calorimetry
Temperature, K	Molar heat capacity at constant pressure, J/K/mol	uncertainty
6.75	2.55	
7.32	2.83	
8.41	3.45	
8.94	4.08	
9.34	4.48	
9.68	4.81	
10.15	5.25	
10.36	5.42	
10.98	6.23	
11.56	7.05	
11.98	7.68	
13.16	9.25	
15.03	12.22	
16.92	15.24	
18.77	18.25	
20.65	21.38	
22.79	25.35	
24.95	29.29	
27.13	33.81	
29.37	38.36	
31.61	42.49	
33.91	47.31	
36.25	51.78	
38.52	56.45	
40.96	60.98	
43.38	65.91	
45.72	70.28	
48.12	74.84	
50.55	79.52	
52.99	83.98	
55.45	88.71	
57.93	93.42	
60.48	98.18	
62.91	102.6	
65.4	106.9	
67.89	110.9	
70.37	115.1	
72.85	119.2	
75.32	123.3	
77.79	128.2	
80.34	132.4	
82.75	137.1	
85.22	141.4	
88.86	147.9	
83.48	138.3	
86.72	144.2	
89.48	148.9	
92.71	153.8	
95.7	158.4	
98.7	162.9	
101.67	167.8	
104.65	172.4	
107.64	177.1	
110.63	181.6	
113.62	185.8	
116.63	190.1	
119.63	194.3	
122.64	198.5	
125.66	202.7	
128.69	207.3	
131.7	211.6	
134.72	215.9	
137.75	220.3	
140.77	224.6	
143.8	229	
146.83	233	
149.86	237.2	
152.9	241.7	
155.94	246	
158.98	250.1	
162.02	254.2	
165.06	258.6	
168.1	263	
171.14	267.3	
174.19	271.6	
177.26	276	
180.3	279.9	
183.34	283.9	
186.38	288.1	
189.42	291.9	
192.46	296.2	
195.5	300.5	
198.54	305	
201.58	308.7	
204.61	313	
207.64	317.5	
210.68	321.4	
213.72	325.8	
216.77	330	
219.81	334	
222.86	338.3	
225.93	342.3	
228.98	346.6	
232.02	350.4	
235.06	355	
238.11	359.4	
241.15	363.5	
244.2	367.7	
247.25	371.5	
250.29	375.6	
253.34	379.8	
256.38	383.9	
259.42	388.4	
262.46	392.5	
265.5	396.6	
268.54	400.6	
271.58	404.8	
274.65	409.2	
277.69	413.5	
280.72	417.4	
283.75	421.5	
286.78	425.5	
289.8	429.8	
292.82	434	
295.84	438.2	
298.86	442.2	
302.37	447.3	
306.36	453.1	
310.36	459.1	
314.34	464.5	
318.32	470	
322.29	474.7	

System: riboflavin; phases: Crystal
Fixed: Pressure, kPa = 101.325
Property: Molar heat capacity at constant pressure, J/K/mol (Crystal); method: Vacuum adiabatic calorimetry
Temperature, K	Molar heat capacity at constant pressure, J/K/mol	uncertainty
1	.0523	
2	.209	
3	.47	
4	.836	
5	1.31	
6	1.88	
7	2.65	
8	3.25	
9	4.08	
10	5.1	
15	12	
20	20.35	
25	29.5	
30	39.49	
35	49.35	
40	59.26	
45	68.91	
50	78.34	
60	97.31	
70	114.4	
80	132	
90	149.6	
100	165.2	
110	180.4	
120	195	
130	209.2	
140	223.3	
150	237.5	
160	251.7	
170	265.7	
180	279.4	
190	293	
200	306.7	
210	320.5	
220	334.7	
230	348.2	
240	361.5	
250	375.1	
260	389.1	
270	403	
273.15	407.4	
280	416.6	
290	429.9	
298.15	441.1	
310	458.6	
320	472.1	
322	474.1	

System: riboflavin; phases: Crystal
Fixed: Pressure, kPa = 101.325
Property: Molar enthalpy, kJ/mol (Crystal); method: Vacuum adiabatic calorimetry
Temperature, K	Molar enthalpy, kJ/mol	uncertainty
1	.00002	
2	.0001	
3	.0005	
4	.0011	
5	.0022	
6	.0038	
7	.006	
8	.009	
9	.0125	
10	.0172	
15	.0592	
20	.1398	
25	.2636	
30	.4363	
35	.6584	
40	.93	
45	1.251	
50	1.619	
60	2.497	
70	3.558	
80	4.788	
90	6.196	
100	7.771	
110	9.499	
120	11.38	
130	13.4	
140	15.56	
150	17.86	
160	20.31	
170	22.9	
180	25.62	
190	28.48	
200	31.48	
210	34.62	
220	37.89	
230	41.31	
240	44.86	
250	48.54	
260	52.36	
270	56.32	
273.15	57.6	
280	60.42	
290	64.65	
298.15	68.2	
310	73.53	
320	78.19	
322	79.13	

System: riboflavin; phases: Crystal
Fixed: Pressure, kPa = 101.325
Property: Molar entropy, J/K/mol (Crystal); method: Vacuum adiabatic calorimetry
Temperature, K	Molar entropy, J/K/mol	uncertainty
1	.0261	
2	.105	
3	.235	
4	.418	
5	.653	
6	.941	
7	1.28	
8	1.66	
9	2.1	
10	2.58	
15	5.898	
20	10.48	
25	15.97	
30	22.23	
35	29.06	
40	36.3	
45	43.84	
50	51.59	
60	67.55	
70	83.87	
80	100.3	
90	116.8	
100	133.4	
110	149.9	
120	166.2	
130	182.4	
140	198.4	
150	214.3	
160	230.1	
170	245.7	
180	261.3	
190	276.8	
200	292.2	
210	307.5	
220	322.7	
230	337.9	
240	353	
250	368	
260	383	
270	397.9	
273.15	402.6	
280	412.8	
290	427.7	
298.15	439.8	
310	457.3	
320	472.1	
322	475	

Reaction: -1 riboflavin + 17 carbon dioxide + 2 nitrogen + 10 water + -19 oxygen
Property: Molar internal energy of reaction at constant volume, kJ/mol
-8116
