Measured thermophysical data. Thermodynamic behavior of binary mixtures CnMpyNTf2 ionic liquids with  primary and secondary alcohols
Source: Thermochim. Acta, 2012, 10.1016/j.tca.2012.09.009
Compound 1: 3-methyl-N-ethylpyridinium bis-(trifluoromethylsulfonyl)imide, C10H12F6N2O4S2, purity 99%
Compound 2: 3-methyl-1-propylpyridinium bis(trifluoromethylsulfonyl)imide, C11H14F6N2O4S2, purity 99%
Compound 3: 1-propanol, C3H8O, purity 99.9%
Compound 4: 2-propanol, C3H8O, purity 99.8%
Compound 5: 1-butyl-3-methylpyridinium bis(trifluoromethylsulfonyl)imide, C12H16F6N2O4S2, purity 99%
Compound 6: 1-butanol, C4H10O, purity 99.9%
Compound 7: 2-butanol, C4H10O, purity 99.8%

System: 1-propanol + 3-methyl-N-ethylpyridinium bis-(trifluoromethylsulfonyl)imide; phases: Liquid
Fixed: Temperature, K = 323.15
Fixed: Pressure, kPa = 101.325
Property: Osmotic coefficient (Liquid); method: Isopiestic method
Molality, mol/kg of 3-methyl-N-ethylpyridinium bis-(trifluoromethylsulfonyl)imide	Osmotic coefficient	uncertainty
.0291	.924	
.0485	.788	
.0836	.704	
.104	.68	
.2111	.57	
.3124	.496	
.4076	.411	
.5148	.354	
.8269	.297	
1.2305	.237	
1.5775	.211	
2.0592	.18	
2.455	.161	
2.8005	.15	

System: 1-propanol + 3-methyl-1-propylpyridinium bis(trifluoromethylsulfonyl)imide; phases: Liquid
Fixed: Temperature, K = 323.15
Fixed: Pressure, kPa = 101.325
Property: Osmotic coefficient (Liquid); method: Isopiestic method
Molality, mol/kg of 3-methyl-1-propylpyridinium bis(trifluoromethylsulfonyl)imide	Osmotic coefficient	uncertainty
.0279	.943	
.0456	.826	
.0782	.699	
.0966	.651	
.2052	.553	
.2936	.504	
.3902	.435	
.5073	.363	
.8376	.294	
1.2611	.242	
1.6556	.217	
2.0452	.196	
2.4252	.175	
2.8247	.165	
3.3104	.159	

System: 1-propanol + 1-butyl-3-methylpyridinium bis(trifluoromethylsulfonyl)imide; phases: Liquid
Fixed: Temperature, K = 323.15
Fixed: Pressure, kPa = 101.325
Property: Osmotic coefficient (Liquid); method: Isopiestic method
Molality, mol/kg of 1-butyl-3-methylpyridinium bis(trifluoromethylsulfonyl)imide	Osmotic coefficient	uncertainty
.0318	.917	
.0485	.78	
.0788	.72	
.2157	.571	
.3181	.487	
.417	.44	
.527	.389	
.8342	.324	
1.2402	.274	
1.6303	.229	
2.0534	.203	
2.4389	.191	
2.768	.182	
3.3036	.174	

System: 2-propanol + 3-methyl-N-ethylpyridinium bis-(trifluoromethylsulfonyl)imide; phases: Liquid
Fixed: Temperature, K = 323.15
Fixed: Pressure, kPa = 101.325
Property: Osmotic coefficient (Liquid); method: Isopiestic method
Molality, mol/kg of 3-methyl-N-ethylpyridinium bis-(trifluoromethylsulfonyl)imide	Osmotic coefficient	uncertainty
.049	.951	
.0748	.834	
.0982	.752	
.2129	.605	
.3058	.529	
.404	.464	
.5051	.428	
.8164	.335	
1.2107	.274	
1.6247	.233	
2.0113	.21	
2.415	.19	
2.8466	.176	
3.3347	.174	

System: 2-propanol + 3-methyl-1-propylpyridinium bis(trifluoromethylsulfonyl)imide; phases: Liquid
Fixed: Temperature, K = 323.15
Fixed: Pressure, kPa = 101.325
Property: Osmotic coefficient (Liquid); method: Isopiestic method
Molality, mol/kg of 3-methyl-1-propylpyridinium bis(trifluoromethylsulfonyl)imide	Osmotic coefficient	uncertainty
.0497	.974	
.0805	.806	
.1081	.756	
.1987	.632	
.2986	.508	
.41	.415	
.5278	.379	
.8355	.334	
1.221	.281	
1.6234	.24	
2.0723	.217	
2.4371	.206	
2.8275	.191	
3.3263	.184	

System: 2-propanol + 1-butyl-3-methylpyridinium bis(trifluoromethylsulfonyl)imide; phases: Liquid
Fixed: Temperature, K = 323.15
Fixed: Pressure, kPa = 101.325
Property: Osmotic coefficient (Liquid); method: Isopiestic method
Molality, mol/kg of 1-butyl-3-methylpyridinium bis(trifluoromethylsulfonyl)imide	Osmotic coefficient	uncertainty
.0504	.909	
.0795	.805	
.0981	.729	
.2086	.596	
.2979	.536	
.3949	.498	
.4981	.454	
.7859	.384	
1.1884	.321	
1.5833	.266	
1.9751	.244	
2.3809	.233	
2.7625	.234	
3.3233	.225	

System: 1-butanol + 1-butyl-3-methylpyridinium bis(trifluoromethylsulfonyl)imide; phases: Liquid
Fixed: Temperature, K = 323.15
Fixed: Pressure, kPa = 101.325
Property: Osmotic coefficient (Liquid); method: Isopiestic method
Molality, mol/kg of 1-butyl-3-methylpyridinium bis(trifluoromethylsulfonyl)imide	Osmotic coefficient	uncertainty
.0539	.692	
.082	.581	
.1023	.508	
.1892	.403	
.3045	.305	
.4112	.259	
.5115	.238	
.8265	.203	
1.2319	.179	
1.5799	.155	
2.0872	.132	
2.4663	.12	
2.8782	.112	
3.4336	.102	

System: 2-butanol + 1-butyl-3-methylpyridinium bis(trifluoromethylsulfonyl)imide; phases: Liquid
Fixed: Temperature, K = 323.15
Fixed: Pressure, kPa = 101.325
Property: Osmotic coefficient (Liquid); method: Isopiestic method
Molality, mol/kg of 1-butyl-3-methylpyridinium bis(trifluoromethylsulfonyl)imide	Osmotic coefficient	uncertainty
.0527	.735	
.0838	.623	
.1035	.581	
.2136	.45	
.3113	.379	
.411	.337	
.5068	.292	
.7963	.235	
1.217	.195	
1.5756	.171	
2.0317	.149	
2.4081	.135	
2.7988	.126	
3.2614	.119	
