Measured thermophysical data. Study of intermolecular interactions in binary mixtures of 2-(dimethylamino)ethanol with methanol and ethanol at various temperatures
Source: Thermochim. Acta, 2014, 10.1016/j.tca.2014.03.038
Compound 1: 2-(diethylamino)ethanol, C6H15NO, purity 98%
Compound 2: methanol, CH4O, purity 99.8%
Compound 3: ethanol, C2H6O, purity 99.8%

System: 2-(diethylamino)ethanol; phases: Liquid
Fixed: Pressure, kPa = 101.325
Property: Mass density, kg/m3 (Liquid); method: Pycnometric method
Temperature, K	Mass density, kg/m3	uncertainty
298.15	883.34	
308.15	874.99	
318.15	866.37	

System: 2-(diethylamino)ethanol; phases: Liquid
Fixed: Pressure, kPa = 101.325
Property: Speed of sound, m/s (Liquid); method: multifrequency ultrasonic interferometer
Temperature, K	Speed of sound, m/s	uncertainty
298.15	1344.4	
308.15	1309.1	
318.15	1274.1	

System: methanol; phases: Liquid
Fixed: Pressure, kPa = 101.325
Property: Mass density, kg/m3 (Liquid); method: Pycnometric method
Temperature, K	Mass density, kg/m3	uncertainty
298.15	786.74	
308.15	777.45	
318.15	768.01	

System: methanol; phases: Liquid
Fixed: Pressure, kPa = 101.325
Property: Speed of sound, m/s (Liquid); method: multifrequency ultrasonic interferometer
Temperature, K	Speed of sound, m/s	uncertainty
298.15	1100.7	
308.15	1068.2	
318.15	1037	

System: ethanol; phases: Liquid
Fixed: Pressure, kPa = 101.325
Property: Mass density, kg/m3 (Liquid); method: Pycnometric method
Temperature, K	Mass density, kg/m3	uncertainty
298.15	785.48	
308.15	776.82	
318.15	768.08	

System: ethanol; phases: Liquid
Fixed: Pressure, kPa = 101.325
Property: Speed of sound, m/s (Liquid); method: multifrequency ultrasonic interferometer
Temperature, K	Speed of sound, m/s	uncertainty
298.15	1143.2	
308.15	1109.6	
318.15	1075.5	

System: methanol + 2-(diethylamino)ethanol; phases: Liquid
Fixed: Pressure, kPa = 101
Property: Mass density, kg/m3 (Liquid); method: Pycnometric method
Mole fraction of 2-(diethylamino)ethanol	Temperature, K	Mass density, kg/m3	uncertainty
0	298.15	786.74	
.0971	298.15	814.11	
.1983	298.15	835.29	
.2962	298.15	850.65	
.4039	298.15	862.04	
.502	298.15	868.4	
.607	298.15	873.13	
.7075	298.15	876.61	
.7999	298.15	879.06	
.9015	298.15	881.19	
1	298.15	883.34	
0	308.15	777.45	
.0971	308.15	806.11	
.1983	308.15	827.54	
.2962	308.15	842.65	
.4039	308.15	853.81	
.502	308.15	860.4	
.607	308.15	865.13	
.7075	308.15	868.67	
.7999	308.15	871.15	
.9015	308.15	873.28	
1	308.15	874.99	
0	318.15	768.01	
.0971	318.15	797.9	
.1983	318.15	819.51	
.2962	318.15	834.22	
.4039	318.15	845.26	
.502	318.15	852.01	
.607	318.15	856.89	
.7075	318.15	860.58	
.7999	318.15	862.98	
.9015	318.15	865.23	
1	318.15	866.37	

System: methanol + 2-(diethylamino)ethanol; phases: Liquid
Fixed: Pressure, kPa = 101
Property: Speed of sound, m/s (Liquid); method: multifrequency ultrasonic interferometer
Mole fraction of 2-(diethylamino)ethanol	Temperature, K	Speed of sound, m/s	uncertainty
0	298.15	1100.7	.2
.0971	298.15	1152.4	.2
.1983	298.15	1204.7	.2
.2962	298.15	1249.8	.2
.4039	298.15	1290.2	.2
.502	298.15	1312	.2
.607	298.15	1322.4	.2
.7075	298.15	1326.9	.2
.7999	298.15	1330.6	.2
.9015	298.15	1335	.2
1	298.15	1344.4	.2
0	308.15	1068.2	.2
.0971	308.15	1126.7	.2
.1983	308.15	1180.5	.2
.2962	308.15	1225.3	.2
.4039	308.15	1265.5	.2
.502	308.15	1288.1	.2
.607	308.15	1299.3	.2
.7075	308.15	1301.3	.2
.7999	308.15	1303.1	.2
.9015	308.15	1304.2	.2
1	308.15	1309.1	.2
0	318.15	1037	.2
.0971	318.15	1101.6	.2
.1983	318.15	1156.2	.2
.2962	318.15	1199.5	.2
.4039	318.15	1238.9	.2
.502	318.15	1261.3	.2
.607	318.15	1272.9	.2
.7075	318.15	1273.6	.2
.7999	318.15	1273.9	.2
.9015	318.15	1274	.2
1	318.15	1274.1	.2

System: ethanol + 2-(diethylamino)ethanol; phases: Liquid
Fixed: Pressure, kPa = 101
Property: Mass density, kg/m3 (Liquid); method: Pycnometric method
Mole fraction of 2-(diethylamino)ethanol	Temperature, K	Mass density, kg/m3	uncertainty
0	298.15	785.48	
.0929	298.15	803.31	
.1972	298.15	820.2	
.3005	298.15	834.5	
.4012	298.15	846.38	
.5051	298.15	856.62	
.6098	298.15	864.64	
.7086	298.15	871.01	
.8031	298.15	875.81	
.9036	298.15	879.78	
1	298.15	883.34	
0	308.15	776.82	
.0929	308.15	795.34	
.1972	308.15	812.45	
.3005	308.15	826.62	
.4012	308.15	838.41	
.5051	308.15	848.64	
.6098	308.15	856.77	
.7086	308.15	863.28	
.8031	308.15	868.08	
.9036	308.15	871.92	
1	308.15	874.99	
0	318.15	768.08	
.0929	318.15	787.23	
.1972	318.15	804.46	
.3005	318.15	818.61	
.4012	318.15	830.22	
.5051	318.15	840.29	
.6098	318.15	848.47	
.7086	318.15	854.97	
.8031	318.15	859.92	
.9036	318.15	863.76	
1	318.15	866.37	

System: ethanol + 2-(diethylamino)ethanol; phases: Liquid
Fixed: Pressure, kPa = 101
Property: Speed of sound, m/s (Liquid); method: multifrequency ultrasonic interferometer
Mole fraction of 2-(diethylamino)ethanol	Temperature, K	Speed of sound, m/s	uncertainty
0	298.15	1143.2	.2
.0929	298.15	1172.7	.2
.1972	298.15	1206.4	.2
.3005	298.15	1236.8	.2
.4012	298.15	1264.9	.2
.5051	298.15	1290.4	.2
.6098	298.15	1309.3	.2
.7086	298.15	1321	.2
.8031	298.15	1329.8	.2
.9036	298.15	1336.4	.2
1	298.15	1344.4	.2
0	308.15	1109.6	.2
.0929	308.15	1141.5	.2
.1972	308.15	1176.1	.2
.3005	308.15	1207.1	.2
.4012	308.15	1234.4	.2
.5051	308.15	1259.8	.2
.6098	308.15	1279.1	.2
.7086	308.15	1292	.2
.8031	308.15	1300.4	.2
.9036	308.15	1304.5	.2
1	308.15	1309.1	.2
0	318.15	1075.5	.2
.0929	318.15	1109.4	.2
.1972	318.15	1144.1	.2
.3005	318.15	1176.3	.2
.4012	318.15	1205.1	.2
.5051	318.15	1231.3	.2
.6098	318.15	1251	.2
.7086	318.15	1264.2	.2
.8031	318.15	1271.8	.2
.9036	318.15	1273.3	.2
1	318.15	1274.1	.2
