Measured thermophysical data. Volumetric properties of MES, MOPS, MOPSO, and MOBS in water and in  aqueous electrolyte solutions
Source: Thermochim. Acta, 2010, 10.1016/j.tca.2010.04.004
Compound 1: 4-morpholineethanesulfonic acid, C6H13NO4S, purity 99%
Compound 2: 4-morpholinepropanesulfonic acid, C7H15NO4S, purity 99.5%
Compound 3: 3-morpholino-2-hydroxypropanesulfonic acid, C7H15NO5S, purity 99%
Compound 4: 4-(N-morpholino)butanesulfonic acid, C8H17NO4S, purity 99%
Compound 5: potassium chloride, ClK, purity 99.99%
Compound 6: acetic acid, potassium salt, C2H3KO2, purity 99.98%
Compound 7: potassium bromide, BrK, purity 99.5%
Compound 8: sodium chloride, ClNa, purity 99.5%
Compound 9: water, H2O

System: 4-morpholineethanesulfonic acid + sodium chloride + water; phases: Liquid
Fixed: Temperature, K = 298.15
Fixed: Pressure, kPa = 101
Property: Mass density, kg/m3 (Liquid); method: Vibrating tube method
Solvent: Molality, mol/kg of sodium chloride	Molality, mol/kg of 4-morpholineethanesulfonic acid	Mass density, kg/m3	uncertainty
0	.0114	997.79	.05
0	.018	998.22	.05
0	.0237	998.59	.05
0	.0301	999.01	.05
0	.0403	999.67	.05
0	.0513	1000.38	.05
0	.0614	1001.03	.05
0	.0722	1001.72	.05
0	.0822	1002.35	.05
0	.0947	1003.14	.05
.05	0	999.12	.05
.05	.0072	999.59	.05
.05	.0155	1000.13	.05
.05	.024	1000.68	.05
.05	.0337	1001.3	.05
.05	.0426	1001.87	.05
.05	.0525	1002.5	.05
.05	.0619	1003.1	.05
.05	.0716	1003.71	.05
.05	.0817	1004.35	.05
.05	.0922	1005	.05
.16	0	1003.6	.05
.16	.013	1004.44	.05
.16	.021	1004.95	.05
.16	.0307	1005.56	.05
.16	.0404	1006.17	.05
.16	.0512	1006.84	.05
.16	.062	1007.5	.05
.16	.0721	1008.13	.05
.16	.083	1008.79	.05
.16	.0934	1009.42	.05
.25	0	1007.22	.05
.25	.0067	1007.65	.05
.25	.0152	1008.19	.05
.25	.0225	1008.65	.05
.25	.0304	1009.15	.05
.25	.0412	1009.82	.05
.25	.0523	1010.51	.05
.25	.0613	1011.05	.05
.25	.0706	1011.6	.05
.25	.0779	1012.03	.05
.25	.0855	1012.48	.05

System: 4-morpholineethanesulfonic acid + potassium chloride + water; phases: Liquid
Fixed: Temperature, K = 298.15
Fixed: Pressure, kPa = 101
Property: Mass density, kg/m3 (Liquid); method: Vibrating tube method
Solvent: Molality, mol/kg of potassium chloride	Molality, mol/kg of 4-morpholineethanesulfonic acid	Mass density, kg/m3	uncertainty
.05	0	999.45	.05
.05	.0166	1000.53	.05
.05	.0244	1001.03	.05
.05	.0337	1001.63	.05
.05	.0422	1002.17	.05
.05	.0503	1002.69	.05
.05	.0576	1003.15	.05
.05	.0655	1003.65	.05
.05	.0713	1004.01	.05
.05	.0777	1004.41	.05
.05	.0849	1004.86	.05
.16	0	1004.53	.05
.16	.016	1005.56	.05
.16	.0233	1006.02	.05
.16	.0314	1006.54	.05
.16	.0404	1007.11	.05
.16	.0513	1007.8	.05
.16	.0585	1008.24	.05
.16	.0653	1008.66	.05
.16	.0726	1009.1	.05
.16	.0783	1009.45	.05
.16	.0844	1009.82	.05
.25	0	1008.66	.05
.25	.0196	1009.91	.05
.25	.0252	1010.26	.05
.25	.0314	1010.66	.05
.25	.0403	1011.21	.05
.25	.052	1011.94	.05
.25	.0592	1012.38	.05
.25	.0695	1013.02	.05
.25	.0756	1013.39	.05
.25	.0828	1013.83	.05
.25	.0908	1014.32	.05

System: 4-morpholineethanesulfonic acid + water + potassium bromide; phases: Liquid
Fixed: Temperature, K = 298.15
Fixed: Pressure, kPa = 101
Property: Mass density, kg/m3 (Liquid); method: Vibrating tube method
Solvent: Molality, mol/kg of potassium bromide	Molality, mol/kg of 4-morpholineethanesulfonic acid	Mass density, kg/m3	uncertainty
.05	0	1001.25	.05
.05	.0097	1001.88	.05
.05	.0314	1003.27	.05
.05	.0207	1002.58	.05
.05	.0375	1003.64	.05
.05	.0454	1004.14	.05
.05	.0539	1004.65	.05
.05	.0608	1005.07	.05
.05	.0681	1005.52	.05
.05	.0758	1005.96	.05
.05	.0821	1006.33	.05
.05	.089	1006.74	.05
.16	0	1010.47	.05
.16	.0176	1011.59	.05
.16	.0308	1012.42	.05
.16	.0241	1012	.05
.16	.0392	1012.94	.05
.16	.0488	1013.53	.05
.16	.057	1014.03	.05
.16	.0649	1014.5	.05
.16	.0728	1014.97	.05
.16	.0794	1015.36	.05
.16	.0867	1015.8	.05
.25	0	1017.89	.05
.25	.0173	1018.98	.05
.25	.0377	1020.24	.05
.25	.0305	1019.8	.05
.25	.0443	1020.64	.05
.25	.05	1020.98	.05
.25	.0566	1021.38	.05
.25	.0639	1021.82	.05
.25	.0712	1022.25	.05
.25	.0786	1022.69	.05
.25	.0852	1023.06	.05

System: acetic acid, potassium salt + 4-morpholineethanesulfonic acid + water; phases: Liquid
Fixed: Temperature, K = 298.15
Fixed: Pressure, kPa = 101
Property: Mass density, kg/m3 (Liquid); method: Vibrating tube method
Solvent: Molality, mol/kg of acetic acid, potassium salt	Molality, mol/kg of 4-morpholineethanesulfonic acid	Mass density, kg/m3	uncertainty
.05	0	999.46	.05
.05	.0176	1000.58	.05
.05	.0252	1001.06	.05
.05	.0341	1001.61	.05
.05	.0417	1002.08	.05
.05	.0516	1002.68	.05
.05	.0579	1003.06	.05
.05	.0639	1003.42	.05
.05	.0707	1003.82	.05
.05	.0783	1004.27	.05
.05	.0859	1004.71	.05
.16	0	1004.6	.05
.16	.0102	1005.24	.05
.16	.0174	1005.69	.05
.16	.0252	1006.18	.05
.16	.0343	1006.74	.05
.16	.0422	1007.22	.05
.16	.0491	1007.64	.05
.16	.0567	1008.09	.05
.16	.0658	1008.63	.05
.16	.0746	1009.15	.05
.16	.0956	1010.38	.05
.25	0	1008.74	.05
.25	.0094	1009.32	.05
.25	.0211	1010.03	.05
.25	.0276	1010.43	.05
.25	.0369	1010.99	.05
.25	.0427	1011.33	.05
.25	.0491	1011.71	.05
.25	.0563	1012.13	.05
.25	.0643	1012.58	.05
.25	.074	1013.13	.05
.25	.0817	1013.56	.05
.25	.0893	1013.98	.05

System: 4-morpholinepropanesulfonic acid + sodium chloride + water; phases: Liquid
Fixed: Temperature, K = 298.15
Fixed: Pressure, kPa = 101
Property: Mass density, kg/m3 (Liquid); method: Vibrating tube method
Solvent: Molality, mol/kg of sodium chloride	Molality, mol/kg of 4-morpholinepropanesulfonic acid	Mass density, kg/m3	uncertainty
0	.0077	997.53	.05
0	.0172	998.13	.05
0	.0292	998.88	.05
0	.0386	999.46	.05
0	.0496	1000.14	.05
0	.0556	1000.5	.05
0	.0611	1000.84	.05
0	.0668	1001.19	.05
0	.0736	1001.59	.05
0	.0812	1002.05	.05
0	.0869	1002.39	.05
.05	0	999.12	.05
.05	.0178	1000.24	.05
.05	.0233	1000.58	.05
.05	.0294	1000.96	.05
.05	.0379	1001.48	.05
.05	.0482	1002.11	.05
.05	.055	1002.52	.05
.05	.0606	1002.85	.05
.05	.0659	1003.19	.05
.05	.0721	1003.55	.05
.05	.0787	1003.94	.05
.16	0	1003.6	.05
.16	.0098	1004.21	.05
.16	.0194	1004.8	.05
.16	.0253	1005.16	.05
.16	.0318	1005.56	.05
.16	.0394	1006.02	.05
.16	.0482	1006.54	.05
.16	.057	1007.06	.05
.16	.0668	1007.63	.05
.16	.0731	1007.99	.05
.16	.0797	1008.36	.05
.16	.0857	1008.7	.05
.25	0	1007.22	.05
.25	.0201	1008.46	.05
.25	.0314	1009.14	.05
.25	.0387	1009.58	.05
.25	.0477	1010.11	.05
.25	.0553	1010.56	.05
.25	.0636	1011.04	.05
.25	.0701	1011.42	.05
.25	.0762	1011.77	.05
.25	.0812	1012.06	.05
.25	.0851	1012.28	.05

System: 4-morpholinepropanesulfonic acid + potassium chloride + water; phases: Liquid
Fixed: Temperature, K = 298.15
Fixed: Pressure, kPa = 101
Property: Mass density, kg/m3 (Liquid); method: Vibrating tube method
Solvent: Molality, mol/kg of potassium chloride	Molality, mol/kg of 4-morpholinepropanesulfonic acid	Mass density, kg/m3	uncertainty
.05	0	999.45	.05
.05	.0051	999.77	.05
.05	.0108	1000.13	.05
.05	.013	1000.27	.05
.05	.0198	1000.69	.05
.05	.0248	1001	.05
.05	.0322	1001.45	.05
.05	.0379	1001.8	.05
.05	.0476	1002.38	.05
.05	.0567	1002.94	.05
.05	.0657	1003.47	.05
.05	.0763	1004.1	.05
.16	0	1004.53	.05
.16	.01	1005.15	.05
.16	.0149	1005.46	.05
.16	.0192	1005.72	.05
.16	.0233	1005.96	.05
.16	.0334	1006.58	.05
.16	.0399	1006.97	.05
.16	.0469	1007.39	.05
.16	.0549	1007.86	.05
.16	.0662	1008.51	.05
.16	.0758	1009.07	.05
.25	0	1008.66	.05
.25	.0093	1009.24	.05
.25	.0139	1009.51	.05
.25	.0188	1009.81	.05
.25	.0252	1010.19	.05
.25	.0323	1010.61	.05
.25	.0361	1010.84	.05
.25	.0477	1011.52	.05
.25	.0563	1012	.05
.25	.0658	1012.55	.05
.25	.0736	1012.99	.05

System: 4-morpholinepropanesulfonic acid + water + potassium bromide; phases: Liquid
Fixed: Temperature, K = 298.15
Fixed: Pressure, kPa = 101
Property: Mass density, kg/m3 (Liquid); method: Vibrating tube method
Solvent: Molality, mol/kg of potassium bromide	Molality, mol/kg of 4-morpholinepropanesulfonic acid	Mass density, kg/m3	uncertainty
.05	0	1001.25	.05
.05	.0104	1001.9	.05
.05	.0151	1002.19	.05
.05	.0199	1002.48	.05
.05	.0262	1002.86	.05
.05	.0329	1003.25	.05
.05	.0396	1003.65	.05
.05	.0481	1004.14	.05
.05	.0589	1004.74	.05
.05	.0692	1005.31	.05
.05	.077	1005.72	.05
.16	0	1010.47	.05
.16	.0098	1011.07	.05
.16	.015	1011.39	.05
.16	.0207	1011.72	.05
.16	.0257	1012.01	.05
.16	.0315	1012.36	.05
.16	.0389	1012.78	.05
.16	.0482	1013.31	.05
.16	.0567	1013.77	.05
.16	.0649	1014.23	.05
.16	.0759	1014.8	.05
.25	0	1017.89	.05
.25	.0114	1018.58	.05
.25	.0156	1018.83	.05
.25	.0203	1019.1	.05
.25	.0165	1018.87	.05
.25	.0316	1019.75	.05
.25	.0356	1019.98	.05
.25	.0461	1020.56	.05
.25	.0551	1021.03	.05
.25	.0621	1021.39	.05
.25	.0684	1021.73	.05

System: acetic acid, potassium salt + 4-morpholinepropanesulfonic acid + water; phases: Liquid
Fixed: Temperature, K = 298.15
Fixed: Pressure, kPa = 101
Property: Mass density, kg/m3 (Liquid); method: Vibrating tube method
Solvent: Molality, mol/kg of acetic acid, potassium salt	Molality, mol/kg of 4-morpholinepropanesulfonic acid	Mass density, kg/m3	uncertainty
.05	0	999.46	.05
.05	.0191	1000.65	.05
.05	.026	1001.07	.05
.05	.0344	1001.58	.05
.05	.0449	1002.22	.05
.05	.0555	1002.85	.05
.05	.0684	1003.62	.05
.05	.0764	1004.09	.05
.05	.0844	1004.55	.05
.16	0	1004.6	.05
.16	.0129	1005.39	.05
.16	.0195	1005.79	.05
.16	.0253	1006.14	.05
.16	.0317	1006.52	.05
.16	.0397	1007	.05
.16	.0502	1007.62	.05
.16	.0592	1008.15	.05
.16	.0685	1008.69	.05
.16	.0754	1009.09	.05
.16	.0828	1009.52	.05
.25	0	1008.74	.05
.25	.0174	1009.78	.05
.25	.0228	1010.1	.05
.25	.0284	1010.43	.05
.25	.0341	1010.76	.05
.25	.0414	1011.19	.05
.25	.0497	1011.67	.05
.25	.058	1012.15	.05
.25	.0677	1012.69	.05
.25	.0742	1013.05	.05
.25	.0807	1013.41	.05

System: sodium chloride + water + 3-morpholino-2-hydroxypropanesulfonic acid; phases: Liquid
Fixed: Temperature, K = 298.15
Fixed: Pressure, kPa = 101
Property: Mass density, kg/m3 (Liquid); method: Vibrating tube method
Solvent: Molality, mol/kg of sodium chloride	Molality, mol/kg of 3-morpholino-2-hydroxypropanesulfonic acid	Mass density, kg/m3	uncertainty
0	.0126	998.04	.05
0	.0178	998.45	.05
0	.0228	998.84	.05
0	.027	999.17	.05
0	.036	999.87	.05
0	.045	1000.57	.05
0	.0519	1001.1	.05
0	.063	1001.95	.05
0	.0706	1002.53	.05
0	.0771	1003.03	.05
.05	0	999.12	.05
.05	.0144	1000.25	.05
.05	.0171	1000.46	.05
.05	.0222	1000.85	.05
.05	.029	1001.37	.05
.05	.0372	1001.99	.05
.05	.0461	1002.66	.05
.05	.0531	1003.18	.05
.05	.0616	1003.81	.05
.05	.0707	1004.48	.05
.05	.0787	1005.07	.05
.16	0	1003.6	.05
.16	.0109	1004.45	.05
.16	.0174	1004.95	.05
.16	.0227	1005.35	.05
.16	.0289	1005.82	.05
.16	.0349	1006.27	.05
.16	.043	1006.88	.05
.16	.053	1007.62	.05
.16	.0619	1008.28	.05
.16	.07	1008.86	.05
.16	.0798	1009.56	.05
.25	0	1007.22	.05
.25	.0119	1008.14	.05
.25	.0181	1008.61	.05
.25	.0249	1009.12	.05
.25	.0288	1009.4	.05
.25	.0363	1009.95	.05
.25	.0432	1010.44	.05
.25	.0524	1011.1	.05
.25	.061	1011.7	.05
.25	.0701	1012.33	.05
.25	.0819	1013.12	.05

System: potassium chloride + water + 3-morpholino-2-hydroxypropanesulfonic acid; phases: Liquid
Fixed: Temperature, K = 298.15
Fixed: Pressure, kPa = 101
Property: Mass density, kg/m3 (Liquid); method: Vibrating tube method
Solvent: Molality, mol/kg of potassium chloride	Molality, mol/kg of 3-morpholino-2-hydroxypropanesulfonic acid	Mass density, kg/m3	uncertainty
.05	0	999.45	.05
.05	.0101	1000.24	.05
.05	.0135	1000.5	.05
.05	.0182	1000.86	.05
.05	.0255	1001.43	.05
.05	.0296	1001.74	.05
.05	.0341	1002.08	.05
.05	.0434	1002.77	.05
.05	.0506	1003.3	.05
.05	.0606	1004.03	.05
.05	.0696	1004.68	.05
.05	.0808	1005.48	.05
.16	0	1004.53	.05
.16	.0119	1005.45	.05
.16	.017	1005.84	.05
.16	.0206	1006.12	.05
.16	.0241	1006.38	.05
.16	.0306	1006.86	.05
.16	.036	1007.27	.05
.16	.0456	1007.98	.05
.16	.0552	1008.67	.05
.16	.0657	1009.42	.05
.16	.0717	1009.84	.05
.16	.0785	1010.31	.05
.25	0	1008.66	.05
.25	.0097	1009.41	.05
.25	.0134	1009.69	.05
.25	.0197	1010.17	.05
.25	.023	1010.41	.05
.25	.0299	1010.93	.05
.25	.0349	1011.29	.05
.25	.0426	1011.84	.05
.25	.0517	1012.48	.05
.25	.0609	1013.13	.05
.25	.0705	1013.79	.05
.25	.0784	1014.32	.05

System: water + potassium bromide + 3-morpholino-2-hydroxypropanesulfonic acid; phases: Liquid
Fixed: Temperature, K = 298.15
Fixed: Pressure, kPa = 101
Property: Mass density, kg/m3 (Liquid); method: Vibrating tube method
Solvent: Molality, mol/kg of potassium bromide	Molality, mol/kg of 3-morpholino-2-hydroxypropanesulfonic acid	Mass density, kg/m3	uncertainty
.05	0	1001.25	.05
.05	.0123	1002.2	.05
.05	.018	1002.64	.05
.05	.0228	1003.01	.05
.05	.0304	1003.58	.05
.05	.0366	1004.04	.05
.05	.0451	1004.66	.05
.05	.0532	1005.21	.05
.05	.0619	1005.82	.05
.05	.0726	1006.59	.05
.05	.0777	1006.95	.05
.16	0	1010.47	.05
.16	.0139	1011.54	.05
.16	.02	1011.99	.05
.16	.0232	1012.22	.05
.16	.0286	1012.62	.05
.16	.0342	1013.04	.05
.16	.044	1013.74	.05
.16	.0547	1014.5	.05
.16	.063	1015.04	.05
.16	.0698	1015.5	.05
.16	.0777	1016.04	.05
.25	0	1017.89	.05
.25	.0111	1018.73	.05
.25	.0176	1019.22	.05
.25	.0237	1019.67	.05
.25	.0277	1019.96	.05
.25	.0368	1020.61	.05
.25	.0407	1020.89	.05
.25	.0513	1021.62	.05
.25	.0594	1022.16	.05
.25	.0687	1022.77	.05
.25	.0774	1023.33	.05

System: acetic acid, potassium salt + water + 3-morpholino-2-hydroxypropanesulfonic acid; phases: Liquid
Fixed: Temperature, K = 298.15
Fixed: Pressure, kPa = 101
Property: Mass density, kg/m3 (Liquid); method: Vibrating tube method
Solvent: Molality, mol/kg of acetic acid, potassium salt	Molality, mol/kg of 3-morpholino-2-hydroxypropanesulfonic acid	Mass density, kg/m3	uncertainty
.05	0	999.46	.05
.05	.0182	1000.86	.05
.05	.0261	1001.45	.05
.05	.0313	1001.84	.05
.05	.0377	1002.33	.05
.05	.0447	1002.83	.05
.05	.0504	1003.25	.05
.05	.0561	1003.64	.05
.05	.0624	1004.1	.05
.05	.0689	1004.56	.05
.05	.0754	1005	.05
.05	.0822	1005.49	.05
.16	0	1004.6	.05
.16	.0163	1005.84	.05
.16	.0224	1006.29	.05
.16	.0283	1006.72	.05
.16	.0351	1007.23	.05
.16	.0432	1007.81	.05
.16	.0491	1008.22	.05
.16	.0553	1008.66	.05
.16	.0618	1009.11	.05
.16	.0678	1009.53	.05
.16	.0743	1009.99	.05
.16	.0804	1010.41	.05
.25	0	1008.74	.05
.25	.0174	1010.04	.05
.25	.0229	1010.44	.05
.25	.0291	1010.89	.05
.25	.0343	1011.27	.05
.25	.0402	1011.69	.05
.25	.0462	1012.12	.05
.25	.0531	1012.6	.05
.25	.0618	1013.19	.05
.25	.0689	1013.67	.05
.25	.0746	1014.06	.05
.25	.0812	1014.49	.05

System: sodium chloride + water + 4-(N-morpholino)butanesulfonic acid; phases: Liquid
Fixed: Temperature, K = 298.15
Fixed: Pressure, kPa = 101
Property: Mass density, kg/m3 (Liquid); method: Vibrating tube method
Solvent: Molality, mol/kg of sodium chloride	Molality, mol/kg of 4-(N-morpholino)butanesulfonic acid	Mass density, kg/m3	uncertainty
0	.0134	997.89	.05
0	.0201	998.3	.05
0	.0282	998.8	.05
0	.0365	999.31	.05
0	.0456	999.87	.05
0	.054	1000.38	.05
0	.0636	1000.96	.05
0	.0702	1001.35	.05
0	.0768	1001.74	.05
0	.0827	1002.09	.05
.05	0	999.12	.05
.05	.0134	999.96	.05
.05	.0198	1000.36	.05
.05	.0273	1000.82	.05
.05	.0359	1001.35	.05
.05	.046	1001.97	.05
.05	.0538	1002.44	.05
.05	.0638	1003.05	.05
.05	.0689	1003.36	.05
.05	.0749	1003.72	.05
.05	.08	1004.02	.05
.16	0	1003.6	.05
.16	.0063	1003.99	.05
.16	.0154	1004.55	.05
.16	.0272	1005.28	.05
.16	.0321	1005.58	.05
.16	.0388	1005.99	.05
.16	.0452	1006.37	.05
.16	.0509	1006.72	.05
.16	.0569	1007.07	.05
.16	.0647	1007.54	.05
.16	.07	1007.86	.05
.16	.0762	1008.22	.05
.16	.0827	1008.6	.05
.25	0	1007.22	.05
.25	.0211	1008.51	.05
.25	.0274	1008.89	.05
.25	.0345	1009.32	.05
.25	.0437	1009.86	.05
.25	.049	1010.17	.05
.25	.0545	1010.49	.05
.25	.0604	1010.84	.05
.25	.0657	1011.15	.05
.25	.0714	1011.47	.05
.25	.0762	1011.75	.05

System: potassium chloride + water + 4-(N-morpholino)butanesulfonic acid; phases: Liquid
Fixed: Temperature, K = 298.15
Fixed: Pressure, kPa = 101
Property: Mass density, kg/m3 (Liquid); method: Vibrating tube method
Solvent: Molality, mol/kg of potassium chloride	Molality, mol/kg of 4-(N-morpholino)butanesulfonic acid	Mass density, kg/m3	uncertainty
.05	0	999.45	.05
.05	.0174	1000.53	.05
.05	.0277	1001.15	.05
.05	.0333	1001.49	.05
.05	.0397	1001.87	.05
.05	.0455	1002.22	.05
.05	.0509	1002.53	.05
.05	.0571	1002.89	.05
.05	.0633	1003.24	.05
.05	.0686	1003.54	.05
.05	.0748	1003.9	.05
.05	.0811	1004.24	.05
.16	0	1004.53	.05
.16	.0139	1005.39	.05
.16	.0266	1006.14	.05
.16	.0334	1006.55	.05
.16	.041	1006.99	.05
.16	.0474	1007.38	.05
.16	.0523	1007.64	.05
.16	.0583	1007.98	.05
.16	.0637	1008.29	.05
.16	.0696	1008.62	.05
.16	.0749	1008.91	.05
.16	.0812	1009.25	.05
.25	0	1008.66	.05
.25	.0142	1009.52	.05
.25	.0208	1009.92	.05
.25	.0276	1010.32	.05
.25	.0357	1010.8	.05
.25	.0438	1011.27	.05
.25	.05	1011.63	.05
.25	.0563	1011.98	.05
.25	.0642	1012.4	.05
.25	.0694	1012.7	.05
.25	.0759	1013.05	.05
.25	.0823	1013.4	.05

System: water + potassium bromide + 4-(N-morpholino)butanesulfonic acid; phases: Liquid
Fixed: Temperature, K = 298.15
Fixed: Pressure, kPa = 101
Property: Mass density, kg/m3 (Liquid); method: Vibrating tube method
Solvent: Molality, mol/kg of potassium bromide	Molality, mol/kg of 4-(N-morpholino)butanesulfonic acid	Mass density, kg/m3	uncertainty
.05	0	1001.25	.05
.05	.011	1001.93	.05
.05	.0165	1002.27	.05
.05	.0221	1002.6	.05
.05	.0283	1002.98	.05
.05	.0339	1003.32	.05
.05	.041	1003.73	.05
.05	.0489	1004.2	.05
.05	.0573	1004.67	.05
.05	.0651	1005.11	.05
.05	.0737	1005.56	.05
.05	.0824	1006.03	.05
.16	0	1010.47	.05
.16	.0126	1011.24	.05
.16	.0195	1011.65	.05
.16	.0242	1011.93	.05
.16	.0314	1012.35	.05
.16	.0415	1012.94	.05
.16	.0478	1013.3	.05
.16	.055	1013.71	.05
.16	.0615	1014.08	.05
.16	.0674	1014.42	.05
.16	.0738	1014.76	.05
.16	.0793	1015.05	.05
.25	0	1017.89	.05
.25	.0143	1018.75	.05
.25	.0202	1019.09	.05
.25	.0273	1019.51	.05
.25	.0331	1019.83	.05
.25	.039	1020.16	.05
.25	.0463	1020.58	.05
.25	.0533	1020.96	.05
.25	.0622	1021.46	.05
.25	.0686	1021.81	.05
.25	.0743	1022.11	.05
.25	.0803	1022.43	.05

System: acetic acid, potassium salt + water + 4-(N-morpholino)butanesulfonic acid; phases: Liquid
Fixed: Temperature, K = 298.15
Fixed: Pressure, kPa = 101
Property: Mass density, kg/m3 (Liquid); method: Vibrating tube method
Solvent: Molality, mol/kg of acetic acid, potassium salt	Molality, mol/kg of 4-(N-morpholino)butanesulfonic acid	Mass density, kg/m3	uncertainty
.05	0	999.46	.05
.05	.0214	1000.79	.05
.05	.0287	1001.23	.05
.05	.0368	1001.72	.05
.05	.0454	1002.24	.05
.05	.0511	1002.58	.05
.05	.0569	1002.92	.05
.05	.0629	1003.28	.05
.05	.0694	1003.66	.05
.05	.0764	1004.07	.05
.05	.0845	1004.55	.05
.16	0	1004.6	.05
.16	.0216	1005.91	.05
.16	.0287	1006.33	.05
.16	.0364	1006.78	.05
.16	.0463	1007.36	.05
.16	.052	1007.69	.05
.16	.0588	1008.07	.05
.16	.0649	1008.42	.05
.16	.0719	1008.81	.05
.16	.0782	1009.16	.05
.16	.0854	1009.56	.05
.25	0	1008.74	.05
.25	.0226	1010.09	.05
.25	.0297	1010.5	.05
.25	.0352	1010.82	.05
.25	.0414	1011.17	.05
.25	.0479	1011.53	.05
.25	.0538	1011.87	.05
.25	.06	1012.21	.05
.25	.0673	1012.62	.05
.25	.0748	1013.03	.05
.25	.0835	1013.51	.05

System: 4-morpholineethanesulfonic acid + water; phases: Liquid
Property: Mass density, kg/m3 (Liquid); method: Vibrating tube method
Molality, mol/kg of 4-morpholineethanesulfonic acid	Temperature, K	Pressure, kPa	Mass density, kg/m3	uncertainty
.0114	298.15	101	997.79	.05
.018	298.15	101	998.22	.05
.0237	298.15	101	998.59	.05
.0301	298.15	101	999.01	.05
.0403	298.15	101	999.67	.05
.0513	298.15	101	1000.38	.05
.0614	298.15	101	1001.03	.05
.0722	298.15	101	1001.72	.05
.0822	298.15	101	1002.35	.05
.0947	298.15	101	1003.14	.05

System: sodium chloride + water; phases: Liquid
Property: Mass density, kg/m3 (Liquid); method: Vibrating tube method
Molality, mol/kg of sodium chloride	Temperature, K	Pressure, kPa	Mass density, kg/m3	uncertainty
.05	298.15	101	999.12	.05
.16	298.15	101	1003.6	.05
.25	298.15	101	1007.22	.05

System: potassium chloride + water; phases: Liquid
Property: Mass density, kg/m3 (Liquid); method: Vibrating tube method
Molality, mol/kg of potassium chloride	Temperature, K	Pressure, kPa	Mass density, kg/m3	uncertainty
.05	298.15	101	999.45	.05
.16	298.15	101	1004.53	.05
.25	298.15	101	1008.66	.05

System: water + potassium bromide; phases: Liquid
Property: Mass density, kg/m3 (Liquid); method: Vibrating tube method
Molality, mol/kg of potassium bromide	Temperature, K	Pressure, kPa	Mass density, kg/m3	uncertainty
.05	298.15	101	1001.25	.05
.16	298.15	101	1010.47	.05
.25	298.15	101	1017.89	.05

System: acetic acid, potassium salt + water; phases: Liquid
Property: Mass density, kg/m3 (Liquid); method: Vibrating tube method
Molality, mol/kg of acetic acid, potassium salt	Temperature, K	Pressure, kPa	Mass density, kg/m3	uncertainty
.05	298.15	101	999.46	.05
.16	298.15	101	1004.6	.05
.25	298.15	101	1008.74	.05

System: 4-morpholinepropanesulfonic acid + water; phases: Liquid
Property: Mass density, kg/m3 (Liquid); method: Vibrating tube method
Molality, mol/kg of 4-morpholinepropanesulfonic acid	Temperature, K	Pressure, kPa	Mass density, kg/m3	uncertainty
.0077	298.15	101	997.53	.05
.0172	298.15	101	998.13	.05
.0292	298.15	101	998.88	.05
.0386	298.15	101	999.46	.05
.0496	298.15	101	1000.14	.05
.0556	298.15	101	1000.5	.05
.0611	298.15	101	1000.84	.05
.0668	298.15	101	1001.19	.05
.0736	298.15	101	1001.59	.05
.0812	298.15	101	1002.05	.05
.0869	298.15	101	1002.39	.05

System: water + 3-morpholino-2-hydroxypropanesulfonic acid; phases: Liquid
Property: Mass density, kg/m3 (Liquid); method: Vibrating tube method
Molality, mol/kg of 3-morpholino-2-hydroxypropanesulfonic acid	Temperature, K	Pressure, kPa	Mass density, kg/m3	uncertainty
.0126	298.15	101	998.04	.05
.0178	298.15	101	998.45	.05
.0228	298.15	101	998.84	.05
.027	298.15	101	999.17	.05
.036	298.15	101	999.87	.05
.045	298.15	101	1000.57	.05
.0519	298.15	101	1001.1	.05
.063	298.15	101	1001.95	.05
.0706	298.15	101	1002.53	.05
.0771	298.15	101	1003.03	.05

System: water + 4-(N-morpholino)butanesulfonic acid; phases: Liquid
Property: Mass density, kg/m3 (Liquid); method: Vibrating tube method
Molality, mol/kg of 4-(N-morpholino)butanesulfonic acid	Temperature, K	Pressure, kPa	Mass density, kg/m3	uncertainty
.0134	298.15	101	997.89	.05
.0201	298.15	101	998.3	.05
.0282	298.15	101	998.8	.05
.0365	298.15	101	999.31	.05
.0456	298.15	101	999.87	.05
.054	298.15	101	1000.38	.05
.0636	298.15	101	1000.96	.05
.0702	298.15	101	1001.35	.05
.0768	298.15	101	1001.74	.05
.0827	298.15	101	1002.09	.05
