Measured thermophysical data. Enthalpies of DL-a-alanyl-DL-a-asparagine solution in aqueous alcohols at 298.15 K
Source: Thermochim. Acta, 2011, 10.1016/j.tca.2010.08.022
Compound 1: DL-alpha-alanyl-DL-alpha-asparagine, C
Compound 2: methanol, CH4O
Compound 3: ethanol, C2H6O
Compound 4: propan-1-ol, C3H8O
Compound 5: 2-propanol, C3H8O
Compound 6: water, H2O

System: DL-alpha-alanyl-DL-alpha-asparagine + water; phases: Liquid
Fixed: Pressure, kPa = 101
Fixed: Temperature, K = 298.15
Property: Molar enthalpy of solution, kJ/mol (Liquid); method: Isoperibol calorimetry
Mole fraction of DL-alpha-alanyl-DL-alpha-asparagine	Molar enthalpy of solution, kJ/mol	uncertainty
0	16.55	.02

System: methanol + DL-alpha-alanyl-DL-alpha-asparagine + water; phases: Liquid
Fixed: Pressure, kPa = 101
Fixed: Temperature, K = 298.15
Fixed: Mole fraction of DL-alpha-alanyl-DL-alpha-asparagine = 0
Property: Molar enthalpy of solution, kJ/mol (Liquid); method: Isoperibol calorimetry
Solvent: Molality, mol/kg of methanol	Molar enthalpy of solution, kJ/mol	uncertainty
.712	16.84	.02
1.357	17.92	.02
2.034	19.19	.02
2.837	20.65	.02
4.117	21.91	.03
5.529	22.96	.03
7.371	23.68	.03
10.302	24.59	.02
10.882	24.96	.02
16.067	25.17	.02
24.303	25.57	.03
35.716	25.95	.03

System: ethanol + DL-alpha-alanyl-DL-alpha-asparagine + water; phases: Liquid
Fixed: Pressure, kPa = 101
Fixed: Temperature, K = 298.15
Fixed: Mole fraction of DL-alpha-alanyl-DL-alpha-asparagine = 0
Property: Molar enthalpy of solution, kJ/mol (Liquid); method: Isoperibol calorimetry
Solvent: Molality, mol/kg of ethanol	Molar enthalpy of solution, kJ/mol	uncertainty
.721	17.17	.02
1.452	18.58	.02
2.368	20.06	.02
3.437	20.89	.02
4.512	22.13	.03
5.435	23.12	.02
7.616	24.37	.02
9.011	25.46	.03
12.268	26.84	.03
17.247	27.63	.02
24.089	28.27	.03
34.344	28.45	.03

System: propan-1-ol + DL-alpha-alanyl-DL-alpha-asparagine + water; phases: Liquid
Fixed: Pressure, kPa = 101
Fixed: Temperature, K = 298.15
Fixed: Mole fraction of DL-alpha-alanyl-DL-alpha-asparagine = 0
Property: Molar enthalpy of solution, kJ/mol (Liquid); method: Isoperibol calorimetry
Solvent: Molality, mol/kg of propan-1-ol	Molar enthalpy of solution, kJ/mol	uncertainty
.733	17.08	.02
1.215	18.67	.02
1.982	20.25	.03
2.726	21.42	.02
3.375	22.11	.03
4.028	22.69	.02
4.815	23.14	.02
6.021	23.76	.03
8.878	24.39	.02
13.417	23.82	.03
18.749	22.77	.03
26.796	21.64	.03

System: 2-propanol + DL-alpha-alanyl-DL-alpha-asparagine + water; phases: Liquid
Fixed: Pressure, kPa = 101
Fixed: Temperature, K = 298.15
Fixed: Mole fraction of DL-alpha-alanyl-DL-alpha-asparagine = 0
Property: Molar enthalpy of solution, kJ/mol (Liquid); method: Isoperibol calorimetry
Solvent: Molality, mol/kg of 2-propanol	Molar enthalpy of solution, kJ/mol	uncertainty
.715	17.17	.02
1.181	18.92	.02
1.742	20.45	.02
2.581	21.49	.02
3.356	22.65	.03
4.285	23.43	.03
5.387	24.21	.02
6.417	25.16	.02
9.149	26.51	.02
12.838	26.24	.03
17.966	24.24	.03
25.659	18.29	.03
