Measured thermophysical data. Thermal stability and specific heats of {[emim][DCA] + [emim][TCM]} mixed ionic liquids
Source: Thermochim. Acta, 2014, 10.1016/j.tca.2014.04.026
Compound 1: 1-ethyl-3-methylimidazolium dicyanamide, C8H11N5, purity 98%
Compound 2: 1-ethyl-4-methylpyridinium bis((trifluoromethyl)sulfonyl)amide, C10H12F6N2O4S2, purity 98%

System: 1-ethyl-3-methylimidazolium dicyanamide; phases: Liquid
Property: Molar heat capacity at constant pressure, J/K/mol (Liquid); method: Small sample (50 mg) DSC
Temperature, K	Pressure, kPa	Molar heat capacity at constant pressure, J/K/mol	uncertainty
296.2	101	324	
300.2	101	326	
304.2	101	328	
308.2	101	330	
312.2	101	332	
316.2	101	334	
320.2	101	336	
324.2	101	338	
328.2	101	340	
332.2	101	343	
336.2	101	346	
340.2	101	348	
344.2	101	351	
348.2	101	355	
352.2	101	358	
356.2	101	361	
360.2	101	365	
364.2	101	369	
368.2	101	372	
372.2	101	377	

System: 1-ethyl-4-methylpyridinium bis((trifluoromethyl)sulfonyl)amide; phases: Liquid
Property: Molar heat capacity at constant pressure, J/K/mol (Liquid); method: Small sample (50 mg) DSC
Temperature, K	Pressure, kPa	Molar heat capacity at constant pressure, J/K/mol	uncertainty
296.2	101	357	
300.2	101	360	
304.2	101	362	
308.2	101	364	
312.2	101	366	
316.2	101	367	
320.2	101	369	
324.2	101	370	
328.2	101	372	
332.2	101	374	
336.2	101	377	
340.2	101	379	
344.2	101	382	
348.2	101	384	
352.2	101	387	
356.2	101	390	
360.2	101	393	
364.2	101	396	
368.2	101	399	
372.2	101	403	

System: 1-ethyl-3-methylimidazolium dicyanamide + 1-ethyl-4-methylpyridinium bis((trifluoromethyl)sulfonyl)amide; phases: Liquid
Fixed: Pressure, kPa = 101
Property: Molar heat capacity at constant pressure, J/K/mol (Liquid); method: Small sample (50 mg) DSC
Temperature, K	Mass fraction of 1-ethyl-3-methylimidazolium dicyanamide	Molar heat capacity at constant pressure, J/K/mol	uncertainty
296.2	0	357	
300.2	0	360	
304.2	0	362	
308.2	0	364	
312.2	0	366	
316.2	0	367	
320.2	0	369	
324.2	0	370	
328.2	0	372	
332.2	0	374	
336.2	0	377	
340.2	0	379	
344.2	0	382	
348.2	0	384	
352.2	0	387	
356.2	0	390	
360.2	0	393	
364.2	0	396	
368.2	0	399	
372.2	0	403	
296.2	.25	354	
300.2	.25	355	
304.2	.25	356	
308.2	.25	357	
312.2	.25	358	
316.2	.25	359	
320.2	.25	360	
324.2	.25	361	
328.2	.25	363	
332.2	.25	365	
336.2	.25	367	
340.2	.25	370	
344.2	.25	372	
348.2	.25	374	
352.2	.25	377	
356.2	.25	381	
360.2	.25	383	
364.2	.25	385	
368.2	.25	388	
372.2	.25	391	
296.2	.5	344	
300.2	.5	346	
304.2	.5	347	
308.2	.5	348	
312.2	.5	350	
316.2	.5	352	
320.2	.5	352	
324.2	.5	354	
328.2	.5	356	
332.2	.5	358	
336.2	.5	360	
340.2	.5	362	
344.2	.5	365	
348.2	.5	367	
352.2	.5	370	
356.2	.5	373	
360.2	.5	376	
364.2	.5	380	
368.2	.5	383	
372.2	.5	387	
296.2	.75	335	
300.2	.75	338	
304.2	.75	339	
308.2	.75	340	
312.2	.75	342	
316.2	.75	343	
320.2	.75	344	
324.2	.75	345	
328.2	.75	347	
332.2	.75	349	
336.2	.75	352	
340.2	.75	354	
344.2	.75	356	
348.2	.75	359	
352.2	.75	362	
356.2	.75	365	
360.2	.75	368	
364.2	.75	371	
368.2	.75	374	
372.2	.75	378	
296.2	1	324	
300.2	1	326	
304.2	1	328	
308.2	1	330	
312.2	1	332	
316.2	1	334	
320.2	1	336	
324.2	1	338	
328.2	1	340	
332.2	1	343	
336.2	1	346	
340.2	1	348	
344.2	1	351	
348.2	1	355	
352.2	1	358	
356.2	1	361	
360.2	1	365	
364.2	1	369	
368.2	1	372	
372.2	1	377	
