Measured thermophysical data. On the solid-liquid phase diagrams of binary mixtures of even saturated fatty alcohols: systems exhibiting peritectic reaction
Source: Thermochim. Acta, 2014, 10.1016/j.tca.2014.05.022
Compound 1: 1-octanol, C8H18O, purity 99.5%
Compound 2: 1-decanol, C10H22O, purity 99.4%
Compound 3: 1-dodecanol, C12H26O, purity 99.8%
Compound 4: 1-tetradecanol, C14H30O, purity 98.4%
Compound 5: 1-hexadecanol, C16H34O, purity 99.9%
Compound 6: 1-octadecanol, C18H38O, purity 99.6%

System: 1-octanol; phases: Crystal 2, Crystal 1, Air at 1 atmosphere
Property: Triple point temperature, K (Crystal 2); method: DSC/DTA
Triple point temperature, K	uncertainty
255	

System: 1-octanol; phases: Crystal 2, Crystal 1, Air at 1 atmosphere
Property: Triple point temperature, K (Crystal 2); method: DSC/DTA
Triple point temperature, K	uncertainty
256	.4

System: 1-octanol; phases: Crystal 1, Liquid, Air at 1 atmosphere
Property: Triple point temperature, K (Crystal 1); method: DSC/DTA
Triple point temperature, K	uncertainty
258.7	.4

System: 1-octanol; phases: Crystal 1, Liquid, Air at 1 atmosphere
Property: Triple point temperature, K (Crystal 1); method: DSC/DTA
Triple point temperature, K	uncertainty
258.3	.4

System: 1-octanol; phases: Crystal, Liquid, Air at 1 atmosphere
Property: Normal melting temperature, K (Crystal); method: DSC/DTA
Normal melting temperature, K	uncertainty
258.7	

System: 1-decanol; phases: Crystal 3, Crystal 2, Air at 1 atmosphere
Property: Triple point temperature, K (Crystal 3); method: DSC/DTA
Triple point temperature, K	uncertainty
276.2	.4

System: 1-decanol; phases: Crystal 2, Crystal 1, Air at 1 atmosphere
Property: Triple point temperature, K (Crystal 2); method: DSC/DTA
Triple point temperature, K	uncertainty
280.2	.4

System: 1-decanol; phases: Crystal 3, Crystal 2, Air at 1 atmosphere
Property: Triple point temperature, K (Crystal 3); method: DSC/DTA
Triple point temperature, K	uncertainty
277.5	.4

System: 1-decanol; phases: Crystal 2, Crystal 1, Air at 1 atmosphere
Property: Triple point temperature, K (Crystal 2); method: DSC/DTA
Triple point temperature, K	uncertainty
279.9	.4

System: 1-decanol; phases: Crystal 1, Liquid, Air at 1 atmosphere
Property: Triple point temperature, K (Crystal 1); method: DSC/DTA
Triple point temperature, K	uncertainty
280.6	.4

System: 1-decanol; phases: Crystal 1, Liquid, Air at 1 atmosphere
Property: Triple point temperature, K (Crystal 1); method: DSC/DTA
Triple point temperature, K	uncertainty
280.8	.4

System: 1-decanol; phases: Crystal, Liquid, Air at 1 atmosphere
Property: Normal melting temperature, K (Crystal); method: DSC/DTA
Normal melting temperature, K	uncertainty
280.6	

System: 1-dodecanol; phases: Crystal 2, Crystal 1, Air at 1 atmosphere
Property: Triple point temperature, K (Crystal 2); method: DSC/DTA
Triple point temperature, K	uncertainty
296.4	.4

System: 1-dodecanol; phases: Crystal 2, Crystal 1, Air at 1 atmosphere
Property: Triple point temperature, K (Crystal 2); method: DSC/DTA
Triple point temperature, K	uncertainty
296.4	.4

System: 1-dodecanol; phases: Crystal 1, Liquid, Air at 1 atmosphere
Property: Triple point temperature, K (Crystal 1); method: DSC/DTA
Triple point temperature, K	uncertainty
297.8	.4

System: 1-dodecanol; phases: Crystal 1, Liquid, Air at 1 atmosphere
Property: Triple point temperature, K (Crystal 1); method: DSC/DTA
Triple point temperature, K	uncertainty
297.4	.4

System: 1-dodecanol; phases: Crystal, Liquid, Air at 1 atmosphere
Property: Normal melting temperature, K (Crystal); method: DSC/DTA
Normal melting temperature, K	uncertainty
297.8	

System: 1-dodecanol; phases: Crystal, Liquid, Air at 1 atmosphere
Property: Normal melting temperature, K (Crystal); method: DSC/DTA
Normal melting temperature, K	uncertainty
297.4	

System: 1-tetradecanol; phases: Crystal 2, Crystal 1, Air at 1 atmosphere
Property: Triple point temperature, K (Crystal 2); method: DSC/DTA
Triple point temperature, K	uncertainty
310.2	.4

System: 1-tetradecanol; phases: Crystal 2, Crystal 1, Air at 1 atmosphere
Property: Triple point temperature, K (Crystal 2); method: DSC/DTA
Triple point temperature, K	uncertainty
310.4	.4

System: 1-tetradecanol; phases: Crystal 1, Liquid, Air at 1 atmosphere
Property: Triple point temperature, K (Crystal 1); method: DSC/DTA
Triple point temperature, K	uncertainty
311.2	.4

System: 1-tetradecanol; phases: Crystal 1, Liquid, Air at 1 atmosphere
Property: Triple point temperature, K (Crystal 1); method: DSC/DTA
Triple point temperature, K	uncertainty
311.4	.4

System: 1-tetradecanol; phases: Crystal, Liquid, Air at 1 atmosphere
Property: Normal melting temperature, K (Crystal); method: DSC/DTA
Normal melting temperature, K	uncertainty
311.4	

System: 1-hexadecanol; phases: Crystal 2, Crystal 1, Air at 1 atmosphere
Property: Triple point temperature, K (Crystal 2); method: DSC/DTA
Triple point temperature, K	uncertainty
322.3	.4

System: 1-hexadecanol; phases: Crystal 2, Crystal 1, Air at 1 atmosphere
Property: Triple point temperature, K (Crystal 2); method: DSC/DTA
Triple point temperature, K	uncertainty
322.2	.4

System: 1-hexadecanol; phases: Crystal 1, Liquid, Air at 1 atmosphere
Property: Triple point temperature, K (Crystal 1); method: DSC/DTA
Triple point temperature, K	uncertainty
323.3	.4

System: 1-hexadecanol; phases: Crystal 1, Liquid, Air at 1 atmosphere
Property: Triple point temperature, K (Crystal 1); method: DSC/DTA
Triple point temperature, K	uncertainty
323	.4

System: 1-hexadecanol; phases: Crystal, Liquid, Air at 1 atmosphere
Property: Normal melting temperature, K (Crystal); method: DSC/DTA
Normal melting temperature, K	uncertainty
323	

System: 1-octadecanol; phases: Crystal 2, Crystal 1, Air at 1 atmosphere
Property: Triple point temperature, K (Crystal 2); method: DSC/DTA
Triple point temperature, K	uncertainty
331	.4

System: 1-octadecanol; phases: Crystal 2, Crystal 1, Air at 1 atmosphere
Property: Triple point temperature, K (Crystal 2); method: DSC/DTA
Triple point temperature, K	uncertainty
330.6	.4

System: 1-octadecanol; phases: Crystal 1, Liquid, Air at 1 atmosphere
Property: Triple point temperature, K (Crystal 1); method: DSC/DTA
Triple point temperature, K	uncertainty
331.6	.4

System: 1-octadecanol; phases: Crystal 1, Liquid, Air at 1 atmosphere
Property: Triple point temperature, K (Crystal 1); method: DSC/DTA
Triple point temperature, K	uncertainty
331.6	.4

System: 1-octadecanol; phases: Crystal, Liquid, Air at 1 atmosphere
Property: Normal melting temperature, K (Crystal); method: DSC/DTA
Normal melting temperature, K	uncertainty
331.6	

System: 1-octanol + 1-decanol; phases: Crystal, Crystal of intercomponent compound 1, Air at 1 atmosphere, Liquid
Fixed: Pressure, kPa = 101.325
Property: Eutectic temperature, K (Crystal); method: DSC/DTA
Eutectic temperature, K	uncertainty
249.32	

System: 1-octanol + 1-decanol; phases: Liquid, Crystal
Fixed: Pressure, kPa = 101
Property: Solid-liquid equilibrium temperature, K (Liquid); method: DSC/DTA
Mole fraction of 1-octanol	Solid-liquid equilibrium temperature, K	uncertainty
0	280.6	
.1012	277.5	
.2084	275	
.3084	272.8	
.4018	269.2	
.5036	265	
.5994	259.4	
.6613	254.7	

System: 1-octanol + 1-decanol; phases: Liquid, Crystal of intercomponent compound 1
Fixed: Pressure, kPa = 101
Property: Solid-liquid equilibrium temperature, K (Liquid); method: DSC/DTA
Mole fraction of 1-octanol	Solid-liquid equilibrium temperature, K	uncertainty
.6613	254.7	
.745	252.4	
.7962	249.2	

System: 1-octanol + 1-decanol; phases: Liquid, Crystal
Fixed: Pressure, kPa = 101
Property: Solid-liquid equilibrium temperature, K (Liquid); method: DSC/DTA
Mole fraction of 1-octanol	Solid-liquid equilibrium temperature, K	uncertainty
.8964	251.6	
.9313	253.5	
.9693	255.6	
1	258.7	

System: 1-decanol + 1-dodecanol; phases: Crystal of intercomponent compound 1, Crystal of intercomponent compound 2, Air at 1 atmosphere, Liquid
Fixed: Pressure, kPa = 101.325
Property: Eutectic temperature, K (Crystal of intercomponent compound 1); method: DSC/DTA
Eutectic temperature, K	uncertainty
272.8	

System: 1-decanol + 1-dodecanol; phases: Liquid, Crystal
Fixed: Pressure, kPa = 101
Property: Solid-liquid equilibrium temperature, K (Liquid); method: DSC/DTA
Mole fraction of 1-decanol	Solid-liquid equilibrium temperature, K	uncertainty
0	297.8	
.1042	295.6	
.2108	292.9	
.3025	290.6	
.405	288.1	
.4977	282.7	

System: 1-decanol + 1-dodecanol; phases: Liquid, Crystal of intercomponent compound 1
Fixed: Pressure, kPa = 101
Property: Solid-liquid equilibrium temperature, K (Liquid); method: DSC/DTA
Mole fraction of 1-decanol	Solid-liquid equilibrium temperature, K	uncertainty
.5991	276.4	
.6486	275	
.6981	274.6	
.7501	272.9	

System: 1-decanol + 1-dodecanol; phases: Liquid, Crystal of intercomponent compound 2
Fixed: Pressure, kPa = 101
Property: Solid-liquid equilibrium temperature, K (Liquid); method: DSC/DTA
Mole fraction of 1-decanol	Solid-liquid equilibrium temperature, K	uncertainty
.8033	273.1	
.8486	273.3	

System: 1-decanol + 1-dodecanol; phases: Liquid, Crystal
Fixed: Pressure, kPa = 101
Property: Solid-liquid equilibrium temperature, K (Liquid); method: DSC/DTA
Mole fraction of 1-decanol	Solid-liquid equilibrium temperature, K	uncertainty
.9018	275.2	
.9382	277	
.9696	279	
1	280.6	

System: 1-dodecanol + 1-hexadecanol; phases: Crystal, Crystal, Air at 1 atmosphere, Liquid
Fixed: Pressure, kPa = 101.325
Property: Eutectic temperature, K (Crystal); method: DSC/DTA
Eutectic temperature, K	uncertainty
293.2	

System: 1-dodecanol + 1-hexadecanol; phases: Liquid, Crystal
Fixed: Pressure, kPa = 101
Property: Solid-liquid equilibrium temperature, K (Liquid); method: DSC/DTA
Mole fraction of 1-dodecanol	Solid-liquid equilibrium temperature, K	uncertainty
0	323	
.1014	320.4	
.2187	318.7	
.2964	316.6	
.797	295	

System: 1-dodecanol + 1-hexadecanol; phases: Liquid, Crystal of intercomponent compound 1
Fixed: Pressure, kPa = 101
Property: Solid-liquid equilibrium temperature, K (Liquid); method: DSC/DTA
Mole fraction of 1-dodecanol	Solid-liquid equilibrium temperature, K	uncertainty
.3972	313.1	
.4992	310.5	
.598	307.5	
.7066	301.4	
.7483	297.8	

System: 1-dodecanol + 1-hexadecanol; phases: Liquid, Crystal
Fixed: Pressure, kPa = 101
Property: Solid-liquid equilibrium temperature, K (Liquid); method: DSC/DTA
Mole fraction of 1-dodecanol	Solid-liquid equilibrium temperature, K	uncertainty
.8526	293.5	
.8998	294.9	
.9324	295.3	
.9686	296	
1	297.4	

System: 1-tetradecanol + 1-octadecanol; phases: Crystal, Crystal of intercomponent compound 1, Air at 1 atmosphere, Liquid
Fixed: Pressure, kPa = 101.325
Property: Eutectic temperature, K (Crystal); method: DSC/DTA
Eutectic temperature, K	uncertainty
307.1	

System: 1-tetradecanol + 1-octadecanol; phases: Liquid, Crystal
Fixed: Pressure, kPa = 101
Property: Solid-liquid equilibrium temperature, K (Liquid); method: DSC/DTA
Mole fraction of 1-tetradecanol	Solid-liquid equilibrium temperature, K	uncertainty
0	331.6	
.1006	328.9	
.1964	327.3	
.2826	325.7	
.4036	323.2	
.5046	319.4	
.6012	317	
.6483	313.7	

System: 1-tetradecanol + 1-octadecanol; phases: Liquid, Crystal of intercomponent compound 1
Fixed: Pressure, kPa = 101
Property: Solid-liquid equilibrium temperature, K (Liquid); method: DSC/DTA
Mole fraction of 1-tetradecanol	Solid-liquid equilibrium temperature, K	uncertainty
.6982	309.9	
.7469	309.3	
.8006	307.5	

System: 1-tetradecanol + 1-octadecanol; phases: Liquid, Crystal
Fixed: Pressure, kPa = 101
Property: Solid-liquid equilibrium temperature, K (Liquid); method: DSC/DTA
Mole fraction of 1-tetradecanol	Solid-liquid equilibrium temperature, K	uncertainty
.854	307.2	
.899	308.5	
.9335	309.5	
.9708	309.8	
1	311.4	
