Measured thermophysical data. Solid-liquid equilibrium and thermochemical studies of organic  analogue of metal-nonmetal system: succinonitrilepentachloronitrobenzene
Source: Thermochim. Acta, 2011, 10.1016/j.tca.2010.08.021
Compound 1: succinonitrile, C4H4N2
Compound 2: benzene, pentachloronitro-, C6Cl5NO2, purity 99%

System: succinonitrile; phases: Crystal, Liquid, Air at 1 atmosphere
Property: Molar enthalpy of transition or fusion, kJ/mol (Crystal); method: DSC/DTA
Molar enthalpy of transition or fusion, kJ/mol	uncertainty
3.7	

System: succinonitrile; phases: Crystal, Liquid, Air at 1 atmosphere
Property: Normal melting temperature, K (Crystal); method: Visual observation
Normal melting temperature, K	uncertainty
330.15	.5

System: benzene, pentachloronitro-; phases: Crystal, Liquid, Air at 1 atmosphere
Property: Molar enthalpy of transition or fusion, kJ/mol (Crystal); method: DSC/DTA
Molar enthalpy of transition or fusion, kJ/mol	uncertainty
19.2	

System: benzene, pentachloronitro-; phases: Crystal, Liquid, Air at 1 atmosphere
Property: Normal melting temperature, K (Crystal); method: Visual observation
Normal melting temperature, K	uncertainty
418.15	.5

System: benzene, pentachloronitro- + succinonitrile; phases: Crystal, Crystal, Liquid, Air at 1 atmosphere
Fixed: Pressure, kPa = 101.325
Property: Eutectic temperature, K (Crystal); method: Derived from phase diagram analysis
Eutectic temperature, K	uncertainty
324.15	.5

System: benzene, pentachloronitro- + succinonitrile; phases: Crystal, Liquid, Liquid, Air at 1 atmosphere
Fixed: Pressure, kPa = 101.325
Property: Monotectic temperature, K (Crystal); method: Derived from phase diagram analysis
Monotectic temperature, K	uncertainty
411.65	.5

System: benzene, pentachloronitro- + succinonitrile; phases: Liquid, Crystal
Fixed: Pressure, kPa = 101.325
Property: Solid-liquid equilibrium temperature, K (Liquid); method: Visual observation
Mole fraction of succinonitrile	Solid-liquid equilibrium temperature, K	uncertainty
0	418.15	.5
.01	417.15	.5
.015	416.65	.5
.025	416.15	.5
.04	414.65	.5
.05	414.15	.5
.075	413.65	.5
.1	412.65	.5
.125	412.15	.5
.15	411.65	.5
.95	407.15	.5
.96	401.15	.5
.975	393.15	.5
.98	371.15	.5

System: benzene, pentachloronitro- + succinonitrile; phases: Liquid mixture 1, Liquid mixture 2
Fixed: Pressure, kPa = 101.325
Property: Liquid-liquid equilibrium temperature, K (Liquid mixture 1); method: Visual observation
Mole fraction of succinonitrile	Liquid-liquid equilibrium temperature, K	uncertainty
.175	412.65	.5
.2	423.15	.5
.25	435.15	.5
.3	445.15	.5
.35	452.15	.5
.4	456.15	.5
.45	460.15	.5
.5	462.15	.5
.55	464.15	.5
.6	465.15	.5
.65	463.15	.5
.7	459.15	.5
.75	455.15	.5
.8	451.15	.5
.85	443.15	.5
.875	437.15	.5
.9	431.15	.5
.925	425.15	.5
.935	419.15	.5

System: benzene, pentachloronitro- + succinonitrile; phases: Liquid, Crystal
Fixed: Pressure, kPa = 101.325
Property: Solid-liquid equilibrium temperature, K (Liquid); method: Visual observation
Mole fraction of succinonitrile	Solid-liquid equilibrium temperature, K	uncertainty
.985	324.15	.5
.99	325.15	.5
.995	326.65	.5
1	330.15	.5
