Measured thermophysical data. Solid binary mixtures of neopentanol with tert-Butyl chloride and carbon tetrachloride studied by thermal, X-ray and dielectric techniques
Source: Thermochim. Acta, 2016, 10.1016/j.tca.2016.03.003
Compound 1: neopentyl alcohol, C5H12O, purity 99%
Compound 2: tert-butyl chloride, C4H9Cl, purity 96%
Compound 3: carbon tetrachloride, CCl4, purity 99.5%

System: neopentyl alcohol; phases: Crystal 2, Crystal 1, Air at 1 atmosphere
Property: Triple point temperature, K (Crystal 2); method: DSC
Triple point temperature, K	uncertainty
237.5	.5

System: neopentyl alcohol; phases: Crystal 1, Liquid, Air at 1 atmosphere
Property: Triple point temperature, K (Crystal 1); method: DSC
Triple point temperature, K	uncertainty
329.2	.5

System: neopentyl alcohol; phases: Crystal 2, Crystal 1, Air at 1 atmosphere
Property: Molar enthalpy of transition or fusion, kJ/mol (Crystal 2); method: DSC
Molar enthalpy of transition or fusion, kJ/mol	uncertainty
4.15	.23

System: neopentyl alcohol; phases: Crystal 1, Liquid, Air at 1 atmosphere
Property: Molar enthalpy of transition or fusion, kJ/mol (Crystal 1); method: DSC
Molar enthalpy of transition or fusion, kJ/mol	uncertainty
3.92	.23

System: tert-butyl chloride; phases: Crystal 4, Crystal 3, Air at 1 atmosphere
Property: Triple point temperature, K (Crystal 4); method: DSC
Triple point temperature, K	uncertainty
184.8	.5

System: tert-butyl chloride; phases: Crystal 3, Crystal 2, Air at 1 atmosphere
Property: Triple point temperature, K (Crystal 3); method: DSC
Triple point temperature, K	uncertainty
217.7	.5

System: tert-butyl chloride; phases: Crystal 2, Crystal 1, Air at 1 atmosphere
Property: Triple point temperature, K (Crystal 2); method: DSC
Triple point temperature, K	uncertainty
219.5	.5

System: tert-butyl chloride; phases: Crystal 1, Liquid, Air at 1 atmosphere
Property: Triple point temperature, K (Crystal 1); method: DSC
Triple point temperature, K	uncertainty
244.4	.5

System: carbon tetrachloride; phases: Crystal 2, Crystal 1, Air at 1 atmosphere
Property: Triple point temperature, K (Crystal 2); method: DSC
Triple point temperature, K	uncertainty
226.1	.5

System: carbon tetrachloride; phases: Crystal 1, Liquid, Air at 1 atmosphere
Property: Triple point temperature, K (Crystal 1); method: DSC
Triple point temperature, K	uncertainty
250.4	.5

System: carbon tetrachloride; phases: Metastable crystal, Liquid, Air at 1 atmosphere
Property: Triple point temperature, K (Metastable crystal); method: DSC
Triple point temperature, K	uncertainty
245.2	.5

System: neopentyl alcohol + tert-butyl chloride; phases: Liquid, Crystal
Fixed: Pressure, kPa = 100
Property: Boiling temperature at pressure P, K (Liquid); method: DSC/DTA
Mole fraction of neopentyl alcohol	Boiling temperature at pressure P, K	uncertainty
0	244.4	
.1	256.9	
.21	271.3	
.31	280.5	
.41	290.7	
.51	296.8	
.61	301.4	
.71	311	
.81	316.2	
.9	325.8	
.95	327	
.98	328	
1	329.2	

System: neopentyl alcohol + tert-butyl chloride; phases: Crystal, Liquid
Fixed: Pressure, kPa = 100
Property: Boiling temperature at pressure P, K (Crystal); method: DSC/DTA
Mole fraction of neopentyl alcohol	Boiling temperature at pressure P, K	uncertainty
0	244.4	
.1	251	
.21	259	
.31	265	
.41	276.5	
.51	285.2	
.61	292.2	
.71	303.9	
.81	311.7	
.9	319.9	
.95	324	
.98	326	
1	329.2	

System: carbon tetrachloride + neopentyl alcohol; phases: Crystal, Liquid
Fixed: Pressure, kPa = 100
Property: Boiling temperature at pressure P, K (Crystal); method: DSC/DTA
Mole fraction of neopentyl alcohol	Boiling temperature at pressure P, K	uncertainty
0	250.4	
.04	248.6	
.08	246.1	
.16	242.5	
.19	242.6	
.24	243.2	
.3	248.1	
.37	253	
.43	258.2	
.54	265.6	
.64	275.7	
.72	289.3	
.8	295.8	
.84	305.4	
.88	309.2	
.91	313.8	
.94	318.9	
.97	323.3	
1	329.2	

System: carbon tetrachloride + neopentyl alcohol; phases: Liquid, Crystal
Fixed: Pressure, kPa = 100
Property: Boiling temperature at pressure P, K (Liquid); method: DSC/DTA
Mole fraction of neopentyl alcohol	Boiling temperature at pressure P, K	uncertainty
0	250.4	
.04	250.8	
.08	249.6	
.16	245.9	
.19	244.9	
.24	247.1	
.3	259.1	
.37	265.3	
.43	270.7	
.54	283.1	
.64	292	
.72	303.2	
.8	310.9	
.84	315	
.88	317.9	
.91	319.8	
.94	324.2	
.97	326.5	
1	329.2	
