Measured thermophysical data. Thermal degradation behavior of PLA composites containing bis DOPO phosphonates
Source: Thermochim. Acta, 2016, 10.1016/j.tca.2016.07.006
Compound 1: 6,6'-(ethane-1,2-diyl)bis(dibenzo[c,e][1,2]oxaphosphinine 6-oxide), C26H20O4P2
Compound 2: 6,6'-(1-phenylethane-1,2-diyl)bis(dibenzo[c,e][1,2]oxaphosphinine 6-oxide), C32H24O4P2
Compound 3: 6,6'-(1-(naphthalen-2-yl)ethane-1,2-diyl)bis(dibenzo[c,e][1,2]oxaphosphinine 6-oxide), C36H26O4P2

System: 6,6'-(ethane-1,2-diyl)bis(dibenzo[c,e][1,2]oxaphosphinine 6-oxide); phases: Crystal 1, Liquid, Air at 1 atmosphere
Property: Normal melting temperature, K (Crystal 1); method: DSC/DTA
Normal melting temperature, K	uncertainty
554.15	

System: 6,6'-(ethane-1,2-diyl)bis(dibenzo[c,e][1,2]oxaphosphinine 6-oxide); phases: Crystal 2, Crystal 1, Air at 1 atmosphere
Property: Triple point temperature, K (Crystal 2); method: DSC/DTA
Triple point temperature, K	uncertainty
521.15	

System: 6,6'-(1-phenylethane-1,2-diyl)bis(dibenzo[c,e][1,2]oxaphosphinine 6-oxide); phases: Crystal, Liquid, Air at 1 atmosphere
Property: Normal melting temperature, K (Crystal); method: DSC/DTA
Normal melting temperature, K	uncertainty
460.05	

System: 6,6'-(1-(naphthalen-2-yl)ethane-1,2-diyl)bis(dibenzo[c,e][1,2]oxaphosphinine 6-oxide); phases: Crystal, Liquid, Air at 1 atmosphere
Property: Normal melting temperature, K (Crystal); method: DSC/DTA
Normal melting temperature, K	uncertainty
469.05	
