Measured thermophysical data. Excess molar enthalpies of ternary mixtures containing o-toluidine + tetrahydropyran with  pyridine or isomeric picolines or benzene or toluene at 308.15K
Source: Thermochim. Acta, 2012, 10.1016/j.tca.2011.11.025
Compound 1: 2-methylbenzenamine, C7H9N, purity 99%
Compound 2: oxane, C5H10O, purity 98%
Compound 3: azine, C5H5N, purity 99%
Compound 4: 2-picoline, C6H7N, purity 98%
Compound 5: pyridine, 3-methyl-, C6H7N, purity 99%
Compound 6: 4-methylpyridine, C6H7N, purity 99%
Compound 7: benzene, C6H6, purity 99%
Compound 8: toluene, C7H8, purity 99%

System: 2-methylbenzenamine + azine + oxane; phases: Liquid
Fixed: Temperature, K = 308.15
Fixed: Pressure, kPa = 101.3
Property: Excess molar enthalpy (molar enthalpy of mixing), kJ/mol (Liquid); method: Drop Calorimetry
Mole fraction of 2-methylbenzenamine	Mole fraction of oxane	Excess molar enthalpy (molar enthalpy of mixing), kJ/mol	uncertainty
.1023	.4812	-.372	-.00372
.1226	.5438	-.5356	-.005356
.1582	.6323	-.8995	-.008995
.1731	.6008	-.9685	-.009685
.1924	.5983	-1.1271	-.011271
.2125	.5831	-1.2929	-.012929
.2635	.5445	-1.6275	-.016275
.2779	.5316	-1.6689	-.016689
.2981	.5223	-1.7952	-.017952
.3127	.5016	-1.8513	-.018513
.3487	.4628	-1.8641	-.018641
.3713	.4343	-1.8587	-.018587
.4199	.3818	-1.7006	-.017006
.4352	.3772	-1.7856	-.017856
.4657	.3555	-1.7523	-.017523
.4779	.3421	-1.6521	-.016521
.4914	.3303	-1.6369	-.016369
.5117	.3115	-1.5161	-.015161
.5335	.2963	-1.4901	-.014901
.5506	.2811	-1.4101	-.014101
.6225	.2012	-.9585	-.009585
.6545	.2125	-1.0885	-.010885
.6742	.1998	-1.0043	-.010043
.6926	.1894	-.9704	-.009704
.7245	.1606	-.8143	-.008143
.7448	.1382	-.7427	-.007427
.7701	.1303	-.6798	-.006798
.8123	.1021	-.5627	-.005627
.8326	.1002	-.5176	-.005176
.8515	.0831	-.4557	-.004557

System: 2-methylbenzenamine + 2-picoline + oxane; phases: Liquid
Fixed: Temperature, K = 308.15
Fixed: Pressure, kPa = 101.3
Property: Excess molar enthalpy (molar enthalpy of mixing), kJ/mol (Liquid); method: Drop Calorimetry
Mole fraction of 2-methylbenzenamine	Mole fraction of oxane	Excess molar enthalpy (molar enthalpy of mixing), kJ/mol	uncertainty
.0823	.5063	-.4657	-.004657
.1023	.4922	-.5949	-.005949
.1346	.5244	-.8604	-.008604
.1629	.6125	-1.1006	-.011006
.1668	.6112	-1.1299	-.011299
.1856	.5776	-1.2625	-.012625
.2235	.5745	-1.5508	-.015508
.2409	.5541	-1.6226	-.016226
.2644	.5327	-1.7794	-.017794
.2884	.5424	-1.8683	-.018683
.3226	.5102	-2.0368	-.020368
.3462	.4767	-2.0468	-.020468
.3627	.4101	-1.9428	-.019428
.4205	.3778	-1.9587	-.019587
.4408	.3652	-1.9878	-.019878
.4557	.3431	-1.9061	-.019061
.4935	.3207	-1.8167	-.018167
.5347	.2869	-1.6744	-.016744
.5533	.2787	-1.6716	-.016716
.5772	.2673	-1.5802	-.015802
.6188	.2471	-1.4488	-.014488
.6672	.2081	-1.2426	-.012426
.6844	.1895	-1.1436	-.011436
.7005	.1783	-1.0739	-.010739
.7182	.1563	-.9517	-.009517
.7784	.1367	-.7594	-.007594
.8105	.1121	-.6151	-.006151
.8366	.0897	-.5185	-.005185
.8526	.0674	-.4764	-.004764
.8678	.0883	-.3925	-.003925

System: 2-methylbenzenamine + pyridine, 3-methyl- + oxane; phases: Liquid
Fixed: Temperature, K = 308.15
Fixed: Pressure, kPa = 101.3
Property: Excess molar enthalpy (molar enthalpy of mixing), kJ/mol (Liquid); method: Drop Calorimetry
Mole fraction of 2-methylbenzenamine	Mole fraction of oxane	Excess molar enthalpy (molar enthalpy of mixing), kJ/mol	uncertainty
.0772	.2345	-.1993	-.001993
.1122	.3564	-.3205	-.003205
.1326	.4432	-.4635	-.004635
.1698	.6013	-.8222	-.008222
.1725	.6236	-.8497	-.008497
.2125	.5663	-1.0437	-.010437
.2516	.5212	-1.2194	-.012194
.2737	.5382	-1.3386	-.013386
.3152	.5201	-1.5269	-.015269
.3343	.5122	-1.5553	-.015553
.3727	.4005	-1.4651	-.014651
.3983	.4121	-1.5435	-.015435
.4278	.3916	-1.5871	-.015871
.4652	.3462	-1.4661	-.014661
.4811	.3347	-1.4802	-.014802
.5232	.3017	-1.3816	-.013816
.5446	.2765	-1.3253	-.013253
.5803	.2767	-1.3263	-.013263
.5911	.2435	-1.2061	-.012061
.6327	.2014	-1.0923	-.010923
.6567	.2313	-1.1558	-.011558
.6783	.2004	-1.0389	-.010389
.6998	.1662	-.9641	-.009641
.7133	.1638	-.922	-.00922
.7296	.1325	-.88	-.0088
.7554	.1128	-.8113	-.008113
.7727	.1329	-.7791	-.007791
.7891	.1134	-.7245	-.007245
.8132	.0985	-.6723	-.006723
.8346	.0976	-.5773	-.005773
.0772	.2345	-.1993	-.001993

System: 2-methylbenzenamine + 4-methylpyridine + oxane; phases: Liquid
Fixed: Temperature, K = 308.15
Fixed: Pressure, kPa = 101.3
Property: Excess molar enthalpy (molar enthalpy of mixing), kJ/mol (Liquid); method: Drop Calorimetry
Mole fraction of 2-methylbenzenamine	Mole fraction of oxane	Excess molar enthalpy (molar enthalpy of mixing), kJ/mol	uncertainty
.0732	.6734	-.3372	-.003372
.1156	.6351	-.5862	-.005862
.1556	.6161	-.8107	-.008107
.1822	.6088	-.9121	-.009121
.2111	.5873	-1.0345	-.010345
.2394	.5777	-1.1452	-.011452
.2642	.5453	-1.2198	-.012198
.2708	.5431	-1.2591	-.012591
.2903	.5211	-1.2949	-.012949
.3104	.5006	-1.3725	-.013725
.3324	.4912	-1.3763	-.013763
.3586	.4782	-1.3978	-.013978
.3703	.4451	-1.4711	-.014711
.3933	.4237	-1.4893	-.014893
.4265	.3882	-1.472	-.01472
.4683	.3659	-1.4714	-.014714
.4874	.3471	-1.4271	-.014271
.5016	.3225	-1.4138	-.014138
.5364	.3017	-1.3842	-.013842
.5525	.2983	-1.3235	-.013235
.5782	.2787	-1.2936	-.012936
.6124	.2015	-1.1685	-.011685
.6337	.1893	-1.1409	-.011409
.6623	.2014	-1.0586	-.010586
.6864	.1666	-1.0069	-.010069
.7122	.1033	-.8954	-.008954
.7346	.1115	-.8647	-.008647
.8161	.0724	-.6211	-.006211
.8403	.0782	-.525	-.00525
.8672	.0675	-.4404	-.004404

System: benzene + 2-methylbenzenamine + oxane; phases: Liquid
Fixed: Temperature, K = 308.15
Fixed: Pressure, kPa = 101.3
Property: Excess molar enthalpy (molar enthalpy of mixing), kJ/mol (Liquid); method: Drop Calorimetry
Mole fraction of 2-methylbenzenamine	Mole fraction of oxane	Excess molar enthalpy (molar enthalpy of mixing), kJ/mol	uncertainty
.0931	.6372	-.2018	-.002018
.1094	.6248	-.2046	-.002046
.1394	.6177	-.2309	-.002309
.1582	.6108	-.2414	-.002414
.1889	.6073	-.2764	-.002764
.2047	.5961	-.2797	-.002797
.2285	.5703	-.2881	-.002881
.2486	.5615	-.3008	-.003008
.2771	.5483	-.3102	-.003102
.3329	.5147	-.3337	-.003337
.3586	.4955	-.3292	-.003292
.3699	.4716	-.3162	-.003162
.3704	.4317	-.2537	-.002537
.3871	.4015	-.2094	-.002094
.3936	.4567	-.3131	-.003131
.4157	.3782	-.2019	-.002019
.4582	.3482	-.1901	-.001901
.4779	.3286	-.1716	-.001716
.4917	.3311	-.1934	-.001934
.5184	.3026	-.1602	-.001602
.5378	.2981	-.1796	-.001796
.5578	.2716	-.1281	-.001281
.5773	.2546	-.1113	-.001113
.5942	.2395	-.0898	-.000898
.6247	.2168	-.0683	-.000683
.6473	.2006	-.05445	-.0005445
.6672	.1898	-.0564	-.000564
.7013	.1657	-.0367	-.000367
.7352	.1573	-.0789	-.000789
.7652	.1453	-.096	-.00096

System: 2-methylbenzenamine + toluene + oxane; phases: Liquid
Fixed: Temperature, K = 308.15
Fixed: Pressure, kPa = 101.3
Property: Excess molar enthalpy (molar enthalpy of mixing), kJ/mol (Liquid); method: Drop Calorimetry
Mole fraction of 2-methylbenzenamine	Mole fraction of oxane	Excess molar enthalpy (molar enthalpy of mixing), kJ/mol	uncertainty
.0862	.8271	-.2345	-.002345
.1052	.8065	-.2606	-.002606
.1237	.7846	-.2902	-.002902
.1576	.2176	.1046	.001046
.1835	.2314	.1294	.001294
.2367	.2088	.2572	.002572
.2733	.2898	.0795	.000795
.2902	.2668	.145	.00145
.2514	.2778	.1098	.001098
.3324	.2561	.169	.00169
.3648	.2246	.2748	.002748
.3839	.5219	-.3473	-.003473
.4016	.4859	-.3236	-.003236
.4277	.5013	-.3598	-.003598
.4455	.4256	-.3003	-.003003
.4761	.4024	-.2933	-.002933
.4882	.3674	-.2771	-.002771
.5018	.3591	-.2684	-.002684
.5279	.3818	-.3051	-.003051
.5426	.1982	.1217	.001217
.5506	.3511	-.2832	-.002832
.5813	.2819	-.2175	-.002175
.6017	.1525	.2225	.002225
.6243	.1486	.1853	.001853
.6417	.1577	.1021	.001021
.6517	.1278	.2269	.002269
.6748	.2104	-.1525	-.001525
.6924	.1917	-.1255	-.001255
.7012	.1863	-.1219	-.001219
.7246	.1763	-.1255	-.001255
.7486	.1146	.0595	.000595
