Measured thermophysical data. An associationmodelforthesolubilitiesofpharmaceuticalsinsupercritical  carbon dioxide
Source: Thermochim. Acta, 2010, 10.1016/j.tca.2010.05.006
Compound 1: carbon dioxide, CO2
Compound 2: 4-isopropylantipyrine, C14H18N2O, purity 99.5%

System: carbon dioxide + 4-isopropylantipyrine; phases: Fluid (supercritical or subcritical phases), Crystal
Property: Mole fraction of 4-isopropylantipyrine (Fluid (supercritical or subcritical phases)); method: Chromatography
Temperature, K	Pressure, kPa	Mole fraction of 4-isopropylantipyrine	uncertainty
308	9000	.000319	
308	11000	.000484	
308	13000	.000692	
308	15000	.000834	
308	17000	.00097	
308	19000	.001053	
318	9000	.000072	
318	11000	.000383	
318	13000	.00074	
318	15000	.001005	
318	17000	.001194	
318	19000	.001321	
328	9000	.000038	
328	11000	.00014	
328	13000	.000523	
328	15000	.001092	
328	17000	.001543	
328	19000	.001882	
