Measured thermophysical data. Thermogravimetric measurement of evaporation: Data analysis based on the Stefan tube
Source: Thermochim. Acta, 2014, 10.1016/j.tca.2014.09.011
Compound 1: 1-butanol, C4H10O, purity 99%
Compound 2: 1-octanol, C8H18O, purity 99%
Compound 3: toluene, C7H8, purity 99%
Compound 4: ethanol, C2H6O, purity 99%

System: 1-butanol; phases: Liquid, Gas
Property: Vapor or sublimation pressure, kPa (Liquid); method: Rate of evaporation
Temperature, K	Vapor or sublimation pressure, kPa	uncertainty
343.39	14.44	
343.36	13.71	
343.2	13.52	
352.7	21.03	
360.58	32.09	
323.9	4.74	
324.8	4.95	
334.32	8.38	
333.51	8.09	
324.91	4.98	
314.81	2.61	
314.76	2.6	
314.75	2.67	
310.26	1.96	
310.29	1.9	
305.59	1.46	
310.16	1.92	
301.02	1.09	
310.29	1.91	
323.5	4.62	
324.57	4.91	
324.59	4.87	
341.78	12.79	
322.58	4.48	
324.28	4.85	
322.69	4.52	
322.07	4.33	
323.67	4.69	
323.78	4.75	
323.14	4.54	
321.34	4.15	
321.34	4.19	
323.09	4.54	
314.76	2.5	
324.18	4.79	

System: 1-octanol; phases: Liquid, Gas
Property: Vapor or sublimation pressure, kPa (Liquid); method: Rate of evaporation
Temperature, K	Vapor or sublimation pressure, kPa	uncertainty
319.82	.06	
343.39	.4	
333.93	.21	
324.46	.09	
362.32	1.36	
390.95	6.14	
348.15	.54	
343.23	.38	

System: toluene; phases: Liquid, Gas
Property: Vapor or sublimation pressure, kPa (Liquid); method: Rate of evaporation
Temperature, K	Vapor or sublimation pressure, kPa	uncertainty
324.21	13.4	
300.89	4.47	
305.64	5.17	
305.68	5.23	

System: ethanol; phases: Liquid, Gas
Property: Vapor or sublimation pressure, kPa (Liquid); method: Rate of evaporation
Temperature, K	Vapor or sublimation pressure, kPa	uncertainty
305.54	11.69	
305.47	10.94	
305.68	11.85	
301.1	9.07	
305.63	11.08	
