Measured thermophysical data. Examination of hydrogen-bonding interactions between dissolved solutes and alkylbenzene solvents based on Abraham model correlations derived from measured enthalpies of solvation
Source: Thermochim. Acta, 2014, 10.1016/j.tca.2014.08.024
Compound 1: mesitylene, C9H12, purity 97%
Compound 2: p-xylene, C8H10, purity 99%
Compound 3: acetonitrile, C2H3N, purity 98%
Compound 4: acetophenone, C8H8O, purity 98%
Compound 5: anthracene, C14H10, purity 98%
Compound 6: biphenyl, C12H10, purity 98%
Compound 7: butyl acetate, C6H12O2, purity 98%
Compound 8: butyl benzoate, C11H14O2, purity 98%
Compound 9: butyronitrile, C4H7N, purity 98%
Compound 10: 2-chlorophenol, C6H5ClO, purity 98%
Compound 11: 4-chlorophenol, C6H5ClO, purity 98%
Compound 12: n-decane, C10H22, purity 98%
Compound 13: 1-decanol, C10H22O, purity 98%
Compound 14: n-dodecane, C12H26, purity 98%
Compound 15: dichloromethane, CH2Cl2, purity 98%
Compound 16: N,N-dimethylacetamide, C4H9NO, purity 98%
Compound 17: N,N-dimethylformamide, C3H7NO, purity 98%
Compound 18: ethanol, C2H6O, purity 98%
Compound 19: ethyl acetate, C4H8O2, purity 98%
Compound 20: ethyl benzoate, C9H10O2, purity 98%
Compound 21: heptane, C7H16, purity 98%
Compound 22: hexane, C6H14, purity 98%
Compound 23: 1-hexanol, C6H14O, purity 98%
Compound 24: indole, C8H7N, purity 98%
Compound 25: methanol, CH4O, purity 98%
Compound 26: 2-methoxyphenol, C7H8O2, purity 98%
Compound 27: 3-methoxyphenol, C7H8O2, purity 98%
Compound 28: 4-methoxyphenol, C7H8O2, purity 98%
Compound 29: methyl acetate, C3H6O2, purity 98%
Compound 30: methyl benzoate, C8H8O2, purity 98%
Compound 31: 1-methylimidazole, C4H6N2, purity 98%
Compound 32: naphthalene, C10H8, purity 98%
Compound 33: nitromethane, CH3NO2, purity 98%
Compound 34: 2-nitrophenol, C6H5NO3, purity 98%
Compound 35: n-octane, C8H18, purity 98%
Compound 36: 1-octanol, C8H18O, purity 98%
Compound 37: 4-picoline, C6H7N, purity 98%
Compound 38: piperidine, C5H11N, purity 98%
Compound 39: 1-propanol, C3H8O, purity 98%
Compound 40: propionitrile, C3H5N, purity 98%
Compound 41: propyl acetate, C5H10O2, purity 98%
Compound 42: propyl benzoate, C10H12O2, purity 98%
Compound 43: pyrrole, C4H5N, purity 98%
Compound 44: pyrrolidine, C4H9N, purity 98%
Compound 45: 1,3-diphenylbenzene, C18H14, purity 98%
Compound 46: 1,4-diphenylbenzene, C18H14, purity 98%
Compound 47: tetrahydrofuran, C4H8O, purity 98%
Compound 48: tributylamine, C12H27N, purity 98%
Compound 49: triethylamine, C6H15N, purity 98%
Compound 50: 1,3,5-triphenylbenzene, C24H18, purity 98%
Compound 51: acetone, C3H6O, purity 98%
Compound 52: adamantane, C10H16, purity 98%
Compound 53: aniline, C6H7N, purity 98%
Compound 54: benzonitrile, C7H5N, purity 98%
Compound 55: 1-butanol, C4H10O, purity 98%
Compound 56: butanone, C4H8O, purity 98%
Compound 57: 1-chlorobutane, C4H9Cl, purity 98%
Compound 58: 1-chloronaphthalene, C10H7Cl, purity 98%
Compound 59: 12-crown-4 ether, C8H16O4, purity 98%
Compound 60: 15-crown-5, C10H20O5, purity 98%
Compound 61: diethyl ether, C4H10O, purity 98%
Compound 62: dibutyl ether, C8H18O, purity 98%
Compound 63: 1,4-dichlorobenzene, C6H4Cl2, purity 98%
Compound 64: 1,2-dichloropropane, C3H6Cl2, purity 98%
Compound 65: dimethyl sulfoxide, C2H6OS, purity 98%
Compound 66: 1,3-dimethoxy-2-hydroxybenzene, C8H10O3, purity 98%
Compound 67: 1,4-dioxane, C4H8O2, purity 98%
Compound 68: n-docosane, C22H46, purity 98%
Compound 69: eicosane, C20H42, purity 98%
Compound 70: ethyl salicylate, C9H10O3, purity 98%
Compound 71: fluoranthene, C16H10, purity 98%
Compound 72: n-hexadecane, C16H34, purity 98%
Compound 73: 2-heptanone, C7H14O, purity 98%
Compound 74: iodobenzene, C6H5I, purity 98%
Compound 75: N-methylaniline, C7H9N, purity 98%
Compound 76: 2-methyl-2-propanol, C4H10O, purity 98%
Compound 77: methyl propionate, C4H8O2, purity 98%
Compound 78: methyl salicylate, C8H8O3, purity 98%
Compound 79: 2-nonanone, C9H18O, purity 98%
Compound 80: 2-octanone, C8H16O, purity 98%
Compound 81: 1-pentanol, C5H12O, purity 98%
Compound 82: 2-pentanone, C5H10O, purity 98%
Compound 83: 2-picoline, C6H7N, purity 98%
Compound 84: 3-picoline, C6H7N, purity 98%
Compound 85: propylene carbonate, C4H6O3, purity 98%
Compound 86: pyrazole, C3H4N2, purity 98%
Compound 87: pyridine, C5H5N, purity 98%
Compound 88: tripropylamine, C9H21N, purity 98%

System: acetonitrile + mesitylene; phases: Liquid
Fixed: Pressure, kPa = 101
Fixed: Temperature, K = 298.15
Property: Molar enthalpy of solution, kJ/mol (Liquid); method: Calvet calorimetry
Mole fraction of acetonitrile	Molar enthalpy of solution, kJ/mol	uncertainty
0	3.91	.02

System: acetophenone + mesitylene; phases: Liquid
Fixed: Pressure, kPa = 101
Fixed: Temperature, K = 298.15
Property: Molar enthalpy of solution, kJ/mol (Liquid); method: Calvet calorimetry
Mole fraction of acetophenone	Molar enthalpy of solution, kJ/mol	uncertainty
0	1.33	.06

System: mesitylene + anthracene; phases: Liquid
Fixed: Pressure, kPa = 101
Fixed: Temperature, K = 298.15
Property: Molar enthalpy of solution, kJ/mol (Liquid); method: Calvet calorimetry
Mole fraction of anthracene	Molar enthalpy of solution, kJ/mol	uncertainty
0	22.51	.21

System: biphenyl + mesitylene; phases: Liquid
Fixed: Pressure, kPa = 101
Fixed: Temperature, K = 298.15
Property: Molar enthalpy of solution, kJ/mol (Liquid); method: Calvet calorimetry
Mole fraction of biphenyl	Molar enthalpy of solution, kJ/mol	uncertainty
0	17.2	.04

System: mesitylene + butyl acetate; phases: Liquid
Fixed: Pressure, kPa = 101
Fixed: Temperature, K = 298.15
Property: Molar enthalpy of solution, kJ/mol (Liquid); method: Calvet calorimetry
Mole fraction of butyl acetate	Molar enthalpy of solution, kJ/mol	uncertainty
0	-.09	.01

System: mesitylene + butyl benzoate; phases: Liquid
Fixed: Pressure, kPa = 101
Fixed: Temperature, K = 298.15
Property: Molar enthalpy of solution, kJ/mol (Liquid); method: Calvet calorimetry
Mole fraction of butyl benzoate	Molar enthalpy of solution, kJ/mol	uncertainty
0	-.21	.01

System: mesitylene + butyronitrile; phases: Liquid
Fixed: Pressure, kPa = 101
Fixed: Temperature, K = 298.15
Property: Molar enthalpy of solution, kJ/mol (Liquid); method: Calvet calorimetry
Mole fraction of butyronitrile	Molar enthalpy of solution, kJ/mol	uncertainty
0	1.62	.02

System: 2-chlorophenol + mesitylene; phases: Liquid
Fixed: Pressure, kPa = 101
Fixed: Temperature, K = 298.15
Property: Molar enthalpy of solution, kJ/mol (Liquid); method: Calvet calorimetry
Mole fraction of 2-chlorophenol	Molar enthalpy of solution, kJ/mol	uncertainty
0	3.8	.03

System: 4-chlorophenol + mesitylene; phases: Liquid
Fixed: Pressure, kPa = 101
Fixed: Temperature, K = 298.15
Property: Molar enthalpy of solution, kJ/mol (Liquid); method: Calvet calorimetry
Mole fraction of 4-chlorophenol	Molar enthalpy of solution, kJ/mol	uncertainty
0	14.29	.16

System: mesitylene + n-decane; phases: Liquid
Fixed: Pressure, kPa = 101
Fixed: Temperature, K = 298.15
Property: Molar enthalpy of solution, kJ/mol (Liquid); method: Calvet calorimetry
Mole fraction of n-decane	Molar enthalpy of solution, kJ/mol	uncertainty
0	1.45	.02

System: mesitylene + 1-decanol; phases: Liquid
Fixed: Pressure, kPa = 101
Fixed: Temperature, K = 298.15
Property: Molar enthalpy of solution, kJ/mol (Liquid); method: Calvet calorimetry
Mole fraction of 1-decanol	Molar enthalpy of solution, kJ/mol	uncertainty
0	14.95	.1

System: mesitylene + n-dodecane; phases: Liquid
Fixed: Pressure, kPa = 101
Fixed: Temperature, K = 298.15
Property: Molar enthalpy of solution, kJ/mol (Liquid); method: Calvet calorimetry
Mole fraction of n-dodecane	Molar enthalpy of solution, kJ/mol	uncertainty
0	1.72	.02

System: dichloromethane + mesitylene; phases: Liquid
Fixed: Pressure, kPa = 101
Fixed: Temperature, K = 298.15
Property: Molar enthalpy of solution, kJ/mol (Liquid); method: Calvet calorimetry
Mole fraction of dichloromethane	Molar enthalpy of solution, kJ/mol	uncertainty
0	-1.32	.05

System: mesitylene + N,N-dimethylacetamide; phases: Liquid
Fixed: Pressure, kPa = 101
Fixed: Temperature, K = 298.15
Property: Molar enthalpy of solution, kJ/mol (Liquid); method: Calvet calorimetry
Mole fraction of N,N-dimethylacetamide	Molar enthalpy of solution, kJ/mol	uncertainty
0	1.92	.06

System: N,N-dimethylformamide + mesitylene; phases: Liquid
Fixed: Pressure, kPa = 101
Fixed: Temperature, K = 298.15
Property: Molar enthalpy of solution, kJ/mol (Liquid); method: Calvet calorimetry
Mole fraction of N,N-dimethylformamide	Molar enthalpy of solution, kJ/mol	uncertainty
0	2.5	.18

System: ethanol + mesitylene; phases: Liquid
Fixed: Pressure, kPa = 101
Fixed: Temperature, K = 298.15
Property: Molar enthalpy of solution, kJ/mol (Liquid); method: Calvet calorimetry
Mole fraction of ethanol	Molar enthalpy of solution, kJ/mol	uncertainty
0	16.1	.03

System: mesitylene + ethyl acetate; phases: Liquid
Fixed: Pressure, kPa = 101
Fixed: Temperature, K = 298.15
Property: Molar enthalpy of solution, kJ/mol (Liquid); method: Calvet calorimetry
Mole fraction of ethyl acetate	Molar enthalpy of solution, kJ/mol	uncertainty
0	1.15	.06

System: ethyl benzoate + mesitylene; phases: Liquid
Fixed: Pressure, kPa = 101
Fixed: Temperature, K = 298.15
Property: Molar enthalpy of solution, kJ/mol (Liquid); method: Calvet calorimetry
Mole fraction of ethyl benzoate	Molar enthalpy of solution, kJ/mol	uncertainty
0	1.02	.04

System: mesitylene + heptane; phases: Liquid
Fixed: Pressure, kPa = 101
Fixed: Temperature, K = 298.15
Property: Molar enthalpy of solution, kJ/mol (Liquid); method: Calvet calorimetry
Mole fraction of heptane	Molar enthalpy of solution, kJ/mol	uncertainty
0	1.14	.03

System: mesitylene + hexane; phases: Liquid
Fixed: Pressure, kPa = 101
Fixed: Temperature, K = 298.15
Property: Molar enthalpy of solution, kJ/mol (Liquid); method: Calvet calorimetry
Mole fraction of hexane	Molar enthalpy of solution, kJ/mol	uncertainty
0	1.05	.03

System: mesitylene + 1-hexanol; phases: Liquid
Fixed: Pressure, kPa = 101
Fixed: Temperature, K = 298.15
Property: Molar enthalpy of solution, kJ/mol (Liquid); method: Calvet calorimetry
Mole fraction of 1-hexanol	Molar enthalpy of solution, kJ/mol	uncertainty
0	15.61	.15

System: mesitylene + indole; phases: Liquid
Fixed: Pressure, kPa = 101
Fixed: Temperature, K = 298.15
Property: Molar enthalpy of solution, kJ/mol (Liquid); method: Calvet calorimetry
Mole fraction of indole	Molar enthalpy of solution, kJ/mol	uncertainty
0	13.6	.12

System: methanol + mesitylene; phases: Liquid
Fixed: Pressure, kPa = 101
Fixed: Temperature, K = 298.15
Property: Molar enthalpy of solution, kJ/mol (Liquid); method: Calvet calorimetry
Mole fraction of methanol	Molar enthalpy of solution, kJ/mol	uncertainty
0	15.03	.15

System: 2-methoxyphenol + mesitylene; phases: Liquid
Fixed: Pressure, kPa = 101
Fixed: Temperature, K = 298.15
Property: Molar enthalpy of solution, kJ/mol (Liquid); method: Calvet calorimetry
Mole fraction of 2-methoxyphenol	Molar enthalpy of solution, kJ/mol	uncertainty
0	6.78	.1

System: mesitylene + 3-methoxyphenol; phases: Liquid
Fixed: Pressure, kPa = 101
Fixed: Temperature, K = 298.15
Property: Molar enthalpy of solution, kJ/mol (Liquid); method: Calvet calorimetry
Mole fraction of 3-methoxyphenol	Molar enthalpy of solution, kJ/mol	uncertainty
0	5.28	.05

System: mesitylene + 4-methoxyphenol; phases: Liquid
Fixed: Pressure, kPa = 101
Fixed: Temperature, K = 298.15
Property: Molar enthalpy of solution, kJ/mol (Liquid); method: Calvet calorimetry
Mole fraction of 4-methoxyphenol	Molar enthalpy of solution, kJ/mol	uncertainty
0	24.71	.16

System: methyl acetate + mesitylene; phases: Liquid
Fixed: Pressure, kPa = 101
Fixed: Temperature, K = 298.15
Property: Molar enthalpy of solution, kJ/mol (Liquid); method: Calvet calorimetry
Mole fraction of methyl acetate	Molar enthalpy of solution, kJ/mol	uncertainty
0	2.32	.11

System: methyl benzoate + mesitylene; phases: Liquid
Fixed: Pressure, kPa = 101
Fixed: Temperature, K = 298.15
Property: Molar enthalpy of solution, kJ/mol (Liquid); method: Calvet calorimetry
Mole fraction of methyl benzoate	Molar enthalpy of solution, kJ/mol	uncertainty
0	1.5	.03

System: mesitylene + 1-methylimidazole; phases: Liquid
Fixed: Pressure, kPa = 101
Fixed: Temperature, K = 298.15
Property: Molar enthalpy of solution, kJ/mol (Liquid); method: Calvet calorimetry
Mole fraction of 1-methylimidazole	Molar enthalpy of solution, kJ/mol	uncertainty
0	5.87	.02

System: naphthalene + mesitylene; phases: Liquid
Fixed: Pressure, kPa = 101
Fixed: Temperature, K = 298.15
Property: Molar enthalpy of solution, kJ/mol (Liquid); method: Calvet calorimetry
Mole fraction of naphthalene	Molar enthalpy of solution, kJ/mol	uncertainty
0	18.2	.05

System: nitromethane + mesitylene; phases: Liquid
Fixed: Pressure, kPa = 101
Fixed: Temperature, K = 298.15
Property: Molar enthalpy of solution, kJ/mol (Liquid); method: Calvet calorimetry
Mole fraction of nitromethane	Molar enthalpy of solution, kJ/mol	uncertainty
0	4.33	.08

System: 2-nitrophenol + mesitylene; phases: Liquid
Fixed: Pressure, kPa = 101
Fixed: Temperature, K = 298.15
Property: Molar enthalpy of solution, kJ/mol (Liquid); method: Calvet calorimetry
Mole fraction of 2-nitrophenol	Molar enthalpy of solution, kJ/mol	uncertainty
0	18.24	.03

System: mesitylene + n-octane; phases: Liquid
Fixed: Pressure, kPa = 101
Fixed: Temperature, K = 298.15
Property: Molar enthalpy of solution, kJ/mol (Liquid); method: Calvet calorimetry
Mole fraction of n-octane	Molar enthalpy of solution, kJ/mol	uncertainty
0	1.19	.02

System: mesitylene + 1-octanol; phases: Liquid
Fixed: Pressure, kPa = 101
Fixed: Temperature, K = 298.15
Property: Molar enthalpy of solution, kJ/mol (Liquid); method: Calvet calorimetry
Mole fraction of 1-octanol	Molar enthalpy of solution, kJ/mol	uncertainty
0	15.56	.03

System: mesitylene + 4-picoline; phases: Liquid
Fixed: Pressure, kPa = 101
Fixed: Temperature, K = 298.15
Property: Molar enthalpy of solution, kJ/mol (Liquid); method: Calvet calorimetry
Mole fraction of 4-picoline	Molar enthalpy of solution, kJ/mol	uncertainty
0	1.54	.05

System: mesitylene + piperidine; phases: Liquid
Fixed: Pressure, kPa = 101
Fixed: Temperature, K = 298.15
Property: Molar enthalpy of solution, kJ/mol (Liquid); method: Calvet calorimetry
Mole fraction of piperidine	Molar enthalpy of solution, kJ/mol	uncertainty
0	2.65	.03

System: 1-propanol + mesitylene; phases: Liquid
Fixed: Pressure, kPa = 101
Fixed: Temperature, K = 298.15
Property: Molar enthalpy of solution, kJ/mol (Liquid); method: Calvet calorimetry
Mole fraction of 1-propanol	Molar enthalpy of solution, kJ/mol	uncertainty
0	16.33	.11

System: propionitrile + mesitylene; phases: Liquid
Fixed: Pressure, kPa = 101
Fixed: Temperature, K = 298.15
Property: Molar enthalpy of solution, kJ/mol (Liquid); method: Calvet calorimetry
Mole fraction of propionitrile	Molar enthalpy of solution, kJ/mol	uncertainty
0	2.48	.07

System: mesitylene + propyl acetate; phases: Liquid
Fixed: Pressure, kPa = 101
Fixed: Temperature, K = 298.15
Property: Molar enthalpy of solution, kJ/mol (Liquid); method: Calvet calorimetry
Mole fraction of propyl acetate	Molar enthalpy of solution, kJ/mol	uncertainty
0	.95	.02

System: mesitylene + propyl benzoate; phases: Liquid
Fixed: Pressure, kPa = 101
Fixed: Temperature, K = 298.15
Property: Molar enthalpy of solution, kJ/mol (Liquid); method: Calvet calorimetry
Mole fraction of propyl benzoate	Molar enthalpy of solution, kJ/mol	uncertainty
0	.39	.03

System: mesitylene + pyrrole; phases: Liquid
Fixed: Pressure, kPa = 101
Fixed: Temperature, K = 298.15
Property: Molar enthalpy of solution, kJ/mol (Liquid); method: Calvet calorimetry
Mole fraction of pyrrole	Molar enthalpy of solution, kJ/mol	uncertainty
0	5.18	.07

System: mesitylene + pyrrolidine; phases: Liquid
Fixed: Pressure, kPa = 101
Fixed: Temperature, K = 298.15
Property: Molar enthalpy of solution, kJ/mol (Liquid); method: Calvet calorimetry
Mole fraction of pyrrolidine	Molar enthalpy of solution, kJ/mol	uncertainty
0	2.17	.06

System: 1,3-diphenylbenzene + mesitylene; phases: Liquid
Fixed: Pressure, kPa = 101
Fixed: Temperature, K = 298.15
Property: Molar enthalpy of solution, kJ/mol (Liquid); method: Calvet calorimetry
Mole fraction of 1,3-diphenylbenzene	Molar enthalpy of solution, kJ/mol	uncertainty
0	20.98	.07

System: 1,4-diphenylbenzene + mesitylene; phases: Liquid
Fixed: Pressure, kPa = 101
Fixed: Temperature, K = 298.15
Property: Molar enthalpy of solution, kJ/mol (Liquid); method: Calvet calorimetry
Mole fraction of 1,4-diphenylbenzene	Molar enthalpy of solution, kJ/mol	uncertainty
0	25.64	.28

System: mesitylene + tetrahydrofuran; phases: Liquid
Fixed: Pressure, kPa = 101
Fixed: Temperature, K = 298.15
Property: Molar enthalpy of solution, kJ/mol (Liquid); method: Calvet calorimetry
Mole fraction of tetrahydrofuran	Molar enthalpy of solution, kJ/mol	uncertainty
0	-.25	.02

System: tributylamine + mesitylene; phases: Liquid
Fixed: Pressure, kPa = 101
Fixed: Temperature, K = 298.15
Property: Molar enthalpy of solution, kJ/mol (Liquid); method: Calvet calorimetry
Mole fraction of tributylamine	Molar enthalpy of solution, kJ/mol	uncertainty
0	-.32	.03

System: mesitylene + triethylamine; phases: Liquid
Fixed: Pressure, kPa = 101
Fixed: Temperature, K = 298.15
Property: Molar enthalpy of solution, kJ/mol (Liquid); method: Calvet calorimetry
Mole fraction of triethylamine	Molar enthalpy of solution, kJ/mol	uncertainty
0	-.17	.01

System: mesitylene + 1,3,5-triphenylbenzene; phases: Liquid
Fixed: Pressure, kPa = 101
Fixed: Temperature, K = 298.15
Property: Molar enthalpy of solution, kJ/mol (Liquid); method: Calvet calorimetry
Mole fraction of 1,3,5-triphenylbenzene	Molar enthalpy of solution, kJ/mol	uncertainty
0	19.06	.23

System: acetone + p-xylene; phases: Liquid
Fixed: Pressure, kPa = 101
Fixed: Temperature, K = 298.15
Property: Molar enthalpy of solution, kJ/mol (Liquid); method: Calvet calorimetry
Mole fraction of acetone	Molar enthalpy of solution, kJ/mol	uncertainty
0	1.87	.01

System: acetonitrile + p-xylene; phases: Liquid
Fixed: Pressure, kPa = 101
Fixed: Temperature, K = 298.15
Property: Molar enthalpy of solution, kJ/mol (Liquid); method: Calvet calorimetry
Mole fraction of acetonitrile	Molar enthalpy of solution, kJ/mol	uncertainty
0	.49	.01

System: acetophenone + p-xylene; phases: Liquid
Fixed: Pressure, kPa = 101
Fixed: Temperature, K = 298.15
Property: Molar enthalpy of solution, kJ/mol (Liquid); method: Calvet calorimetry
Mole fraction of acetophenone	Molar enthalpy of solution, kJ/mol	uncertainty
0	1.66	.03

System: p-xylene + adamantane; phases: Liquid
Fixed: Pressure, kPa = 101
Fixed: Temperature, K = 298.15
Property: Molar enthalpy of solution, kJ/mol (Liquid); method: Calvet calorimetry
Mole fraction of adamantane	Molar enthalpy of solution, kJ/mol	uncertainty
0	12.1	.15

System: aniline + p-xylene; phases: Liquid
Fixed: Pressure, kPa = 101
Fixed: Temperature, K = 298.15
Property: Molar enthalpy of solution, kJ/mol (Liquid); method: Calvet calorimetry
Mole fraction of aniline	Molar enthalpy of solution, kJ/mol	uncertainty
0	6.22	.03

System: p-xylene + anthracene; phases: Liquid
Fixed: Pressure, kPa = 101
Fixed: Temperature, K = 298.15
Property: Molar enthalpy of solution, kJ/mol (Liquid); method: Calvet calorimetry
Mole fraction of anthracene	Molar enthalpy of solution, kJ/mol	uncertainty
0	24.48	.04

System: benzonitrile + p-xylene; phases: Liquid
Fixed: Pressure, kPa = 101
Fixed: Temperature, K = 298.15
Property: Molar enthalpy of solution, kJ/mol (Liquid); method: Calvet calorimetry
Mole fraction of benzonitrile	Molar enthalpy of solution, kJ/mol	uncertainty
0	.98	.02

System: p-xylene + butyl acetate; phases: Liquid
Fixed: Pressure, kPa = 101
Fixed: Temperature, K = 298.15
Property: Molar enthalpy of solution, kJ/mol (Liquid); method: Calvet calorimetry
Mole fraction of butyl acetate	Molar enthalpy of solution, kJ/mol	uncertainty
0	-.33	.02

System: biphenyl + p-xylene; phases: Liquid
Fixed: Pressure, kPa = 101
Fixed: Temperature, K = 298.15
Property: Molar enthalpy of solution, kJ/mol (Liquid); method: Calvet calorimetry
Mole fraction of biphenyl	Molar enthalpy of solution, kJ/mol	uncertainty
0	16.99	.13

System: 1-butanol + p-xylene; phases: Liquid
Fixed: Pressure, kPa = 101
Fixed: Temperature, K = 298.15
Property: Molar enthalpy of solution, kJ/mol (Liquid); method: Calvet calorimetry
Mole fraction of 1-butanol	Molar enthalpy of solution, kJ/mol	uncertainty
0	14.97	.03

System: p-xylene + butyl benzoate; phases: Liquid
Fixed: Pressure, kPa = 101
Fixed: Temperature, K = 298.15
Property: Molar enthalpy of solution, kJ/mol (Liquid); method: Calvet calorimetry
Mole fraction of butyl benzoate	Molar enthalpy of solution, kJ/mol	uncertainty
0	.23	.01

System: p-xylene + butyronitrile; phases: Liquid
Fixed: Pressure, kPa = 101
Fixed: Temperature, K = 298.15
Property: Molar enthalpy of solution, kJ/mol (Liquid); method: Calvet calorimetry
Mole fraction of butyronitrile	Molar enthalpy of solution, kJ/mol	uncertainty
0	.77	.01

System: butanone + p-xylene; phases: Liquid
Fixed: Pressure, kPa = 101
Fixed: Temperature, K = 298.15
Property: Molar enthalpy of solution, kJ/mol (Liquid); method: Calvet calorimetry
Mole fraction of butanone	Molar enthalpy of solution, kJ/mol	uncertainty
0	.95	.01

System: p-xylene + 1-chlorobutane; phases: Liquid
Fixed: Pressure, kPa = 101
Fixed: Temperature, K = 298.15
Property: Molar enthalpy of solution, kJ/mol (Liquid); method: Calvet calorimetry
Mole fraction of 1-chlorobutane	Molar enthalpy of solution, kJ/mol	uncertainty
0	-1.07	.01

System: 1-chloronaphthalene + p-xylene; phases: Liquid
Fixed: Pressure, kPa = 101
Fixed: Temperature, K = 298.15
Property: Molar enthalpy of solution, kJ/mol (Liquid); method: Calvet calorimetry
Mole fraction of 1-chloronaphthalene	Molar enthalpy of solution, kJ/mol	uncertainty
0	0	.01

System: 2-chlorophenol + p-xylene; phases: Liquid
Fixed: Pressure, kPa = 101
Fixed: Temperature, K = 298.15
Property: Molar enthalpy of solution, kJ/mol (Liquid); method: Calvet calorimetry
Mole fraction of 2-chlorophenol	Molar enthalpy of solution, kJ/mol	uncertainty
0	3.97	.04

System: p-xylene + 12-crown-4 ether; phases: Liquid
Fixed: Pressure, kPa = 101
Fixed: Temperature, K = 298.15
Property: Molar enthalpy of solution, kJ/mol (Liquid); method: Calvet calorimetry
Mole fraction of 12-crown-4 ether	Molar enthalpy of solution, kJ/mol	uncertainty
0	1.49	.05

System: p-xylene + 15-crown-5; phases: Liquid
Fixed: Pressure, kPa = 101
Fixed: Temperature, K = 298.15
Property: Molar enthalpy of solution, kJ/mol (Liquid); method: Calvet calorimetry
Mole fraction of 15-crown-5	Molar enthalpy of solution, kJ/mol	uncertainty
0	2.27	.04

System: p-xylene + n-decane; phases: Liquid
Fixed: Pressure, kPa = 101
Fixed: Temperature, K = 298.15
Property: Molar enthalpy of solution, kJ/mol (Liquid); method: Calvet calorimetry
Mole fraction of n-decane	Molar enthalpy of solution, kJ/mol	uncertainty
0	1.95	.01

System: p-xylene + 1-decanol; phases: Liquid
Fixed: Pressure, kPa = 101
Fixed: Temperature, K = 298.15
Property: Molar enthalpy of solution, kJ/mol (Liquid); method: Calvet calorimetry
Mole fraction of 1-decanol	Molar enthalpy of solution, kJ/mol	uncertainty
0	14.2	.05

System: diethyl ether + p-xylene; phases: Liquid
Fixed: Pressure, kPa = 101
Fixed: Temperature, K = 298.15
Property: Molar enthalpy of solution, kJ/mol (Liquid); method: Calvet calorimetry
Mole fraction of diethyl ether	Molar enthalpy of solution, kJ/mol	uncertainty
0	.9	.02

System: p-xylene + dibutyl ether; phases: Liquid
Fixed: Pressure, kPa = 101
Fixed: Temperature, K = 298.15
Property: Molar enthalpy of solution, kJ/mol (Liquid); method: Calvet calorimetry
Mole fraction of dibutyl ether	Molar enthalpy of solution, kJ/mol	uncertainty
0	-.09	.001

System: p-xylene + 1,4-dichlorobenzene; phases: Liquid
Fixed: Pressure, kPa = 101
Fixed: Temperature, K = 298.15
Property: Molar enthalpy of solution, kJ/mol (Liquid); method: Calvet calorimetry
Mole fraction of 1,4-dichlorobenzene	Molar enthalpy of solution, kJ/mol	uncertainty
0	15.56	.18

System: dichloromethane + p-xylene; phases: Liquid
Fixed: Pressure, kPa = 101
Fixed: Temperature, K = 298.15
Property: Molar enthalpy of solution, kJ/mol (Liquid); method: Calvet calorimetry
Mole fraction of dichloromethane	Molar enthalpy of solution, kJ/mol	uncertainty
0	-1.82	.02

System: 1,2-dichloropropane + p-xylene; phases: Liquid
Fixed: Pressure, kPa = 101
Fixed: Temperature, K = 298.15
Property: Molar enthalpy of solution, kJ/mol (Liquid); method: Calvet calorimetry
Mole fraction of 1,2-dichloropropane	Molar enthalpy of solution, kJ/mol	uncertainty
0	-.79	.01

System: p-xylene + N,N-dimethylacetamide; phases: Liquid
Fixed: Pressure, kPa = 101
Fixed: Temperature, K = 298.15
Property: Molar enthalpy of solution, kJ/mol (Liquid); method: Calvet calorimetry
Mole fraction of N,N-dimethylacetamide	Molar enthalpy of solution, kJ/mol	uncertainty
0	2.18	.01

System: N,N-dimethylformamide + p-xylene; phases: Liquid
Fixed: Pressure, kPa = 101
Fixed: Temperature, K = 298.15
Property: Molar enthalpy of solution, kJ/mol (Liquid); method: Calvet calorimetry
Mole fraction of N,N-dimethylformamide	Molar enthalpy of solution, kJ/mol	uncertainty
0	2.97	.01

System: dimethyl sulfoxide + p-xylene; phases: Liquid
Fixed: Pressure, kPa = 101
Fixed: Temperature, K = 298.15
Property: Molar enthalpy of solution, kJ/mol (Liquid); method: Calvet calorimetry
Mole fraction of dimethyl sulfoxide	Molar enthalpy of solution, kJ/mol	uncertainty
0	6.75	.01

System: 1,3-dimethoxy-2-hydroxybenzene + p-xylene; phases: Liquid
Fixed: Pressure, kPa = 101
Fixed: Temperature, K = 298.15
Property: Molar enthalpy of solution, kJ/mol (Liquid); method: Calvet calorimetry
Mole fraction of 1,3-dimethoxy-2-hydroxybenzene	Molar enthalpy of solution, kJ/mol	uncertainty
0	25.01	.37

System: p-xylene + 1,4-dioxane; phases: Liquid
Fixed: Pressure, kPa = 101
Fixed: Temperature, K = 298.15
Property: Molar enthalpy of solution, kJ/mol (Liquid); method: Calvet calorimetry
Mole fraction of 1,4-dioxane	Molar enthalpy of solution, kJ/mol	uncertainty
0	1.33	.01

System: 1,3-diphenylbenzene + p-xylene; phases: Liquid
Fixed: Pressure, kPa = 101
Fixed: Temperature, K = 298.15
Property: Molar enthalpy of solution, kJ/mol (Liquid); method: Calvet calorimetry
Mole fraction of 1,3-diphenylbenzene	Molar enthalpy of solution, kJ/mol	uncertainty
0	22.44	.08

System: p-xylene + n-docosane; phases: Liquid
Fixed: Pressure, kPa = 101
Fixed: Temperature, K = 298.15
Property: Molar enthalpy of solution, kJ/mol (Liquid); method: Calvet calorimetry
Mole fraction of n-docosane	Molar enthalpy of solution, kJ/mol	uncertainty
0	81.85	.63

System: p-xylene + n-dodecane; phases: Liquid
Fixed: Pressure, kPa = 101
Fixed: Temperature, K = 298.15
Property: Molar enthalpy of solution, kJ/mol (Liquid); method: Calvet calorimetry
Mole fraction of n-dodecane	Molar enthalpy of solution, kJ/mol	uncertainty
0	2.2	.06

System: p-xylene + eicosane; phases: Liquid
Fixed: Pressure, kPa = 101
Fixed: Temperature, K = 298.15
Property: Molar enthalpy of solution, kJ/mol (Liquid); method: Calvet calorimetry
Mole fraction of eicosane	Molar enthalpy of solution, kJ/mol	uncertainty
0	71.89	.17

System: ethanol + p-xylene; phases: Liquid
Fixed: Pressure, kPa = 101
Fixed: Temperature, K = 298.15
Property: Molar enthalpy of solution, kJ/mol (Liquid); method: Calvet calorimetry
Mole fraction of ethanol	Molar enthalpy of solution, kJ/mol	uncertainty
0	15.56	.01

System: p-xylene + ethyl acetate; phases: Liquid
Fixed: Pressure, kPa = 101
Fixed: Temperature, K = 298.15
Property: Molar enthalpy of solution, kJ/mol (Liquid); method: Calvet calorimetry
Mole fraction of ethyl acetate	Molar enthalpy of solution, kJ/mol	uncertainty
0	.59	.01

System: ethyl benzoate + p-xylene; phases: Liquid
Fixed: Pressure, kPa = 101
Fixed: Temperature, K = 298.15
Property: Molar enthalpy of solution, kJ/mol (Liquid); method: Calvet calorimetry
Mole fraction of ethyl benzoate	Molar enthalpy of solution, kJ/mol	uncertainty
0	.49	.01

System: p-xylene + ethyl salicylate; phases: Liquid
Fixed: Pressure, kPa = 101
Fixed: Temperature, K = 298.15
Property: Molar enthalpy of solution, kJ/mol (Liquid); method: Calvet calorimetry
Mole fraction of ethyl salicylate	Molar enthalpy of solution, kJ/mol	uncertainty
0	1.07	.02

System: p-xylene + fluoranthene; phases: Liquid
Fixed: Pressure, kPa = 101
Fixed: Temperature, K = 298.15
Property: Molar enthalpy of solution, kJ/mol (Liquid); method: Calvet calorimetry
Mole fraction of fluoranthene	Molar enthalpy of solution, kJ/mol	uncertainty
0	17.32	.07

System: p-xylene + hexane; phases: Liquid
Fixed: Pressure, kPa = 101
Fixed: Temperature, K = 298.15
Property: Molar enthalpy of solution, kJ/mol (Liquid); method: Calvet calorimetry
Mole fraction of hexane	Molar enthalpy of solution, kJ/mol	uncertainty
0	1.29	.03

System: p-xylene + n-hexadecane; phases: Liquid
Fixed: Pressure, kPa = 101
Fixed: Temperature, K = 298.15
Property: Molar enthalpy of solution, kJ/mol (Liquid); method: Calvet calorimetry
Mole fraction of n-hexadecane	Molar enthalpy of solution, kJ/mol	uncertainty
0	3.06	.04

System: p-xylene + heptane; phases: Liquid
Fixed: Pressure, kPa = 101
Fixed: Temperature, K = 298.15
Property: Molar enthalpy of solution, kJ/mol (Liquid); method: Calvet calorimetry
Mole fraction of heptane	Molar enthalpy of solution, kJ/mol	uncertainty
0	1.44	.02

System: p-xylene + 2-heptanone; phases: Liquid
Fixed: Pressure, kPa = 101
Fixed: Temperature, K = 298.15
Property: Molar enthalpy of solution, kJ/mol (Liquid); method: Calvet calorimetry
Mole fraction of 2-heptanone	Molar enthalpy of solution, kJ/mol	uncertainty
0	-.24	.01

System: p-xylene + 1-hexanol; phases: Liquid
Fixed: Pressure, kPa = 101
Fixed: Temperature, K = 298.15
Property: Molar enthalpy of solution, kJ/mol (Liquid); method: Calvet calorimetry
Mole fraction of 1-hexanol	Molar enthalpy of solution, kJ/mol	uncertainty
0	15.17	.09

System: p-xylene + iodobenzene; phases: Liquid
Fixed: Pressure, kPa = 101
Fixed: Temperature, K = 298.15
Property: Molar enthalpy of solution, kJ/mol (Liquid); method: Calvet calorimetry
Mole fraction of iodobenzene	Molar enthalpy of solution, kJ/mol	uncertainty
0	-.04	.01

System: p-xylene + indole; phases: Liquid
Fixed: Pressure, kPa = 101
Fixed: Temperature, K = 298.15
Property: Molar enthalpy of solution, kJ/mol (Liquid); method: Calvet calorimetry
Mole fraction of indole	Molar enthalpy of solution, kJ/mol	uncertainty
0	13.71	.03

System: p-xylene + mesitylene; phases: Liquid
Fixed: Pressure, kPa = 101
Fixed: Temperature, K = 298.15
Property: Molar enthalpy of solution, kJ/mol (Liquid); method: Calvet calorimetry
Mole fraction of mesitylene	Molar enthalpy of solution, kJ/mol	uncertainty
0	.11	.02

System: methanol + p-xylene; phases: Liquid
Fixed: Pressure, kPa = 101
Fixed: Temperature, K = 298.15
Property: Molar enthalpy of solution, kJ/mol (Liquid); method: Calvet calorimetry
Mole fraction of methanol	Molar enthalpy of solution, kJ/mol	uncertainty
0	14.82	.03

System: 2-methoxyphenol + p-xylene; phases: Liquid
Fixed: Pressure, kPa = 101
Fixed: Temperature, K = 298.15
Property: Molar enthalpy of solution, kJ/mol (Liquid); method: Calvet calorimetry
Mole fraction of 2-methoxyphenol	Molar enthalpy of solution, kJ/mol	uncertainty
0	6.37	.01

System: p-xylene + 3-methoxyphenol; phases: Liquid
Fixed: Pressure, kPa = 101
Fixed: Temperature, K = 298.15
Property: Molar enthalpy of solution, kJ/mol (Liquid); method: Calvet calorimetry
Mole fraction of 3-methoxyphenol	Molar enthalpy of solution, kJ/mol	uncertainty
0	8.32	.01

System: p-xylene + 4-methoxyphenol; phases: Liquid
Fixed: Pressure, kPa = 101
Fixed: Temperature, K = 298.15
Property: Molar enthalpy of solution, kJ/mol (Liquid); method: Calvet calorimetry
Mole fraction of 4-methoxyphenol	Molar enthalpy of solution, kJ/mol	uncertainty
0	27.62	.06

System: methyl acetate + p-xylene; phases: Liquid
Fixed: Pressure, kPa = 101
Fixed: Temperature, K = 298.15
Property: Molar enthalpy of solution, kJ/mol (Liquid); method: Calvet calorimetry
Mole fraction of methyl acetate	Molar enthalpy of solution, kJ/mol	uncertainty
0	1.87	.01

System: N-methylaniline + p-xylene; phases: Liquid
Fixed: Pressure, kPa = 101
Fixed: Temperature, K = 298.15
Property: Molar enthalpy of solution, kJ/mol (Liquid); method: Calvet calorimetry
Mole fraction of N-methylaniline	Molar enthalpy of solution, kJ/mol	uncertainty
0	3.06	.01

System: methyl benzoate + p-xylene; phases: Liquid
Fixed: Pressure, kPa = 101
Fixed: Temperature, K = 298.15
Property: Molar enthalpy of solution, kJ/mol (Liquid); method: Calvet calorimetry
Mole fraction of methyl benzoate	Molar enthalpy of solution, kJ/mol	uncertainty
0	1.23	.02

System: 2-methyl-2-propanol + p-xylene; phases: Liquid
Fixed: Pressure, kPa = 101
Fixed: Temperature, K = 298.15
Property: Molar enthalpy of solution, kJ/mol (Liquid); method: Calvet calorimetry
Mole fraction of 2-methyl-2-propanol	Molar enthalpy of solution, kJ/mol	uncertainty
0	16.05	.43

System: p-xylene + 1-methylimidazole; phases: Liquid
Fixed: Pressure, kPa = 101
Fixed: Temperature, K = 298.15
Property: Molar enthalpy of solution, kJ/mol (Liquid); method: Calvet calorimetry
Mole fraction of 1-methylimidazole	Molar enthalpy of solution, kJ/mol	uncertainty
0	5.57	.03

System: p-xylene + methyl propionate; phases: Liquid
Fixed: Pressure, kPa = 101
Fixed: Temperature, K = 298.15
Property: Molar enthalpy of solution, kJ/mol (Liquid); method: Calvet calorimetry
Mole fraction of methyl propionate	Molar enthalpy of solution, kJ/mol	uncertainty
0	.74	.01

System: p-xylene + methyl salicylate; phases: Liquid
Fixed: Pressure, kPa = 101
Fixed: Temperature, K = 298.15
Property: Molar enthalpy of solution, kJ/mol (Liquid); method: Calvet calorimetry
Mole fraction of methyl salicylate	Molar enthalpy of solution, kJ/mol	uncertainty
0	1.93	.03

System: naphthalene + p-xylene; phases: Liquid
Fixed: Pressure, kPa = 101
Fixed: Temperature, K = 298.15
Property: Molar enthalpy of solution, kJ/mol (Liquid); method: Calvet calorimetry
Mole fraction of naphthalene	Molar enthalpy of solution, kJ/mol	uncertainty
0	18.15	.05

System: nitromethane + p-xylene; phases: Liquid
Fixed: Pressure, kPa = 101
Fixed: Temperature, K = 298.15
Property: Molar enthalpy of solution, kJ/mol (Liquid); method: Calvet calorimetry
Mole fraction of nitromethane	Molar enthalpy of solution, kJ/mol	uncertainty
0	3.56	.06

System: p-xylene + 2-nonanone; phases: Liquid
Fixed: Pressure, kPa = 101
Fixed: Temperature, K = 298.15
Property: Molar enthalpy of solution, kJ/mol (Liquid); method: Calvet calorimetry
Mole fraction of 2-nonanone	Molar enthalpy of solution, kJ/mol	uncertainty
0	-.5	.02

System: p-xylene + 2-octanone; phases: Liquid
Fixed: Pressure, kPa = 101
Fixed: Temperature, K = 298.15
Property: Molar enthalpy of solution, kJ/mol (Liquid); method: Calvet calorimetry
Mole fraction of 2-octanone	Molar enthalpy of solution, kJ/mol	uncertainty
0	-.46	.01

System: p-xylene + 1-octanol; phases: Liquid
Fixed: Pressure, kPa = 101
Fixed: Temperature, K = 298.15
Property: Molar enthalpy of solution, kJ/mol (Liquid); method: Calvet calorimetry
Mole fraction of 1-octanol	Molar enthalpy of solution, kJ/mol	uncertainty
0	14.72	.13

System: 1-pentanol + p-xylene; phases: Liquid
Fixed: Pressure, kPa = 101
Fixed: Temperature, K = 298.15
Property: Molar enthalpy of solution, kJ/mol (Liquid); method: Calvet calorimetry
Mole fraction of 1-pentanol	Molar enthalpy of solution, kJ/mol	uncertainty
0	14.88	.03

System: p-xylene + 2-pentanone; phases: Liquid
Fixed: Pressure, kPa = 101
Fixed: Temperature, K = 298.15
Property: Molar enthalpy of solution, kJ/mol (Liquid); method: Calvet calorimetry
Mole fraction of 2-pentanone	Molar enthalpy of solution, kJ/mol	uncertainty
0	.17	.01

System: p-xylene + 2-picoline; phases: Liquid
Fixed: Pressure, kPa = 101
Fixed: Temperature, K = 298.15
Property: Molar enthalpy of solution, kJ/mol (Liquid); method: Calvet calorimetry
Mole fraction of 2-picoline	Molar enthalpy of solution, kJ/mol	uncertainty
0	1	.01

System: p-xylene + 3-picoline; phases: Liquid
Fixed: Pressure, kPa = 101
Fixed: Temperature, K = 298.15
Property: Molar enthalpy of solution, kJ/mol (Liquid); method: Calvet calorimetry
Mole fraction of 3-picoline	Molar enthalpy of solution, kJ/mol	uncertainty
0	.92	.01

System: p-xylene + 4-picoline; phases: Liquid
Fixed: Pressure, kPa = 101
Fixed: Temperature, K = 298.15
Property: Molar enthalpy of solution, kJ/mol (Liquid); method: Calvet calorimetry
Mole fraction of 4-picoline	Molar enthalpy of solution, kJ/mol	uncertainty
0	1.33	.01

System: p-xylene + piperidine; phases: Liquid
Fixed: Pressure, kPa = 101
Fixed: Temperature, K = 298.15
Property: Molar enthalpy of solution, kJ/mol (Liquid); method: Calvet calorimetry
Mole fraction of piperidine	Molar enthalpy of solution, kJ/mol	uncertainty
0	3.52	.05

System: 1-propanol + p-xylene; phases: Liquid
Fixed: Pressure, kPa = 101
Fixed: Temperature, K = 298.15
Property: Molar enthalpy of solution, kJ/mol (Liquid); method: Calvet calorimetry
Mole fraction of 1-propanol	Molar enthalpy of solution, kJ/mol	uncertainty
0	15.3	.06

System: p-xylene + propionitrile; phases: Liquid
Fixed: Pressure, kPa = 101
Fixed: Temperature, K = 298.15
Property: Molar enthalpy of solution, kJ/mol (Liquid); method: Calvet calorimetry
Mole fraction of propionitrile	Molar enthalpy of solution, kJ/mol	uncertainty
0	.67	.01

System: p-xylene + propyl acetate; phases: Liquid
Fixed: Pressure, kPa = 101
Fixed: Temperature, K = 298.15
Property: Molar enthalpy of solution, kJ/mol (Liquid); method: Calvet calorimetry
Mole fraction of propyl acetate	Molar enthalpy of solution, kJ/mol	uncertainty
0	-.05	.001

System: p-xylene + propyl benzoate; phases: Liquid
Fixed: Pressure, kPa = 101
Fixed: Temperature, K = 298.15
Property: Molar enthalpy of solution, kJ/mol (Liquid); method: Calvet calorimetry
Mole fraction of propyl benzoate	Molar enthalpy of solution, kJ/mol	uncertainty
0	-.09	.01

System: p-xylene + propylene carbonate; phases: Liquid
Fixed: Pressure, kPa = 101
Fixed: Temperature, K = 298.15
Property: Molar enthalpy of solution, kJ/mol (Liquid); method: Calvet calorimetry
Mole fraction of propylene carbonate	Molar enthalpy of solution, kJ/mol	uncertainty
0	5.97	.03

System: p-xylene + pyrazole; phases: Liquid
Fixed: Pressure, kPa = 101
Fixed: Temperature, K = 298.15
Property: Molar enthalpy of solution, kJ/mol (Liquid); method: Calvet calorimetry
Mole fraction of pyrazole	Molar enthalpy of solution, kJ/mol	uncertainty
0	25.72	.69

System: p-xylene + pyridine; phases: Liquid
Fixed: Pressure, kPa = 101
Fixed: Temperature, K = 298.15
Property: Molar enthalpy of solution, kJ/mol (Liquid); method: Calvet calorimetry
Mole fraction of pyridine	Molar enthalpy of solution, kJ/mol	uncertainty
0	1.62	.01

System: p-xylene + pyrrole; phases: Liquid
Fixed: Pressure, kPa = 101
Fixed: Temperature, K = 298.15
Property: Molar enthalpy of solution, kJ/mol (Liquid); method: Calvet calorimetry
Mole fraction of pyrrole	Molar enthalpy of solution, kJ/mol	uncertainty
0	4.2	.04

System: p-xylene + pyrrolidine; phases: Liquid
Fixed: Pressure, kPa = 101
Fixed: Temperature, K = 298.15
Property: Molar enthalpy of solution, kJ/mol (Liquid); method: Calvet calorimetry
Mole fraction of pyrrolidine	Molar enthalpy of solution, kJ/mol	uncertainty
0	2.79	.01

System: tributylamine + p-xylene; phases: Liquid
Fixed: Pressure, kPa = 101
Fixed: Temperature, K = 298.15
Property: Molar enthalpy of solution, kJ/mol (Liquid); method: Calvet calorimetry
Mole fraction of tributylamine	Molar enthalpy of solution, kJ/mol	uncertainty
0	1.47	.05

System: p-xylene + triethylamine; phases: Liquid
Fixed: Pressure, kPa = 101
Fixed: Temperature, K = 298.15
Property: Molar enthalpy of solution, kJ/mol (Liquid); method: Calvet calorimetry
Mole fraction of triethylamine	Molar enthalpy of solution, kJ/mol	uncertainty
0	-.03	.001

System: tripropylamine + p-xylene; phases: Liquid
Fixed: Pressure, kPa = 101
Fixed: Temperature, K = 298.15
Property: Molar enthalpy of solution, kJ/mol (Liquid); method: Calvet calorimetry
Mole fraction of tripropylamine	Molar enthalpy of solution, kJ/mol	uncertainty
0	1.11	.04
