Measured thermophysical data. Equilibrium solubility of pure and mixed 3,5-dinitrobenzoic acid and  3-nitrobenzoic acid in supercritical carbon dioxide
Source: Thermochim. Acta, 2011, 10.1016/j.tca.2011.01.039
Compound 1: carbon dioxide, CO2, purity 99.9%
Compound 2: 3,5-dinitrobenzoic acid, C7H4N2O6, purity 99%
Compound 3: benzoic acid, m-nitro-, C7H5NO4, purity 99%

System: carbon dioxide; phases: Fluid (supercritical or subcritical phases)
Property: Mass density, kg/m3 (Fluid (supercritical or subcritical phases)); method: Other
Temperature, K	Pressure, kPa	Mass density, kg/m3	uncertainty
308	10000	714.84	
308	12000	768.42	
308	15000	816.06	
308	18000	848.87	
308	21000	874.4	
318	10000	502.57	
318	12000	659.73	
318	15000	743.17	
318	18000	790.18	
318	21000	823.71	
328	10000	326.4	
328	12000	506.85	
328	15000	654.94	
328	18000	724.13	
328	21000	768.74	

System: 3,5-dinitrobenzoic acid + carbon dioxide; phases: Fluid (supercritical or subcritical phases), Crystal
Property: Mole fraction of 3,5-dinitrobenzoic acid (Fluid (supercritical or subcritical phases)); method: dynamic flow
Temperature, K	Pressure, kPa	Mole fraction of 3,5-dinitrobenzoic acid	uncertainty
308	10000	.00000058	.000000029
308	12000	.00000073	.0000000365
308	15000	.00000094	.000000047
308	18000	.00000108	.000000054
308	21000	.00000109	.0000000545
318	10000	.00000048	.000000024
318	12000	.00000117	.0000000585
318	15000	.00000169	.0000000845
318	18000	.00000214	.000000107
318	21000	.0000023	.000000115
328	10000	.00000044	.000000022
328	12000	.00000131	.0000000655
328	15000	.00000265	.0000001325
328	18000	.00000357	.0000001785
328	21000	.00000421	.0000002105

System: benzoic acid, m-nitro- + carbon dioxide; phases: Fluid (supercritical or subcritical phases), Crystal
Property: Mole fraction of benzoic acid, m-nitro- (Fluid (supercritical or subcritical phases)); method: dynamic flow
Temperature, K	Pressure, kPa	Mole fraction of benzoic acid, m-nitro-	uncertainty
308	10000	.00000721	.0000003605
308	12000	.00001432	.000000716
308	15000	.00001944	.000000972
308	18000	.00002408	.000001204
308	21000	.00002536	.000001268
318	10000	.00000333	.0000001665
318	12000	.00001494	.000000747
318	15000	.00003434	.000001717
318	18000	.00004703	.0000023515
318	21000	.00006068	.000003034
328	10000	.00000144	.000000072
328	12000	.00001038	.000000519
328	15000	.00004619	.0000023095
328	18000	.00007959	.0000039795
328	21000	.00010986	.000005493

System: 3,5-dinitrobenzoic acid + benzoic acid, m-nitro- + carbon dioxide; phases: Fluid (supercritical or subcritical phases), Crystal, Crystal
Property: Mole fraction of benzoic acid, m-nitro- (Fluid (supercritical or subcritical phases)); method: dynamic flow
Temperature, K	Pressure, kPa	Mole fraction of benzoic acid, m-nitro-	uncertainty
308	10000	.00000743	.0000003715
308	12000	.00001685	.0000008425
308	15000	.00002756	.000001378
308	18000	.00003355	.0000016775
308	21000	.00003771	.0000018855
318	10000	.00000443	.0000002215
318	12000	.00002292	.000001146
318	15000	.00004068	.000002034
318	18000	.0000626	.00000313
318	21000	.00007461	.0000037305
328	10000	.00000171	.0000000855
328	12000	.00001202	.000000601
328	15000	.00005608	.000002804
328	18000	.00009002	.000004501
328	21000	.00012153	.0000060765

System: 3,5-dinitrobenzoic acid + benzoic acid, m-nitro- + carbon dioxide; phases: Fluid (supercritical or subcritical phases), Crystal, Crystal
Property: Mole fraction of 3,5-dinitrobenzoic acid (Fluid (supercritical or subcritical phases)); method: dynamic flow
Temperature, K	Pressure, kPa	Mole fraction of 3,5-dinitrobenzoic acid	uncertainty
308	10000	.00000122	.000000061
308	12000	.00000227	.0000001135
308	15000	.00000269	.0000001345
308	18000	.00000312	.000000156
308	21000	.00000345	.0000001725
318	10000	.00000051	.0000000255
318	12000	.00000245	.0000001225
318	15000	.00000386	.000000193
318	18000	.00000509	.0000002545
318	21000	.00000711	.0000003555
328	10000	.00000045	.0000000225
328	12000	.0000015	.000000075
328	15000	.00000489	.0000002445
328	18000	.00000723	.0000003615
328	21000	.00000982	.000000491
