Measured thermophysical data. STUDY OF MAGNESIUM CHLORIDE HEXAHYDRATE AS HEAT STORAGE MATERIAL
Source: Thermochim. Acta, 2012, 10.1016/j.tca.2012.07.021
Compound 1: Magnesium chloride hexahydrate (molten), Cl2H12MgO6, purity 98%

System: Magnesium chloride hexahydrate (molten); phases: Crystal, Liquid, Air at 1 atmosphere
Property: Normal melting temperature, K (Crystal); method: DSC/DTA
Normal melting temperature, K	uncertainty
390.6	.1

System: Magnesium chloride hexahydrate (molten); phases: Crystal, Liquid, Air at 1 atmosphere
Property: Molar enthalpy of transition or fusion, kJ/mol (Crystal); method: DSC/DTA
Molar enthalpy of transition or fusion, kJ/mol	uncertainty
34.337721312	.10165104

System: Magnesium chloride hexahydrate (molten); phases: Crystal
Fixed: Pressure, kPa = 101.325
Property: Molar heat capacity at constant pressure, J/K/mol (Crystal); method: Small sample (50 mg) DSC
Temperature, K	Molar heat capacity at constant pressure, J/K/mol	uncertainty
298.15	336.4	4.6
299.15	336.1	4.6
300.15	336.2	4.6
301.15	336.7	4.6
302.15	337.2	4.6
303.15	337.8	4.6
304.15	338.3	4.6
305.15	338.8	4.5
306.15	339.3	4.5
307.15	339.8	4.5
308.15	340.3	4.5
309.15	340.9	4.6
310.15	341.4	4.6
311.15	342	4.6
312.15	342.5	4.7
313.15	343	4.7
314.15	343.5	4.8
315.15	344.1	4.8
316.15	344.6	4.9
317.15	345.2	5
318.15	345.7	5.1
319.15	346.3	5.2
320.15	346.9	5.3
321.15	347.4	5.5
322.15	348	5.6
323.15	348.5	5.7
324.15	349.1	5.8
325.15	349.6	5.9
326.15	350.1	6
327.15	350.7	6.2
328.15	351.3	6.3
329.15	351.8	6.5
330.15	352.4	6.7
331.15	353	6.9
332.15	353.6	7.1
333.15	354.2	7.3
334.15	354.8	7.5
335.15	355.4	7.6
336.15	355.9	7.8
337.15	356.5	7.9
338.15	357.1	8
339.15	357.8	8.2
340.15	358.4	8.3
341.15	359.1	8.4
342.15	359.7	8.6
343.15	360.3	8.7
344.15	360.9	9
345.15	361.5	9.2
346.15	362.2	9.3
347.15	362.9	9.5
348.15	363.6	9.7
349.15	364.3	10
350.15	365	10.2
351.15	365.6	10.4
352.15	366.3	10.6
353.15	367	10.8
354.15	367.8	11.1
355.15	368.6	11.3
356.15	369.3	11.5
357.15	370.1	11.8
358.15	370.8	12
359.15	371.7	12.2
360.15	372.4	12.4
361.15	373.3	12.7
362.15	374.2	13.1
363.15	375.1	13.2
364.15	376	13.4
365.15	377	13.7
366.15	377.9	14
367.15	379	14.3
368.15	380	14.6
369.15	381.1	14.9
370.15	382.1	15.3
371.15	383.3	15.6
372.15	384.4	16
373.15	385.6	16.4
374.15	386.8	16.8
375.15	388.1	17.2
376.15	389.3	17.6
377.15	390.6	18.1
378.15	392	18.6
379.15	393.4	19.1
380.15	394.9	19.7
381.15	396.4	20.3
382.15	397.8	21
383.15	399.4	21.9
384.15	401.3	22.8
385.15	403.3	23.9
386.15	405.5	25
387.15	409.7	26.7
388.15	418.7	29.5
389.15	451.6	38.2

System: Magnesium chloride hexahydrate (molten); phases: Crystal
Fixed: Pressure, kPa = 101.325
Property: Molar enthalpy, kJ/mol (Crystal); method: Small sample (50 mg) DSC
Temperature, K	Molar enthalpy, kJ/mol	uncertainty
303.15	1.687	
308.15	3.386	
313.15	5.096	
318.15	6.819	
323.15	8.554	
328.15	10.304	
333.15	12.069	
338.15	13.849	
343.15	15.646	
348.15	17.46	
353.15	19.291	
358.15	21.142	
363.15	23.011	
368.15	24.901	
371.15	26.045	

System: Magnesium chloride hexahydrate (molten); phases: Crystal
Fixed: Pressure, kPa = 101.325
Property: Molar entropy, J/K/mol (Crystal); method: Small sample (50 mg) DSC
Temperature, K	Molar entropy, J/K/mol	uncertainty
303.15	779	
308.15	1113	
313.15	1308	
318.15	1445	
323.15	1552	
328.15	1638	
333.15	1711	
338.15	1774	
343.15	1829	
348.15	1878	
353.15	1923	
358.15	1964	
363.15	2001	
368.15	2035	
371.15	2055	
