Measured thermophysical data. The solubility of ethionamide and structural analogues in buffer solutions, octanol and hexane at several temperatures
Source: Thermochim. Acta, 2016, 10.1016/j.tca.2016.07.020
Compound 1: 2-ethyl-4-pyridinecarbothioamide, C8H10N2S, purity 99%
Compound 2: 2-pyridinecarbothioamide, C6H6N2S, purity 99%
Compound 3: 4-pyridinecarbothioamide, C6H6N2S, purity 99%
Compound 4: 1-octanol, C8H18O, purity 99%
Compound 5: hexane, C6H14, purity 99%

System: 1-octanol + 2-ethyl-4-pyridinecarbothioamide; phases: Liquid, Crystal
Fixed: Pressure, kPa = 100
Property: Mole fraction of 2-ethyl-4-pyridinecarbothioamide (Liquid); method: UV spectrophotometry
Temperature, K	Mole fraction of 2-ethyl-4-pyridinecarbothioamide	uncertainty
293.15	.00674	
298.15	.00868	
303.15	.01081	
308.15	.01326	
313.15	.01603	

System: 1-octanol + 2-ethyl-4-pyridinecarbothioamide; phases: Liquid, Crystal
Fixed: Pressure, kPa = 100
Property: Mass density, kg/m3 (Liquid); method: Vibrating tube method
Temperature, K	Mass density, kg/m3	uncertainty
293.15	845.1	
298.15	847.2	
303.15	850	
308.15	852.5	
313.15	855	

System: hexane + 2-ethyl-4-pyridinecarbothioamide; phases: Liquid, Crystal
Fixed: Pressure, kPa = 100
Property: Mole fraction of 2-ethyl-4-pyridinecarbothioamide (Liquid); method: UV spectrophotometry
Temperature, K	Mole fraction of 2-ethyl-4-pyridinecarbothioamide	uncertainty
293.15	.0000184	
298.15	.0000222	
303.15	.0000273	
308.15	.000032	
313.15	.0000388	

System: hexane + 2-ethyl-4-pyridinecarbothioamide; phases: Liquid, Crystal
Fixed: Pressure, kPa = 100
Property: Mass density, kg/m3 (Liquid); method: Vibrating tube method
Temperature, K	Mass density, kg/m3	uncertainty
293.15	662.2	
298.15	657.7	
303.15	653.3	
308.15	648.7	
313.15	644.1	

System: 1-octanol + 2-pyridinecarbothioamide; phases: Liquid, Crystal
Fixed: Pressure, kPa = 100
Property: Mole fraction of 2-pyridinecarbothioamide (Liquid); method: UV spectrophotometry
Temperature, K	Mole fraction of 2-pyridinecarbothioamide	uncertainty
293.15	.00952	
298.15	.01203	
303.15	.01468	
308.15	.01828	
313.15	.02223	

System: 1-octanol + 2-pyridinecarbothioamide; phases: Liquid, Crystal
Fixed: Pressure, kPa = 100
Property: Mass density, kg/m3 (Liquid); method: Vibrating tube method
Temperature, K	Mass density, kg/m3	uncertainty
293.15	842	
298.15	845.1	
303.15	847.99	
308.15	851.1	
313.15	851.3	

System: hexane + 2-pyridinecarbothioamide; phases: Liquid, Crystal
Fixed: Pressure, kPa = 100
Property: Mole fraction of 2-pyridinecarbothioamide (Liquid); method: UV spectrophotometry
Temperature, K	Mole fraction of 2-pyridinecarbothioamide	uncertainty
293.15	.000199	
298.15	.000248	
303.15	.000325	
308.15	.000404	
313.15	.000518	

System: hexane + 2-pyridinecarbothioamide; phases: Liquid, Crystal
Fixed: Pressure, kPa = 100
Property: Mass density, kg/m3 (Liquid); method: Vibrating tube method
Temperature, K	Mass density, kg/m3	uncertainty
293.15	663.1	
298.15	658.7	
303.15	654.3	
308.15	649.6	
313.15	645.4	

System: 1-octanol + 4-pyridinecarbothioamide; phases: Liquid, Crystal
Fixed: Pressure, kPa = 100
Property: Mole fraction of 4-pyridinecarbothioamide (Liquid); method: UV spectrophotometry
Temperature, K	Mole fraction of 4-pyridinecarbothioamide	uncertainty
293.15	.00347	
298.15	.00431	
303.15	.00516	
308.15	.0062	
313.15	.00744	

System: 1-octanol + 4-pyridinecarbothioamide; phases: Liquid, Crystal
Fixed: Pressure, kPa = 100
Property: Mass density, kg/m3 (Liquid); method: Vibrating tube method
Temperature, K	Mass density, kg/m3	uncertainty
293.15	840.2	
298.15	840.3	
303.15	841.9	
308.15	849.1	
313.15	852.8	

System: hexane + 4-pyridinecarbothioamide; phases: Liquid, Crystal
Fixed: Pressure, kPa = 100
Property: Mole fraction of 4-pyridinecarbothioamide (Liquid); method: UV spectrophotometry
Temperature, K	Mole fraction of 4-pyridinecarbothioamide	uncertainty
293.15	.00000297	
298.15	.00000373	
303.15	.00000447	
308.15	.00000547	
313.15	.00000667	

System: hexane + 4-pyridinecarbothioamide; phases: Liquid, Crystal
Fixed: Pressure, kPa = 100
Property: Mass density, kg/m3 (Liquid); method: Vibrating tube method
Temperature, K	Mass density, kg/m3	uncertainty
293.15	663.9	
298.15	658.7	
303.15	653.2	
308.15	647.4	
313.15	642.1	
