Measured thermophysical data. Densities and Excess Molar Volumes for Binary Mixtures of Diethanolamine with Water,  Methanol, Ethanol and Ternary Solutions of Diethanolamine + Water with Methanol, Ethanol at  Atmospheric Pressure from 278.15 to 353.15 K
Source: Thermochim. Acta, 2012, 10.1016/j.tca.2012.01.007
Compound 1: diethanolamine, C4H11NO2, purity 99%
Compound 2: methanol, CH4O, purity 99.5%
Compound 3: ethanol, C2H6O, purity 99.7%
Compound 4: water, H2O, purity 98.5%

System: diethanolamine; phases: Liquid
Property: Mass density, kg/m3 (Liquid); method: Vibrating tube method
Temperature, K	Pressure, kPa	Mass density, kg/m3	uncertainty
283.145	101	1103.875	.005
293.149	101	1097.505	.005
303.144	101	1091.064	.005
313.145	101	1084.487	.005
323.143	101	1077.781	.005
333.143	101	1070.997	.005
343.144	101	1064.143	.005
353.15	101	1056.826	.005
278.145	101	1107.046	.005
348.143	101	1060.683	.005

System: methanol; phases: Liquid
Property: Mass density, kg/m3 (Liquid); method: Vibrating tube method
Temperature, K	Pressure, kPa	Mass density, kg/m3	uncertainty
283.15	101	801.436	.005
293.15	101	792.069	.005
303.151	101	782.606	.005
313.152	101	773.049	.005
323.151	101	763.363	.005
333.15	101	753.506	.005

System: ethanol; phases: Liquid
Property: Mass density, kg/m3 (Liquid); method: Vibrating tube method
Temperature, K	Pressure, kPa	Mass density, kg/m3	uncertainty
278.153	101	802.686	.005
283.146	101	798.458	.005
293.145	101	789.938	.005
303.145	101	781.332	.005
313.16	101	772.577	.005
323.144	101	763.677	.005
333.144	101	754.521	.005
343.153	101	745.054	.005
348.143	101	740.206	.005

System: water; phases: Liquid
Property: Mass density, kg/m3 (Liquid); method: Vibrating tube method
Temperature, K	Pressure, kPa	Mass density, kg/m3	uncertainty
283.151	101	999.964	.005
293.147	101	998.557	.005
303.149	101	995.999	.005
313.146	101	992.57	.005
323.146	101	988.391	.005
333.147	101	983.453	.005
343.144	101	977.483	.005
353.143	101	972.2	.005

System: diethanolamine + water; phases: Liquid
Fixed: Pressure, kPa = 101
Property: Mass density, kg/m3 (Liquid); method: Vibrating tube method
Temperature, K	Mass fraction of diethanolamine	Mass density, kg/m3	uncertainty
283.151	0	999.964	.005
293.147	0	998.557	.005
303.149	0	995.999	.005
313.146	0	992.57	.005
323.146	0	988.391	.005
333.147	0	983.453	.005
343.144	0	977.483	.005
353.143	0	972.2	.005
283.151	.1007	1011.977	.005
293.15	.1007	1010.007	.005
303.16	.1007	1007.095	.005
313.15	.1007	1003.404	.005
323.149	.1007	999.014	.005
333.15	.1007	994.007	.005
343.148	.1007	988.445	.005
353.146	.1007	982.774	.005
283.152	.2002	1024.98	.005
293.147	.2002	1022.35	.005
303.147	.2002	1018.951	.005
313.148	.2002	1014.872	.005
323.149	.2002	1010.178	.005
333.15	.2002	1004.929	.005
343.149	.2002	999.169	.005
353.147	.2002	992.938	.005
283.152	.2997	1038.455	.005
293.147	.2997	1035.066	.005
303.148	.2997	1031.08	.005
313.156	.2997	1026.535	.005
323.158	.2997	1021.471	.005
333.148	.2997	1015.933	.005
343.144	.2997	1009.932	.005
353.144	.2997	1003.5	.005
283.152	.3999	1052.363	.005
293.15	.3999	1048.188	.005
303.152	.3999	1043.557	.005
313.152	.3999	1038.501	.005
323.159	.3999	1033.031	.005
333.15	.3999	1027.175	.005
343.149	.3999	1020.905	.005
353.149	.3999	1014.253	.005
283.154	.5003	1065.236	.005
293.151	.5003	1060.317	.005
303.157	.5003	1055.094	.005
313.156	.5003	1049.548	.005
323.142	.5003	1043.694	.005
333.153	.5003	1037.442	.005
343.152	.5003	1030.895	.005
353.143	.5003	1024.01	.005
283.154	.6024	1077.846	.005
293.152	.6024	1072.33	.005
303.144	.6024	1066.59	.005
313.144	.6024	1060.603	.005
323.145	.6024	1054.363	.005
333.146	.6024	1047.862	.005
343.145	.6024	1041.095	.005
353.148	.6024	1034.052	.005
283.148	.6999	1088.196	.005
293.15	.6999	1082.23	.005
303.143	.6999	1076.153	.005
313.151	.6999	1069.91	.005
323.146	.6999	1063.491	.005
333.148	.6999	1056.8	.005
343.143	.6999	1049.92	.005
353.144	.6999	1042.778	.005
283.15	.8004	1096.547	.005
293.154	.8004	1090.419	.005
303.153	.8004	1084.12	.005
313.145	.8004	1077.721	.005
323.154	.8004	1071.178	.005
333.156	.8004	1064.479	.005
343.156	.8004	1057.595	.005
353.147	.8004	1050.514	.005
283.152	.8534	1099.733	.005
293.15	.8534	1093.591	.005
303.149	.8534	1087.255	.005
313.15	.8534	1080.781	.005
323.15	.8534	1074.207	.005
333.15	.8534	1067.5	.005
343.15	.8534	1060.631	.005
353.146	.8534	1053.58	.005
283.155	.8995	1101.576	.005
293.143	.8995	1095.401	.005
303.145	.8995	1089.058	.005
313.146	.8995	1082.553	.005
323.148	.8995	1075.947	.005
333.145	.8995	1069.237	.005
343.145	.8995	1062.387	.005
353.142	.8995	1055.382	.005
283.158	.9316	1102.573	.005
293.148	.9316	1096.367	.005
303.148	.9316	1090.01	.005
313.15	.9316	1083.488	.005
323.15	.9316	1076.857	.005
333.149	.9316	1070.14	.005
343.147	.9316	1063.302	.005
353.144	.9316	1056.327	.005
283.158	.9591	1103.242	.005
293.149	.9591	1096.977	.005
303.151	.9591	1090.593	.005
313.151	.9591	1084.055	.005
323.15	.9591	1077.396	.005
333.149	.9591	1070.657	.005
343.149	.9591	1063.822	.005
353.144	.9591	1056.868	.005
283.145	1	1103.875	.005
293.149	1	1097.505	.005
303.144	1	1091.064	.005
313.145	1	1084.487	.005
323.143	1	1077.781	.005
333.143	1	1070.997	.005
343.144	1	1064.143	.005
353.15	1	1056.826	.005

System: methanol + diethanolamine; phases: Liquid
Fixed: Pressure, kPa = 101
Property: Mass density, kg/m3 (Liquid); method: Vibrating tube method
Temperature, K	Mass fraction of diethanolamine	Mass density, kg/m3	uncertainty
283.15	0	801.436	.005
293.15	0	792.069	.005
303.151	0	782.606	.005
313.152	0	773.049	.005
323.151	0	763.363	.005
333.15	0	753.506	.005
283.152	.1	827.828	.005
293.14	.1	818.746	.005
303.143	.1	809.6	.005
313.144	.1	800.368	.005
323.143	.1	791.018	.005
333.143	.1	781.504	.005
283.15	.2	855.383	.005
293.15	.2	846.577	.005
303.149	.2	837.727	.005
313.15	.2	828.795	.005
323.152	.2	819.75	.005
333.15	.2	810.556	.005
283.148	.3	883.986	.005
293.148	.3	875.502	.005
303.149	.3	866.962	.005
313.151	.3	858.34	.005
323.151	.3	849.609	.005
333.151	.3	840.739	.005
283.151	.3999	913.669	.005
293.149	.3999	905.478	.005
303.149	.3999	897.232	.005
313.15	.3999	888.909	.005
323.149	.3999	880.486	.005
333.15	.3999	871.934	.005
283.151	.5002	945.053	.005
293.147	.5002	937.232	.005
303.148	.5002	929.334	.005
313.15	.5002	921.353	.005
323.149	.5002	913.261	.005
333.149	.5002	905.025	.005
283.141	.5999	976.523	.005
293.148	.5999	969.048	.005
303.143	.5999	961.458	.005
313.146	.5999	953.776	.005
323.149	.5999	945.981	.005
333.145	.5999	938.046	.005
283.156	.6997	1006.574	.005
293.149	.6997	999.095	.005
303.146	.6997	991.41	.005
313.153	.6997	983.97	.005
323.153	.6997	976.456	.005
333.15	.6997	968.833	.005
283.15	.8001	1038.055	.005
293.15	.8001	1030.935	.005
303.15	.8001	1023.795	.005
313.15	.8001	1016.599	.005
323.15	.8001	1009.277	.005
333.151	.8001	1002.205	.005
283.151	.831	1047.985	.005
293.158	.831	1040.933	.005
303.149	.831	1033.877	.005
313.15	.831	1026.783	.005
323.149	.831	1019.628	.005
333.149	.831	1012.388	.005
283.149	.9004	1070.414	.005
293.149	.9004	1063.788	.005
303.148	.9004	1057.046	.005
313.148	.9004	1050.225	.005
323.149	.9004	1043.288	.005
333.15	.9004	1036.234	.005
283.153	.9209	1077.238	.005
293.144	.9209	1070.681	.005
303.15	.9209	1064.03	.005
313.147	.9209	1057.285	.005
323.148	.9209	1050.466	.005
333.145	.9209	1043.486	.005

System: ethanol + diethanolamine; phases: Liquid
Fixed: Pressure, kPa = 101
Property: Mass density, kg/m3 (Liquid); method: Vibrating tube method
Temperature, K	Mass fraction of diethanolamine	Mass density, kg/m3	uncertainty
278.153	0	802.686	.005
283.146	0	798.458	.005
293.145	0	789.938	.005
303.145	0	781.332	.005
313.16	0	772.577	.005
323.144	0	763.677	.005
333.144	0	754.521	.005
343.153	0	745.054	.005
348.143	0	740.206	.005
278.142	.1	827.791	.005
283.141	.1	823.639	.005
293.141	.1	815.297	.005
303.142	.1	806.876	.005
313.143	.1	798.332	.005
323.142	.1	789.624	.005
333.142	.1	780.704	.005
343.141	.1	771.521	.005
348.141	.1	766.805	.005
278.148	.1999	854.007	.005
283.144	.1999	849.953	.005
293.144	.1999	841.801	.005
303.151	.1999	833.564	.005
313.146	.1999	825.235	.005
323.145	.1999	816.75	.005
333.144	.1999	808.075	.005
343.141	.1999	799.163	.005
348.143	.1999	794.6	.005
278.149	.3	881.862	.005
283.14	.3	877.917	.005
293.141	.3	869.969	.005
303.142	.3	861.949	.005
313.143	.3	853.824	.005
323.143	.3	845.563	.005
333.142	.3	837.129	.005
343.143	.3	828.477	.005
348.144	.3	824.049	.005
278.15	.3999	910.002	.005
283.149	.3999	906.254	.005
293.148	.3999	898.495	.005
303.149	.3999	890.674	.005
313.15	.3999	882.762	.005
323.15	.3999	874.726	.005
333.15	.3999	866.54	.005
343.148	.3999	858.164	.005
348.148	.3999	853.893	.005
278.153	.5001	939.811	.005
283.15	.5001	936.053	.005
293.148	.5001	928.504	.005
303.146	.5001	920.9	.005
313.147	.5001	913.212	.005
323.159	.5001	905.4	.005
333.146	.5001	897.474	.005
343.145	.5001	889.372	.005
348.147	.5001	885.244	.005
278.15	.5998	970.814	.005
283.147	.5998	967.135	.005
293.145	.5998	959.776	.005
303.148	.5998	952.376	.005
313.147	.5998	944.908	.005
323.146	.5998	937.339	.005
333.147	.5998	929.643	.005
343.148	.5998	921.798	.005
348.144	.5998	917.813	.005
278.149	.7002	1004.365	.005
283.151	.7002	1000.778	.005
293.15	.7002	993.608	.005
303.152	.7002	986.404	.005
313.152	.7002	979.15	.005
323.144	.7002	971.82	.005
333.151	.7002	964.37	.005
343.15	.7002	956.784	.005
348.149	.7002	952.934	.005
278.152	.8001	1037.464	.005
283.148	.8001	1034.004	.005
293.15	.8001	1027.031	.005
303.15	.8001	1020.011	.005
313.148	.8001	1012.947	.005
323.149	.8001	1005.748	.005
333.148	.8001	998.264	.005
343.148	.8001	990.826	.005
348.146	.8001	987.083	.005
278.151	.8417	1051.464	.005
283.148	.8417	1048.091	.005
293.147	.8417	1041.238	.005
303.149	.8417	1034.3	.005
313.15	.8417	1027.323	.005
323.151	.8417	1020.283	.005
333.149	.8417	1013.152	.005
343.147	.8417	1005.84	.005
348.15	.8417	1001.852	.005
278.151	.8997	1071.666	.005
283.148	.8997	1068.383	.005
293.144	.8997	1061.735	.005
303.146	.8997	1054.968	.005
313.148	.8997	1048.112	.005
323.146	.8997	1041.208	.005
333.146	.8997	1034.232	.005
343.144	.8997	1027.154	.005
348.146	.8997	1023.566	.005
278.145	1	1107.046	.005
283.145	1	1103.875	.005
293.149	1	1097.505	.005
303.144	1	1091.064	.005
313.145	1	1084.487	.005
323.143	1	1077.781	.005
333.143	1	1070.997	.005
343.144	1	1064.143	.005
348.143	1	1060.683	.005

System: methanol + diethanolamine + water; phases: Liquid
Fixed: Pressure, kPa = 101
Property: Mass density, kg/m3 (Liquid); method: Vibrating tube method
Mass fraction of methanol	Mass fraction of diethanolamine	Temperature, K	Mass density, kg/m3	uncertainty
.1999	.2002	283.142	995.352	.005
.1999	.2002	293.14	990.356	.005
.1999	.2002	303.141	984.924	.005
.1999	.2002	313.145	979.06	.005
.1999	.2002	323.143	972.768	.005
.1999	.2002	333.144	966.046	.005
.2999	.2001	283.149	978.053	.005
.2999	.2001	293.153	972.024	.005
.2999	.2001	303.146	965.686	.005
.2999	.2001	313.147	959.002	.005
.2999	.2001	323.146	951.964	.005
.2999	.2001	333.147	944.561	.005
.4	.2001	283.143	958.213	.005
.4	.2001	293.14	951.435	.005
.4	.2001	303.141	944.402	.005
.4	.2001	313.144	937.086	.005
.4	.2001	323.141	929.477	.005
.4	.2001	333.142	921.544	.005
.5004	.2001	283.15	935.457	.005
.5004	.2001	293.141	928.11	.005
.5004	.2001	303.145	920.548	.005
.5004	.2001	313.143	912.76	.005
.5004	.2001	323.141	904.712	.005
.5004	.2001	333.142	896.069	.005
.6001	.2	283.148	910.371	.005
.6001	.2	293.144	902.57	.005
.6001	.2	303.144	894.605	.005
.6001	.2	313.152	886.443	.005
.6001	.2	323.146	878.078	.005
.6001	.2	333.144	869.459	.005
.2	.3001	283.156	1006.768	.005
.2	.3001	293.15	1001.117	.005
.2	.3001	303.148	995.148	.005
.2	.3001	313.147	988.844	.005
.2	.3001	323.159	982.179	.005
.2	.3001	333.146	974.93	.005
.2999	.2997	283.152	987.184	.005
.2999	.2997	293.146	980.726	.005
.2999	.2997	303.145	974.016	.005
.2999	.2997	313.148	967.03	.005
.2999	.2997	323.148	959.756	.005
.2999	.2997	333.146	952.18	.005
.4002	.2998	283.147	964.835	.005
.4002	.2998	293.14	957.774	.005
.4002	.2998	303.141	950.515	.005
.4002	.2998	313.145	943.031	.005
.4002	.2998	323.146	935.301	.005
.4002	.2998	333.145	927.303	.005
.4999	.2998	283.15	939.697	.005
.4999	.2998	293.148	932.175	.005
.4999	.2998	303.148	924.506	.005
.4999	.2998	313.148	916.658	.005
.4999	.2998	323.148	908.598	.005
.4999	.2998	333.149	900.302	.005
.5996	.2996	283.154	912.512	.005
.5996	.2996	293.15	904.593	.005
.5996	.2996	303.15	896.56	.005
.5996	.2996	313.15	888.392	.005
.5996	.2996	323.148	880.055	.005
.5996	.2996	333.149	871.525	.005
.2001	.3999	283.152	1017.003	.005
.2001	.3999	293.149	1010.865	.005
.2001	.3999	303.148	1004.485	.005
.2001	.3999	313.155	997.832	.005
.2001	.3999	323.148	990.926	.005
.2001	.3999	333.148	983.714	.005
.2999	.4002	283.152	994.602	.005
.2999	.4002	293.145	987.832	.005
.2999	.4002	303.146	980.868	.005
.2999	.4002	313.147	973.694	.005
.2999	.4002	323.148	966.284	.005
.2999	.4002	333.148	958.622	.005
.4	.4005	283.152	969.426	.005
.4	.4005	293.15	962.187	.005
.4	.4005	303.149	954.8	.005
.4	.4005	313.15	947.242	.005
.4	.4005	323.154	939.476	.005
.4	.4005	333.147	931.509	.005
.4999	.4002	283.148	941.945	.005
.4999	.4002	293.149	934.275	.005
.4999	.4002	303.142	926.518	.005
.4999	.4002	313.15	918.626	.005
.4999	.4002	323.146	910.588	.005
.4999	.4002	333.142	902.366	.005
.1998	.5	283.152	1025.412	.005
.1998	.5	293.14	1018.917	.005
.1998	.5	303.146	1012.205	.005
.1998	.5	313.143	1005.188	.005
.1998	.5	323.149	998.345	.005
.1998	.5	333.142	991.025	.005
.2996	.5002	283.151	1000.138	.005
.2996	.5002	293.149	993.18	.005
.2996	.5002	303.141	986.085	.005
.2996	.5002	313.142	978.826	.005
.2996	.5002	323.143	971.379	.005
.2996	.5002	333.143	963.721	.005
.3998	.4998	293.151	964.716	.005
.3998	.4998	303.147	957.251	.005
.3998	.4998	313.148	949.66	.005
.3998	.4998	323.146	941.922	.005
.3998	.4998	333.145	934.011	.005

System: ethanol + diethanolamine + water; phases: Liquid
Fixed: Pressure, kPa = 101
Property: Mass density, kg/m3 (Liquid); method: Vibrating tube method
Mass fraction of diethanolamine	Mass fraction of ethanol	Temperature, K	Mass density, kg/m3	uncertainty
.2001	.1999	278.148	1000.319	.005
.2001	.1999	283.143	997.6	.005
.2001	.1999	293.144	991.871	.005
.2001	.1999	303.144	985.762	.005
.2001	.1999	313.145	979.272	.005
.2001	.1999	323.146	972.403	.005
.2001	.1999	333.145	965.165	.005
.2001	.1999	343.142	957.567	.005
.2001	.1999	348.142	953.633	.005
.1999	.3	278.154	982.646	.005
.1999	.3	283.14	979.28	.005
.1999	.3	293.141	972.362	.005
.1999	.3	303.141	965.218	.005
.1999	.3	313.143	957.798	.005
.1999	.3	323.143	950.1	.005
.1999	.3	333.143	942.115	.005
.1999	.3	343.154	933.818	.005
.1999	.3	348.145	929.573	.005
.2001	.4003	278.149	960.73	.005
.2001	.4003	283.145	957.055	.005
.2001	.4003	293.146	949.573	.005
.2001	.4003	303.146	941.902	.005
.2001	.4003	313.145	933.987	.005
.2001	.4003	323.148	925.82	.005
.2001	.4003	333.143	917.398	.005
.2001	.4003	343.143	908.689	.005
.2001	.4003	348.143	904.222	.005
.1999	.4998	278.151	936.645	.005
.1999	.4998	283.148	932.819	.005
.1999	.4998	293.148	925.025	.005
.1999	.4998	303.148	917.046	.005
.1999	.4998	313.15	908.852	.005
.1999	.4998	323.148	900.423	.005
.1999	.4998	333.147	891.736	.005
.1999	.4998	343.143	882.771	.005
.1999	.4998	348.144	878.173	.005
.2	.6	278.151	911.69	.005
.2	.6	283.152	907.824	.005
.2	.6	293.146	899.874	.005
.2	.6	303.144	891.741	.005
.2	.6	313.153	883.389	.005
.2	.6	323.159	874.806	.005
.2	.6	333.157	865.98	.005
.2	.6	343.143	856.883	.005
.2	.6	348.154	852.189	.005
.3001	.2001	278.149	1011.499	.005
.3001	.2001	283.142	1008.456	.005
.3001	.2001	293.142	1002.168	.005
.3001	.2001	303.146	995.618	.005
.3001	.2001	313.144	988.805	.005
.3001	.2001	323.146	981.672	.005
.3001	.2001	333.146	974.237	.005
.3001	.2001	343.145	966.488	.005
.3001	.2001	348.143	962.498	.005
.3	.2998	278.153	990.637	.005
.3	.2998	283.142	987.15	.005
.3	.2998	293.143	980.036	.005
.3	.2998	303.146	972.618	.005
.3	.2998	313.146	965.284	.005
.3	.2998	323.148	957.537	.005
.3	.2998	333.155	949.518	.005
.3	.2998	343.15	941.234	.005
.3	.2998	348.147	936.993	.005
.3002	.4001	278.147	966.481	.005
.3002	.4001	283.148	962.811	.005
.3002	.4001	293.15	955.327	.005
.3002	.4001	303.142	947.682	.005
.3002	.4001	313.153	939.816	.005
.3002	.4001	323.146	931.745	.005
.3002	.4001	333.143	923.423	.005
.3002	.4001	343.142	914.833	.005
.3002	.4001	348.141	910.432	.005
.2998	.4998	278.15	939.694	.005
.2998	.4998	283.141	935.907	.005
.2998	.4998	293.14	928.217	.005
.2998	.4998	303.142	920.374	.005
.2998	.4998	313.145	912.34	.005
.2998	.4998	323.146	904.097	.005
.2998	.4998	333.145	895.618	.005
.2998	.4998	343.142	886.877	.005
.2998	.4998	348.144	882.399	.005
.2995	.5991	278.16	912.11	.005
.2995	.5991	283.146	908.263	.005
.2995	.5991	293.144	900.461	.005
.2995	.5991	303.146	892.527	.005
.2995	.5991	313.144	884.431	.005
.2995	.5991	323.154	876.127	.005
.2995	.5991	333.146	867.621	.005
.2995	.5991	343.144	858.854	.005
.2995	.5991	348.152	854.348	.005
.3999	.2	278.154	1020.783	.005
.3999	.2	283.147	1017.566	.005
.3999	.2	293.15	1010.957	.005
.3999	.2	303.147	1004.141	.005
.3999	.2	313.147	997.122	.005
.3999	.2	323.146	989.658	.005
.3999	.2	333.147	982.11	.005
.3999	.2	343.143	974.289	.005
.3999	.2	348.144	970.272	.005
.4	.3001	278.151	996.721	.005
.4	.3001	283.143	993.208	.005
.4	.3001	293.142	986.056	.005
.4	.3001	303.146	978.741	.005
.4	.3001	313.152	971.232	.005
.4	.3001	323.146	963.528	.005
.4	.3001	333.146	955.576	.005
.4	.3001	343.143	947.371	.005
.4	.3001	348.145	943.165	.005
.3997	.3999	278.152	970.152	.005
.3997	.3999	283.147	966.509	.005
.3997	.3999	293.147	959.111	.005
.3997	.3999	303.151	951.564	.005
.3997	.3999	313.148	943.855	.005
.3997	.3999	323.148	935.939	.005
.3997	.3999	333.148	927.799	.005
.3997	.3999	343.147	919.406	.005
.3997	.3999	348.147	915.107	.005
.3999	.4999	278.152	941.898	.005
.3999	.4999	283.147	938.187	.005
.3999	.4999	293.146	930.667	.005
.3999	.4999	303.147	923.023	.005
.3999	.4999	313.148	915.221	.005
.3999	.4999	323.154	907.221	.005
.3999	.4999	333.15	899.031	.005
.3999	.4999	343.147	890.598	.005
.3999	.4999	348.146	886.28	.005
.4999	.1998	278.152	1028.454	.005
.4999	.1998	283.148	1025.116	.005
.4999	.1998	293.149	1018.336	.005
.4999	.1998	303.147	1011.411	.005
.4999	.1998	313.148	1004.31	.005
.4999	.1998	323.153	996.977	.005
.4999	.1998	333.153	989.433	.005
.4999	.1998	343.153	981.645	.005
.4999	.1998	348.148	977.664	.005
.5	.2998	278.152	1001.219	.005
.5	.2998	283.156	997.702	.005
.5	.2998	293.16	990.588	.005
.5	.2998	303.148	983.362	.005
.5	.2998	313.148	975.96	.005
.5	.2998	323.149	968.372	.005
.5	.2998	333.149	960.573	.005
.5	.2998	343.149	952.546	.005
.5	.2998	348.148	948.434	.005
.5001	.4004	278.153	971.523	.005
.5001	.4004	283.148	967.912	.005
.5001	.4004	293.147	960.618	.005
.5001	.4004	303.147	953.223	.005
.5001	.4004	313.15	945.693	.005
.5001	.4004	323.149	937.998	.005
.5001	.4004	333.149	930.111	.005
.5001	.4004	343.147	922.008	.005
.5001	.4004	348.148	917.865	.005
