Measured thermophysical data. Thermodynamic behavior of polyvalent solutes in solid silver: System Ag Sb
Source: Thermochim. Acta, 2012, 10.1016/j.tca.2012.09.037
Compound 1: silver element, Ag
Compound 2: antimony, Sb

System: silver element + antimony; phases: Crystal
Fixed: Temperature, K = 975
Fixed: Pressure, kPa = 101.325
Property: Activity coefficient of antimony (Crystal); method: (Electrochemical) cell potential
Mole fraction of antimony	Activity coefficient of antimony	uncertainty
.01	.1395	
.02	.1515	
.03	.1808	
.04	.226	
.05	.3002	
.06	.3879	
.07	.5123	
