Measured thermophysical data. Differential scanning calorimetry and thermally stimulated depolarization currents study on the molecular dynamics in amorphous fenofibrate
Source: Thermochim. Acta, 2016, 10.1016/j.tca.2015.11.012
Compound 1: fenofibrate, C20H21ClO4

System: fenofibrate; phases: Crystal 1, Liquid, Air at 1 atmosphere
Property: Normal melting temperature, K (Crystal 1); method: DSC/DTA
Normal melting temperature, K	uncertainty
354.75	

System: fenofibrate; phases: Crystal 2, Liquid, Air at 1 atmosphere
Property: Normal melting temperature, K (Crystal 2); method: DSC/DTA
Normal melting temperature, K	uncertainty
347.55	

System: fenofibrate; phases: Glass, Liquid, Air at 1 atmosphere
Property: Triple point temperature, K (Glass); method: DSC
Triple point temperature, K	uncertainty
255.65	

System: fenofibrate; phases: Crystal 1, Liquid, Air at 1 atmosphere
Property: Molar enthalpy of transition or fusion, kJ/mol (Crystal 1); method: DSC
Molar enthalpy of transition or fusion, kJ/mol	uncertainty
30.85105392	

System: fenofibrate; phases: Glass, Liquid, Air at 1 atmosphere
Property: Triple point temperature, K (Glass); method: Thermally stimulated depolarization currents method
Triple point temperature, K	uncertainty
245.75	
