Measured thermophysical data. Densities, Viscosities, Sound Speed, and IR Studies of N-methyl-2- pyrrolidone with Cyclohexylamine, Cyclohexanol, and Cyclohexene at different Temperatures.
Source: Thermochim. Acta, 2014, 10.1016/j.tca.2014.06.026
Compound 1: N-methyl-2-pyrrolidinone, C5H9NO, purity 99.5%
Compound 2: cyclohexylamine, C6H13N, purity 99.5%
Compound 3: cyclohexanol, C6H12O, purity 99.5%
Compound 4: cyclohexene, C6H10, purity 99.5%

System: N-methyl-2-pyrrolidinone; phases: Liquid
Fixed: Frequency, MHz = 2
Property: Speed of sound, m/s (Liquid); method: Sing-around technique in a fixed-path interferometer
Temperature, K	Pressure, kPa	Speed of sound, m/s	uncertainty
303.15	101	1552.8	.31056
308.15	101	1526.4	.30528
313.15	101	1501	.3002
318.15	101	1478	.2956

System: N-methyl-2-pyrrolidinone; phases: Liquid
Property: Mass density, kg/m3 (Liquid); method: Vibrating tube method
Temperature, K	Pressure, kPa	Mass density, kg/m3	uncertainty
303.15	101.325	1023.45	.05
308.15	101.325	1019.34	.05
313.15	101.325	1014.82	.05
318.15	101.325	1010.06	.05
303.15	101.325	1023.45	.05
308.15	101.325	1019.34	.05
313.15	101.325	1014.82	.05
318.15	101.325	1010.06	.05
303.15	101.325	1023.45	.05
308.15	101.325	1019.34	.05
313.15	101.325	1014.82	.05
318.15	101.325	1010.06	.05

System: N-methyl-2-pyrrolidinone; phases: Liquid
Property: Viscosity, Pa*s (Liquid); method: Oscillating disk viscometry
Temperature, K	Pressure, kPa	Viscosity, Pa*s	uncertainty
303.15	101.325	.001511	.0001511
308.15	101.325	.001409	.0001409
313.15	101.325	.001332	.0001332
318.15	101.325	.00121	.000121
303.15	101.325	.001511	.0001511
308.15	101.325	.001409	.0001409
313.15	101.325	.001332	.0001332
318.15	101.325	.00121	.000121
303.15	101.325	.001511	.0001511
308.15	101.325	.001409	.0001409
313.15	101.325	.001332	.0001332
318.15	101.325	.00121	.000121

System: cyclohexylamine; phases: Liquid
Fixed: Frequency, MHz = 2
Property: Speed of sound, m/s (Liquid); method: Sing-around technique in a fixed-path interferometer
Temperature, K	Pressure, kPa	Speed of sound, m/s	uncertainty
303.15	101	1397.8	.27956
308.15	101	1379.2	.27584
313.15	101	1360.6	.27212
318.15	101	1342	.2684

System: cyclohexylamine; phases: Liquid
Property: Mass density, kg/m3 (Liquid); method: Vibrating tube method
Temperature, K	Pressure, kPa	Mass density, kg/m3	uncertainty
303.15	101.325	857.71	.05
308.15	101.325	853.14	.05
313.15	101.325	848.61	.05
318.15	101.325	844.07	.05

System: cyclohexylamine; phases: Liquid
Property: Viscosity, Pa*s (Liquid); method: Oscillating disk viscometry
Temperature, K	Pressure, kPa	Viscosity, Pa*s	uncertainty
303.15	101.325	.001797	.0001797
308.15	101.325	.001704	.0001704
313.15	101.325	.001617	.0001617
318.15	101.325	.001506	.0001506

System: cyclohexanol; phases: Liquid
Fixed: Frequency, MHz = 2
Property: Speed of sound, m/s (Liquid); method: Sing-around technique in a fixed-path interferometer
Temperature, K	Pressure, kPa	Speed of sound, m/s	uncertainty
303.15	101	1443.2	.28864
308.15	101	1419.6	.28392
313.15	101	1395.2	.27904
318.15	101	1370.8	.27416

System: cyclohexanol; phases: Liquid
Property: Mass density, kg/m3 (Liquid); method: Vibrating tube method
Temperature, K	Pressure, kPa	Mass density, kg/m3	uncertainty
303.15	101.325	941.32	.05
308.15	101.325	937.23	.05
313.15	101.325	933.48	.05
318.15	101.325	928.11	.05

System: cyclohexanol; phases: Liquid
Property: Viscosity, Pa*s (Liquid); method: Oscillating disk viscometry
Temperature, K	Pressure, kPa	Viscosity, Pa*s	uncertainty
303.15	101.325	.041072	.0041072
308.15	101.325	.027952	.0027952
313.15	101.325	.016661	.0016661
318.15	101.325	.008888	.0008888

System: cyclohexene; phases: Liquid
Fixed: Frequency, MHz = 2
Property: Speed of sound, m/s (Liquid); method: Sing-around technique in a fixed-path interferometer
Temperature, K	Pressure, kPa	Speed of sound, m/s	uncertainty
303.15	101	1252.1	.25042
308.15	101	1224.8	.24496
313.15	101	1196.6	.23932
318.15	101	1169.6	.23392

System: cyclohexene; phases: Liquid
Property: Mass density, kg/m3 (Liquid); method: Vibrating tube method
Temperature, K	Pressure, kPa	Mass density, kg/m3	uncertainty
303.15	101.325	801.81	.05
308.15	101.325	797.25	.05
313.15	101.325	792.61	.05
318.15	101.325	788.02	.05

System: cyclohexene; phases: Liquid
Property: Viscosity, Pa*s (Liquid); method: Oscillating disk viscometry
Temperature, K	Pressure, kPa	Viscosity, Pa*s	uncertainty
303.15	101.325	.000581	.0000581
308.15	101.325	.000549	.0000549
313.15	101.325	.000516	.0000516
318.15	101.325	.000488	.0000488

System: cyclohexylamine + N-methyl-2-pyrrolidinone; phases: Liquid
Fixed: Pressure, kPa = 101
Fixed: Frequency, MHz = 2
Property: Speed of sound, m/s (Liquid); method: Sing-around technique in a fixed-path interferometer
Temperature, K	Mole fraction of N-methyl-2-pyrrolidinone	Speed of sound, m/s	uncertainty
303.15	0	1397.8	.27956
303.15	.1171	1424.2	.28484
303.15	.2299	1448.4	.28968
303.15	.3385	1469.1	.29382
303.15	.4432	1487.8	.29756
303.15	.5442	1504.3	.30086
303.15	.6417	1518.1	.30362
303.15	.7358	1530.2	.30604
303.15	.8268	1540.3	.30806
303.15	.9149	1548.2	.30964
303.15	1	1552.8	.31056
308.15	0	1379.2	.27584
308.15	.1171	1406.8	.28136
308.15	.2299	1429.4	.28588
308.15	.3385	1449.1	.28982
308.15	.4432	1467.1	.29342
308.15	.5442	1483.1	.29662
308.15	.6417	1496.5	.2993
308.15	.7358	1507.7	.30154
308.15	.8268	1517.2	.30344
308.15	.9149	1524.6	.30492
308.15	1	1526.4	.30528
313.15	0	1360.6	.27212
313.15	.1171	1389.2	.27784
313.15	.2299	1411.4	.28228
313.15	.3385	1430.5	.2861
313.15	.4432	1447.6	.28952
313.15	.5442	1462.5	.2925
313.15	.6417	1475.1	.29502
313.15	.7358	1485.7	.29714
313.15	.8268	1494.6	.29892
313.15	.9149	1500.8	.30016
313.15	1	1501	.3002
318.15	0	1342	.2684
318.15	.1171	1371.7	.27434
318.15	.2299	1393.8	.27876
318.15	.3385	1412.2	.28244
318.15	.4432	1428.7	.28574
318.15	.5442	1443.2	.28864
318.15	.6417	1455.4	.29108
318.15	.7358	1465.4	.29308
318.15	.8268	1473.6	.29472
318.15	.9149	1477.8	.29556
318.15	1	1478	.2956

System: cyclohexylamine + N-methyl-2-pyrrolidinone; phases: Liquid
Fixed: Pressure, kPa = 101
Property: Mass density, kg/m3 (Liquid); method: Vibrating tube method
Temperature, K	Mole fraction of N-methyl-2-pyrrolidinone	Mass density, kg/m3	uncertainty
303.15	0	857.71	.05
303.15	.1171	877.49	.05
303.15	.2299	896.91	.05
303.15	.3385	915.83	.05
303.15	.4432	933.86	.05
303.15	.5442	950.84	.05
303.15	.6417	966.69	.05
303.15	.7358	981.66	.05
303.15	.8268	995.81	.05
303.15	.9149	1009.73	.05
303.15	1	1023.45	.05
308.15	0	853.14	.05
308.15	.1171	873.25	.05
308.15	.2299	892.71	.05
308.15	.3385	911.69	.05
308.15	.4432	929.76	.05
308.15	.5442	946.83	.05
308.15	.6417	962.86	.05
308.15	.7358	977.92	.05
308.15	.8268	992.5	.05
308.15	.9149	1006.41	.05
308.15	1	1019.34	.05
313.15	0	848.61	.05
313.15	.1171	869.06	.05
313.15	.2299	888.52	.05
313.15	.3385	907.42	.05
313.15	.4432	925.48	.05
313.15	.5442	942.64	.05
313.15	.6417	958.87	.05
313.15	.7358	974.13	.05
313.15	.8268	988.74	.05
313.15	.9149	1002.53	.05
313.15	1	1014.82	.05
318.15	0	844.07	.05
318.15	.1171	864.89	.05
318.15	.2299	884.43	.05
318.15	.3385	903.34	.05
318.15	.4432	921.45	.05
318.15	.5442	938.47	.05
318.15	.6417	954.68	.05
318.15	.7358	970.14	.05
318.15	.8268	984.78	.05
318.15	.9149	998.55	.05
318.15	1	1010.06	.05

System: cyclohexylamine + N-methyl-2-pyrrolidinone; phases: Liquid
Fixed: Pressure, kPa = 101
Property: Viscosity, Pa*s (Liquid); method: Oscillating disk viscometry
Temperature, K	Mole fraction of N-methyl-2-pyrrolidinone	Viscosity, Pa*s	uncertainty
303.15	0	.001797	.0001797
303.15	.1171	.001791	.0001791
303.15	.2299	.001789	.0001789
303.15	.3385	.001784	.0001784
303.15	.4432	.001773	.0001773
303.15	.5442	.001754	.0001754
303.15	.6417	.001727	.0001727
303.15	.7358	.001693	.0001693
303.15	.8268	.001648	.0001648
303.15	.9149	.001592	.0001592
303.15	1	.001511	.0001511
308.15	0	.001704	.0001704
308.15	.1171	.00169	.000169
308.15	.2299	.001678	.0001678
308.15	.3385	.001668	.0001668
308.15	.4432	.001655	.0001655
308.15	.5442	.001636	.0001636
308.15	.6417	.001607	.0001607
308.15	.7358	.001569	.0001569
308.15	.8268	.001522	.0001522
308.15	.9149	.00147	.000147
308.15	1	.001409	.0001409
313.15	0	.001617	.0001617
313.15	.1171	.0016	.00016
313.15	.2299	.001588	.0001588
313.15	.3385	.001575	.0001575
313.15	.4432	.00156	.000156
313.15	.5442	.001541	.0001541
313.15	.6417	.001514	.0001514
313.15	.7358	.001477	.0001477
313.15	.8268	.001432	.0001432
313.15	.9149	.00138	.000138
313.15	1	.001332	.0001332
318.15	0	.001506	.0001506
318.15	.1171	.001484	.0001484
318.15	.2299	.001463	.0001463
318.15	.3385	.001442	.0001442
318.15	.4432	.001422	.0001422
318.15	.5442	.001401	.0001401
318.15	.6417	.001375	.0001375
318.15	.7358	.001341	.0001341
318.15	.8268	.001298	.0001298
318.15	.9149	.001251	.0001251
318.15	1	.00121	.000121

System: cyclohexanol + N-methyl-2-pyrrolidinone; phases: Liquid
Fixed: Pressure, kPa = 101
Fixed: Frequency, MHz = 2
Property: Speed of sound, m/s (Liquid); method: Sing-around technique in a fixed-path interferometer
Temperature, K	Mole fraction of N-methyl-2-pyrrolidinone	Speed of sound, m/s	uncertainty
303.15	0	1443.2	.28864
303.15	.1088	1462.3	.29246
303.15	.2155	1480.5	.2961
303.15	.3201	1495.7	.29914
303.15	.4228	1508.8	.30176
303.15	.5235	1520.5	.3041
303.15	.6223	1530.5	.3061
303.15	.7194	1538.4	.30768
303.15	.8146	1544.3	.30886
303.15	.9081	1549.2	.30984
303.15	1	1552.8	.31056
308.15	0	1419.6	.28392
308.15	.1088	1440.8	.28816
308.15	.2155	1458.7	.29174
308.15	.3201	1473.4	.29468
308.15	.4228	1486.2	.29724
308.15	.5235	1497.5	.2995
308.15	.6223	1506.9	.30138
308.15	.7194	1515.1	.30302
308.15	.8146	1521.2	.30424
308.15	.9081	1525.2	.30504
308.15	1	1526.4	.30528
313.15	0	1395.2	.27904
313.15	.1088	1418.3	.28366
313.15	.2155	1436.2	.28724
313.15	.3201	1450.8	.29016
313.15	.4228	1463.7	.29274
313.15	.5235	1475.1	.29502
313.15	.6223	1484.6	.29692
313.15	.7194	1492.4	.29848
313.15	.8146	1498.2	.29964
313.15	.9081	1500.6	.30012
313.15	1	1501	.3002
318.15	0	1370.8	.27416
318.15	.1088	1395.7	.27914
318.15	.2155	1413.7	.28274
318.15	.3201	1428.6	.28572
318.15	.4228	1441.9	.28838
318.15	.5235	1453.3	.29066
318.15	.6223	1462.8	.29256
318.15	.7194	1471.1	.29422
318.15	.8146	1476.7	.29534
318.15	.9081	1477.6	.29552
318.15	1	1478	.2956

System: cyclohexanol + N-methyl-2-pyrrolidinone; phases: Liquid
Fixed: Pressure, kPa = 101
Property: Mass density, kg/m3 (Liquid); method: Vibrating tube method
Temperature, K	Mole fraction of N-methyl-2-pyrrolidinone	Mass density, kg/m3	uncertainty
303.15	0	941.32	.05
303.15	.1088	952.25	.05
303.15	.2155	962.68	.05
303.15	.3201	973.14	.05
303.15	.4228	983.38	.05
303.15	.5235	992.24	.05
303.15	.6223	999.61	.05
303.15	.7194	1005.72	.05
303.15	.8146	1011.65	.05
303.15	.9081	1017.47	.05
303.15	1	1023.45	.05
308.15	0	937.23	.05
308.15	.1088	948.65	.05
308.15	.2155	959.48	.05
308.15	.3201	970.04	.05
308.15	.4228	979.96	.05
308.15	.5235	988.83	.05
308.15	.6223	996.39	.05
308.15	.7194	1002.69	.05
308.15	.8146	1008.39	.05
308.15	.9081	1014.23	.05
308.15	1	1019.34	.05
313.15	0	933.48	.05
313.15	.1088	945.29	.05
313.15	.2155	956.55	.05
313.15	.3201	967.18	.05
313.15	.4228	976.72	.05
313.15	.5235	985.29	.05
313.15	.6223	992.87	.05
313.15	.7194	999.41	.05
313.15	.8146	1005.24	.05
313.15	.9081	1010.33	.05
313.15	1	1014.82	.05
318.15	0	928.11	.05
318.15	.1088	940.43	.05
318.15	.2155	952.24	.05
318.15	.3201	963.21	.05
318.15	.4228	972.85	.05
318.15	.5235	981.32	.05
318.15	.6223	988.87	.05
318.15	.7194	995.46	.05
318.15	.8146	1001.47	.05
318.15	.9081	1006.79	.05
318.15	1	1010.06	.05

System: cyclohexanol + N-methyl-2-pyrrolidinone; phases: Liquid
Fixed: Pressure, kPa = 101
Property: Viscosity, Pa*s (Liquid); method: Oscillating disk viscometry
Temperature, K	Mole fraction of N-methyl-2-pyrrolidinone	Viscosity, Pa*s	uncertainty
303.15	0	.041072	.0041072
303.15	.1088	.036795	.0036795
303.15	.2155	.032599	.0032599
303.15	.3201	.028484	.0028484
303.15	.4228	.024441	.0024441
303.15	.5235	.020466	.0020466
303.15	.6223	.016553	.0016553
303.15	.7194	.012698	.0012698
303.15	.8146	.008912	.0008912
303.15	.9081	.005186	.0005186
303.15	1	.001511	.0001511
308.15	0	.027952	.0027952
308.15	.1088	.025085	.0025085
308.15	.2155	.022273	.0022273
308.15	.3201	.01952	.001952
308.15	.4228	.016814	.0016814
308.15	.5235	.01415	.001415
308.15	.6223	.011522	.0011522
308.15	.7194	.008928	.0008928
308.15	.8146	.006381	.0006381
308.15	.9081	.003878	.0003878
308.15	1	.001409	.0001409
313.15	0	.016661	.0016661
313.15	.1088	.015009	.0015009
313.15	.2155	.01339	.001339
313.15	.3201	.011806	.0011806
313.15	.4228	.01025	.001025
313.15	.5235	.008714	.0008714
313.15	.6223	.007194	.0007194
313.15	.7194	.00569	.000569
313.15	.8146	.004211	.0004211
313.15	.9081	.00276	.000276
313.15	1	.001332	.0001332
318.15	0	.008888	.0008888
318.15	.1088	.008064	.0008064
318.15	.2155	.00726	.000726
318.15	.3201	.006472	.0006472
318.15	.4228	.005694	.0005694
318.15	.5235	.004926	.0004926
318.15	.6223	.004163	.0004163
318.15	.7194	.003406	.0003406
318.15	.8146	.002658	.0002658
318.15	.9081	.001924	.0001924
318.15	1	.00121	.000121

System: cyclohexene + N-methyl-2-pyrrolidinone; phases: Liquid
Fixed: Pressure, kPa = 101
Fixed: Frequency, MHz = 2
Property: Speed of sound, m/s (Liquid); method: Sing-around technique in a fixed-path interferometer
Temperature, K	Mole fraction of N-methyl-2-pyrrolidinone	Speed of sound, m/s	uncertainty
303.15	0	1252.1	.25042
303.15	.1052	1267.5	.2535
303.15	.2091	1285.6	.25712
303.15	.3119	1307.1	.26142
303.15	.4135	1330.4	.26608
303.15	.514	1356.2	.27124
303.15	.6134	1384.5	.2769
303.15	.7116	1417.6	.28352
303.15	.8088	1456.8	.29136
303.15	.9049	1502.7	.30054
303.15	1	1552.8	.31056
308.15	0	1224.8	.24496
308.15	.1052	1240.5	.2481
308.15	.2091	1258.2	.25164
308.15	.3119	1278.6	.25572
308.15	.4135	1301.5	.2603
308.15	.514	1326.4	.26528
308.15	.6134	1355.1	.27102
308.15	.7116	1388.3	.27766
308.15	.8088	1426.8	.28536
308.15	.9049	1472.5	.2945
308.15	1	1526.4	.30528
313.15	0	1196.6	.23932
313.15	.1052	1212.4	.24248
313.15	.2091	1230.5	.2461
313.15	.3119	1250.4	.25008
313.15	.4135	1273.5	.2547
313.15	.514	1298.8	.25976
313.15	.6134	1327.1	.26542
313.15	.7116	1360.3	.27206
313.15	.8088	1398.7	.27974
313.15	.9049	1444.1	.28882
313.15	1	1501	.3002
318.15	0	1169.6	.23392
318.15	.1052	1185.2	.23704
318.15	.2091	1202.2	.24044
318.15	.3119	1222.2	.24444
318.15	.4135	1245.2	.24904
318.15	.514	1270.4	.25408
318.15	.6134	1298.6	.25972
318.15	.7116	1330.3	.26606
318.15	.8088	1369.2	.27384
318.15	.9049	1416.1	.28322
318.15	1	1478	.2956

System: cyclohexene + N-methyl-2-pyrrolidinone; phases: Liquid
Fixed: Pressure, kPa = 101
Property: Mass density, kg/m3 (Liquid); method: Vibrating tube method
Temperature, K	Mole fraction of N-methyl-2-pyrrolidinone	Mass density, kg/m3	uncertainty
303.15	0	801.81	.05
303.15	.1052	818.56	.05
303.15	.2091	834.84	.05
303.15	.3119	851.21	.05
303.15	.4135	868.75	.05
303.15	.514	889.05	.05
303.15	.6134	912.45	.05
303.15	.7116	938.12	.05
303.15	.8088	964.81	.05
303.15	.9049	992.11	.05
303.15	1	1023.45	.05
308.15	0	797.25	.05
308.15	.1052	811.04	.05
308.15	.2091	827.32	.05
308.15	.3119	844.1	.05
308.15	.4135	862.03	.05
308.15	.514	882.54	.05
308.15	.6134	906.06	.05
308.15	.7116	931.63	.05
308.15	.8088	957.89	.05
308.15	.9049	985.56	.05
308.15	1	1019.34	.05
313.15	0	792.61	.05
313.15	.1052	804.12	.05
313.15	.2091	819.12	.05
313.15	.3119	836.04	.05
313.15	.4135	854.81	.05
313.15	.514	875.73	.05
313.15	.6134	899.06	.05
313.15	.7116	924.14	.05
313.15	.8088	950.51	.05
313.15	.9049	979.38	.05
313.15	1	1014.82	.05
318.15	0	788.02	.05
318.15	.1052	798.05	.05
318.15	.2091	813.05	.05
318.15	.3119	829.52	.05
318.15	.4135	847.61	.05
318.15	.514	868.15	.05
318.15	.6134	891.64	.05
318.15	.7116	917.16	.05
318.15	.8088	943.71	.05
318.15	.9049	972.27	.05
318.15	1	1010.06	.05

System: cyclohexene + N-methyl-2-pyrrolidinone; phases: Liquid
Fixed: Pressure, kPa = 101
Property: Viscosity, Pa*s (Liquid); method: Oscillating disk viscometry
Temperature, K	Mole fraction of N-methyl-2-pyrrolidinone	Viscosity, Pa*s	uncertainty
303.15	0	.000581	.0000581
303.15	.1052	.000612	.0000612
303.15	.2091	.000653	.0000653
303.15	.3119	.000698	.0000698
303.15	.4135	.000748	.0000748
303.15	.514	.000812	.0000812
303.15	.6134	.000897	.0000897
303.15	.7116	.001009	.0001009
303.15	.8088	.001148	.0001148
303.15	.9049	.001315	.0001315
303.15	1	.001511	.0001511
308.15	0	.000549	.0000549
308.15	.1052	.000579	.0000579
308.15	.2091	.000618	.0000618
308.15	.3119	.000663	.0000663
308.15	.4135	.000715	.0000715
308.15	.514	.000775	.0000775
308.15	.6134	.000853	.0000853
308.15	.7116	.000954	.0000954
308.15	.8088	.001081	.0001081
308.15	.9049	.001235	.0001235
308.15	1	.001409	.0001409
313.15	0	.000516	.0000516
313.15	.1052	.000551	.0000551
313.15	.2091	.000587	.0000587
313.15	.3119	.00063	.000063
313.15	.4135	.00068	.000068
313.15	.514	.000742	.0000742
313.15	.6134	.000818	.0000818
313.15	.7116	.000914	.0000914
313.15	.8088	.001031	.0001031
313.15	.9049	.001171	.0001171
313.15	1	.001332	.0001332
318.15	0	.000488	.0000488
318.15	.1052	.000522	.0000522
318.15	.2091	.000558	.0000558
318.15	.3119	.000597	.0000597
318.15	.4135	.000642	.0000642
318.15	.514	.000698	.0000698
318.15	.6134	.000771	.0000771
318.15	.7116	.000856	.0000856
318.15	.8088	.000956	.0000956
318.15	.9049	.001072	.0001072
318.15	1	.00121	.000121
