Measured thermophysical data. Enthalpies of solution of diglycylglycine in aqueous  solution of amides at 298.15 K
Source: Thermochim. Acta, 2011, 10.1016/j.tca.2011.02.039
Compound 1: glycylglycylglycine, C6H11N3O4, purity 99%
Compound 2: formimidic acid, CH3NO
Compound 3: NMF, C2H5NO, purity 99%
Compound 4: N,N-dimethylformamide, C3H7NO
Compound 5: diethylformamide, C5H11NO, purity 99%
Compound 6: water, H2O

System: formimidic acid + glycylglycylglycine + water; phases: Liquid
Fixed: Temperature, K = 298.15
Fixed: Pressure, kPa = 101
Fixed: Molality, mol/kg of glycylglycylglycine = .01
Property: Molar enthalpy of solution, kJ/mol (Liquid); method: Isoperibol calorimetry
Solvent: Molality, mol/kg of formimidic acid	Molar enthalpy of solution, kJ/mol	uncertainty
1.242	16.98	.01
2.345	14.89	.01
3.748	13.81	.02
5.079	12.85	.01
7.521	11.72	.02
8.477	11.28	.01
10.867	10.27	.01
12.756	9.55	.01
17.652	8.87	.01
25.445	8.31	.02
35.557	7.22	.02

System: NMF + glycylglycylglycine + water; phases: Liquid
Fixed: Temperature, K = 298.15
Fixed: Pressure, kPa = 101
Fixed: Molality, mol/kg of glycylglycylglycine = .01
Property: Molar enthalpy of solution, kJ/mol (Liquid); method: Isoperibol calorimetry
Solvent: Molality, mol/kg of NMF	Molar enthalpy of solution, kJ/mol	uncertainty
.814	17.79	.02
1.646	17.85	.02
2.411	17.93	.02
3.869	17.99	.01
4.701	18.23	.02
5.829	18.39	.01
8.681	18.45	.01
9.909	18.69	.01
12.404	18.78	.02
17.463	18.82	.01
24.523	18.69	.02
34.557	16.78	.02

System: N,N-dimethylformamide + glycylglycylglycine + water; phases: Liquid
Fixed: Temperature, K = 298.15
Fixed: Pressure, kPa = 101
Fixed: Molality, mol/kg of glycylglycylglycine = .01
Property: Molar enthalpy of solution, kJ/mol (Liquid); method: Isoperibol calorimetry
Solvent: Molality, mol/kg of N,N-dimethylformamide	Molar enthalpy of solution, kJ/mol	uncertainty
.717	17.84	.02
1.193	18.18	.02
2.102	18.51	.02
2.598	18.89	.01
3.528	19.11	.02
4.372	19.48	.01
5.586	19.94	.01
6.503	20.22	.01
9.282	21.23	.02
12.996	21.79	.02
18.183	20.42	.02
25.926	11.23	.02

System: glycylglycylglycine + diethylformamide + water; phases: Liquid
Fixed: Temperature, K = 298.15
Fixed: Pressure, kPa = 101
Fixed: Molality, mol/kg of glycylglycylglycine = .01
Property: Molar enthalpy of solution, kJ/mol (Liquid); method: Isoperibol calorimetry
Solvent: Molality, mol/kg of diethylformamide	Molar enthalpy of solution, kJ/mol	uncertainty
.805	18.56	.01
1.396	19.48	.02
1.772	19.98	.01
2.468	20.31	.01
2.952	20.81	.02
3.724	21.12	.01
4.464	21.19	.01
5.513	21.22	.01
6.71	21.06	.01
8.889	20.36	.02
12.412	18.87	.02
17.797	17.26	.03
