Measured thermophysical data. Heat capacity and thermodynamic properties of Ba0.7La0.3F2.3 solid solution from  5 to 1000 K
Source: Thermochim. Acta, 2013, 10.1016/j.tca.2012.12.004
Compound 1: barium difluoride, BaF2, purity 99%
Compound 2: lanthanum fluoride (LaF3), F3La, purity 99%

System: barium difluoride + lanthanum fluoride (LaF3); phases: Crystal
Fixed: Pressure, kPa = 101
Fixed: Mole fraction of barium difluoride = .7
Property: Molar heat capacity at constant pressure, J/K/mol (Crystal); method: Small (less than 1 g) adiabatic calorimetry
Temperature, K	Molar heat capacity at constant pressure, J/K/mol	uncertainty
10	.3566	
15	1.1978	
20	2.757	
25	4.992	
30	7.683	
35	10.6	
40	13.58	
45	16.57	
50	19.51	
60	25.25	
70	30.71	
80	35.83	
90	40.57	
100	44.9	
110	48.81	
120	52.33	
130	55.47	
140	58.27	
150	60.76	
160	62.98	
170	64.95	
180	66.7	
190	68.28	
200	69.68	
210	70.94	
220	72.07	
230	73.09	
240	74.02	
250	74.85	
260	75.6	
270	76.29	
280	76.91	
290	77.48	
298.15	77.91	
300	78.01	
310	78.48	
320	78.93	
330	79.33	
340	79.7	

System: barium difluoride + lanthanum fluoride (LaF3); phases: Crystal
Fixed: Pressure, kPa = 101
Fixed: Mole fraction of barium difluoride = .7
Property: Molar entropy, J/K/mol (Crystal); method: Small (less than 1 g) adiabatic calorimetry
Temperature, K	Molar entropy, J/K/mol	uncertainty
10	.1194	
15	.4016	
20	.942	
25	1.787	
30	2.93	
35	4.331	
40	5.94	
45	7.712	
50	9.611	
60	13.68	
70	17.98	
80	22.42	
90	26.92	
100	31.42	
110	35.89	
120	40.29	
130	44.61	
140	48.82	
150	52.93	
160	56.92	
170	60.8	
180	64.56	
190	68.21	
200	71.75	
210	75.18	
220	78.51	
230	81.73	
240	84.86	
250	87.9	
260	90.85	
270	93.72	
280	96.5	
290	99.21	
298.15	101.4	
300	101.9	
310	104.4	
320	106.9	
330	109.4	
340	111.7	

System: barium difluoride + lanthanum fluoride (LaF3); phases: Crystal
Fixed: Pressure, kPa = 101
Fixed: Mole fraction of barium difluoride = .7
Property: Molar enthalpy, kJ/mol (Crystal); method: Small (less than 1 g) adiabatic calorimetry
Temperature, K	Molar enthalpy, kJ/mol	uncertainty
10	.0009008	
15	.004527	
20	.01412	
25	.03326	
30	.06481	
35	.1104	
40	.1709	
45	.2463	
50	.3365	
60	.5605	
70	.8405	
80	1.173	
90	1.556	
100	1.984	
110	2.452	
120	2.958	
130	3.498	
140	4.067	
150	4.662	
160	5.281	
170	5.921	
180	6.579	
190	7.254	
200	7.944	
210	8.647	
220	9.362	
230	10.088	
240	10.824	
250	11.568	
260	12.32	
270	13.08	
280	13.846	
290	14.618	
298.15	15.251	
300	15.396	
310	16.178	
320	16.965	
330	17.756	
340	18.551	
