Measured thermophysical data. Thermodynamic properties of tetrabridged binuclear copper complexes with  apical substituted pyridine ligands
Source: Thermochim. Acta, 2010, 10.1016/j.tca.2010.06.004
Compound 1: dicopper tetrapivalate, quinoline complex, C34H50Cu2O8
Compound 2: dicopper tetrapivalate, 2,3-dimethylpyridine complex, C30H54Cu2N2O8
Compound 3: dicopper tetrapivalate, 2,6-diaminopyridine complex, C26H50Cu2N6O8
Compound 4: dicopper tetrapivalate, 2-amino-6-methylpyridine complex, C28H52Cu2N4O8
Compound 5: dicopper tetrapivalate, 2-aminopyridine complex, C26H48Cu2N4O8
Compound 6: dicopper tetrapivalate, 3-aminopyridine complex, C26H48Cu2N4O8
Compound 7: dicopper tetrapivalate, 2-aminopyridine complex, benzene solvate, C32H54Cu2N4O8
Compound 8: dicopper tetrapivalate, 2,6-diaminopyridine complex, benzene solvate, C26H50Cu2N6O8

System: dicopper tetrapivalate, quinoline complex; phases: Crystal 2, Crystal 1, Gas
Property: Triple point temperature, K (Crystal 2); method: Adiabatic calorimetry
Triple point temperature, K	uncertainty
270	

System: dicopper tetrapivalate, quinoline complex; phases: Crystal 2, Crystal 1, Gas
Property: Molar enthalpy of transition or fusion, kJ/mol (Crystal 2); method: Adiabatic calorimetry
Molar enthalpy of transition or fusion, kJ/mol	uncertainty
4.76	

System: dicopper tetrapivalate, quinoline complex; phases: Crystal 3, Crystal 2, Gas
Property: Triple point temperature, K (Crystal 3); method: Adiabatic calorimetry
Triple point temperature, K	uncertainty
220	1

System: dicopper tetrapivalate, quinoline complex; phases: Crystal 3, Crystal 2, Gas
Property: Molar enthalpy of transition or fusion, kJ/mol (Crystal 3); method: Adiabatic calorimetry
Molar enthalpy of transition or fusion, kJ/mol	uncertainty
.263	.041

System: dicopper tetrapivalate, quinoline complex; phases: Crystal 3
Fixed: Pressure, kPa = 101.325
Property: Molar heat capacity at constant pressure, J/K/mol (Crystal 3); method: Small (less than 1 g) adiabatic calorimetry
Temperature, K	Molar heat capacity at constant pressure, J/K/mol	uncertainty
10	20.59	
15	46.11	
20	71.15	
25	95.69	
30	119.7	
35	143.3	
40	166.3	
45	188.9	
50	211	
60	253.6	
70	294.3	
80	333.1	
90	370.4	
100	406.1	
110	440.4	
120	473.7	
130	506.4	
140	538.7	
150	570.6	
160	601.6	
170	631.6	
180	660.6	
190	688.7	
200	716.3	
210	744.5	
220	774.7	

System: dicopper tetrapivalate, quinoline complex; phases: Crystal 2
Fixed: Pressure, kPa = 101.325
Property: Molar heat capacity at constant pressure, J/K/mol (Crystal 2); method: Small (less than 1 g) adiabatic calorimetry
Temperature, K	Molar heat capacity at constant pressure, J/K/mol	uncertainty
220	774.7	
230	806	
240	834.9	
250	864	
260	902.1	

System: dicopper tetrapivalate, quinoline complex; phases: Crystal 1
Fixed: Pressure, kPa = 101.325
Property: Molar heat capacity at constant pressure, J/K/mol (Crystal 1); method: Small (less than 1 g) adiabatic calorimetry
Temperature, K	Molar heat capacity at constant pressure, J/K/mol	uncertainty
280	875.4	
290	896.4	
298.15	913.1	
300	916.8	
310	936.5	
320	955.9	
330	975.4	
340	1010	
350	1033	
360	1054	
370	1074	
380	1095	
390	1117	
400	1143	

System: dicopper tetrapivalate, quinoline complex; phases: Crystal 3
Fixed: Pressure, kPa = 101.325
Property: Molar entropy, J/K/mol (Crystal 3); method: Small (less than 1 g) adiabatic calorimetry
Temperature, K	Molar entropy, J/K/mol	uncertainty
10	6.718	
15	19.91	
20	36.62	
25	55.14	
30	74.72	
35	94.95	
40	115.6	
45	136.5	
50	157.5	
60	199.8	
70	242	
80	283.8	
90	325.2	
100	366.1	
110	406.4	
120	446.2	
130	485.4	
140	524.1	
150	562.4	
160	600.2	
170	637.6	
180	674.5	
190	711	
200	747	
210	782.6	

System: dicopper tetrapivalate, quinoline complex; phases: Crystal 2
Fixed: Pressure, kPa = 101.325
Property: Molar entropy, J/K/mol (Crystal 2); method: Small (less than 1 g) adiabatic calorimetry
Temperature, K	Molar entropy, J/K/mol	uncertainty
230	853.1	
240	888	
250	922.7	
260	957.2	

System: dicopper tetrapivalate, quinoline complex; phases: Crystal 1
Fixed: Pressure, kPa = 101.325
Property: Molar entropy, J/K/mol (Crystal 1); method: Small (less than 1 g) adiabatic calorimetry
Temperature, K	Molar entropy, J/K/mol	uncertainty
280	1029	
290	1060	
298.15	1085	
300	1090	
310	1121	
320	1151	
330	1181	
340	1211	
350	1241	
360	1270	
370	1299	
380	1328	
390	1357	
400	1385	

System: dicopper tetrapivalate, quinoline complex; phases: Crystal 3
Fixed: Pressure, kPa = 101.325
Property: Molar enthalpy, kJ/mol (Crystal 3); method: Small (less than 1 g) adiabatic calorimetry
Temperature, K	Molar enthalpy, kJ/mol	uncertainty
10	.05006	
15	.217	
20	.5104	
25	.9277	
30	1.466	
35	2.124	
40	2.899	
45	3.787	
50	4.787	
60	7.111	
70	9.852	
80	12.99	
90	16.509	
100	20.39	
110	24.63	
120	29.2	
130	34.1	
140	39.32	
150	44.87	
160	50.73	
170	56.9	
180	63.36	
190	70.11	
200	77.13	
210	84.44	

System: dicopper tetrapivalate, quinoline complex; phases: Crystal 2
Fixed: Pressure, kPa = 101.325
Property: Molar enthalpy, kJ/mol (Crystal 2); method: Small (less than 1 g) adiabatic calorimetry
Temperature, K	Molar enthalpy, kJ/mol	uncertainty
230	99.94	
240	108.1	
250	116.6	
260	125.5	

System: dicopper tetrapivalate, quinoline complex; phases: Crystal 1
Fixed: Pressure, kPa = 101.325
Property: Molar enthalpy, kJ/mol (Crystal 1); method: Small (less than 1 g) adiabatic calorimetry
Temperature, K	Molar enthalpy, kJ/mol	uncertainty
280	144.7	
290	153.6	
298.15	160.9	
300	162.6	
310	171.9	
320	181.4	
330	191	
340	201	
350	211.2	
360	221.6	
370	232.3	
380	243.1	
390	254.2	
400	265.5	

System: dicopper tetrapivalate, 2,3-dimethylpyridine complex; phases: Crystal
Fixed: Pressure, kPa = 101.325
Property: Molar heat capacity at constant pressure, J/K/mol (Crystal); method: Small sample (50 mg) DSC
Temperature, K	Molar heat capacity at constant pressure, J/K/mol	uncertainty
170	659	
180	686	
190	710	
200	736	
210	760	
220	784	
230	805	
240	828	
250	853	
260	876	
270	899	
280	920	
290	944	
298	965	
300	970	
310	992	
320	1015	
330	1038	
340	1060	
350	1081	
360	1102	
370	1124	

System: dicopper tetrapivalate, 2,6-diaminopyridine complex; phases: Crystal
Fixed: Pressure, kPa = 101.325
Property: Molar heat capacity at constant pressure, J/K/mol (Crystal); method: Small sample (50 mg) DSC
Temperature, K	Molar heat capacity at constant pressure, J/K/mol	uncertainty
170	619	
180	639	
190	659	
200	680	
210	702	
220	727	
230	749	
240	768	
250	803	
260	827	
270	851	
280	872	
290	900	
298	914	
300	920	
310	940	
320	964	
330	987	
340	1016	

System: dicopper tetrapivalate, 2-amino-6-methylpyridine complex; phases: Crystal
Fixed: Pressure, kPa = 101.325
Property: Molar heat capacity at constant pressure, J/K/mol (Crystal); method: Small sample (50 mg) DSC
Temperature, K	Molar heat capacity at constant pressure, J/K/mol	uncertainty
170	634	
180	660	
190	683	
200	708	
210	733	
220	760	
230	788	
240	811	
250	833	
260	859	
270	882	
280	895	
290	915	
298	931	
300	936	
310	956	
320	975	
330	995	
340	1014	

System: dicopper tetrapivalate, 2-aminopyridine complex; phases: Crystal 2, Crystal 1, Gas
Property: Triple point temperature, K (Crystal 2); method: Adiabatic calorimetry
Triple point temperature, K	uncertainty
275	

System: dicopper tetrapivalate, 2-aminopyridine complex; phases: Crystal 2, Crystal 1, Gas
Property: Molar enthalpy of transition or fusion, kJ/mol (Crystal 2); method: Adiabatic calorimetry
Molar enthalpy of transition or fusion, kJ/mol	uncertainty
.248	

System: dicopper tetrapivalate, 2-aminopyridine complex; phases: Crystal 2
Fixed: Pressure, kPa = 101.325
Property: Molar heat capacity at constant pressure, J/K/mol (Crystal 2); method: Small (less than 1 g) adiabatic calorimetry
Temperature, K	Molar heat capacity at constant pressure, J/K/mol	uncertainty
10	22.21	
15	49.69	
20	72.78	
25	96.34	
30	121.3	
35	146.2	
40	169.9	
45	192	
50	212.9	
60	252.4	
70	291.4	
80	330.3	
90	368.8	
100	406	
110	441.3	
120	474.3	
130	505.3	
140	534.3	
150	561.6	
160	587.5	
170	612.2	
180	635.9	
190	658.9	
200	681.1	
210	702.7	
220	723.6	
230	744	
240	763.9	
250	783.1	
260	801.8	
270	819	

System: dicopper tetrapivalate, 2-aminopyridine complex; phases: Crystal 1
Fixed: Pressure, kPa = 101.325
Property: Molar heat capacity at constant pressure, J/K/mol (Crystal 1); method: Small (less than 1 g) adiabatic calorimetry
Temperature, K	Molar heat capacity at constant pressure, J/K/mol	uncertainty
280	839	
290	868	
298	884	
300	888	
310	906	
320	925	
330	943	
340	961	
350	979	
360	999	
370	1017	
380	1033	
390	1053	
400	1072	

System: dicopper tetrapivalate, 2-aminopyridine complex; phases: Crystal 2
Fixed: Pressure, kPa = 101.325
Property: Molar entropy, J/K/mol (Crystal 2); method: Small (less than 1 g) adiabatic calorimetry
Temperature, K	Molar entropy, J/K/mol	uncertainty
10	0	
15	13.83	
20	31.21	
25	49.94	
30	69.69	
35	90.24	
40	111.3	
45	132.6	
50	153.9	
60	196.2	
70	238.1	
80	279.5	
90	320.7	
100	361.5	
110	401.8	
120	441.6	
130	480.8	
140	519.4	
150	557.2	
160	594.2	
170	630.6	
180	666.3	
190	701.3	
200	735.6	
210	769.4	
220	802.6	
230	835.2	
240	867.3	
250	898.9	
260	929.9	
270	960	

System: dicopper tetrapivalate, 2-aminopyridine complex; phases: Crystal 1
Fixed: Pressure, kPa = 101.325
Property: Molar entropy, J/K/mol (Crystal 1); method: Small (less than 1 g) adiabatic calorimetry
Temperature, K	Molar entropy, J/K/mol	uncertainty
280	991	
290	1021	
298	1044	
300	1050	
310	1080	
320	1109	
330	1138	
340	1166	
350	1187	
360	1222	
370	1249	
380	1277	
390	1304	
400	1331	

System: dicopper tetrapivalate, 2-aminopyridine complex; phases: Crystal 2
Fixed: Pressure, kPa = 101.325
Property: Molar enthalpy, kJ/mol (Crystal 2); method: Small (less than 1 g) adiabatic calorimetry
Temperature, K	Molar enthalpy, kJ/mol	uncertainty
10	0	
15	.18	
20	.486	
25	.909	
30	1.453	
35	2.122	
40	2.912	
45	3.817	
50	4.829	
60	7.156	
70	9.875	
80	12.98	
90	16.48	
100	20.35	
110	24.59	
120	29.17	
130	34.07	
140	39.26	
150	44.74	
160	50.49	
170	56.49	
180	62.73	
190	69.2	
200	75.9	
210	82.82	
220	89.95	
230	97.29	
240	104.8	
250	112.6	
260	120.5	
270	128.5	

System: dicopper tetrapivalate, 2-aminopyridine complex; phases: Crystal 1
Fixed: Pressure, kPa = 101.325
Property: Molar enthalpy, kJ/mol (Crystal 1); method: Small (less than 1 g) adiabatic calorimetry
Temperature, K	Molar enthalpy, kJ/mol	uncertainty
280	136.8	
290	145.4	
298	152.4	
300	154.1	
310	163.1	
320	172.3	
330	181.6	
340	191.1	
350	200.8	
360	210.7	
370	220.8	
380	231	
390	241.5	

System: dicopper tetrapivalate, 3-aminopyridine complex; phases: Crystal 2, Crystal 1, Gas
Property: Triple point temperature, K (Crystal 2); method: Adiabatic calorimetry
Triple point temperature, K	uncertainty
289	

System: dicopper tetrapivalate, 3-aminopyridine complex; phases: Crystal 2, Crystal 1, Gas
Property: Molar enthalpy of transition or fusion, kJ/mol (Crystal 2); method: Adiabatic calorimetry
Molar enthalpy of transition or fusion, kJ/mol	uncertainty
.67	.42

System: dicopper tetrapivalate, 3-aminopyridine complex; phases: Crystal 2
Fixed: Pressure, kPa = 101.325
Property: Molar heat capacity at constant pressure, J/K/mol (Crystal 2); method: Small (less than 1 g) adiabatic calorimetry
Temperature, K	Molar heat capacity at constant pressure, J/K/mol	uncertainty
10	20.87	
15	47.41	
20	73.17	
25	98.57	
30	124.1	
35	150.1	
40	177.1	
45	205.2	
50	233	
60	279.9	
70	316.8	
80	357.1	
90	400.9	
100	438.6	
110	471.6	
120	504.5	
130	537.9	
140	571	
150	603	
160	633.2	
170	661.4	
180	687.7	
190	712.1	
200	734.7	
210	758.4	
220	786.9	
230	814	
240	832.7	
250	854.4	
260	876	
270	898.5	
280	922.9	

System: dicopper tetrapivalate, 3-aminopyridine complex; phases: Crystal 2
Fixed: Pressure, kPa = 101.325
Property: Molar entropy, J/K/mol (Crystal 2); method: Small (less than 1 g) adiabatic calorimetry
Temperature, K	Molar entropy, J/K/mol	uncertainty
10	6.661	
15	20.17	
20	37.36	
25	56.41	
30	76.63	
35	97.7	
40	119.5	
45	142	
50	165	
60	211.9	
70	257.8	
80	302.7	
90	347.3	
100	391.6	
110	434.9	
120	477.4	
130	519.1	
140	560.1	
150	600.6	
160	640.5	
170	679.8	
180	718.3	
190	756.2	
200	793.3	
210	829.7	
220	865.6	
230	901.2	
240	936.2	
250	970.6	
260	1005	
270	1038	
280	1071	

System: dicopper tetrapivalate, 3-aminopyridine complex; phases: Crystal 2
Fixed: Pressure, kPa = 101.325
Property: Molar enthalpy, kJ/mol (Crystal 2); method: Small (less than 1 g) adiabatic calorimetry
Temperature, K	Molar enthalpy, kJ/mol	uncertainty
10	.05018	
15	.2213	
20	.523	
25	.9524	
30	1.509	
35	2.194	
40	3.011	
45	3.966	
50	5.062	
60	7.64	
70	10.63	
80	14	
90	17.78	
100	21.98	
110	26.54	
120	31.42	
130	36.63	
140	42.17	
150	48.04	
160	54.23	
170	60.7	
180	67.45	
190	74.45	
200	81.68	
210	89.15	
220	96.87	
230	104.9	
240	113.1	
250	121.5	
260	130.2	
270	139.1	
280	148.2	

System: dicopper tetrapivalate, 3-aminopyridine complex; phases: Crystal 1
Fixed: Pressure, kPa = 101.325
Property: Molar heat capacity at constant pressure, J/K/mol (Crystal 1); method: Small (less than 1 g) adiabatic calorimetry
Temperature, K	Molar heat capacity at constant pressure, J/K/mol	uncertainty
290	946.9	
298.15	956.4	
300	961.4	
310	987.1	
320	1006	
330	1023	
340	1042	

System: dicopper tetrapivalate, 3-aminopyridine complex; phases: Crystal 1
Fixed: Pressure, kPa = 101.325
Property: Molar entropy, J/K/mol (Crystal 1); method: Small (less than 1 g) adiabatic calorimetry
Temperature, K	Molar entropy, J/K/mol	uncertainty
290	1104	
298.15	1130	
300	1136	
310	1168	
320	1200	
330	1231	
340	1262	

System: dicopper tetrapivalate, 3-aminopyridine complex; phases: Crystal 1
Fixed: Pressure, kPa = 101.325
Property: Molar enthalpy, kJ/mol (Crystal 1); method: Small (less than 1 g) adiabatic calorimetry
Temperature, K	Molar enthalpy, kJ/mol	uncertainty
290	157.5	
298.15	165.3	
300	167	
310	176.8	
320	186.8	
330	196.9	
340	207.2	

System: dicopper tetrapivalate, 2-aminopyridine complex, benzene solvate; phases: Crystal 2
Fixed: Pressure, kPa = 101.325
Property: Molar heat capacity at constant pressure, J/K/mol (Crystal 2); method: Small (less than 1 g) adiabatic calorimetry
Temperature, K	Molar heat capacity at constant pressure, J/K/mol	uncertainty
10	24.19	
15	54.15	
20	83.3	
25	111.7	
30	139.3	
35	166.1	
40	192.2	
45	217.7	
50	242.5	
60	290	
70	335.1	
80	377.8	
90	418.4	
100	456.9	
110	493.7	
120	528.7	
130	562.2	
140	594.3	
150	625.2	
160	654.9	
170	683.7	
180	711.6	
190	738.7	
200	765.2	
210	791.2	
220	816.8	
230	842.1	
240	867.4	
250	892.8	
260	918.7	
270	964	
280	974.2	
290	992.8	
298.15	1021	
300	1028	
310	1063	
320	1101	
330	1156	
340	1476	

System: dicopper tetrapivalate, 2-aminopyridine complex, benzene solvate; phases: Crystal 2
Fixed: Pressure, kPa = 101.325
Property: Molar entropy, J/K/mol (Crystal 2); method: Small (less than 1 g) adiabatic calorimetry
Temperature, K	Molar entropy, J/K/mol	uncertainty
10	8.114	
15	23.61	
20	43.2	
25	64.85	
30	87.67	
35	111.2	
40	135.1	
45	159.2	
50	183.4	
60	231.9	
70	280	
80	327.6	
90	374.4	
100	420.5	
110	465.8	
120	510.3	
130	553.9	
140	596.8	
150	638.8	
160	680.1	
170	720.7	
180	760.6	
190	799.8	
200	838.3	
210	876.3	
220	913.7	
230	950.6	
240	986.9	
250	1023	
260	1058	
270	1094	
280	1129	
290	1164	
298.15	1192	
300	1198	
310	1232	
320	1267	
330	1301	
340	1353	

System: dicopper tetrapivalate, 2-aminopyridine complex, benzene solvate; phases: Crystal 2
Fixed: Pressure, kPa = 101.325
Property: Molar enthalpy, kJ/mol (Crystal 2); method: Small (less than 1 g) adiabatic calorimetry
Temperature, K	Molar enthalpy, kJ/mol	uncertainty
10	.05964	
15	.2558	
20	.5998	
25	1.088	
30	1.715	
35	2.479	
40	3.375	
45	4.401	
50	5.552	
60	8.216	
70	11.34	
80	14.91	
90	18.89	
100	23.27	
110	28.03	
120	33.14	
130	38.59	
140	44.38	
150	50.48	
160	56.88	
170	63.57	
180	70.55	
190	77.8	
200	85.32	
210	93.1	
220	101.1	
230	109.4	
240	118	
250	126.8	
260	135.8	
270	145.2	
280	155	
290	165	
298.15	173	
300	174.9	
310	185.3	
320	196.2	
330	207.4	
340	224.8	

System: dicopper tetrapivalate, 2,6-diaminopyridine complex, benzene solvate; phases: Crystal
Fixed: Pressure, kPa = 101.325
Property: Molar heat capacity at constant pressure, J/K/mol (Crystal); method: Small sample (50 mg) DSC
Temperature, K	Molar heat capacity at constant pressure, J/K/mol	uncertainty
170	690	
180	714	
190	738	
200	764	
210	790	
220	820	
230	847	
240	872	
250	913	
260	943	
270	973	
280	1001	
290	1036	
298	1056	
300	1062	
310	1089	
320	1120	
330	1151	
340	1186	
