Measured thermophysical data. Enthalpy-related interaction parameters in H/D  isotopically distinguishable aqueous solutions of  tetramethylurea cyclic derivatives at 298.15 K
Source: Thermochim. Acta, 2011, 10.1016/j.tca.2011.05.019
Compound 1: N,N,N',N'-tetramethylurea, C5H12N2O, purity 99%
Compound 2: 1,3-dimethyl-2-imidazolidinone, C5H10N2O, purity 99%
Compound 3: 1,3-dimethyl-3,4,5,6-tetrahydro-2(1H)-pyrimidinone, C6H12N2O, purity 99%
Compound 4: imidazo[4,5-d]imidazole-2,5(1H,3H)-dione, tetrahydro-1,3,4,6-tetramethyl-, C8H14N4O2, purity 99.5%
Compound 5: water, H2O, purity 99.9%
Compound 6: water-d2, D2O, purity 99.9%

System: N,N,N',N'-tetramethylurea + water; phases: Liquid
Fixed: Temperature, K = 298.15
Fixed: Pressure, kPa = 101.325
Property: Molar enthalpy of dilution, kJ/mol (Liquid); method: Isoperibol calorimetry
Initial molality of solute, mol/kg	Final molality of solute, mol/kg	Molar enthalpy of dilution, kJ/mol	uncertainty
1.0207	.0079	-.00109	
1.0207	.00858	-.00113	
2.03	.0149	-.00403	
2.03	.0189	-.00509	
4.0192	.0252	-.01591	
4.0192	.0392	-.02509	

System: 1,3-dimethyl-2-imidazolidinone + water; phases: Liquid
Fixed: Temperature, K = 298.15
Fixed: Pressure, kPa = 101.325
Property: Molar enthalpy of dilution, kJ/mol (Liquid); method: Isoperibol calorimetry
Initial molality of solute, mol/kg	Final molality of solute, mol/kg	Molar enthalpy of dilution, kJ/mol	uncertainty
.99889	.00708	-.00159	
.99889	.0106	-.00219	
2.0033	.0144	-.00684	
2.0033	.0181	-.00832	
3.9957	.0208	-.0242	
3.9957	.0272	-.03219	

System: 1,3-dimethyl-3,4,5,6-tetrahydro-2(1H)-pyrimidinone + water; phases: Liquid
Fixed: Temperature, K = 298.15
Fixed: Pressure, kPa = 101.325
Property: Molar enthalpy of dilution, kJ/mol (Liquid); method: Isoperibol calorimetry
Initial molality of solute, mol/kg	Final molality of solute, mol/kg	Molar enthalpy of dilution, kJ/mol	uncertainty
1.9996	.0125	-.00584	
1.9996	.0126	-.00586	
3.9827	.0207	-.01653	
3.9827	.0241	-.0191	
5.9627	.025	-.02499	
5.9727	.0279	-.02871	

System: water + imidazo[4,5-d]imidazole-2,5(1H,3H)-dione, tetrahydro-1,3,4,6-tetramethyl-; phases: Liquid
Fixed: Temperature, K = 298.15
Fixed: Pressure, kPa = 101.325
Property: Molar enthalpy of dilution, kJ/mol (Liquid); method: Isoperibol calorimetry
Initial molality of solute, mol/kg	Final molality of solute, mol/kg	Molar enthalpy of dilution, kJ/mol	uncertainty
.4983	.00409	.00065	
.4983	.0049	.00075	
1.1752	.00912	.0021	
1.1752	.0112	.00244	
1.9972	.0118	.00283	
1.9972	.0139	.00343	

System: N,N,N',N'-tetramethylurea + water-d2; phases: Liquid
Fixed: Temperature, K = 298.15
Fixed: Pressure, kPa = 101.325
Property: Molar enthalpy of dilution, kJ/mol (Liquid); method: Isoperibol calorimetry
Initial molality of solute, mol/kg	Final molality of solute, mol/kg	Molar enthalpy of dilution, kJ/mol	uncertainty
.99841	.00892	-.00132	
.99841	.0122	-.00188	
1.9994	.0168	-.0054	
1.9994	.0183	-.00584	
3.9991	.0246	-.01777	
3.9991	.0256	-.0187	

System: 1,3-dimethyl-2-imidazolidinone + water-d2; phases: Liquid
Fixed: Temperature, K = 298.15
Fixed: Pressure, kPa = 101.325
Property: Molar enthalpy of dilution, kJ/mol (Liquid); method: Isoperibol calorimetry
Initial molality of solute, mol/kg	Final molality of solute, mol/kg	Molar enthalpy of dilution, kJ/mol	uncertainty
.97692	.00712	-.00184	
.97692	.00793	-.00196	
.97692	.0115	-.00293	
1.9756	.0137	-.00768	
1.9756	.014	-.00805	
4.0059	.0165	-.02408	
4.0059	.0167	-.02351	

System: 1,3-dimethyl-3,4,5,6-tetrahydro-2(1H)-pyrimidinone + water-d2; phases: Liquid
Fixed: Temperature, K = 298.15
Fixed: Pressure, kPa = 101.325
Property: Molar enthalpy of dilution, kJ/mol (Liquid); method: Isoperibol calorimetry
Initial molality of solute, mol/kg	Final molality of solute, mol/kg	Molar enthalpy of dilution, kJ/mol	uncertainty
2.0084	.0116	-.00663	
4.0019	.025	-.02397	
4.0019	.043	-.04089	
5.9991	.0226	-.02807	
5.9991	.0451	-.05537	

System: water-d2 + imidazo[4,5-d]imidazole-2,5(1H,3H)-dione, tetrahydro-1,3,4,6-tetramethyl-; phases: Liquid
Fixed: Temperature, K = 298.15
Fixed: Pressure, kPa = 101.325
Property: Molar enthalpy of dilution, kJ/mol (Liquid); method: Isoperibol calorimetry
Initial molality of solute, mol/kg	Final molality of solute, mol/kg	Molar enthalpy of dilution, kJ/mol	uncertainty
.39942	.00352	.00066	
.39942	.00601	.00108	
.49898	.00329	.00064	
.74661	.0057	.00136	
.74661	.0111	.00256	
1.1481	.0084	.00228	
1.1481	.0168	.00444	
