Measured thermophysical data. Molar excess enthalpies and molar excess volumes of formamide + 1-propanol or 2-propanol and  thermodynamic modeling by Prigogine-Flory-Patterson theory and Treszczanowicz-Benson  association model
Source: Thermochim. Acta, 2013, 10.1016/j.tca.2013.02.010
Compound 1: formamide, CH3NO, purity 98%
Compound 2: n-propyl alcohol, C3H8O, purity 98%
Compound 3: isopropanol, C3H8O, purity 98%

System: formamide; phases: Liquid
Fixed: Pressure, kPa = 101.325
Property: Refractive index (Na D-line) (Liquid); method: Standard Abbe refractometry
Temperature, K	Refractive index (Na D-line)	uncertainty
298.15	1.4461	.0001

System: formamide; phases: Liquid
Fixed: Pressure, kPa = 101.325
Property: Mass density, kg/m3 (Liquid); method: Pycnometric method
Temperature, K	Mass density, kg/m3	uncertainty
298.15	1129.04	.05
308.15	1120.45	.05

System: n-propyl alcohol; phases: Liquid
Fixed: Pressure, kPa = 101.325
Property: Refractive index (Na D-line) (Liquid); method: Standard Abbe refractometry
Temperature, K	Refractive index (Na D-line)	uncertainty
298.15	1.3835	.0001

System: n-propyl alcohol; phases: Liquid
Fixed: Pressure, kPa = 101.325
Property: Mass density, kg/m3 (Liquid); method: Pycnometric method
Temperature, K	Mass density, kg/m3	uncertainty
298.15	799.76	.05
308.15	791.48	.05

System: isopropanol; phases: Liquid
Fixed: Pressure, kPa = 101.325
Property: Refractive index (Na D-line) (Liquid); method: Standard Abbe refractometry
Temperature, K	Refractive index (Na D-line)	uncertainty
298.15	1.3753	.0001

System: isopropanol; phases: Liquid
Fixed: Pressure, kPa = 101.325
Property: Mass density, kg/m3 (Liquid); method: Pycnometric method
Temperature, K	Mass density, kg/m3	uncertainty
298.15	781.25	.05
308.15	772.3	.05

System: n-propyl alcohol + formamide; phases: Liquid
Fixed: Temperature, K = 308.15
Fixed: Pressure, kPa = 101
Property: Excess molar volume, m3/mol (Liquid); method: Direct dilatometry
Mole fraction of formamide	Excess molar volume, m3/mol	uncertainty
.0615	-.00000003	-.0000000003
.1052	-.000000043	-.00000000043
.165	-.00000006	-.0000000006
.1937	-.000000069	-.00000000069
.2453	-.000000078	-.00000000078
.2856	-.000000091	-.00000000091
.3317	-.000000105	-.00000000105
.372	-.000000112	-.00000000112
.3949	-.000000125	-.00000000125
.4236	-.000000135	-.00000000135
.4639	-.000000148	-.00000000148
.5213	-.000000161	-.00000000161
.5903	-.000000171	-.00000000171
.6394	-.000000171	-.00000000171
.6765	-.000000168	-.00000000168
.7225	-.000000159	-.00000000159
.7686	-.000000142	-.00000000142
.8031	-.000000123	-.00000000123
.8492	-.0000001	-.000000001
.8837	-.000000078	-.00000000078
.9124	-.000000055	-.00000000055
.9411	-.000000033	-.00000000033

System: n-propyl alcohol + formamide; phases: Liquid
Fixed: Pressure, kPa = 101
Property: Excess molar enthalpy (molar enthalpy of mixing), kJ/mol (Liquid); method: Flow calorimetry
Temperature, K	Mole fraction of formamide	Excess molar enthalpy (molar enthalpy of mixing), kJ/mol	uncertainty
298.15	.0624	.257	.002
298.15	.0881	.343	.002
298.15	.1208	.441	.002
298.15	.1479	.513	.002
298.15	.1832	.588	.002
298.15	.2231	.651	.002
298.15	.254	.695	.002
298.15	.3018	.735	.002
298.15	.3775	.757	.002
298.15	.452	.748	.002
298.15	.4832	.741	.002
298.15	.5364	.702	.002
298.15	.5953	.661	.002
298.15	.6672	.603	.002
298.15	.6958	.573	.002
298.15	.7521	.511	.002
298.15	.7958	.455	.002
298.15	.8443	.382	.002
298.15	.8956	.287	.002
298.15	.9208	.234	.002
298.15	.9526	.151	.002
298.15	.9666	.117	.002
308.15	.0582	.264	.002
308.15	.079	.345	.002
308.15	.104	.431	.002
308.15	.1374	.525	.002
308.15	.1624	.592	.002
308.15	.2082	.688	.002
308.15	.2416	.74	.002
308.15	.275	.782	.002
308.15	.3332	.828	.002
308.15	.4124	.845	.002
308.15	.4666	.852	.002
308.15	.5082	.831	.002
308.15	.5666	.803	.002
308.15	.625	.74	.002
308.15	.679	.686	.002
308.15	.725	.627	.002
308.15	.775	.55	.002
308.15	.8166	.473	.002
308.15	.8666	.367	.002
308.15	.9124	.26	.002
308.15	.9416	.178	.002
308.15	.9582	.128	.002

System: isopropanol + formamide; phases: Liquid
Fixed: Temperature, K = 308.15
Fixed: Pressure, kPa = 101
Property: Excess molar volume, m3/mol (Liquid); method: Direct dilatometry
Mole fraction of formamide	Excess molar volume, m3/mol	uncertainty
.0455	-.000000032	-.00000000032
.1021	-.000000064	-.00000000064
.1327	-.000000079	-.00000000079
.1725	-.000000105	-.00000000105
.2155	-.000000134	-.00000000134
.2692	-.000000169	-.00000000169
.3269	-.000000206	-.00000000206
.3535	-.000000227	-.00000000227
.3867	-.000000248	-.00000000248
.4245	-.000000271	-.00000000271
.485	-.0000003	-.000000003
.5191	-.000000313	-.00000000313
.5729	-.000000328	-.00000000328
.6237	-.000000332	-.00000000332
.6951	-.000000331	-.00000000331
.7543	-.000000311	-.00000000311
.7907	-.00000029	-.0000000029
.825	-.000000261	-.00000000261
.8735	-.0000002	-.000000002
.8999	-.000000171	-.00000000171
.9331	-.000000118	-.00000000118
.9745	-.000000051	-.00000000051

System: isopropanol + formamide; phases: Liquid
Fixed: Pressure, kPa = 101
Property: Excess molar enthalpy (molar enthalpy of mixing), kJ/mol (Liquid); method: Flow calorimetry
Temperature, K	Mole fraction of formamide	Excess molar enthalpy (molar enthalpy of mixing), kJ/mol	uncertainty
298.15	.056	.246	.002
298.15	.073	.308	.002
298.15	.099	.403	.002
298.15	.125	.466	.002
298.15	.162	.56	.002
298.15	.2	.623	.002
298.15	.253	.699	.002
298.15	.291	.731	.002
298.15	.329	.757	.002
298.15	.4	.776	.002
298.15	.468	.772	.002
298.15	.537	.749	.002
298.15	.597	.711	.002
298.15	.662	.657	.002
298.15	.702	.618	.002
298.15	.728	.58	.002
298.15	.766	.529	.002
298.15	.812	.452	.002
298.15	.849	.382	.002
298.15	.878	.322	.002
298.15	.901	.266	.002
298.15	.941	.17	.002
308.15	.0666	.334	.002
308.15	.0916	.432	.002
308.15	.1166	.518	.002
308.15	.1501	.617	.002
308.15	.1812	.692	.002
308.15	.229	.789	.002
308.15	.2702	.846	.002
308.15	.3082	.896	.002
308.15	.3666	.937	.002
308.15	.425	.961	.002
308.15	.4958	.961	.002
308.15	.5624	.937	.002
308.15	.629	.876	.002
308.15	.6832	.803	.002
308.15	.7124	.757	.002
308.15	.7503	.685	.002
308.15	.7958	.585	.002
308.15	.8374	.48	.002
308.15	.8708	.39	.002
308.15	.8874	.337	.002
308.15	.9082	.282	.002
308.15	.954	.141	.002
