Measured thermophysical data. Enthalpies of Solution of Glycilglycine in Water-Organic Solvent Media at 298.15 K
Source: Thermochim. Acta, 2010, 10.1016/j.tca.2010.01.006
Compound 1: glycylglycine, C4H8N2O3
Compound 2: formamide, CH3NO
Compound 3: N-methylformamide, C2H5NO
Compound 4: N,N-dimethylformamide, C3H7NO
Compound 5: 1,4-dioxane, C4H8O2
Compound 6: propanone, C3H6O
Compound 7: water, H2O

System: 1,4-dioxane + glycylglycine + water; phases: Liquid
Fixed: Pressure, kPa = 101
Fixed: Temperature, K = 298.15
Fixed: Molality, mol/kg of glycylglycine = .01
Property: Molar enthalpy of solution, kJ/mol (Liquid); method: Isoperibol calorimetry
Solvent: Molality, mol/kg of 1,4-dioxane	Molar enthalpy of solution, kJ/mol	uncertainty
.525	11.99	.02
1.086	12.37	.02
1.693	12.65	.02
2.353	12.96	.02
3.112	13.34	.02
3.905	13.57	.03
4.845	13.89	.03
5.836	13.99	.03
7.029	14.08	.02
8.328	13.94	.03
11.597	13.58	.03
16.306	13.01	.02

System: propanone + glycylglycine + water; phases: Liquid
Fixed: Pressure, kPa = 101
Fixed: Temperature, K = 298.15
Fixed: Molality, mol/kg of glycylglycine = .01
Property: Molar enthalpy of solution, kJ/mol (Liquid); method: Isoperibol calorimetry
Solvent: Molality, mol/kg of propanone	Molar enthalpy of solution, kJ/mol	uncertainty
.703	11.81	.02
1.484	12.16	.02
2.358	12.41	.02
3.339	12.69	.02
4.453	13.19	.03
5.725	13.62	.03
7.193	13.84	.03
8.906	14.55	.02
10.93	14.91	.02
13.359	15.46	.02
16.328	15.18	.03
20.038	14.83	.03

System: formamide + glycylglycine + water; phases: Liquid
Fixed: Pressure, kPa = 101
Fixed: Temperature, K = 298.15
Fixed: Molality, mol/kg of glycylglycine = .01
Property: Molar enthalpy of solution, kJ/mol (Liquid); method: Isoperibol calorimetry
Solvent: Molality, mol/kg of formamide	Molar enthalpy of solution, kJ/mol	uncertainty
1.242	11.07	.02
2.345	10.61	.02
3.748	10.27	.02
5.079	9.96	.02
7.521	9.21	.02
8.477	8.68	.03
10.867	8.47	.03
12.756	8.15	.03
17.652	7.51	.03
25.445	6.91	.03
35.557	6.72	.03

System: N-methylformamide + glycylglycine + water; phases: Liquid
Fixed: Pressure, kPa = 101
Fixed: Temperature, K = 298.15
Fixed: Molality, mol/kg of glycylglycine = .01
Property: Molar enthalpy of solution, kJ/mol (Liquid); method: Isoperibol calorimetry
Solvent: Molality, mol/kg of N-methylformamide	Molar enthalpy of solution, kJ/mol	uncertainty
.721	11.89	.02
1.536	12.28	.02
2.415	12.53	.02
3.396	12.88	.02
4.457	13.16	.03
5.599	13.34	.03
6.914	13.53	.02
8.409	13.69	.02
10.087	13.85	.03
12.006	13.81	.03
16.781	13.57	.03
23.518	13.34	.03

System: N,N-dimethylformamide + glycylglycine + water; phases: Liquid
Fixed: Pressure, kPa = 101
Fixed: Temperature, K = 298.15
Fixed: Molality, mol/kg of glycylglycine = .01
Property: Molar enthalpy of solution, kJ/mol (Liquid); method: Isoperibol calorimetry
Solvent: Molality, mol/kg of N,N-dimethylformamide	Molar enthalpy of solution, kJ/mol	uncertainty
.717	12.09	.02
1.193	12.65	.02
2.102	13.12	.02
2.598	13.89	.02
3.528	14.48	.03
4.372	14.99	.03
5.586	15.38	.02
6.503	16.01	.02
9.282	16.49	.03
12.996	16.97	.03
18.183	17.37	.02
25.926	16.84	.03
