Measured thermophysical data. Liquid-liquid equilibrium in the lithium-lanthanum system
Source: Thermochim. Acta, 2016, 10.1016/j.tca.2016.06.021
Compound 1: lanthanum, La, purity 99.8%
Compound 2: lithium, Li, purity 99.95%

System: lanthanum + lithium; phases: Liquid mixture 1, Liquid mixture 2, Crystal, Air at 1 atmosphere
Fixed: Pressure, kPa = 101.325
Property: Monotectic temperature, K (Liquid mixture 1); method: DSC/DTA
Monotectic temperature, K	uncertainty
1118	

System: lanthanum + lithium; phases: Liquid mixture 1, Liquid mixture 2, Crystal, Air at 1 atmosphere
Fixed: Pressure, kPa = 101.325
Property: Monotectic composition: mole fraction of lanthanum (Liquid mixture 1); method: gamma-ray attenuation technique
Monotectic composition: mole fraction of lanthanum	uncertainty
.0025	

System: lanthanum + lithium; phases: Liquid mixture 2, Liquid mixture 1, Crystal, Air at 1 atmosphere
Fixed: Pressure, kPa = 101.325
Property: Monotectic composition: mole fraction of lanthanum (Liquid mixture 2); method: gamma-ray attenuation technique
Monotectic composition: mole fraction of lanthanum	uncertainty
.929	

System: lanthanum + lithium; phases: Liquid mixture 1, Liquid mixture 2
Fixed: Pressure, kPa = 100
Property: Mole fraction of lanthanum (Liquid mixture 1); method: gamma-ray attenuation technique
Temperature, K	Mole fraction of lanthanum	uncertainty
1118	.0027	
1120.3	.0029	
1123.6	.0029	
1126.5	.0027	
1129.3	.0026	
1131.9	.0029	
1135	.0027	
1138	.003	
1141.2	.0023	
1144.2	.0028	
1147.7	.0031	
1150.7	.0027	
1153.4	.0026	
1156.2	.0033	
1158.8	.003	
1161.7	.0029	
1165	.0029	
1168.6	.003	
1171.1	.003	
1174.3	.0031	
1177.2	.0032	
1180.3	.0033	
1182.7	.0033	
1186.3	.0034	
1189.4	.0035	
1192.1	.0033	
1194.9	.0036	
1198.4	.0035	
1201	.0033	
1204.1	.0035	
1207.4	.0035	
1209.7	.003	
1213.1	.0035	
1216.2	.0037	
1219.4	.0037	
1222.2	.0036	
1225	.0038	
1227.8	.0035	
1230.5	.0037	
1233.5	.0037	
1236.4	.0039	
1239.5	.0038	
1243	.0037	
1245.9	.0037	
1248.9	.0038	
1252.1	.0036	
1254.9	.0042	
1257.8	.0042	
1261	.004	
1263.7	.0038	
1266.7	.0042	
1269.6	.0042	
1272.9	.0041	
1275.4	.0043	
1279.1	.0043	
1281.8	.0045	
1284.5	.0047	
1287.3	.0043	
1290.4	.0043	
1293.3	.0042	
1296.1	.0044	
1299	.0048	
1302	.0041	
1304.7	.0044	
1307.2	.0042	
1310.2	.0045	
1313.4	.0043	
1316.2	.0047	
1318.9	.0044	
1321.8	.0044	
1324.6	.0045	
1327.6	.0046	
1330.3	.0045	
1333.2	.0047	
1336.1	.0044	
1338.9	.0046	
1342.3	.0049	
1345.1	.0051	
1347.9	.0046	
1350.7	.0053	
1353.7	.0049	
1356.3	.0049	
1359.3	.0045	
1362.3	.0045	
1364.9	.0049	
1367.9	.005	
1370.6	.0051	
1373.4	.0051	
1376.4	.0054	
1379.4	.005	
1382.3	.0052	
1385.3	.0054	
1388.4	.0052	
1391	.0056	
1393.8	.0055	
1396.6	.0051	
1399.4	.0056	
1402.5	.0055	
1405.5	.0057	
1408	.0056	
1410.9	.006	
1413.8	.0058	
1416.8	.0056	
1419.8	.0059	
1422.8	.0062	
1425.3	.0058	
1427.9	.0061	
1431.1	.0064	
1433.5	.0059	
1436.5	.0063	
1440	.0058	
1442.7	.006	
1442.9	.0059	
1443.1	.0059	
1443.1	.0062	

System: lanthanum + lithium; phases: Liquid mixture 2, Liquid mixture 1
Fixed: Pressure, kPa = 100
Property: Mole fraction of lanthanum (Liquid mixture 2); method: gamma-ray attenuation technique
Temperature, K	Mole fraction of lanthanum	uncertainty
1119.5	.927	
1126.6	.928	
1131.6	.925	
1136.8	.926	
1140.4	.926	
1145	.926	
1149.3	.927	
1153.9	.926	
1158.2	.924	
1162.8	.925	
1167.7	.922	
1172.2	.922	
1176.3	.922	
1180.9	.921	
1184.6	.919	
1189.3	.919	
1194	.919	
1198.5	.917	
1203.3	.917	
1207.4	.914	
1211.9	.916	
1216.5	.914	
1220.4	.913	
1224.9	.912	
1229.7	.913	
1234	.91	
1238.7	.911	
1243.4	.91	
1250.1	.909	
1251.1	.908	
1251.7	.91	
1251.8	.91	
1251.8	.91	
1251.9	.911	
1251.9	.907	
1252.7	.909	
1255.2	.908	
1258	.905	
1262.1	.904	
1266.7	.906	
1271.8	.905	
1278	.904	
1278.2	.905	
1278.2	.902	
1278.4	.906	
1278.6	.904	
1278.8	.905	
1278.8	.902	
1281.4	.901	
1283.8	.901	
1287.7	.901	
1292.4	.9	
1297.2	.9	
1303.7	.899	
1305.1	.9	
1305.2	.899	
1305.3	.9	
1305.5	.898	
1305.5	.9	
