Measured thermophysical data. Sublimation and thermal decomposition of ammonia borane: Competitive processes controlled by pressure
Source: Thermochim. Acta, 2015, 10.1016/j.tca.2015.08.021
Compound 1: ammonia borane, BH6N
Compound 2: benzoic acid, C7H6O2, purity 99%
Compound 3: boranamine, BH4N
Compound 4: hydrogen, H2

System: ammonia borane; phases: Crystal, Gas
Property: Molar enthalpy of vaporization or sublimation, kJ/mol (Crystal); method: Static calorimetry
Temperature, K	Molar enthalpy of vaporization or sublimation, kJ/mol	uncertainty
357	76.3	3

System: benzoic acid; phases: Crystal, Gas
Property: Molar enthalpy of vaporization or sublimation, kJ/mol (Crystal); method: Static calorimetry
Temperature, K	Molar enthalpy of vaporization or sublimation, kJ/mol	uncertainty
357	87.3	1.4

Reaction: -1 ammonia borane + 1 boranamine + 1 hydrogen
Property: Molar enthalpy of reaction, kJ/mol
-24.9
