Measured thermophysical data. Viscosity measurements of hydrocarbon fuel at temperatures from (303.2 to 513.2) K and pressures up to 5.1 MPa using a two-capillary viscometer
Source: Thermochim. Acta, 2015, 10.1016/j.tca.2015.08.005
Compound 1: n-heptane, C7H16, purity 99.5%
Compound 2: n-octane, C8H18, purity 99.5%

System: n-heptane; phases: Liquid
Property: Viscosity, Pa*s (Liquid); method: two-capillary method based on the Hagen-Poiseuille Theory
Pressure, kPa	Temperature, K	Viscosity, Pa*s	uncertainty
3100	303.2	.0003848	.00002031744
3100	313.2	.0003422	.00001806816
3100	323	.0003097	.00001635216
3100	333.1	.0002834	.00001496352
3100	343.3	.0002562	.00001352736
3100	353.3	.0002382	.00001257696
3100	363.2	.0002207	.00001165296
3100	373.3	.0002027	.00001070256
3100	383.2	.0001853	.00000978384
3100	393.2	.0001717	.00000906576
3100	403.2	.000159	.0000083952
3100	413.2	.0001488	.00000785664
3100	423.2	.0001392	.00000734976
3100	433.2	.0001308	.00000690624
3100	443.4	.0001193	.00000629904
3100	453.1	.0001135	.0000059928
3100	463.2	.0001047	.00000552816
3100	473.2	.0000978	.00000516384
3100	483.1	.0000896	.00000473088
3100	493.2	.0000817	.00000431376
3100	503.2	.0000745	.0000039336

System: n-octane; phases: Liquid
Property: Viscosity, Pa*s (Liquid); method: two-capillary method based on the Hagen-Poiseuille Theory
Pressure, kPa	Temperature, K	Viscosity, Pa*s	uncertainty
3100	303.2	.0004911	.00002593008
3100	313.3	.0004414	.00002330592
3100	323.2	.0003967	.00002094576
3100	333.2	.0003632	.00001917696
3100	343.2	.0003352	.00001769856
3100	353.1	.0003012	.00001590336
3100	363.2	.0002766	.00001460448
3100	373.3	.0002545	.0000134376
3100	383	.0002341	.00001236048
3100	393.1	.0002208	.00001165824
3100	403.2	.0002021	.00001067088
3100	413.2	.0001924	.00001015872
3100	423.2	.0001762	.00000930336
3100	433.1	.0001642	.00000866976
3100	443.2	.0001527	.00000806256
3100	453.1	.0001416	.00000747648
3100	463.2	.0001322	.00000698016
3100	473.1	.0001228	.00000648384
3100	483.1	.0001139	.00000601392
3100	493.1	.0001069	.00000564432
3100	503	.0000995	.0000052536

System: n-octane + n-heptane; phases: Liquid
Property: Viscosity, Pa*s (Liquid); method: two-capillary method based on Hagen-Poiseuille theory
Pressure, kPa	Temperature, K	Mass fraction of n-heptane	Viscosity, Pa*s	uncertainty
100	303.5	.255	.0004422	.00002334816
100	333.8	.255	.0003234	.00001707552
100	363.4	.255	.0002447	.00001292016
5000	303.9	.255	.0004663	.00002462064
5000	373.2	.255	.0002415	.0000127512
5000	413.9	.255	.0001792	.00000946176
5000	473.5	.255	.0001186	.00000626208
100	303.5	.51	.0004149	.00002190672
100	333.5	.51	.0003011	.00001589808
100	363.4	.51	.0002329	.00001229712
5000	303.5	.51	.0004362	.00002303136
5000	373.6	.51	.0002277	.00001202256
5000	413.7	.51	.0001702	.00000898656
5000	473.4	.51	.0001124	.00000593472
5100	303.2	.5	.0004373	.00002308944
5100	313.2	.5	.0003931	.00002075568
5100	323.4	.5	.0003535	.0000186648
5100	333.2	.5	.0003227	.00001703856
5100	343.2	.5	.0002958	.00001561824
5100	353.2	.5	.0002715	.0000143352
5100	363.2	.5	.0002491	.00001315248
5100	373.2	.5	.0002316	.00001222848
5100	383.2	.5	.0002138	.00001128864
5100	393.1	.5	.0001982	.00001046496
5100	403.2	.5	.0001843	.00000973104
5100	413.2	.5	.0001721	.00000908688
5100	423.2	.5	.0001604	.00000846912
5100	433.1	.5	.0001495	.0000078936
5100	443.2	.5	.0001375	.00000726
5100	453.2	.5	.00013	.000006864
5100	463.2	.5	.0001203	.00000635184
5100	473.1	.5	.0001138	.00000600864
5100	483.2	.5	.0001061	.00000560208
5100	493.2	.5	.0000992	.00000523776
5100	503.2	.5	.0000915	.0000048312
5100	513.2	.5	.0000848	.00000447744
