Measured thermophysical data. Effects of temperature and concentration on interactions in (methanol + ethyl acetate)  and (ethanol + methyl acetate or ethyl acetate) systems: insights from apparent molar volume and apparent molar isentropic compressibility study
Source: Thermochim. Acta, 2014, 10.1016/j.tca.2013.12.016
Compound 1: methanol, CH4O, purity 99%
Compound 2: ethanol, C2H6O, purity 99%
Compound 3: methyl acetate, C3H6O2, purity 99%
Compound 4: ethyl acetate, C4H8O2, purity 99%

System: methanol; phases: Liquid
Fixed: Pressure, kPa = 101.325
Property: Mass density, kg/m3 (Liquid); method: Vibrating tube method
Temperature, K	Mass density, kg/m3	uncertainty
298.15	786.6	1
303.15	781.8	1
308.15	777.3	1
313.15	772.8	1

System: methanol; phases: Liquid
Fixed: Pressure, kPa = 101.325
Property: Speed of sound, m/s (Liquid); method: Linear variable-path acoustic interferometer
Temperature, K	Speed of sound, m/s	uncertainty
298.15	1102	5
303.15	1086	5
308.15	1074	5
313.15	1052	5

System: ethanol; phases: Liquid
Fixed: Pressure, kPa = 101.325
Property: Mass density, kg/m3 (Liquid); method: Vibrating tube method
Temperature, K	Mass density, kg/m3	uncertainty
298.15	785.7	1
303.15	782	1
308.15	777.7	1
313.15	773.6	1

System: ethanol; phases: Liquid
Fixed: Pressure, kPa = 101.325
Property: Speed of sound, m/s (Liquid); method: Linear variable-path acoustic interferometer
Temperature, K	Speed of sound, m/s	uncertainty
298.15	1149	5
303.15	1128	5
308.15	1098	5
313.15	1086	5

System: methyl acetate; phases: Liquid
Fixed: Pressure, kPa = 101.325
Property: Mass density, kg/m3 (Liquid); method: Vibrating tube method
Temperature, K	Mass density, kg/m3	uncertainty
298.15	927.1	1
303.15	920.5	1
308.15	914.3	1
313.15	907.9	1

System: methyl acetate; phases: Liquid
Fixed: Pressure, kPa = 101.325
Property: Speed of sound, m/s (Liquid); method: Linear variable-path acoustic interferometer
Temperature, K	Speed of sound, m/s	uncertainty
298.15	1146	5
303.15	1128	5
308.15	1110	5
313.15	1092	5

System: ethyl acetate; phases: Liquid
Fixed: Pressure, kPa = 101.325
Property: Mass density, kg/m3 (Liquid); method: Vibrating tube method
Temperature, K	Mass density, kg/m3	uncertainty
298.15	894.4	1
303.15	888.5	1
308.15	882.7	1
313.15	876.3	1

System: ethyl acetate; phases: Liquid
Fixed: Pressure, kPa = 101.325
Property: Speed of sound, m/s (Liquid); method: Linear variable-path acoustic interferometer
Temperature, K	Speed of sound, m/s	uncertainty
298.15	1141	5
303.15	1118	5
308.15	1096	5
313.15	1073	5

System: methanol + ethyl acetate; phases: Liquid
Fixed: Pressure, kPa = 101
Property: Mass density, kg/m3 (Liquid); method: Vibrating tube method
Temperature, K	Molality, mol/kg of methanol	Mass density, kg/m3	uncertainty
298.15	.0111	894.5	1
298.15	.0223	894.6	1
298.15	.0495	894.7	1
298.15	.1474	894.9	1
298.15	.2878	894.7	1
298.15	.3556	894.4	1
298.15	.4905	893.6	1
298.15	.7268	892.2	1
298.15	.974	890.5	1
298.15	1.4085	888.2	1
298.15	2.4454	886.1	1
298.15	3.0005	886	1
303.15	.0111	888.9	1
303.15	.0223	888.8	1
303.15	.0495	888.7	1
303.15	.1474	888.6	1
303.15	.2878	888.5	1
303.15	.3556	888.3	1
303.15	.4905	887.7	1
303.15	.7268	886.4	1
303.15	.974	884.9	1
303.15	1.4085	882.6	1
303.15	2.4454	879.8	1
303.15	3.0005	879.1	1
308.15	.0111	883	1
308.15	.0223	882.9	1
308.15	.0495	882.8	1
308.15	.1474	882.7	1
308.15	.2878	882.4	1
308.15	.3556	882.1	1
308.15	.4905	881.6	1
308.15	.7268	880.6	1
308.15	.974	879.1	1
308.15	1.4085	877	1
308.15	2.4454	873.8	1
308.15	3.0005	873.1	1
313.15	.0111	877.1	1
313.15	.0223	877	1
313.15	.0495	876.9	1
313.15	.1474	876.8	1
313.15	.2878	876.4	1
313.15	.3556	876.2	1
313.15	.4905	875.8	1
313.15	.7268	874.8	1
313.15	.974	873.8	1
313.15	1.4085	871.6	1
313.15	2.4454	868.4	1
313.15	3.0005	867.9	1

System: methanol + ethyl acetate; phases: Liquid
Fixed: Pressure, kPa = 101
Property: Speed of sound, m/s (Liquid); method: Linear variable-path acoustic interferometer
Temperature, K	Molality, mol/kg of methanol	Speed of sound, m/s	uncertainty
298.15	.0111	1110	5
298.15	.0223	1113	5
298.15	.0495	1116	5
298.15	.1474	1119	5
298.15	.2878	1122	5
298.15	.3556	1125	5
298.15	.4905	1128	5
298.15	.7268	1131	5
298.15	.974	1134	5
298.15	1.4085	1137	5
298.15	2.4454	1140	5
298.15	3.0005	1143	5
303.15	.0111	1086	5
303.15	.0223	1089	5
303.15	.0495	1092	5
303.15	.1474	1095	5
303.15	.2878	1098	5
303.15	.3556	1101	5
303.15	.4905	1104	5
303.15	.7268	1107	5
303.15	.974	1110	5
303.15	1.4085	1113	5
303.15	2.4454	1116	5
303.15	3.0005	1122	5
308.15	.0111	1059	5
308.15	.0223	1062	5
308.15	.0495	1065	5
308.15	.1474	1068	5
308.15	.2878	1071	5
308.15	.3556	1074	5
308.15	.4905	1077	5
308.15	.7268	1080	5
308.15	.974	1089	5
308.15	1.4085	1092	5
308.15	2.4454	1095	5
308.15	3.0005	1098	5
313.15	.0111	1038	5
313.15	.0223	1041	5
313.15	.0495	1044	5
313.15	.1474	1047	5
313.15	.2878	1050	5
313.15	.3556	1053	5
313.15	.4905	1056	5
313.15	.7268	1059	5
313.15	.974	1062	5
313.15	1.4085	1065	5
313.15	2.4454	1068	5
313.15	3.0005	1071	5

System: ethanol + ethyl acetate; phases: Liquid
Fixed: Pressure, kPa = 101
Property: Mass density, kg/m3 (Liquid); method: Vibrating tube method
Temperature, K	Molality, mol/kg of ethanol	Mass density, kg/m3	uncertainty
298.15	.0124	894.9	1
298.15	.0357	894.7	1
298.15	.0713	894.4	1
298.15	.1025	894.2	1
298.15	.2087	893.5	1
298.15	.3504	892.6	1
298.15	.5065	891.7	1
298.15	.6771	890.7	1
298.15	.9772	889.1	1
298.15	1.7008	885.5	1
298.15	2.7122	880.6	1
298.15	3.0012	879.4	1
303.15	.0124	888.4	1
303.15	.0357	888.2	1
303.15	.0713	887.9	1
303.15	.1025	887.7	1
303.15	.2087	887	1
303.15	.3504	886.1	1
303.15	.5065	885.3	1
303.15	.6771	884.4	1
303.15	.9772	883	1
303.15	1.7008	879.4	1
303.15	2.7122	874.7	1
303.15	3.0012	873.5	1
308.15	.0124	882.9	1
308.15	.0357	882.7	1
308.15	.0713	882.4	1
308.15	.1025	882.2	1
308.15	.2087	881.5	1
308.15	.3504	880.6	1
308.15	.5065	879.8	1
308.15	.6771	878.9	1
308.15	.9772	877.4	1
308.15	1.7008	874	1
308.15	2.7122	869.3	1
308.15	3.0012	868.1	1
313.15	.0124	877.2	1
313.15	.0357	877	1
313.15	.0713	876.4	1
313.15	.1025	876.5	1
313.15	.2087	875.8	1
313.15	.3504	874.9	1
313.15	.5065	874	1
313.15	.6771	873.2	1
313.15	.9772	871.8	1
313.15	1.7008	868.3	1
313.15	2.7122	863.7	1
313.15	3.0012	862.5	1

System: ethanol + ethyl acetate; phases: Liquid
Fixed: Pressure, kPa = 101
Property: Speed of sound, m/s (Liquid); method: Linear variable-path acoustic interferometer
Temperature, K	Molality, mol/kg of ethanol	Speed of sound, m/s	uncertainty
298.15	.0124	1152	5
298.15	.0357	1151	5
298.15	.0713	1150	5
298.15	.1025	1149	5
298.15	.2087	1147	5
298.15	.3504	1143	5
298.15	.5065	1140	5
298.15	.6771	1139	5
298.15	.9772	1136	5
298.15	1.7008	1131	5
298.15	2.7122	1128	5
298.15	3.0012	1122	5
303.15	.0124	1135	5
303.15	.0357	1134	5
303.15	.0713	1133	5
303.15	.1025	1130	5
303.15	.2087	1128	5
303.15	.3504	1123	5
303.15	.5065	1119	5
303.15	.6771	1116	5
303.15	.9772	1113	5
303.15	1.7008	1110	5
303.15	2.7122	1107	5
303.15	3.0012	1101	5
308.15	.0124	1116	5
308.15	.0357	1115	5
308.15	.0713	1114	5
308.15	.1025	1110	5
308.15	.2087	1098	5
308.15	.3504	1092	5
308.15	.5065	1091	5
308.15	.6771	1086	5
308.15	.9772	1083	5
308.15	1.7008	1080	5
308.15	2.7122	1074	5
308.15	3.0012	1068	5
313.15	.0124	1093	5
313.15	.0357	1091	5
313.15	.0713	1090	5
313.15	.1025	1089	5
313.15	.2087	1077	5
313.15	.3504	1069	5
313.15	.5065	1067	5
313.15	.6771	1062	5
313.15	.9772	1059	5
313.15	1.7008	1056	5
313.15	2.7122	1053	5
313.15	3.0012	1044	5

System: ethanol + methyl acetate; phases: Liquid
Fixed: Pressure, kPa = 101
Property: Mass density, kg/m3 (Liquid); method: Vibrating tube method
Temperature, K	Molality, mol/kg of ethanol	Mass density, kg/m3	uncertainty
298.15	.0152	927	1
298.15	.0357	926.8	1
298.15	.065	926.6	1
298.15	.102	926.3	1
298.15	.2098	925.5	1
298.15	.3417	924.5	1
298.15	.5068	923.1	1
298.15	.6769	921.8	1
298.15	.9775	919.5	1
298.15	1.7016	914.4	1
298.15	2.7125	907.8	1
298.15	3.0001	905.8	1
303.15	.0152	920.5	1
303.15	.0357	920.3	1
303.15	.065	920.1	1
303.15	.102	919.8	1
303.15	.2098	919	1
303.15	.3417	918	1
303.15	.5068	916.7	1
303.15	.6769	915.4	1
303.15	.9775	913.1	1
303.15	1.7016	908	1
303.15	2.7125	901.5	1
303.15	3.0001	899.7	1
308.15	.0152	914.2	1
308.15	.0357	914	1
308.15	.065	913.8	1
308.15	.102	913.5	1
308.15	.2098	912.7	1
308.15	.3417	911.7	1
308.15	.5068	910.4	1
308.15	.6769	909.1	1
308.15	.9775	906.9	1
308.15	1.7016	901.9	1
308.15	2.7125	895.4	1
308.15	3.0001	893.5	1
313.15	.0152	908	1
313.15	.0357	907.8	1
313.15	.065	907.6	1
313.15	.102	907.3	1
313.15	.2098	906.5	1
313.15	.3417	905.5	1
313.15	.5068	904.1	1
313.15	.6769	902.8	1
313.15	.9775	900.6	1
313.15	1.7016	895.5	1
313.15	2.7125	889	1
313.15	3.0001	887.1	1

System: ethanol + methyl acetate; phases: Liquid
Fixed: Pressure, kPa = 101
Property: Speed of sound, m/s (Liquid); method: Linear variable-path acoustic interferometer
Temperature, K	Molality, mol/kg of ethanol	Speed of sound, m/s	uncertainty
298.15	.0152	1153	5
298.15	.0357	1152	5
298.15	.065	1150	5
298.15	.102	1149	5
298.15	.2098	1146	5
298.15	.3417	1143	5
298.15	.5068	1140	5
298.15	.6769	1137	5
298.15	.9775	1134	5
298.15	1.7016	1131	5
298.15	2.7125	1128	5
298.15	3.0001	1122	5
303.15	.0152	1134	5
303.15	.0357	1131	5
303.15	.065	1130	5
303.15	.102	1128	5
303.15	.2098	1125	5
303.15	.3417	1122	5
303.15	.5068	1119	5
303.15	.6769	1116	5
303.15	.9775	1113	5
303.15	1.7016	1110	5
303.15	2.7125	1107	5
303.15	3.0001	1104	5
308.15	.0152	1113	5
308.15	.0357	1110	5
308.15	.065	1108	5
308.15	.102	1107	5
308.15	.2098	1104	5
308.15	.3417	1101	5
308.15	.5068	1098	5
308.15	.6769	1095	5
308.15	.9775	1092	5
308.15	1.7016	1089	5
308.15	2.7125	1086	5
308.15	3.0001	1080	5
313.15	.0152	1089	5
313.15	.0357	1086	5
313.15	.065	1084	5
313.15	.102	1083	5
313.15	.2098	1080	5
313.15	.3417	1077	5
313.15	.5068	1074	5
313.15	.6769	1071	5
313.15	.9775	1068	5
313.15	1.7016	1065	5
313.15	2.7125	1062	5
313.15	3.0001	1056	5
