Measured thermophysical data. Density of aqueous choline chloride-based ionic liquids analogues
Source: Thermochim. Acta, 2017, 10.1016/j.tca.2016.11.008
Compound 1: choline chloride, C5H14ClNO, purity 98%
Compound 2: triethylene glycol, C6H14O4, purity 99%
Compound 3: glucose, C6H12O6, purity 99%
Compound 4: water, H2O, purity 99.9%

System: choline chloride + triethylene glycol + water; phases: Liquid
Fixed: Pressure, kPa = 101.3
Property: Mass density, kg/m3 (Liquid); method: Vibrating tube method
Temperature, K	Solvent: Mole fraction of choline chloride	Mole fraction of water	Mass density, kg/m3	uncertainty
303.15	.333	.9	1068	
303.15	.333	.7	1105.3	
303.15	.333	.5	1117.2	
303.15	.333	.3	1122	
303.15	.333	.1	1124.6	
303.15	.333	0	1125.4	
313.15	.333	.9	1062.2	
313.15	.333	.7	1098.7	
313.15	.333	.5	1110.6	
313.15	.333	.3	1115.4	
313.15	.333	.1	1118.1	
313.15	.333	0	1118.9	
323.15	.333	.9	1056	
323.15	.333	.7	1092	
323.15	.333	.5	1104	
323.15	.333	.3	1108.9	
323.15	.333	.1	1111.7	
323.15	.333	0	1112.5	
333.15	.333	.9	1049	
333.15	.333	.7	1085.3	
333.15	.333	.5	1097.4	
333.15	.333	.3	1102.5	
333.15	.333	.1	1105.3	
333.15	.333	0	1106.2	
343.15	.333	.9	1040	
343.15	.333	.7	1078.4	
343.15	.333	.5	1090.8	
343.15	.333	.3	1096	
343.15	.333	.1	1098.9	
343.15	.333	0	1099.8	
353.15	.333	.9	1032.2	
353.15	.333	.7	1071.5	
353.15	.333	.5	1084.1	
353.15	.333	.3	1089.5	
353.15	.333	.1	1092.6	
353.15	.333	0	1093.5	

System: glucose + choline chloride + water; phases: Liquid
Fixed: Pressure, kPa = 101.3
Property: Mass density, kg/m3 (Liquid); method: Vibrating tube method
Temperature, K	Solvent: Mole fraction of choline chloride	Mole fraction of water	Mass density, kg/m3	uncertainty
303.15	.667	.9	1114.7	
303.15	.667	.7	1191.6	
303.15	.667	.5	1217.7	
303.15	.667	.3	1234.7	
303.15	.667	.1	1241.6	
303.15	.667	0	1239.7	
313.15	.667	.9	1110	
313.15	.667	.7	1186.5	
313.15	.667	.5	1212.6	
313.15	.667	.3	1229.5	
313.15	.667	.1	1236.5	
313.15	.667	0	1234.6	
323.15	.667	.9	1104.6	
323.15	.667	.7	1181.3	
323.15	.667	.5	1207.5	
323.15	.667	.3	1224.4	
323.15	.667	.1	1231.3	
323.15	.667	0	1229.4	
333.15	.667	.9	1098.5	
333.15	.667	.7	1176.1	
333.15	.667	.5	1202.3	
333.15	.667	.3	1219.2	
333.15	.667	.1	1226.2	
333.15	.667	0	1224.3	
343.15	.667	.9	1091.2	
343.15	.667	.7	1170.8	
343.15	.667	.5	1197.1	
343.15	.667	.3	1214.1	
343.15	.667	.1	1221.1	
343.15	.667	0	1219.2	
353.15	.667	.9	1084.6	
353.15	.667	.7	1165.4	
353.15	.667	.5	1191.9	
353.15	.667	.3	1209	
353.15	.667	.1	1215.8	
353.15	.667	0	1214	

System: choline chloride + triethylene glycol; phases: Liquid
Property: Mass density, kg/m3 (Liquid); method: Vibrating tube method
Temperature, K	Mole fraction of choline chloride	Pressure, kPa	Mass density, kg/m3	uncertainty
303.15	.333	101.3	1125.4	
313.15	.333	101.3	1118.9	
323.15	.333	101.3	1112.5	
333.15	.333	101.3	1106.2	
343.15	.333	101.3	1099.8	
353.15	.333	101.3	1093.5	

System: glucose + choline chloride; phases: Liquid
Property: Mass density, kg/m3 (Liquid); method: Vibrating tube method
Temperature, K	Mole fraction of choline chloride	Pressure, kPa	Mass density, kg/m3	uncertainty
303.15	.667	101.3	1239.7	
313.15	.667	101.3	1234.6	
323.15	.667	101.3	1229.4	
333.15	.667	101.3	1224.3	
343.15	.667	101.3	1219.2	
353.15	.667	101.3	1214	
