Measured thermophysical data. Transfer Enthalpies of Amino Acids and Glycine Peptides from Water to Aqueous Solutions of Trimethylamine N-oxide at 298.15 K
Source: Thermochim. Acta, 2014, 10.1016/j.tca.2014.04.013
Compound 1: trimethylamine oxide, C3H9NO
Compound 2: glycine, C2H5NO2, purity 99%
Compound 3: L-alanine, C3H7NO2, purity 99%
Compound 4: L-serine, C3H7NO3, purity 99%
Compound 5: L-threonine, C4H9NO3, purity 99%
Compound 6: L-valine, C5H11NO2, purity 99%
Compound 7: diglycine, C4H7NO4, purity 99%
Compound 8: glycylglycylglycine, C6H11N3O4, purity 99%
Compound 9: water, H2O, purity 99.9%

System: glycine + trimethylamine oxide + water; phases: Liquid
Fixed: Pressure, kPa = 101
Fixed: Temperature, K = 298.15
Property: Molar enthalpy of solution, kJ/mol (Liquid); method: Calvet calorimetry
Solvent: Molality, mol/kg of trimethylamine oxide	Molality, mol/kg of glycine	Molar enthalpy of solution, kJ/mol	uncertainty
0	.05	14.2	.01
.4962	.05	14.76	.02
1.0034	.05	15.38	.02
1.4971	.05	16.01	.01
2.0514	.05	16.96	.03
2.507	.05	17.83	.01
2.9497	.05	19.06	.02

System: L-serine + trimethylamine oxide + water; phases: Liquid
Fixed: Pressure, kPa = 101
Fixed: Temperature, K = 298.15
Property: Molar enthalpy of solution, kJ/mol (Liquid); method: Calvet calorimetry
Solvent: Molality, mol/kg of trimethylamine oxide	Molality, mol/kg of L-serine	Molar enthalpy of solution, kJ/mol	uncertainty
0	.05	11.3	.02
.5465	.05	12.23	.02
1.0034	.05	12.81	.03
1.478	.05	13.83	.03
2.0514	.05	14.43	.02
2.5429	.05	15.81	.01
2.9147	.05	16.7	.02

System: L-threonine + trimethylamine oxide + water; phases: Liquid
Fixed: Pressure, kPa = 101
Fixed: Temperature, K = 298.15
Property: Molar enthalpy of solution, kJ/mol (Liquid); method: Calvet calorimetry
Solvent: Molality, mol/kg of trimethylamine oxide	Molality, mol/kg of L-threonine	Molar enthalpy of solution, kJ/mol	uncertainty
0	.05	10.23	.01
.5166	.05	10.8	.02
.9641	.05	11.57	.03
1.5448	.05	12.16	.02
2.0051	.05	13.14	.02
2.489	.05	14.33	.02
2.9394	.05	15.31	.03

System: L-alanine + trimethylamine oxide + water; phases: Liquid
Fixed: Pressure, kPa = 101
Fixed: Temperature, K = 298.15
Property: Molar enthalpy of solution, kJ/mol (Liquid); method: Calvet calorimetry
Solvent: Molality, mol/kg of trimethylamine oxide	Molality, mol/kg of L-alanine	Molar enthalpy of solution, kJ/mol	uncertainty
0	.05	7.56	.01
.5164	.05	7.85	.02
.9936	.05	8.2	.02
1.478	.05	9.01	.02
2.0514	.05	9.9	.02
2.507	.05	10.85	.03
2.9497	.05	12.1	.03

System: L-valine + trimethylamine oxide + water; phases: Liquid
Fixed: Pressure, kPa = 101
Fixed: Temperature, K = 298.15
Property: Molar enthalpy of solution, kJ/mol (Liquid); method: Calvet calorimetry
Solvent: Molality, mol/kg of trimethylamine oxide	Molality, mol/kg of L-valine	Molar enthalpy of solution, kJ/mol	uncertainty
0	.05	3.15	.01
.5063	.05	3.3	.02
.9641	.05	3.47	.02
1.5448	.05	4.01	.01
2.062	.05	5.13	.03
2.498	.05	6.18	.02
3.012	.05	7.33	.02

System: diglycine + trimethylamine oxide + water; phases: Liquid
Fixed: Pressure, kPa = 101
Fixed: Temperature, K = 298.15
Property: Molar enthalpy of solution, kJ/mol (Liquid); method: Calvet calorimetry
Solvent: Molality, mol/kg of trimethylamine oxide	Molality, mol/kg of diglycine	Molar enthalpy of solution, kJ/mol	uncertainty
0	.05	11.44	.01
.5365	.05	13.96	.02
1.0426	.05	14.3	.02
1.5733	.05	16.29	.02
1.9215	.05	17.67	.03
2.5429	.05	20.06	.01
2.9889	.05	21.98	.02

System: glycylglycylglycine + trimethylamine oxide + water; phases: Liquid
Fixed: Pressure, kPa = 101
Fixed: Temperature, K = 298.15
Property: Molar enthalpy of solution, kJ/mol (Liquid); method: Calvet calorimetry
Solvent: Molality, mol/kg of trimethylamine oxide	Molality, mol/kg of glycylglycylglycine	Molar enthalpy of solution, kJ/mol	uncertainty
0	.05	16.87	.01
.5365	.05	20.33	.02
1.0426	.05	23.23	.02
1.5733	.05	25.11	.03
2.0883	.05	26.22	.02
2.5429	.05	28	.02
2.9889	.05	30.08	.03

System: glycine + water; phases: Liquid
Property: Molar enthalpy of solution, kJ/mol (Liquid); method: Calvet calorimetry
Molality, mol/kg of glycine	Pressure, kPa	Temperature, K	Molar enthalpy of solution, kJ/mol	uncertainty
.05	101	298.15	14.2	.01

System: L-serine + water; phases: Liquid
Property: Molar enthalpy of solution, kJ/mol (Liquid); method: Calvet calorimetry
Molality, mol/kg of L-serine	Pressure, kPa	Temperature, K	Molar enthalpy of solution, kJ/mol	uncertainty
.05	101	298.15	11.3	.02

System: L-threonine + water; phases: Liquid
Property: Molar enthalpy of solution, kJ/mol (Liquid); method: Calvet calorimetry
Molality, mol/kg of L-threonine	Pressure, kPa	Temperature, K	Molar enthalpy of solution, kJ/mol	uncertainty
.05	101	298.15	10.23	.01

System: L-alanine + water; phases: Liquid
Property: Molar enthalpy of solution, kJ/mol (Liquid); method: Calvet calorimetry
Molality, mol/kg of L-alanine	Pressure, kPa	Temperature, K	Molar enthalpy of solution, kJ/mol	uncertainty
.05	101	298.15	7.56	.01

System: L-valine + water; phases: Liquid
Property: Molar enthalpy of solution, kJ/mol (Liquid); method: Calvet calorimetry
Molality, mol/kg of L-valine	Pressure, kPa	Temperature, K	Molar enthalpy of solution, kJ/mol	uncertainty
.05	101	298.15	3.15	.01

System: diglycine + water; phases: Liquid
Property: Molar enthalpy of solution, kJ/mol (Liquid); method: Calvet calorimetry
Molality, mol/kg of diglycine	Pressure, kPa	Temperature, K	Molar enthalpy of solution, kJ/mol	uncertainty
.05	101	298.15	11.44	.01

System: glycylglycylglycine + water; phases: Liquid
Property: Molar enthalpy of solution, kJ/mol (Liquid); method: Calvet calorimetry
Molality, mol/kg of glycylglycylglycine	Pressure, kPa	Temperature, K	Molar enthalpy of solution, kJ/mol	uncertainty
.05	101	298.15	16.87	.01
