Measured thermophysical data. Thermodynamic properties of ionic liquid, 1-hexyl-3-methylimidazolum  bromide, + N-N'bis(2-pyridylmethylidene)-1,2-diiminoethane(BPIE) Schiff  base + N,N- dimethylformamide solutions at T = (298.15 to 313.15) K
Source: Thermochim. Acta, 2012, 10.1016/j.tca.2011.10.009
Compound 1: 1-hexyl-3-methylimidazolium bromide, C10H19BrN2
Compound 2: N,N-bis(2-pyridylmethylidene)-1,2-diiminoethane, C14H14N4
Compound 3: N,N-dimethylformamide, C3H7NO

System: 1-hexyl-3-methylimidazolium bromide; phases: Liquid
Fixed: Pressure, kPa = 101.325
Property: Mass density, kg/m3 (Liquid); method: Vibrating tube method
Temperature, K	Mass density, kg/m3	uncertainty
298.15	1222.1	

System: N,N-dimethylformamide; phases: Liquid
Property: Mass density, kg/m3 (Liquid); method: Vibrating tube method
Temperature, K	Pressure, kPa	Mass density, kg/m3	uncertainty
298.15	101	944.09	.01
303.15	101	940.82	.01
308.15	101	935.79	.01
313.15	101	930.63	.01

System: N,N-dimethylformamide; phases: Liquid
Property: Viscosity, Pa*s (Liquid); method: Capillary tube (Ostwald; Ubbelohde) method
Pressure, kPa	Temperature, K	Viscosity, Pa*s	uncertainty
101	298.15	.000861	.000005

System: N,N-dimethylformamide + N,N-bis(2-pyridylmethylidene)-1,2-diiminoethane + 1-hexyl-3-methylimidazolium bromide; phases: Liquid
Fixed: Pressure, kPa = 101
Property: Mass density, kg/m3 (Liquid); method: Vibrating tube method
Solvent: Molality, mol/kg of N,N-bis(2-pyridylmethylidene)-1,2-diiminoethane	Temperature, K	Molality, mol/kg of 1-hexyl-3-methylimidazolium bromide	Mass density, kg/m3	uncertainty
0	298.15	0	944.09	.01
0	298.15	.0233	945.6	.01
0	298.15	.0435	946.89	.01
0	298.15	.0658	948.29	.01
0	298.15	.0824	949.31	.01
0	298.15	.1049	950.67	.01
0	298.15	.1228	951.73	.01
0	298.15	.1428	952.91	.01
0	298.15	.1583	953.83	.01
0	298.15	.1869	955.45	.01
0	298.15	.2051	956.47	.01
0	303.15	0	940.82	.01
0	303.15	.0233	942.35	.01
0	303.15	.0435	943.65	.01
0	303.15	.0658	945.07	.01
0	303.15	.0824	946.1	.01
0	303.15	.1049	947.48	.01
0	303.15	.1228	948.58	.01
0	303.15	.1428	949.77	.01
0	303.15	.1583	950.67	.01
0	303.15	.1869	952.33	.01
0	303.15	.2051	953.36	.01
0	308.15	0	935.79	.01
0	308.15	.0233	937.3	.01
0	308.15	.0435	938.59	.01
0	308.15	.0658	939.99	.01
0	308.15	.0824	941.01	.01
0	308.15	.1049	942.38	.01
0	308.15	.1228	943.44	.01
0	308.15	.1428	944.62	.01
0	308.15	.1583	945.53	.01
0	308.15	.1869	947.16	.01
0	308.15	.2051	948.17	.01
0	313.15	0	930.63	.01
0	313.15	.0233	932.21	.01
0	313.15	.0435	933.56	.01
0	313.15	.0658	935.02	.01
0	313.15	.0824	936.08	.01
0	313.15	.1049	937.52	.01
0	313.15	.1228	938.65	.01
0	313.15	.1428	939.88	.01
0	313.15	.1583	940.81	.01
0	313.15	.1869	942.51	.01
0	313.15	.2051	943.57	.01
.0402	298.15	0	945.46	.01
.0402	298.15	.0204	946.8	.01
.0402	298.15	.0428	948.24	.01
.0402	298.15	.064	949.58	.01
.0402	298.15	.0817	950.68	.01
.0402	298.15	.1034	952	.01
.0402	298.15	.1199	952.99	.01
.0402	298.15	.147	954.58	.01
.0402	298.15	.1614	955.42	.01
.0402	298.15	.1828	956.63	.01
.0402	298.15	.2011	957.65	.01
.0402	303.15	0	941.5	.01
.0402	303.15	.0204	942.86	.01
.0402	303.15	.0428	944.32	.01
.0402	303.15	.064	945.68	.01
.0402	303.15	.0817	946.8	.01
.0402	303.15	.1034	948.14	.01
.0402	303.15	.1199	949.14	.01
.0402	303.15	.147	950.76	.01
.0402	303.15	.1614	951.6	.01
.0402	303.15	.1828	952.83	.01
.0402	303.15	.2011	953.86	.01
.0402	308.15	0	936.79	.01
.0402	308.15	.0204	938.13	.01
.0402	308.15	.0428	939.58	.01
.0402	308.15	.064	940.91	.01
.0402	308.15	.0817	942.01	.01
.0402	308.15	.1034	943.34	.01
.0402	308.15	.1199	944.31	.01
.0402	308.15	.147	945.9	.01
.0402	308.15	.1614	946.73	.01
.0402	308.15	.1828	947.95	.01
.0402	308.15	.2011	948.96	.01
.0402	313.15	0	931.89	.01
.0402	313.15	.0204	933.3	.01
.0402	313.15	.0428	934.82	.01
.0402	313.15	.064	936.22	.01
.0402	313.15	.0817	937.38	.01
.0402	313.15	.1034	938.77	.01
.0402	313.15	.1199	939.8	.01
.0402	313.15	.147	941.47	.01
.0402	313.15	.1614	942.32	.01
.0402	313.15	.1828	943.59	.01
.0402	313.15	.2011	944.65	.01
.0764	298.15	0	946.76	.01
.0764	298.15	.0242	948.37	.01
.0764	298.15	.0429	949.59	.01
.0764	298.15	.0601	950.7	.01
.0764	298.15	.0818	952.06	.01
.0764	298.15	.1015	953.28	.01
.0764	298.15	.1208	954.44	.01
.0764	298.15	.1419	955.72	.01
.0764	298.15	.1634	956.98	.01
.0764	298.15	.1809	957.98	.01
.0764	298.15	.2013	959.13	.01
.0764	303.15	0	942.72	.01
.0764	303.15	.0242	944.35	.01
.0764	303.15	.0429	945.59	.01
.0764	303.15	.0601	946.7	.01
.0764	303.15	.0818	948.09	.01
.0764	303.15	.1015	949.32	.01
.0764	303.15	.1208	950.51	.01
.0764	303.15	.1419	951.77	.01
.0764	303.15	.1634	953.05	.01
.0764	303.15	.1809	954.06	.01
.0764	303.15	.2013	955.22	.01
.0764	308.15	0	937.92	.01
.0764	308.15	.0242	939.58	.01
.0764	308.15	.0429	940.84	.01
.0764	308.15	.0601	941.98	.01
.0764	308.15	.0818	943.4	.01
.0764	308.15	.1015	944.66	.01
.0764	308.15	.1208	945.9	.01
.0764	308.15	.1419	947.19	.01
.0764	308.15	.1634	948.5	.01
.0764	308.15	.1809	949.58	.01
.0764	308.15	.2013	950.79	.01
.0764	313.15	0	933.39	.01
.0764	313.15	.0242	935.07	.01
.0764	313.15	.0429	936.34	.01
.0764	313.15	.0601	937.5	.01
.0764	313.15	.0818	938.92	.01
.0764	313.15	.1015	940.19	.01
.0764	313.15	.1208	941.42	.01
.0764	313.15	.1419	942.72	.01
.0764	313.15	.1634	944.02	.01
.0764	313.15	.1809	945.08	.01
.0764	313.15	.2013	946.27	.01
.1208	298.15	0	948.07	.01
.1208	298.15	.0205	949.45	.01
.1208	298.15	.0439	951	.01
.1208	298.15	.0629	952.23	.01
.1208	298.15	.0843	953.58	.01
.1208	298.15	.1029	954.74	.01
.1208	298.15	.1183	955.67	.01
.1208	298.15	.1437	957.2	.01
.1208	298.15	.1606	958.19	.01
.1208	298.15	.1806	959.32	.01
.1208	298.15	.2005	960.45	.01
.1208	303.15	0	943.95	.01
.1208	303.15	.0205	945.35	.01
.1208	303.15	.0439	946.91	.01
.1208	303.15	.0629	948.15	.01
.1208	303.15	.0843	949.52	.01
.1208	303.15	.1029	950.68	.01
.1208	303.15	.1183	951.64	.01
.1208	303.15	.1437	953.22	.01
.1208	303.15	.1606	954.24	.01
.1208	303.15	.1806	955.39	.01
.1208	303.15	.2005	956.55	.01
.1208	308.15	0	939.19	.01
.1208	308.15	.0205	940.57	.01
.1208	308.15	.0439	942.11	.01
.1208	308.15	.0629	943.35	.01
.1208	308.15	.0843	944.72	.01
.1208	308.15	.1029	945.89	.01
.1208	308.15	.1183	946.84	.01
.1208	308.15	.1437	948.37	.01
.1208	308.15	.1606	949.37	.01
.1208	308.15	.1806	950.55	.01
.1208	308.15	.2005	951.7	.01
.1208	313.15	0	934.92	.01
.1208	313.15	.0205	936.37	.01
.1208	313.15	.0439	938	.01
.1208	313.15	.0629	939.29	.01
.1208	313.15	.0843	940.72	.01
.1208	313.15	.1029	941.94	.01
.1208	313.15	.1183	942.95	.01
.1208	313.15	.1437	944.54	.01
.1208	313.15	.1606	945.59	.01
.1208	313.15	.1806	946.8	.01
.1208	313.15	.2005	947.99	.01
.1644	298.15	0	949.29	.01
.1644	298.15	.0259	951.04	.01
.1644	298.15	.0413	952.06	.01
.1644	298.15	.0654	953.63	.01
.1644	298.15	.0813	954.63	.01
.1644	298.15	.1019	955.91	.01
.1644	298.15	.1214	957.11	.01
.1644	298.15	.1416	958.33	.01
.1644	298.15	.1618	959.5	.01
.1644	298.15	.1776	960.4	.01
.1644	298.15	.2054	961.97	.01
.1644	303.15	0	944.72	.01
.1644	303.15	.0259	946.49	.01
.1644	303.15	.0413	947.53	.01
.1644	303.15	.0654	949.1	.01
.1644	303.15	.0813	950.13	.01
.1644	303.15	.1019	951.43	.01
.1644	303.15	.1214	952.61	.01
.1644	303.15	.1416	953.85	.01
.1644	303.15	.1618	955.05	.01
.1644	303.15	.1776	955.97	.01
.1644	303.15	.2054	957.53	.01
.1644	308.15	0	940.14	.01
.1644	308.15	.0259	941.94	.01
.1644	308.15	.0413	942.98	.01
.1644	308.15	.0654	944.58	.01
.1644	308.15	.0813	945.62	.01
.1644	308.15	.1019	946.94	.01
.1644	308.15	.1214	948.14	.01
.1644	308.15	.1416	949.38	.01
.1644	308.15	.1618	950.6	.01
.1644	308.15	.1776	951.52	.01
.1644	308.15	.2054	953.13	.01
.1644	313.15	0	936.16	.01
.1644	313.15	.0259	937.99	.01
.1644	313.15	.0413	939.04	.01
.1644	313.15	.0654	940.67	.01
.1644	313.15	.0813	941.71	.01
.1644	313.15	.1019	943.04	.01
.1644	313.15	.1214	944.27	.01
.1644	313.15	.1416	945.53	.01
.1644	313.15	.1618	946.75	.01
.1644	313.15	.1776	947.67	.01
.1644	313.15	.2054	949.27	.01

System: N,N-dimethylformamide + N,N-bis(2-pyridylmethylidene)-1,2-diiminoethane + 1-hexyl-3-methylimidazolium bromide; phases: Liquid
Fixed: Pressure, kPa = 101
Fixed: Temperature, K = 298.15
Property: Molar conductivity, S*m2/mol (Liquid); method: Digital Conductivity Meter
Solvent: Molality, mol/kg of N,N-bis(2-pyridylmethylidene)-1,2-diiminoethane	Molality, mol/kg of 1-hexyl-3-methylimidazolium bromide	Molar conductivity, S*m2/mol	uncertainty
0	.000577	104.56	.73192
0	.001109	97.73	.68411
0	.001779	93.72	.65604
0	.002462	87.9	.6153
0	.002942	85.86	.60102
0	.003496	83.88	.58716
0	.003929	80.88	.56616
0	.00466	78.89	.55223
0	.005343	76.1	.5327
0	.005884	75.12	.52584
.038	.000667	95.15	.66605
.038	.001436	88.56	.61992
.038	.001981	84.88	.59416
.038	.002648	82.38	.57666
.038	.003337	79.65	.55755
.038	.003997	77.6	.5432
.038	.004839	75.2	.5264
.038	.005905	71.53	.50071
.038	.006471	69.85	.48895
.038	.007131	68.15	.47705
.0707	.000764	90.87	.63609
.0707	.001495	85.65	.59955
.0707	.002124	82.46	.57722
.0707	.002936	78.56	.54992
.0707	.003193	77.72	.54404
.0707	.003991	72.65	.50855
.0707	.004647	70.83	.49581
.0707	.005757	67.39	.47173
.0707	.007089	63.24	.44268
.0707	.008273	59.27	.41489
.1183	.000841	86.65	.60655
.1183	.001633	82.66	.57862
.1183	.002296	77.95	.54565
.1183	.003223	73.93	.51751
.1183	.003637	71.76	.50232
.1183	.004335	68.75	.48125
.1183	.005398	63.78	.44646
.1183	.006567	61.21	.42847
.1183	.008008	59.17	.41419
.1183	.008478	58.43	.40901

System: N,N-dimethylformamide + N,N-bis(2-pyridylmethylidene)-1,2-diiminoethane + 1-hexyl-3-methylimidazolium bromide; phases: Liquid
Fixed: Pressure, kPa = 101
Fixed: Temperature, K = 298.15
Property: Viscosity, Pa*s (Liquid); method: Capillary tube (Ostwald; Ubbelohde) method
Solvent: Molality, mol/kg of N,N-bis(2-pyridylmethylidene)-1,2-diiminoethane	Molality, mol/kg of 1-hexyl-3-methylimidazolium bromide	Viscosity, Pa*s	uncertainty
0	0	.000861	.000005
0	.0000217	.000897	.000005
0	.0000417	.000913	.000005
0	.0000626	.000929	.000005
0	.0000778	.000938	.000005
0	.0000998	.000952	.000005
0	.0001171	.000969	.000005
0	.0001363	.000985	.000005
0	.0001507	.000997	.000005
0	.0001787	.001014	.000005
0	.0001961	.001022	.000005
.0402	0	.000878	.000005
.0402	.0000189	.000906	.000005
.0402	.0000408	.000922	.000005
.0402	.0000608	.000935	.000005
.0402	.000078	.00095	.000005
.0402	.0000981	.000962	.000005
.0402	.0001144	.000976	.000005
.0402	.0001403	.000994	.000005
.0402	.0001538	.001	.000005
.0402	.0001751	.00102	.000005
.0402	.0001925	.001036	.000005
.0764	0	.000893	.000005
.0764	.0000228	.000911	.000005
.0764	.0000408	.000926	.000005
.0764	.000057	.000942	.000005
.0764	.0000781	.000951	.000005
.0764	.0000963	.000962	.000005
.0764	.0001155	.000982	.000005
.0764	.0001357	.000996	.000005
.0764	.000156	.001013	.000005
.0764	.0001733	.001023	.000005
.0764	.0001927	.001036	.000005
.1208	0	.000909	.000005
.1208	.0000199	.000945	.000005
.1208	.0000418	.000957	.000005
.1208	.00006	.000965	.000005
.1208	.0000801	.000981	.000005
.1208	.0000983	.000993	.000005
.1208	.0001127	.001011	.000005
.1208	.0001378	.001029	.000005
.1208	.0001542	.001043	.000005
.1208	.0001735	.001055	.000005
.1208	.0001929	.001062	.000005
.1644	0	.000926	.000005
.1644	.0000247	.000955	.000005
.1644	.000039	.000969	.000005
.1644	.000062	.000991	.000005
.1644	.0000773	.001005	.000005
.1644	.0000975	.001018	.000005
.1644	.0001156	.001029	.000005
.1644	.000136	.001043	.000005
.1644	.0001554	.001054	.000005
.1644	.0001708	.001064	.000005
.1644	.0001971	.001076	.000005

System: N,N-dimethylformamide + N,N-bis(2-pyridylmethylidene)-1,2-diiminoethane + 1-hexyl-3-methylimidazolium bromide; phases: Liquid
Fixed: Pressure, kPa = 101
Fixed: Temperature, K = 298.15
Property: Refractive index (Na D-line) (Liquid); method: Standard Abbe refractometry
Solvent: Molality, mol/kg of N,N-bis(2-pyridylmethylidene)-1,2-diiminoethane	Molality, mol/kg of 1-hexyl-3-methylimidazolium bromide	Refractive index (Na D-line)	uncertainty
0	.0233	1.4303	.0001
0	.0435	1.4306	.0001
0	.0658	1.4311	.0001
0	.0824	1.4316	.0001
0	.1049	1.432	.0001
0	.1228	1.4325	.0001
0	.1428	1.433	.0001
0	.1583	1.4336	.0001
0	.1869	1.4344	.0001
0	.2051	1.4347	.0001
.0402	.0204	1.4316	.0001
.0402	.0428	1.4325	.0001
.0402	.064	1.4329	.0001
.0402	.0817	1.4335	.0001
.0402	.1034	1.4342	.0001
.0402	.1199	1.4344	.0001
.0402	.147	1.4346	.0001
.0402	.1614	1.4354	.0001
.0402	.1828	1.4357	.0001
.0402	.2011	1.4361	.0001
.0764	.0242	1.4329	.0001
.0764	.0429	1.4333	.0001
.0764	.0601	1.4345	.0001
.0764	.0818	1.4348	.0001
.0764	.1015	1.4352	.0001
.0764	.1208	1.4356	.0001
.0764	.1419	1.4363	.0001
.0764	.1634	1.4366	.0001
.0764	.1809	1.4368	.0001
.0764	.2013	1.4371	.0001
.12	.0205	1.4347	.0001
.12	.0439	1.435	.0001
.12	.0629	1.4362	.0001
.12	.0843	1.4365	.0001
.12	.1029	1.4374	.0001
.12	.1183	1.4376	.0001
.12	.1437	1.4379	.0001
.12	.1606	1.4385	.0001
.12	.1806	1.4388	.0001
.12	.205	1.4392	.0001
.1644	.0259	1.4352	.0001
.1644	.0413	1.4359	.0001
.1644	.0654	1.4366	.0001
.1644	.0813	1.437	.0001
.1644	.1019	1.4376	.0001
.1644	.1214	1.4383	.0001
.1644	.1416	1.4389	.0001
.1644	.1618	1.4394	.0001
.1644	.1776	1.4403	.0001
.1644	.2054	1.441	.0001

System: N,N-dimethylformamide + 1-hexyl-3-methylimidazolium bromide; phases: Liquid
Property: Refractive index (Na D-line) (Liquid); method: Standard Abbe refractometry
Molality, mol/kg of 1-hexyl-3-methylimidazolium bromide	Pressure, kPa	Temperature, K	Refractive index (Na D-line)	uncertainty
.0233	101	298.15	1.4303	.0001
.0435	101	298.15	1.4306	.0001
.0658	101	298.15	1.4311	.0001
.0824	101	298.15	1.4316	.0001
.1049	101	298.15	1.432	.0001
.1228	101	298.15	1.4325	.0001
.1428	101	298.15	1.433	.0001
.1583	101	298.15	1.4336	.0001
.1869	101	298.15	1.4344	.0001
.2051	101	298.15	1.4347	.0001

System: N,N-dimethylformamide + 1-hexyl-3-methylimidazolium bromide; phases: Liquid
Property: Mass density, kg/m3 (Liquid); method: Vibrating tube method
Temperature, K	Molality, mol/kg of 1-hexyl-3-methylimidazolium bromide	Pressure, kPa	Mass density, kg/m3	uncertainty
298.15	.0233	101	945.6	.01
298.15	.0435	101	946.89	.01
298.15	.0658	101	948.29	.01
298.15	.0824	101	949.31	.01
298.15	.1049	101	950.67	.01
298.15	.1228	101	951.73	.01
298.15	.1428	101	952.91	.01
298.15	.1583	101	953.83	.01
298.15	.1869	101	955.45	.01
298.15	.2051	101	956.47	.01
303.15	.0233	101	942.35	.01
303.15	.0435	101	943.65	.01
303.15	.0658	101	945.07	.01
303.15	.0824	101	946.1	.01
303.15	.1049	101	947.48	.01
303.15	.1228	101	948.58	.01
303.15	.1428	101	949.77	.01
303.15	.1583	101	950.67	.01
303.15	.1869	101	952.33	.01
303.15	.2051	101	953.36	.01
308.15	.0233	101	937.3	.01
308.15	.0435	101	938.59	.01
308.15	.0658	101	939.99	.01
308.15	.0824	101	941.01	.01
308.15	.1049	101	942.38	.01
308.15	.1228	101	943.44	.01
308.15	.1428	101	944.62	.01
308.15	.1583	101	945.53	.01
308.15	.1869	101	947.16	.01
308.15	.2051	101	948.17	.01
313.15	.0233	101	932.21	.01
313.15	.0435	101	933.56	.01
313.15	.0658	101	935.02	.01
313.15	.0824	101	936.08	.01
313.15	.1049	101	937.52	.01
313.15	.1228	101	938.65	.01
313.15	.1428	101	939.88	.01
313.15	.1583	101	940.81	.01
313.15	.1869	101	942.51	.01
313.15	.2051	101	943.57	.01

System: N,N-dimethylformamide + 1-hexyl-3-methylimidazolium bromide; phases: Liquid
Property: Molar conductivity, S*m2/mol (Liquid); method: Digital Conductivity Meter
Molality, mol/kg of 1-hexyl-3-methylimidazolium bromide	Pressure, kPa	Temperature, K	Molar conductivity, S*m2/mol	uncertainty
.000577	101	298.15	104.56	.73192
.001109	101	298.15	97.73	.68411
.001779	101	298.15	93.72	.65604
.002462	101	298.15	87.9	.6153
.002942	101	298.15	85.86	.60102
.003496	101	298.15	83.88	.58716
.003929	101	298.15	80.88	.56616
.00466	101	298.15	78.89	.55223
.005343	101	298.15	76.1	.5327
.005884	101	298.15	75.12	.52584

System: N,N-dimethylformamide + 1-hexyl-3-methylimidazolium bromide; phases: Liquid
Property: Viscosity, Pa*s (Liquid); method: Capillary tube (Ostwald; Ubbelohde) method
Molality, mol/kg of 1-hexyl-3-methylimidazolium bromide	Pressure, kPa	Temperature, K	Viscosity, Pa*s	uncertainty
.0000217	101	298.15	.000897	.000005
.0000417	101	298.15	.000913	.000005
.0000626	101	298.15	.000929	.000005
.0000778	101	298.15	.000938	.000005
.0000998	101	298.15	.000952	.000005
.0001171	101	298.15	.000969	.000005
.0001363	101	298.15	.000985	.000005
.0001507	101	298.15	.000997	.000005
.0001787	101	298.15	.001014	.000005
.0001961	101	298.15	.001022	.000005

System: N,N-dimethylformamide + N,N-bis(2-pyridylmethylidene)-1,2-diiminoethane; phases: Liquid
Property: Mass density, kg/m3 (Liquid); method: Vibrating tube method
Molality, mol/kg of N,N-bis(2-pyridylmethylidene)-1,2-diiminoethane	Temperature, K	Pressure, kPa	Mass density, kg/m3	uncertainty
.0402	298.15	101	945.46	.01
.0402	303.15	101	941.5	.01
.0402	308.15	101	936.79	.01
.0402	313.15	101	931.89	.01
.0764	298.15	101	946.76	.01
.0764	303.15	101	942.72	.01
.0764	308.15	101	937.92	.01
.0764	313.15	101	933.39	.01
.1208	298.15	101	948.07	.01
.1208	303.15	101	943.95	.01
.1208	308.15	101	939.19	.01
.1208	313.15	101	934.92	.01
.1644	298.15	101	949.29	.01
.1644	303.15	101	944.72	.01
.1644	308.15	101	940.14	.01
.1644	313.15	101	936.16	.01

System: N,N-dimethylformamide + N,N-bis(2-pyridylmethylidene)-1,2-diiminoethane; phases: Liquid
Property: Viscosity, Pa*s (Liquid); method: Capillary tube (Ostwald; Ubbelohde) method
Molality, mol/kg of N,N-bis(2-pyridylmethylidene)-1,2-diiminoethane	Pressure, kPa	Temperature, K	Viscosity, Pa*s	uncertainty
.0402	101	298.15	.000878	.000005
.0764	101	298.15	.000893	.000005
.1208	101	298.15	.000909	.000005
.1644	101	298.15	.000926	.000005
