Measured thermophysical data. A comparative study of the thermal properties of homologous series of crystallisable n-alkyl maleate and itaconate monoesters
Source: Thermochim. Acta, 2016, 10.1016/j.tca.2015.10.015
Compound 1: maleic acid monooctyl ester, C12H20O4
Compound 2: maleic acid monododecyl ester, C16H28O4
Compound 3: maleic acid monohexadecyl ester, C20H36O4
Compound 4: maleic acid monodocosyl ester, C26H48O4
Compound 5: itaconic acid 1-octyl ester, C13H22O4
Compound 6: itaconic acid 1-n-dodecyl ester, C17H30O4
Compound 7: itaconic acid 1-n-hexadecyl ester, C21H38O4
Compound 8: itaconic acid 1-n-docosyl ester, C27H50O4
Compound 9: succinic acid monooctyl ester, C12H22O4
Compound 10: butanedioic acid, monododecyl ester, C16H30O4
Compound 11: succinic acid monohexadecyl ester, C20H38O4
Compound 12: succinic acid monodocosyl ester, C26H50O4
Compound 13: itaconic acid 4-n-octyl ester, C13H22O4
Compound 14: itaconic acid 4-n-dodecyl ester, C17H30O4
Compound 15: itaconic acid 4-n-hexadecyl ester, C21H38O4
Compound 16: itaconic acid 4-n-docosyl ester, C27H50O4

System: maleic acid monooctyl ester; phases: Crystal, Liquid, Air at 1 atmosphere
Property: Normal melting temperature, K (Crystal); method: DSC/DTA
Normal melting temperature, K	uncertainty
304.25	

System: maleic acid monooctyl ester; phases: Crystal, Liquid, Air at 1 atmosphere
Property: Molar enthalpy of transition or fusion, kJ/mol (Crystal); method: DSC
Molar enthalpy of transition or fusion, kJ/mol	uncertainty
33.2	

System: maleic acid monododecyl ester; phases: Crystal, Liquid, Air at 1 atmosphere
Property: Normal melting temperature, K (Crystal); method: DSC/DTA
Normal melting temperature, K	uncertainty
324.45	

System: maleic acid monododecyl ester; phases: Crystal, Liquid, Air at 1 atmosphere
Property: Molar enthalpy of transition or fusion, kJ/mol (Crystal); method: DSC
Molar enthalpy of transition or fusion, kJ/mol	uncertainty
52	

System: maleic acid monohexadecyl ester; phases: Crystal, Liquid, Air at 1 atmosphere
Property: Normal melting temperature, K (Crystal); method: DSC/DTA
Normal melting temperature, K	uncertainty
344.95	

System: maleic acid monohexadecyl ester; phases: Crystal, Liquid, Air at 1 atmosphere
Property: Molar enthalpy of transition or fusion, kJ/mol (Crystal); method: DSC
Molar enthalpy of transition or fusion, kJ/mol	uncertainty
71.4	

System: maleic acid monodocosyl ester; phases: Crystal, Liquid, Air at 1 atmosphere
Property: Normal melting temperature, K (Crystal); method: DSC/DTA
Normal melting temperature, K	uncertainty
355.15	

System: maleic acid monodocosyl ester; phases: Crystal, Liquid, Air at 1 atmosphere
Property: Molar enthalpy of transition or fusion, kJ/mol (Crystal); method: DSC
Molar enthalpy of transition or fusion, kJ/mol	uncertainty
87.1	

System: succinic acid monooctyl ester; phases: Crystal, Liquid, Air at 1 atmosphere
Property: Normal melting temperature, K (Crystal); method: DSC/DTA
Normal melting temperature, K	uncertainty
309.65	

System: succinic acid monooctyl ester; phases: Crystal, Liquid, Air at 1 atmosphere
Property: Molar enthalpy of transition or fusion, kJ/mol (Crystal); method: DSC
Molar enthalpy of transition or fusion, kJ/mol	uncertainty
41.8	

System: butanedioic acid, monododecyl ester; phases: Crystal, Liquid, Air at 1 atmosphere
Property: Normal melting temperature, K (Crystal); method: DSC/DTA
Normal melting temperature, K	uncertainty
318.95	

System: butanedioic acid, monododecyl ester; phases: Crystal, Liquid, Air at 1 atmosphere
Property: Molar enthalpy of transition or fusion, kJ/mol (Crystal); method: DSC
Molar enthalpy of transition or fusion, kJ/mol	uncertainty
53.1	

System: succinic acid monohexadecyl ester; phases: Crystal, Liquid, Air at 1 atmosphere
Property: Normal melting temperature, K (Crystal); method: DSC/DTA
Normal melting temperature, K	uncertainty
337.35	

System: succinic acid monohexadecyl ester; phases: Crystal, Liquid, Air at 1 atmosphere
Property: Molar enthalpy of transition or fusion, kJ/mol (Crystal); method: DSC
Molar enthalpy of transition or fusion, kJ/mol	uncertainty
66.1	

System: succinic acid monodocosyl ester; phases: Crystal, Liquid, Air at 1 atmosphere
Property: Normal melting temperature, K (Crystal); method: DSC/DTA
Normal melting temperature, K	uncertainty
346.75	

System: succinic acid monodocosyl ester; phases: Crystal, Liquid, Air at 1 atmosphere
Property: Molar enthalpy of transition or fusion, kJ/mol (Crystal); method: DSC
Molar enthalpy of transition or fusion, kJ/mol	uncertainty
93	

System: itaconic acid 4-n-octyl ester + itaconic acid 1-octyl ester; phases: Liquid, Crystal of unknown type
Fixed: Pressure, kPa = 100
Property: Solid-liquid equilibrium temperature, K (Liquid); method: DSC/DTA
Mole fraction of itaconic acid 4-n-octyl ester	Solid-liquid equilibrium temperature, K	uncertainty
.94	331.15	2

System: itaconic acid 4-n-dodecyl ester + itaconic acid 1-n-dodecyl ester; phases: Liquid, Crystal of unknown type
Fixed: Pressure, kPa = 100
Property: Solid-liquid equilibrium temperature, K (Liquid); method: DSC/DTA
Mole fraction of itaconic acid 4-n-dodecyl ester	Solid-liquid equilibrium temperature, K	uncertainty
.86	347.75	2

System: itaconic acid 4-n-hexadecyl ester + itaconic acid 1-n-hexadecyl ester; phases: Liquid, Crystal of unknown type
Fixed: Pressure, kPa = 100
Property: Solid-liquid equilibrium temperature, K (Liquid); method: DSC/DTA
Mole fraction of itaconic acid 4-n-hexadecyl ester	Solid-liquid equilibrium temperature, K	uncertainty
.88	358.75	2

System: itaconic acid 1-n-docosyl ester + itaconic acid 4-n-docosyl ester; phases: Liquid, Crystal of unknown type
Fixed: Pressure, kPa = 100
Property: Solid-liquid equilibrium temperature, K (Liquid); method: DSC/DTA
Mole fraction of itaconic acid 4-n-docosyl ester	Solid-liquid equilibrium temperature, K	uncertainty
.85	360.05	2
