Measured thermophysical data. Topological investigations of the molecular species and molecular interactions  that characterize pyrrolidin-2-one + lower alkanol mixtures
Source: Thermochim. Acta, 2009, 10.1016/j.tca.2009.03.014
Compound 1: 2-pyrrolidinone, C4H7NO, purity 99.8%
Compound 2: ethanol, C2H6O, purity 99.8%
Compound 3: 1-propanol, C3H8O, purity 99.8%
Compound 4: 2-propanol, C3H8O, purity 99.8%
Compound 5: 1-butanol, C4H10O, purity 99.8%

System: 2-pyrrolidinone; phases: Liquid
Fixed: Pressure, kPa = 101.325
Property: Mass density, kg/m3 (Liquid); method: Pycnometric method
Temperature, K	Mass density, kg/m3	uncertainty
298.15	1107.26	.02

System: 2-pyrrolidinone; phases: Liquid
Fixed: Pressure, kPa = 101.325
Property: Speed of sound, m/s (Liquid); method: Linear variable-path acoustic interferometer
Temperature, K	Speed of sound, m/s	uncertainty
308.15	1603	1

System: ethanol; phases: Liquid
Fixed: Pressure, kPa = 101.325
Property: Mass density, kg/m3 (Liquid); method: Pycnometric method
Temperature, K	Mass density, kg/m3	uncertainty
298.15	785.08	.02

System: ethanol; phases: Liquid
Fixed: Pressure, kPa = 101.325
Property: Speed of sound, m/s (Liquid); method: Linear variable-path acoustic interferometer
Temperature, K	Speed of sound, m/s	uncertainty
308.15	1112	1

System: 1-propanol; phases: Liquid
Fixed: Pressure, kPa = 101.325
Property: Mass density, kg/m3 (Liquid); method: Pycnometric method
Temperature, K	Mass density, kg/m3	uncertainty
298.15	799.28	.02

System: 1-propanol; phases: Liquid
Fixed: Pressure, kPa = 101.325
Property: Speed of sound, m/s (Liquid); method: Linear variable-path acoustic interferometer
Temperature, K	Speed of sound, m/s	uncertainty
308.15	1188.2	1

System: 2-propanol; phases: Liquid
Fixed: Pressure, kPa = 101.325
Property: Mass density, kg/m3 (Liquid); method: Pycnometric method
Temperature, K	Mass density, kg/m3	uncertainty
298.15	780.98	.02

System: 2-propanol; phases: Liquid
Fixed: Pressure, kPa = 101.325
Property: Speed of sound, m/s (Liquid); method: Linear variable-path acoustic interferometer
Temperature, K	Speed of sound, m/s	uncertainty
298.15	1135.9	1

System: 1-butanol; phases: Liquid
Fixed: Pressure, kPa = 101.325
Property: Mass density, kg/m3 (Liquid); method: Pycnometric method
Temperature, K	Mass density, kg/m3	uncertainty
298.15	809.5	.02

System: 1-butanol; phases: Liquid
Fixed: Pressure, kPa = 101.325
Property: Speed of sound, m/s (Liquid); method: Linear variable-path acoustic interferometer
Temperature, K	Speed of sound, m/s	uncertainty
308.15	1232.2	1

System: ethanol + 2-pyrrolidinone; phases: Liquid
Fixed: Temperature, K = 308.15
Fixed: Pressure, kPa = 101
Property: Excess molar volume, m3/mol (Liquid); method: Direct dilatometry
Mole fraction of 2-pyrrolidinone	Excess molar volume, m3/mol	uncertainty
.0767	-.000000092	-.00000000046
.1393	-.000000172	-.00000000086
.1763	-.000000215	-.000000001075
.2676	-.000000307	-.000000001535
.3493	-.000000368	-.00000000184
.4016	-.000000394	-.00000000197
.4865	-.000000416	-.00000000208
.5479	-.000000413	-.000000002065
.6015	-.000000394	-.00000000197
.6573	-.000000366	-.00000000183
.7145	-.000000321	-.000000001605
.7982	-.00000024	-.0000000012
.856	-.000000175	-.000000000875
.92	-.000000097	-.000000000485

System: ethanol + 2-pyrrolidinone; phases: Liquid
Fixed: Temperature, K = 308.15
Fixed: Pressure, kPa = 101
Property: Excess molar enthalpy (molar enthalpy of mixing), kJ/mol (Liquid); method: Calvet calorimetry
Mole fraction of 2-pyrrolidinone	Excess molar enthalpy (molar enthalpy of mixing), kJ/mol	uncertainty
.0647	.2691	.002691
.1158	.4279	.004279
.2075	.5856	.005856
.2768	.6228	.006228
.338	.6347	.006347
.38	.6193	.006193
.4337	.5841	.005841
.5337	.4942	.004942
.605	.4335	.004335
.6856	.3491	.003491
.7539	.2714	.002714
.7929	.2309	.002309
.8436	.1903	.001903
.8904	.1306	.001306

System: ethanol + 2-pyrrolidinone; phases: Liquid
Fixed: Temperature, K = 308.15
Fixed: Pressure, kPa = 101
Property: Speed of sound, m/s (Liquid); method: Linear variable-path acoustic interferometer
Mole fraction of 2-pyrrolidinone	Speed of sound, m/s	uncertainty
.0784	1172.9	1
.1607	1230.8	1
.1963	1252.8	1
.2471	1282.9	1
.338	1327.2	1
.3876	1349.4	1
.4337	1366.5	1
.4713	1381	1
.5347	1404.3	1
.5985	1427.8	1
.6412	1444.8	1
.7539	1492.3	1
.8064	1518.1	1
.8887	1559.4	1

System: 1-propanol + 2-pyrrolidinone; phases: Liquid
Fixed: Temperature, K = 308.15
Fixed: Pressure, kPa = 101
Property: Excess molar volume, m3/mol (Liquid); method: Direct dilatometry
Mole fraction of 2-pyrrolidinone	Excess molar volume, m3/mol	uncertainty
.0349	-.000000023	-.000000000115
.0973	-.000000067	-.000000000335
.1436	-.0000001	-.0000000005
.2052	-.000000138	-.00000000069
.2654	-.000000175	-.000000000875
.3299	-.000000208	-.00000000104
.3881	-.000000227	-.000000001135
.4495	-.000000244	-.00000000122
.5246	-.000000248	-.00000000124
.5749	-.000000246	-.00000000123
.6516	-.000000227	-.000000001135
.7453	-.000000185	-.000000000925
.8357	-.000000129	-.000000000645
.9206	-.000000065	-.000000000325

System: 1-propanol + 2-pyrrolidinone; phases: Liquid
Fixed: Temperature, K = 308.15
Fixed: Pressure, kPa = 101
Property: Excess molar enthalpy (molar enthalpy of mixing), kJ/mol (Liquid); method: Calvet calorimetry
Mole fraction of 2-pyrrolidinone	Excess molar enthalpy (molar enthalpy of mixing), kJ/mol	uncertainty
.0592	.2485	.002485
.1085	.3904	.003904
.1966	.5667	.005667
.2273	.6083	.006083
.3287	.6718	.006718
.3782	.6671	.006671
.4394	.6486	.006486
.495	.6097	.006097
.5219	.5806	.005806
.5951	.5221	.005221
.6622	.4499	.004499
.7539	.338	.00338
.8065	.2845	.002845
.8946	.1658	.001658

System: 1-propanol + 2-pyrrolidinone; phases: Liquid
Fixed: Temperature, K = 308.15
Fixed: Pressure, kPa = 101
Property: Speed of sound, m/s (Liquid); method: Linear variable-path acoustic interferometer
Mole fraction of 2-pyrrolidinone	Speed of sound, m/s	uncertainty
.0982	1219.3	1
.158	1240.8	1
.1968	1255	1
.2958	1294.4	1
.3309	1308.9	1
.3952	1336.5	1
.4485	1359.7	1
.4949	1380.7	1
.521	1391.8	1
.5951	1425.6	1
.6957	1470.7	1
.7314	1485.7	1
.7968	1515.4	1
.8982	1558.4	1

System: 2-propanol + 2-pyrrolidinone; phases: Liquid
Fixed: Temperature, K = 308.15
Fixed: Pressure, kPa = 101
Property: Excess molar volume, m3/mol (Liquid); method: Direct dilatometry
Mole fraction of 2-pyrrolidinone	Excess molar volume, m3/mol	uncertainty
.0825	-.000000098	-.00000000049
.1311	-.000000154	-.00000000077
.1719	-.000000197	-.000000000985
.2365	-.000000259	-.000000001295
.2949	-.000000307	-.000000001535
.348	-.000000336	-.00000000168
.4267	-.000000369	-.000000001845
.4756	-.000000381	-.000000001905
.5684	-.000000374	-.00000000187
.6315	-.000000351	-.000000001755
.6921	-.000000317	-.000000001585
.7193	-.000000298	-.00000000149
.8048	-.000000229	-.000000001145
.8941	-.000000133	-.000000000665

System: 2-propanol + 2-pyrrolidinone; phases: Liquid
Fixed: Temperature, K = 308.15
Fixed: Pressure, kPa = 101
Property: Excess molar enthalpy (molar enthalpy of mixing), kJ/mol (Liquid); method: Calvet calorimetry
Mole fraction of 2-pyrrolidinone	Excess molar enthalpy (molar enthalpy of mixing), kJ/mol	uncertainty
.0841	.4605	.004605
.1776	.7831	.007831
.2315	.8778	.008778
.334	.9446	.009446
.3758	.9497	.009497
.4453	.9135	.009135
.501	.8606	.008606
.6009	.7309	.007309
.6811	.6034	.006034
.7151	.5403	.005403
.7626	.4631	.004631
.8338	.3438	.003438
.8794	.2654	.002654
.9223	.1793	.001793

System: 2-propanol + 2-pyrrolidinone; phases: Liquid
Fixed: Temperature, K = 308.15
Fixed: Pressure, kPa = 101
Property: Speed of sound, m/s (Liquid); method: Linear variable-path acoustic interferometer
Mole fraction of 2-pyrrolidinone	Speed of sound, m/s	uncertainty
.0835	1144.9	1
.1329	1166.9	1
.1976	1196.8	1
.2597	1225.6	1
.3244	1256	1
.3815	1283.5	1
.4394	1311.6	1
.5031	1343.3	1
.5682	1376.4	1
.6159	1401.1	1
.6879	1439.2	1
.765	1479.9	1
.8223	1511.6	1
.9042	1553.8	1

System: 1-butanol + 2-pyrrolidinone; phases: Liquid
Fixed: Temperature, K = 308.15
Fixed: Pressure, kPa = 101
Property: Excess molar volume, m3/mol (Liquid); method: Direct dilatometry
Mole fraction of 2-pyrrolidinone	Excess molar volume, m3/mol	uncertainty
.0883	-.000000065	-.000000000325
.1021	-.000000076	-.00000000038
.2423	-.000000147	-.000000000735
.3298	-.000000172	-.00000000086
.4003	-.000000187	-.000000000935
.4536	-.00000019	-.00000000095
.497	-.000000192	-.00000000096
.5269	-.000000188	-.00000000094
.5855	-.000000183	-.000000000915
.6229	-.000000176	-.00000000088
.7154	-.000000153	-.000000000765
.7617	-.000000136	-.00000000068
.8382	-.000000102	-.00000000051
.8826	-.000000077	-.000000000385

System: 1-butanol + 2-pyrrolidinone; phases: Liquid
Fixed: Temperature, K = 308.15
Fixed: Pressure, kPa = 101
Property: Excess molar enthalpy (molar enthalpy of mixing), kJ/mol (Liquid); method: Calvet calorimetry
Mole fraction of 2-pyrrolidinone	Excess molar enthalpy (molar enthalpy of mixing), kJ/mol	uncertainty
.0824	.3485	.003485
.1933	.6471	.006471
.2472	.7273	.007273
.3241	.8065	.008065
.3748	.8168	.008168
.4183	.8153	.008153
.4734	.7992	.007992
.5451	.7464	.007464
.5725	.7123	.007123
.6427	.6299	.006299
.7058	.5324	.005324
.7499	.4701	.004701
.8571	.2752	.002752
.9247	.1527	.001527

System: 1-butanol + 2-pyrrolidinone; phases: Liquid
Fixed: Temperature, K = 308.15
Fixed: Pressure, kPa = 101
Property: Speed of sound, m/s (Liquid); method: Linear variable-path acoustic interferometer
Mole fraction of 2-pyrrolidinone	Speed of sound, m/s	uncertainty
.0632	1237.1	1
.1176	1245.9	1
.186	1262.9	1
.2306	1276.6	1
.3394	1315.9	1
.3954	1338.2	1
.4442	1359	1
.4825	1374.9	1
.5453	1402	1
.5702	1412.4	1
.6427	1441.1	1
.7367	1478	1
.8275	1512.6	1
.9152	1551	1
