Measured thermophysical data. Interactions of tripeptide with glucose in aqueous solutions at various temperatures: A  volumetric and ultrasonic study
Source: Thermochim. Acta, 2010, 10.1016/j.tca.2010.05.016
Compound 1: glycylglycylglycine, C6H11N3O4
Compound 2: D(+)-glucose, C6H12O6
Compound 3: water, H2O

System: water; phases: Liquid
Property: Mass density, kg/m3 (Liquid); method: Vibrating tube method
Temperature, K	Pressure, kPa	Mass density, kg/m3	uncertainty
288.15	101	999.122	
293.15	101	998.219	
298.15	101	997.05	
303.15	101	995.645	
308.15	101	994.02	

System: water; phases: Liquid
Property: Speed of sound, m/s (Liquid); method: Vibrating Tube
Temperature, K	Pressure, kPa	Speed of sound, m/s	uncertainty
288.15	101	1466.72	
293.15	101	1482.98	
298.15	101	1497.2	
303.15	101	1509.46	
308.15	101	1519.91	

System: D(+)-glucose + glycylglycylglycine + water; phases: Liquid
Fixed: Pressure, kPa = 101
Property: Mass density, kg/m3 (Liquid); method: Vibrating tube method
Solvent: Mass fraction of D(+)-glucose	Temperature, K	Molality, mol/kg of glycylglycylglycine	Mass density, kg/m3	uncertainty
0	288.15	0	999.122	
0	288.15	.03587	1001.94	
0	288.15	.04684	1002.791	
0	288.15	.05855	1003.689	
0	288.15	.06301	1004.027	
0	288.15	.07743	1005.13	
0	288.15	.09073	1006.13	
0	288.15	.10162	1006.948	
0	293.15	0	998.219	
0	293.15	.03587	1001.005	
0	293.15	.04684	1001.846	
0	293.15	.05855	1002.735	
0	293.15	.06301	1003.07	
0	293.15	.07743	1004.16	
0	293.15	.09073	1005.151	
0	293.15	.10162	1005.962	
0	298.15	0	997.05	
0	298.15	.03587	999.808	
0	298.15	.04684	1000.644	
0	298.15	.05855	1001.523	
0	298.15	.06301	1001.856	
0	298.15	.07743	1002.932	
0	298.15	.09073	1003.919	
0	298.15	.10162	1004.733	
0	303.15	0	995.645	
0	303.15	.03587	998.381	
0	303.15	.04684	999.208	
0	303.15	.05855	1000.083	
0	303.15	.06301	1000.413	
0	303.15	.07743	1001.54	
0	303.15	.09073	1002.458	
0	303.15	.10162	1003.256	
0	308.15	0	994.02	
0	308.15	.03587	996.783	
0	308.15	.04684	997.565	
0	308.15	.05855	998.435	
0	308.15	.06301	998.76	
0	308.15	.07743	999.825	
0	308.15	.09073	1000.793	
0	308.15	.10162	1001.582	
.0206	288.15	0	1007.045	
.0206	288.15	.03981	1010.144	
.0206	288.15	.05105	1011.012	
.0206	288.15	.06045	1011.735	
.0206	288.15	.06879	1012.374	
.0206	288.15	.08072	1013.289	
.0206	288.15	.09081	1014.06	
.0206	288.15	.10119	1014.849	
.0206	293.15	0	1006.081	
.0206	293.15	.03981	1009.148	
.0206	293.15	.05105	1010.007	
.0206	293.15	.06045	1010.724	
.0206	293.15	.06879	1011.357	
.0206	293.15	.08072	1012.261	
.0206	293.15	.09081	1013.021	
.0206	293.15	.10119	1013.801	
.0206	298.15	0	1004.858	
.0206	298.15	.03981	1007.902	
.0206	298.15	.05105	1008.755	
.0206	298.15	.06045	1009.464	
.0206	298.15	.06879	1010.092	
.0206	298.15	.08072	1010.988	
.0206	298.15	.09081	1011.74	
.0206	298.15	.10119	1012.512	
.0206	303.15	0	1003.409	
.0206	303.15	.03981	1006.429	
.0206	303.15	.05105	1007.274	
.0206	303.15	.06045	1007.978	
.0206	303.15	.06879	1008.601	
.0206	303.15	.08072	1009.488	
.0206	303.15	.09081	1010.235	
.0206	303.15	.10119	1011.001	
.0206	308.15	0	1001.751	
.0206	308.15	.03981	1004.753	
.0206	308.15	.05105	1005.593	
.0206	308.15	.06045	1006.293	
.0206	308.15	.06879	1006.91	
.0206	308.15	.08072	1007.79	
.0206	308.15	.09081	1008.531	
.0206	308.15	.10119	1009.291	
.0396	288.15	0	1014.534	
.0396	288.15	.04046	1017.655	
.0396	288.15	.052	1018.536	
.0396	288.15	.0605	1019.18	
.0396	288.15	.0717	1020.027	
.0396	288.15	.08128	1020.747	
.0396	288.15	.09094	1021.468	
.0396	288.15	.10302	1022.347	
.0396	293.15	0	1013.517	
.0396	293.15	.04046	1016.601	
.0396	293.15	.052	1017.474	
.0396	293.15	.0605	1018.111	
.0396	293.15	.0717	1018.945	
.0396	293.15	.08128	1019.655	
.0396	293.15	.09094	1020.361	
.0396	293.15	.10302	1021.227	
.0396	298.15	0	1012.251	
.0396	298.15	.04046	1015.315	
.0396	298.15	.052	1016.178	
.0396	298.15	.0605	1016.807	
.0396	298.15	.0717	1017.631	
.0396	298.15	.08128	1018.338	
.0396	298.15	.09094	1019.036	
.0396	298.15	.10302	1019.898	
.0396	303.15	0	1010.764	
.0396	303.15	.04046	1013.801	
.0396	303.15	.052	1014.657	
.0396	303.15	.0605	1015.283	
.0396	303.15	.0717	1016.098	
.0396	303.15	.08128	1016.795	
.0396	303.15	.09094	1017.489	
.0396	303.15	.10302	1018.349	
.0396	308.15	0	1009.084	
.0396	308.15	.04046	1012.098	
.0396	308.15	.052	1012.945	
.0396	308.15	.0605	1013.563	
.0396	308.15	.0717	1014.373	
.0396	308.15	.08128	1015.065	
.0396	308.15	.09094	1015.755	
.0396	308.15	.10302	1016.612	
.0591	288.15	0	1022.208	
.0591	288.15	.04088	1025.348	
.0591	288.15	.04989	1026.028	
.0591	288.15	.06001	1026.788	
.0591	288.15	.072	1027.691	
.0591	288.15	.07945	1028.245	
.0591	288.15	.08861	1028.928	
.0591	288.15	.09872	1029.678	
.0591	293.15	0	1021.131	
.0591	293.15	.04088	1024.234	
.0591	293.15	.04989	1024.909	
.0591	293.15	.06001	1025.662	
.0591	293.15	.072	1026.555	
.0591	293.15	.07945	1027.106	
.0591	293.15	.08861	1027.782	
.0591	293.15	.09872	1028.525	
.0591	298.15	0	1019.812	
.0591	298.15	.04088	1022.892	
.0591	298.15	.04989	1023.557	
.0591	298.15	.06001	1024.305	
.0591	298.15	.072	1025.19	
.0591	298.15	.07945	1025.736	
.0591	298.15	.08861	1026.405	
.0591	298.15	.09872	1027.135	
.0591	303.15	0	1018.273	
.0591	303.15	.04088	1021.326	
.0591	303.15	.04989	1021.992	
.0591	303.15	.06001	1022.733	
.0591	303.15	.072	1023.612	
.0591	303.15	.07945	1024.154	
.0591	303.15	.08861	1024.819	
.0591	303.15	.09872	1025.548	
.0591	308.15	0	1016.54	
.0591	308.15	.04088	1019.572	
.0591	308.15	.04989	1020.234	
.0591	308.15	.06001	1020.972	
.0591	308.15	.072	1021.845	
.0591	308.15	.07945	1022.383	
.0591	308.15	.08861	1023.043	
.0591	308.15	.09872	1023.768	

System: D(+)-glucose + glycylglycylglycine + water; phases: Liquid
Fixed: Pressure, kPa = 101
Property: Speed of sound, m/s (Liquid); method: Vibrating Tube
Solvent: Mass fraction of D(+)-glucose	Temperature, K	Molality, mol/kg of glycylglycylglycine	Speed of sound, m/s	uncertainty
0	288.15	0	1466.72	
0	288.15	.03587	1470.6	
0	288.15	.04684	1471.63	
0	288.15	.05855	1472.95	
0	288.15	.06301	1473.42	
0	288.15	.07743	1474.99	
0	288.15	.09073	1476.48	
0	288.15	.10162	1477.68	
0	293.15	0	1482.98	
0	293.15	.03587	1486.68	
0	293.15	.04684	1487.8	
0	293.15	.05855	1489.02	
0	293.15	.06301	1489.4	
0	293.15	.07743	1490.84	
0	293.15	.09073	1492.56	
0	293.15	.10162	1493.44	
0	298.15	0	1497.2	
0	298.15	.03587	1500.76	
0	298.15	.04684	1501.81	
0	298.15	.05855	1502.98	
0	298.15	.06301	1503.39	
0	298.15	.07743	1504.78	
0	298.15	.09073	1506.02	
0	298.15	.10162	1507.33	
0	303.15	0	1509.46	
0	303.15	.03587	1512.93	
0	303.15	.04684	1513.96	
0	303.15	.05855	1515.1	
0	303.15	.06301	1515.48	
0	303.15	.07743	1516.82	
0	303.15	.09073	1518.38	
0	303.15	.10162	1519.31	
0	308.15	0	1519.91	
0	308.15	.03587	1523.31	
0	308.15	.04684	1524.27	
0	308.15	.05855	1525.41	
0	308.15	.06301	1525.78	
0	308.15	.07743	1527.3	
0	308.15	.09073	1528.55	
0	308.15	.10162	1529.49	
.0206	288.15	0	1475.58	
.0206	288.15	.03981	1479.76	
.0206	288.15	.05105	1480.86	
.0206	288.15	.06045	1481.8	
.0206	288.15	.06879	1482.5	
.0206	288.15	.08072	1483.41	
.0206	288.15	.09081	1484.74	
.0206	288.15	.10119	1485.68	
.0206	293.15	0	1491.75	
.0206	293.15	.03981	1495.85	
.0206	293.15	.05105	1496.97	
.0206	293.15	.06045	1497.87	
.0206	293.15	.06879	1498.68	
.0206	293.15	.08072	1499.9	
.0206	293.15	.09081	1500.9	
.0206	293.15	.10119	1501.89	
.0206	298.15	0	1505.54	
.0206	298.15	.03981	1509.35	
.0206	298.15	.05105	1510.4	
.0206	298.15	.06045	1511.28	
.0206	298.15	.06879	1511.96	
.0206	298.15	.08072	1512.57	
.0206	298.15	.09081	1513.73	
.0206	298.15	.10119	1514.68	
.0206	303.15	0	1517.3	
.0206	303.15	.03981	1521.03	
.0206	303.15	.05105	1522.06	
.0206	303.15	.06045	1522.93	
.0206	303.15	.06879	1523.66	
.0206	303.15	.08072	1524.31	
.0206	303.15	.09081	1525.43	
.0206	303.15	.10119	1526.35	
.0206	308.15	0	1527.01	
.0206	308.15	.03981	1530.66	
.0206	308.15	.05105	1531.69	
.0206	308.15	.06045	1532.55	
.0206	308.15	.06879	1533.3	
.0206	308.15	.08072	1534.14	
.0206	308.15	.09081	1535.22	
.0206	308.15	.10119	1536.17	
.0396	288.15	0	1482.17	
.0396	288.15	.04046	1486.61	
.0396	288.15	.052	1487.88	
.0396	288.15	.0605	1488.82	
.0396	288.15	.0717	1490.05	
.0396	288.15	.08128	1491.1	
.0396	288.15	.09094	1492.2	
.0396	288.15	.10302	1493.6	
.0396	293.15	0	1497.74	
.0396	293.15	.04046	1502.02	
.0396	293.15	.052	1503.24	
.0396	293.15	.0605	1504.14	
.0396	293.15	.0717	1505.35	
.0396	293.15	.08128	1506.35	
.0396	293.15	.09094	1507.38	
.0396	293.15	.10302	1508.77	
.0396	298.15	0	1511.34	
.0396	298.15	.04046	1515.47	
.0396	298.15	.052	1516.65	
.0396	298.15	.0605	1517.52	
.0396	298.15	.0717	1518.92	
.0396	298.15	.08128	1519.64	
.0396	298.15	.09094	1520.57	
.0396	298.15	.10302	1521.82	
.0396	303.15	0	1523.05	
.0396	303.15	.04046	1527.12	
.0396	303.15	.052	1528.2	
.0396	303.15	.0605	1529.07	
.0396	303.15	.0717	1530.15	
.0396	303.15	.08128	1531.05	
.0396	303.15	.09094	1531.95	
.0396	303.15	.10302	1533.23	
.0396	308.15	0	1532.99	
.0396	308.15	.04046	1536.8	
.0396	308.15	.052	1537.89	
.0396	308.15	.0605	1538.7	
.0396	308.15	.0717	1539.76	
.0396	308.15	.08128	1540.63	
.0396	308.15	.09094	1541.54	
.0396	308.15	.10302	1542.75	
.0591	288.15	0	1489.97	
.0591	288.15	.04088	1494.46	
.0591	288.15	.04989	1495.46	
.0591	288.15	.06001	1496.59	
.0591	288.15	.072	1497.87	
.0591	288.15	.07945	1498.64	
.0591	288.15	.08861	1499.71	
.0591	288.15	.09872	1500.73	
.0591	293.15	0	1505.14	
.0591	293.15	.04088	1509.48	
.0591	293.15	.04989	1510.44	
.0591	293.15	.06001	1511.53	
.0591	293.15	.072	1512.81	
.0591	293.15	.07945	1513.54	
.0591	293.15	.08861	1514.49	
.0591	293.15	.09872	1515.6	
.0591	298.15	0	1518.44	
.0591	298.15	.04088	1522.6	
.0591	298.15	.04989	1523.52	
.0591	298.15	.06001	1524.52	
.0591	298.15	.072	1525.8	
.0591	298.15	.07945	1526.51	
.0591	298.15	.08861	1527.52	
.0591	298.15	.09872	1528.62	
.0591	303.15	0	1529.87	
.0591	303.15	.04088	1533.92	
.0591	303.15	.04989	1534.8	
.0591	303.15	.06001	1535.78	
.0591	303.15	.072	1537.01	
.0591	303.15	.07945	1537.67	
.0591	303.15	.08861	1538.66	
.0591	303.15	.09872	1539.76	
.0591	308.15	0	1539.53	
.0591	308.15	.04088	1543.47	
.0591	308.15	.04989	1544.33	
.0591	308.15	.06001	1545.23	
.0591	308.15	.072	1546.43	
.0591	308.15	.07945	1547.16	
.0591	308.15	.08861	1548.04	
.0591	308.15	.09872	1549.02	

System: glycylglycylglycine + water; phases: Liquid
Property: Mass density, kg/m3 (Liquid); method: Vibrating tube method
Temperature, K	Molality, mol/kg of glycylglycylglycine	Pressure, kPa	Mass density, kg/m3	uncertainty
288.15	.03587	101	1001.94	
288.15	.04684	101	1002.791	
288.15	.05855	101	1003.689	
288.15	.06301	101	1004.027	
288.15	.07743	101	1005.13	
288.15	.09073	101	1006.13	
288.15	.10162	101	1006.948	
293.15	.03587	101	1001.005	
293.15	.04684	101	1001.846	
293.15	.05855	101	1002.735	
293.15	.06301	101	1003.07	
293.15	.07743	101	1004.16	
293.15	.09073	101	1005.151	
293.15	.10162	101	1005.962	
298.15	.03587	101	999.808	
298.15	.04684	101	1000.644	
298.15	.05855	101	1001.523	
298.15	.06301	101	1001.856	
298.15	.07743	101	1002.932	
298.15	.09073	101	1003.919	
298.15	.10162	101	1004.733	
303.15	.03587	101	998.381	
303.15	.04684	101	999.208	
303.15	.05855	101	1000.083	
303.15	.06301	101	1000.413	
303.15	.07743	101	1001.54	
303.15	.09073	101	1002.458	
303.15	.10162	101	1003.256	
308.15	.03587	101	996.783	
308.15	.04684	101	997.565	
308.15	.05855	101	998.435	
308.15	.06301	101	998.76	
308.15	.07743	101	999.825	
308.15	.09073	101	1000.793	
308.15	.10162	101	1001.582	

System: glycylglycylglycine + water; phases: Liquid
Property: Speed of sound, m/s (Liquid); method: Vibrating Tube
Temperature, K	Molality, mol/kg of glycylglycylglycine	Pressure, kPa	Speed of sound, m/s	uncertainty
288.15	.03587	101	1470.6	
288.15	.04684	101	1471.63	
288.15	.05855	101	1472.95	
288.15	.06301	101	1473.42	
288.15	.07743	101	1474.99	
288.15	.09073	101	1476.48	
288.15	.10162	101	1477.68	
293.15	.03587	101	1486.68	
293.15	.04684	101	1487.8	
293.15	.05855	101	1489.02	
293.15	.06301	101	1489.4	
293.15	.07743	101	1490.84	
293.15	.09073	101	1492.56	
293.15	.10162	101	1493.44	
298.15	.03587	101	1500.76	
298.15	.04684	101	1501.81	
298.15	.05855	101	1502.98	
298.15	.06301	101	1503.39	
298.15	.07743	101	1504.78	
298.15	.09073	101	1506.02	
298.15	.10162	101	1507.33	
303.15	.03587	101	1512.93	
303.15	.04684	101	1513.96	
303.15	.05855	101	1515.1	
303.15	.06301	101	1515.48	
303.15	.07743	101	1516.82	
303.15	.09073	101	1518.38	
303.15	.10162	101	1519.31	
308.15	.03587	101	1523.31	
308.15	.04684	101	1524.27	
308.15	.05855	101	1525.41	
308.15	.06301	101	1525.78	
308.15	.07743	101	1527.3	
308.15	.09073	101	1528.55	
308.15	.10162	101	1529.49	

System: D(+)-glucose + water; phases: Liquid
Property: Mass density, kg/m3 (Liquid); method: Vibrating tube method
Mass fraction of D(+)-glucose	Temperature, K	Pressure, kPa	Mass density, kg/m3	uncertainty
.0206	288.15	101	1007.045	
.0206	293.15	101	1006.081	
.0206	298.15	101	1004.858	
.0206	303.15	101	1003.409	
.0206	308.15	101	1001.751	
.0396	288.15	101	1014.534	
.0396	293.15	101	1013.517	
.0396	298.15	101	1012.251	
.0396	303.15	101	1010.764	
.0396	308.15	101	1009.084	
.0591	288.15	101	1022.208	
.0591	293.15	101	1021.131	
.0591	298.15	101	1019.812	
.0591	303.15	101	1018.273	
.0591	308.15	101	1016.54	

System: D(+)-glucose + water; phases: Liquid
Property: Speed of sound, m/s (Liquid); method: Vibrating Tube
Mass fraction of D(+)-glucose	Temperature, K	Pressure, kPa	Speed of sound, m/s	uncertainty
.0206	288.15	101	1475.58	
.0206	293.15	101	1491.75	
.0206	298.15	101	1505.54	
.0206	303.15	101	1517.3	
.0206	308.15	101	1527.01	
.0396	288.15	101	1482.17	
.0396	293.15	101	1497.74	
.0396	298.15	101	1511.34	
.0396	303.15	101	1523.05	
.0396	308.15	101	1532.99	
.0591	288.15	101	1489.97	
.0591	293.15	101	1505.14	
.0591	298.15	101	1518.44	
.0591	303.15	101	1529.87	
.0591	308.15	101	1539.53	
