Measured thermophysical data. Thermodynamic characteristics of trans-4-hydroxy-L-proline dissolution in some (water +amide) mixtures at T= 298.15 K
Source: Thermochim. Acta, 2017, 10.1016/j.tca.2017.03.022
Compound 1: trans-L-4-hydroxyproline, C5H9NO3, purity 99.0%
Compound 2: formamide, CH3NO, purity 99.8%
Compound 3: N-methylformamide, C2H5NO, purity 99.0%
Compound 4: N,N-dimethylacetamide, C4H9NO, purity 99.8%
Compound 5: dimethylformamide, C3H7NO, purity 99.0%
Compound 6: water, H2O

System: trans-L-4-hydroxyproline + formamide + water; phases: Liquid
Fixed: Mole fraction of trans-L-4-hydroxyproline = 0
Fixed: Pressure, kPa = 100.5
Fixed: Temperature, K = 298.15
Property: Molar enthalpy of solution, kJ/mol (Liquid); method: Isoperibol calorimetry
Solvent: Mole fraction of formamide	Molar enthalpy of solution, kJ/mol	uncertainty
.018	7.25	
.04	7.16	
.062	7.08	
.085	6.97	
.109	6.86	
.139	6.75	
.166	6.62	
.196	6.49	
.232	6.36	
.256	6.31	
.297	6.32	
0	7.3	

System: trans-L-4-hydroxyproline + N-methylformamide + water; phases: Liquid
Fixed: Mole fraction of trans-L-4-hydroxyproline = 0
Fixed: Pressure, kPa = 100.5
Fixed: Temperature, K = 298.15
Property: Molar enthalpy of solution, kJ/mol (Liquid); method: Isoperibol calorimetry
Solvent: Mole fraction of N-methylformamide	Molar enthalpy of solution, kJ/mol	uncertainty
.013	7.79	
.027	8.25	
.042	8.75	
.058	9.31	
.074	9.85	
.092	10.34	
.111	10.75	
.132	11.21	
.154	11.58	
.178	11.81	
.232	11.59	
0	7.3	

System: trans-L-4-hydroxyproline + N,N-dimethylacetamide + water; phases: Liquid
Fixed: Mole fraction of trans-L-4-hydroxyproline = 0
Fixed: Pressure, kPa = 100.5
Fixed: Temperature, K = 298.15
Property: Molar enthalpy of solution, kJ/mol (Liquid); method: Isoperibol calorimetry
Solvent: Mole fraction of N,N-dimethylacetamide	Molar enthalpy of solution, kJ/mol	uncertainty
.01	7.96	
.021	8.63	
.032	9.28	
.044	9.93	
.056	10.49	
.071	11.17	
.085	11.73	
.101	12.27	
.12	12.87	
.14	13.38	
.184	14.17	
0	7.3	

System: trans-L-4-hydroxyproline + dimethylformamide + water; phases: Liquid
Fixed: Mole fraction of trans-L-4-hydroxyproline = 0
Fixed: Pressure, kPa = 100.5
Fixed: Temperature, K = 298.15
Property: Molar enthalpy of solution, kJ/mol (Liquid); method: Isoperibol calorimetry
Solvent: Mole fraction of dimethylformamide	Molar enthalpy of solution, kJ/mol	uncertainty
.009	8.08	
.018	8.89	
.027	9.63	
.037	10.68	
.048	11.69	
.061	12.69	
.072	13.53	
.086	14.67	
.099	15.38	
.116	15.95	
.172	13.58	
0	7.3	

System: trans-L-4-hydroxyproline + water; phases: Liquid
Fixed: Mole fraction of trans-L-4-hydroxyproline = 0
Fixed: Pressure, kPa = 100.5
Property: Molar enthalpy of solution, kJ/mol (Liquid); method: Isoperibol calorimetry
Temperature, K	Molar enthalpy of solution, kJ/mol	uncertainty
298.15	7.3	
