Measured thermophysical data. Correlation and prediction of the phase behavior and thermal properties  of binary and ternary systems of 2,2 -oxybis[propane] + benzene, toluene,  cyclohexane or n-heptane
Source: Thermochim. Acta, 2013, 10.1016/j.tca.2013.01.028
Compound 1: isopropyl ether, C6H14O
Compound 2: benzene, C6H6
Compound 3: toluene, C7H8
Compound 4: heptane, C7H16

System: benzene + toluene; phases: Liquid
Fixed: Temperature, K = 303.15
Fixed: Pressure, kPa = 101
Property: Excess molar enthalpy (molar enthalpy of mixing), kJ/mol (Liquid); method: Calvet calorimetry
Mole fraction of toluene	Excess molar enthalpy (molar enthalpy of mixing), kJ/mol	uncertainty
.247	.0543	
.4944	.0713	
.7685	.0477	

System: benzene + heptane; phases: Liquid
Fixed: Temperature, K = 303.15
Fixed: Pressure, kPa = 101
Property: Excess molar enthalpy (molar enthalpy of mixing), kJ/mol (Liquid); method: Calvet calorimetry
Mole fraction of benzene	Excess molar enthalpy (molar enthalpy of mixing), kJ/mol	uncertainty
.2481	.6047	
.5	.9235	
.7576	.7775	
