Measured thermophysical data. Thermodynamic and structural aspects of hydroxybenzamide molecular crystals study
Source: Thermochim. Acta, 2013, 10.1016/j.tca.2012.10.013
Compound 1: o-hydroxybenzamide, C7H7NO2, purity 99%
Compound 2: 3-hydroxy-benzamide, C7H7NO2, purity 99%
Compound 3: 4-Hydroxybenzamide, C7H7NO2, purity 98%

System: o-hydroxybenzamide; phases: Crystal, Liquid, Air at 1 atmosphere
Property: Normal melting temperature, K (Crystal); method: DSC/DTA
Normal melting temperature, K	uncertainty
438	.2

System: o-hydroxybenzamide; phases: Crystal, Liquid, Air at 1 atmosphere
Property: Molar enthalpy of transition or fusion, kJ/mol (Crystal); method: DSC/DTA
Molar enthalpy of transition or fusion, kJ/mol	uncertainty
27.4	.6

System: o-hydroxybenzamide; phases: Crystal, Gas
Property: Vapor or sublimation pressure, kPa (Crystal); method: Transpiration method
Temperature, K	Vapor or sublimation pressure, kPa	uncertainty
320.15	.000033	
321.15	.0000362	
322.15	.0000404	
323.15	.0000469	
324.15	.0000523	
325.15	.0000584	
326.15	.0000679	
327.15	.0000743	
328.15	.000088	
329.15	.0000973	
330.15	.000105	
331.15	.000118	
332.15	.000141	
333.15	.000153	
343.15	.000468	
345.15	.000571	

System: 3-hydroxy-benzamide; phases: Crystal, Liquid, Air at 1 atmosphere
Property: Normal melting temperature, K (Crystal); method: DSC/DTA
Normal melting temperature, K	uncertainty
440.7	.2

System: 3-hydroxy-benzamide; phases: Crystal, Liquid, Air at 1 atmosphere
Property: Molar enthalpy of transition or fusion, kJ/mol (Crystal); method: DSC/DTA
Molar enthalpy of transition or fusion, kJ/mol	uncertainty
28.8	.5

System: 3-hydroxy-benzamide; phases: Crystal, Gas
Property: Vapor or sublimation pressure, kPa (Crystal); method: Transpiration method
Temperature, K	Vapor or sublimation pressure, kPa	uncertainty
367.65	.0000262	
369.65	.000033	
371.65	.0000384	
374.15	.0000483	
376.15	.0000578	
377.15	.0000706	
379.15	.0000821	
379.65	.0000829	
380.15	.0000916	
381.65	.000101	
383.15	.000129	
383.65	.000131	
385.15	.000144	
386.15	.000169	
388.15	.000192	
390.15	.000252	
392.65	.000307	
394.15	.000357	
396.15	.000427	

System: 4-Hydroxybenzamide; phases: Crystal, Liquid, Air at 1 atmosphere
Property: Normal melting temperature, K (Crystal); method: DSC/DTA
Normal melting temperature, K	uncertainty
433.1	.2

System: 4-Hydroxybenzamide; phases: Crystal, Liquid, Air at 1 atmosphere
Property: Molar enthalpy of transition or fusion, kJ/mol (Crystal); method: DSC/DTA
Molar enthalpy of transition or fusion, kJ/mol	uncertainty
25.2	.5

System: 4-Hydroxybenzamide; phases: Crystal, Gas
Property: Vapor or sublimation pressure, kPa (Crystal); method: Transpiration method
Temperature, K	Vapor or sublimation pressure, kPa	uncertainty
362.15	.0000174	
364.65	.000024	
366.15	.0000263	
368.15	.0000365	
369.15	.0000388	
370.15	.0000446	
373.15	.000055	
374.15	.0000659	
378.15	.0000944	
381.15	.000126	
382.65	.000156	
386.15	.000194	
388.15	.000247	
393.15	.000393	
394.15	.000428	
399.15	.00063	
404.15	.000975	
405.15	.00108	
408.65	.00155	
412.15	.00196	
417.65	.00295	
420.65	.00367	
