Measured thermophysical data. Solution calorimetry as a complementary tool for the determination of enthalpies of vaporization and sublimation of low volatile compounds at 298.15 K
Source: Thermochim. Acta, 2014, 10.1016/j.tca.2014.05.033
Compound 1: azulene, C10H8, purity 97%
Compound 2: diphenylacetylene, C14H10, purity 97%
Compound 3: phenanthrene, C14H10, purity 97%
Compound 4: trans-stilbene, C14H12, purity 97%
Compound 5: 1-phenylnaphthalene, C16H12, purity 97%
Compound 6: pyrene, C16H10, purity 97%
Compound 7: 1,2-diphenylbenzene, C18H14, purity 97%
Compound 8: 1,3-diphenylbenzene, C18H14, purity 97%
Compound 9: 1,4-diphenylbenzene, C18H14, purity 97%
Compound 10: 1,2-benzoanthracene, C18H12, purity 97%
Compound 11: 9-phenylanthracene, C20H14, purity 97%
Compound 12: 1,2,3-triphenylbenzene, C24H18, purity 97%
Compound 13: 1,2:5,6-benzanthracene, C22H14, purity 97%
Compound 14: 9,10-diphenylanthracene, C26H18, purity 97%
Compound 15: 1,2,3,4-tetraphenylnaphthalene, C34H24, purity 97%
Compound 16: hexaphenylbenzene, C42H30, purity 97%
Compound 17: rubrene, C42H28, purity 97%
Compound 18: benzene, C6H6, purity 99.9%
Compound 19: water, H2O
Compound 20: fluoranthene, C16H10, purity 97%

System: azulene; phases: Crystal, Gas
Property: Molar enthalpy of vaporization or sublimation, kJ/mol (Crystal); method: DSC/DTA
Temperature, K	Molar enthalpy of vaporization or sublimation, kJ/mol	uncertainty
298.15	73.3	.7

System: diphenylacetylene; phases: Crystal, Gas
Property: Molar enthalpy of vaporization or sublimation, kJ/mol (Crystal); method: DSC/DTA
Temperature, K	Molar enthalpy of vaporization or sublimation, kJ/mol	uncertainty
298.15	92.2	2

System: phenanthrene; phases: Crystal 2, Gas
Property: Molar enthalpy of vaporization or sublimation, kJ/mol (Crystal 2); method: DSC/DTA
Temperature, K	Molar enthalpy of vaporization or sublimation, kJ/mol	uncertainty
298.15	92.3	1.1

System: trans-stilbene; phases: Crystal, Gas
Property: Molar enthalpy of vaporization or sublimation, kJ/mol (Crystal); method: DSC/DTA
Temperature, K	Molar enthalpy of vaporization or sublimation, kJ/mol	uncertainty
298.15	102.8	.9

System: 1-phenylnaphthalene; phases: Crystal, Gas
Property: Molar enthalpy of vaporization or sublimation, kJ/mol (Crystal); method: DSC/DTA
Temperature, K	Molar enthalpy of vaporization or sublimation, kJ/mol	uncertainty
298.15	82.7	.9

System: 1-phenylnaphthalene; phases: Liquid, Gas
Property: Vapor or sublimation pressure, kPa (Liquid); method: Transpiration method
Temperature, K	Vapor or sublimation pressure, kPa	uncertainty
318.5	.00026	
323.5	.00038	
328.3	.00062	
328.4	.0006	
333.4	.00092	
338	.00136	
343.6	.00209	
343.6	.0021	
351	.00376	
353.1	.00462	
358.3	.00644	
358.5	.00687	
363	.00953	
368.3	.01352	
371	.01665	

System: 1-phenylnaphthalene; phases: Crystal, Gas
Property: Vapor or sublimation pressure, kPa (Crystal); method: Transpiration method
Temperature, K	Vapor or sublimation pressure, kPa	uncertainty
306.2	.00005	
309.4	.00007	
313.2	.00012	
316.3	.00016	
319.3	.00021	
322.3	.00031	
325.2	.00043	
329.2	.00063	
328.4	.00055	
334.2	.00101	
330.7	.00073	
337.2	.00135	
340.3	.00178	
343.4	.00229	
346.3	.00306	
349.4	.00403	
352.4	.00545	
355.5	.00705	
359.2	.00907	
356.8	.0076	
358.6	.00914	
362.3	.01171	
365.3	.01534	
368.3	.01988	
370.4	.02298	

System: pyrene; phases: Crystal, Gas
Property: Molar enthalpy of vaporization or sublimation, kJ/mol (Crystal); method: DSC/DTA
Temperature, K	Molar enthalpy of vaporization or sublimation, kJ/mol	uncertainty
298.15	105.6	1.2

System: 1,2-diphenylbenzene; phases: Crystal, Gas
Property: Molar enthalpy of vaporization or sublimation, kJ/mol (Crystal); method: DSC/DTA
Temperature, K	Molar enthalpy of vaporization or sublimation, kJ/mol	uncertainty
298.15	105.7	1.1

System: 1,2-diphenylbenzene; phases: Liquid, Gas
Property: Vapor or sublimation pressure, kPa (Liquid); method: Transpiration method
Temperature, K	Vapor or sublimation pressure, kPa	uncertainty
343.5	.00166	
345.5	.00195	
346.4	.0021	
348.4	.0025	
349.5	.0027	
351.5	.00315	
352.5	.00339	
355.4	.00427	
358.4	.00528	
360.4	.0062	
361.4	.00658	
361.5	.00664	
363.2	.00752	
365.4	.00888	
366.4	.00943	
368.4	.01095	
369.4	.01187	
371.4	.01363	
373.3	.01527	
374.4	.01677	
376.3	.01869	
377.4	.02037	

System: 1,3-diphenylbenzene; phases: Crystal, Gas
Property: Molar enthalpy of vaporization or sublimation, kJ/mol (Crystal); method: DSC/DTA
Temperature, K	Molar enthalpy of vaporization or sublimation, kJ/mol	uncertainty
298.15	115.4	.4

System: 1,4-diphenylbenzene; phases: Crystal, Gas
Property: Molar enthalpy of vaporization or sublimation, kJ/mol (Crystal); method: DSC/DTA
Temperature, K	Molar enthalpy of vaporization or sublimation, kJ/mol	uncertainty
298.15	121.3	1.7

System: 1,2-benzoanthracene; phases: Crystal, Gas
Property: Molar enthalpy of vaporization or sublimation, kJ/mol (Crystal); method: DSC/DTA
Temperature, K	Molar enthalpy of vaporization or sublimation, kJ/mol	uncertainty
298.15	116.2	1

System: 9-phenylanthracene; phases: Crystal, Gas
Property: Molar enthalpy of vaporization or sublimation, kJ/mol (Crystal); method: DSC/DTA
Temperature, K	Molar enthalpy of vaporization or sublimation, kJ/mol	uncertainty
298.15	125.5	1

System: 1,2,3-triphenylbenzene; phases: Crystal, Gas
Property: Molar enthalpy of vaporization or sublimation, kJ/mol (Crystal); method: DSC/DTA
Temperature, K	Molar enthalpy of vaporization or sublimation, kJ/mol	uncertainty
298.15	138.5	1.6

System: 1,2:5,6-benzanthracene; phases: Crystal, Gas
Property: Molar enthalpy of vaporization or sublimation, kJ/mol (Crystal); method: DSC/DTA
Temperature, K	Molar enthalpy of vaporization or sublimation, kJ/mol	uncertainty
298.15	148.3	1.9

System: 9,10-diphenylanthracene; phases: Crystal, Gas
Property: Molar enthalpy of vaporization or sublimation, kJ/mol (Crystal); method: DSC/DTA
Temperature, K	Molar enthalpy of vaporization or sublimation, kJ/mol	uncertainty
298.15	152.9	2.2

System: 1,2,3,4-tetraphenylnaphthalene; phases: Crystal, Gas
Property: Molar enthalpy of vaporization or sublimation, kJ/mol (Crystal); method: DSC/DTA
Temperature, K	Molar enthalpy of vaporization or sublimation, kJ/mol	uncertainty
298.15	165	2.7

System: hexaphenylbenzene; phases: Crystal, Gas
Property: Molar enthalpy of vaporization or sublimation, kJ/mol (Crystal); method: DSC/DTA
Temperature, K	Molar enthalpy of vaporization or sublimation, kJ/mol	uncertainty
298.15	195.9	2.4

System: rubrene; phases: Crystal, Gas
Property: Molar enthalpy of vaporization or sublimation, kJ/mol (Crystal); method: DSC/DTA
Temperature, K	Molar enthalpy of vaporization or sublimation, kJ/mol	uncertainty
298.15	213.2	2

System: fluoranthene; phases: Crystal, Gas
Property: Molar enthalpy of vaporization or sublimation, kJ/mol (Crystal); method: DSC/DTA
Temperature, K	Molar enthalpy of vaporization or sublimation, kJ/mol	uncertainty
298.15	101	.9

System: benzene + diphenylacetylene; phases: Liquid
Fixed: Pressure, kPa = 101
Fixed: Temperature, K = 298.15
Property: Molar enthalpy of solution, kJ/mol (Liquid); method: Titration calorimetry
Mole fraction of diphenylacetylene	Molar enthalpy of solution, kJ/mol	uncertainty
0	18.2	

System: benzene + diphenylacetylene; phases: Liquid
Fixed: Pressure, kPa = 101
Property: Refractive index (Na D-line) (Liquid); method: Standard Abbe refractometry
Temperature, K	Molality, mol/kg of diphenylacetylene	Refractive index (Na D-line)	uncertainty
298.15	0	1.49734	.00004
298.15	.00019	1.49738	.00004
298.15	.00036	1.49743	.00004
298.15	.00042	1.49747	.00004
298.15	.00079	1.49756	.00004

System: benzene + diphenylacetylene; phases: Liquid
Fixed: Pressure, kPa = 101
Fixed: Temperature, K = 298.15
Property: Mass density, kg/m3 (Liquid); method: Vibrating tube method
Molality, mol/kg of diphenylacetylene	Mass density, kg/m3	uncertainty
0	873.285	
.00019	873.334	
.00036	873.403	
.00042	873.437	
.00079	873.534	

System: benzene + 1,3-diphenylbenzene; phases: Liquid
Fixed: Pressure, kPa = 101
Fixed: Temperature, K = 298.15
Property: Refractive index (Na D-line) (Liquid); method: Standard Abbe refractometry
Molality, mol/kg of 1,3-diphenylbenzene	Refractive index (Na D-line)	uncertainty
0	1.49772	.00004
.00482	1.49966	.00004
.00941	1.50149	.00004
.0215	1.50621	.00004
.0142	1.50336	.00004

System: benzene + 1,3-diphenylbenzene; phases: Liquid
Fixed: Pressure, kPa = 101
Fixed: Temperature, K = 298.15
Property: Mass density, kg/m3 (Liquid); method: Vibrating tube method
Molality, mol/kg of 1,3-diphenylbenzene	Mass density, kg/m3	uncertainty
0	873.483	
.00482	876.044	
.00941	878.445	
.0215	884.612	
.0142	880.914	

System: benzene + 9-phenylanthracene; phases: Liquid
Fixed: Pressure, kPa = 101
Fixed: Temperature, K = 298.15
Property: Molar enthalpy of solution, kJ/mol (Liquid); method: Titration calorimetry
Mole fraction of 9-phenylanthracene	Molar enthalpy of solution, kJ/mol	uncertainty
0	21.6	

System: benzene + 9-phenylanthracene; phases: Liquid
Fixed: Pressure, kPa = 101
Fixed: Temperature, K = 298.15
Property: Refractive index (Na D-line) (Liquid); method: Standard Abbe refractometry
Molality, mol/kg of 9-phenylanthracene	Refractive index (Na D-line)	uncertainty
0	1.49758	.00004
.00011	1.49764	.00004
.00032	1.49776	.00004
.00038	1.4978	.00004
.0008	1.49794	.00004

System: benzene + 9-phenylanthracene; phases: Liquid
Fixed: Pressure, kPa = 101
Fixed: Temperature, K = 298.15
Property: Mass density, kg/m3 (Liquid); method: Vibrating tube method
Molality, mol/kg of 9-phenylanthracene	Mass density, kg/m3	uncertainty
0	873.612	
.00011	873.687	
.00032	873.837	
.00038	873.891	
.0008	874.047	

System: benzene + 1,2,3-triphenylbenzene; phases: Liquid
Fixed: Pressure, kPa = 101
Fixed: Temperature, K = 298.15
Property: Molar enthalpy of solution, kJ/mol (Liquid); method: Titration calorimetry
Mole fraction of 1,2,3-triphenylbenzene	Molar enthalpy of solution, kJ/mol	uncertainty
0	20.2	

System: benzene + 1,2,3-triphenylbenzene; phases: Liquid
Fixed: Pressure, kPa = 101
Fixed: Temperature, K = 298.15
Property: Refractive index (Na D-line) (Liquid); method: Standard Abbe refractometry
Molality, mol/kg of 1,2,3-triphenylbenzene	Refractive index (Na D-line)	uncertainty
0	1.49778	.00004
.00038	1.49797	.00004
.00061	1.49809	.00004
.0008	1.49819	.00004
.0007	1.49814	.00004

System: benzene + 1,2,3-triphenylbenzene; phases: Liquid
Fixed: Pressure, kPa = 101
Fixed: Temperature, K = 298.15
Property: Mass density, kg/m3 (Liquid); method: Vibrating tube method
Molality, mol/kg of 1,2,3-triphenylbenzene	Mass density, kg/m3	uncertainty
0	873.584	
.00038	873.87	
.00061	874.054	
.0008	874.201	
.0007	874.135	

System: benzene + 9,10-diphenylanthracene; phases: Liquid
Fixed: Pressure, kPa = 101
Fixed: Temperature, K = 298.15
Property: Molar enthalpy of solution, kJ/mol (Liquid); method: Titration calorimetry
Mole fraction of 9,10-diphenylanthracene	Molar enthalpy of solution, kJ/mol	uncertainty
0	18.7	

System: benzene + 9,10-diphenylanthracene; phases: Liquid
Fixed: Pressure, kPa = 101
Fixed: Temperature, K = 298.15
Property: Refractive index (Na D-line) (Liquid); method: Standard Abbe refractometry
Molality, mol/kg of 9,10-diphenylanthracene	Refractive index (Na D-line)	uncertainty
0	1.49752	.00004
.00012	1.49761	.00004
.00016	1.49763	.00004
.00022	1.49768	.00004
.00028	1.49773	.00004
.0003	1.49776	.00004

System: benzene + 9,10-diphenylanthracene; phases: Liquid
Fixed: Pressure, kPa = 101
Fixed: Temperature, K = 298.15
Property: Mass density, kg/m3 (Liquid); method: Vibrating tube method
Molality, mol/kg of 9,10-diphenylanthracene	Mass density, kg/m3	uncertainty
0	873.534	
.00012	873.64	
.00016	873.666	
.00022	873.731	
.00028	873.796	
.0003	873.822	

System: benzene + 1,2,3,4-tetraphenylnaphthalene; phases: Liquid
Fixed: Pressure, kPa = 101
Fixed: Temperature, K = 298.15
Property: Molar enthalpy of solution, kJ/mol (Liquid); method: Titration calorimetry
Mole fraction of 1,2,3,4-tetraphenylnaphthalene	Molar enthalpy of solution, kJ/mol	uncertainty
0	4	

System: benzene + 1,2,3,4-tetraphenylnaphthalene; phases: Liquid
Fixed: Pressure, kPa = 101
Fixed: Temperature, K = 298.15
Property: Refractive index (Na D-line) (Liquid); method: Standard Abbe refractometry
Molality, mol/kg of 1,2,3,4-tetraphenylnaphthalene	Refractive index (Na D-line)	uncertainty
0	1.49731	.00004
.0008	1.49737	.00004
.0017	1.49744	.00004
.0011	1.4974	.00004
.0017	1.49745	.00004
.0022	1.49748	.00004

System: benzene + 1,2,3,4-tetraphenylnaphthalene; phases: Liquid
Fixed: Pressure, kPa = 101
Fixed: Temperature, K = 298.15
Property: Mass density, kg/m3 (Liquid); method: Vibrating tube method
Molality, mol/kg of 1,2,3,4-tetraphenylnaphthalene	Mass density, kg/m3	uncertainty
0	873.277	
.00008	873.38	
.00017	873.488	
.00011	873.424	
.00017	873.494	
.00022	873.551	

System: benzene + azulene; phases: Liquid
Fixed: Pressure, kPa = 101
Fixed: Temperature, K = 298.15
Property: Molar enthalpy of solution, kJ/mol (Liquid); method: Titration calorimetry
Mole fraction of azulene	Molar enthalpy of solution, kJ/mol	uncertainty
0	18.1	

System: benzene + phenanthrene; phases: Liquid
Fixed: Pressure, kPa = 101
Fixed: Temperature, K = 298.15
Property: Molar enthalpy of solution, kJ/mol (Liquid); method: Titration calorimetry
Mole fraction of phenanthrene	Molar enthalpy of solution, kJ/mol	uncertainty
0	17.7	

System: benzene + trans-stilbene; phases: Liquid
Fixed: Pressure, kPa = 101
Fixed: Temperature, K = 298.15
Property: Molar enthalpy of solution, kJ/mol (Liquid); method: Titration calorimetry
Mole fraction of trans-stilbene	Molar enthalpy of solution, kJ/mol	uncertainty
0	24.9	

System: benzene + 1-phenylnaphthalene; phases: Liquid
Fixed: Pressure, kPa = 101
Fixed: Temperature, K = 298.15
Property: Molar enthalpy of solution, kJ/mol (Liquid); method: Titration calorimetry
Mole fraction of 1-phenylnaphthalene	Molar enthalpy of solution, kJ/mol	uncertainty
0	.7	

System: benzene + pyrene; phases: Liquid
Fixed: Pressure, kPa = 101
Fixed: Temperature, K = 298.15
Property: Molar enthalpy of solution, kJ/mol (Liquid); method: Titration calorimetry
Mole fraction of pyrene	Molar enthalpy of solution, kJ/mol	uncertainty
0	18.1	

System: 1,2-benzoanthracene + benzene; phases: Liquid
Fixed: Pressure, kPa = 101
Fixed: Temperature, K = 298.15
Property: Molar enthalpy of solution, kJ/mol (Liquid); method: Titration calorimetry
Mole fraction of 1,2-benzoanthracene	Molar enthalpy of solution, kJ/mol	uncertainty
0	19.1	

System: 1,2:5,6-benzanthracene + benzene; phases: Liquid
Fixed: Pressure, kPa = 101
Fixed: Temperature, K = 298.15
Property: Molar enthalpy of solution, kJ/mol (Liquid); method: Titration calorimetry
Mole fraction of 1,2:5,6-benzanthracene	Molar enthalpy of solution, kJ/mol	uncertainty
0	28.1	

System: benzene + hexaphenylbenzene; phases: Liquid
Fixed: Pressure, kPa = 101
Fixed: Temperature, K = 298.15
Property: Molar enthalpy of solution, kJ/mol (Liquid); method: Titration calorimetry
Mole fraction of hexaphenylbenzene	Molar enthalpy of solution, kJ/mol	uncertainty
0	2.6	

System: benzene + rubrene; phases: Liquid
Fixed: Pressure, kPa = 101
Fixed: Temperature, K = 298.15
Property: Molar enthalpy of solution, kJ/mol (Liquid); method: Titration calorimetry
Mole fraction of rubrene	Molar enthalpy of solution, kJ/mol	uncertainty
0	10.6	

System: benzene + fluoranthene; phases: Liquid
Fixed: Pressure, kPa = 101
Fixed: Temperature, K = 298.15
Property: Molar enthalpy of solution, kJ/mol (Liquid); method: Titration calorimetry
Mole fraction of fluoranthene	Molar enthalpy of solution, kJ/mol	uncertainty
0	16.3	
