Measured thermophysical data. Solubility and dissolution thermodynamics of N-(4-chlorophenyl)-2-(pyridin-4-ylcarbonyl)hydrazinecarbothioamide in PG + water cosolvent mixtures at (298.15 to 338.15) K
Source: Thermochim. Acta, 2014, 10.1016/j.tca.2014.08.013
Compound 1: propylene glycol, C3H8O2, purity 99.5%
Compound 2: N-(4-chlorophenyl)-2-(pyridin-4-ylcarbonyl)hydrazinecarbothioamide, C13H11ClN4OS, purity 99.6%
Compound 3: water, H2O, purity 98%

System: propylene glycol + water + N-(4-chlorophenyl)-2-(pyridin-4-ylcarbonyl)hydrazinecarbothioamide; phases: Liquid, Crystal
Fixed: Pressure, kPa = 100
Property: Mole fraction of N-(4-chlorophenyl)-2-(pyridin-4-ylcarbonyl)hydrazinecarbothioamide (Liquid); method: UV spectrophotometer
Temperature, K	Solvent: Mass fraction of propylene glycol	Mole fraction of N-(4-chlorophenyl)-2-(pyridin-4-ylcarbonyl)hydrazinecarbothioamide	uncertainty
298.15	0	.000000517	.000000008272
298.15	.1	.00000139	.00000002224
298.15	.2	.0000036	.0000000576
298.15	.3	.00000922	.00000014752
298.15	.4	.000024	.000000384
298.15	.5	.0000625	.000001
298.15	.6	.000166	.000002656
298.15	.7	.000429	.000006864
298.15	.8	.00116	.00001856
298.15	.9	.0029	.0000464
298.15	1	.00738	.00011808
308.15	0	.000000593	.000000009488
308.15	.1	.00000157	.00000002512
308.15	.2	.00000414	.00000006624
308.15	.3	.0000108	.0000001728
308.15	.4	.0000274	.0000004384
308.15	.5	.0000705	.000001128
308.15	.6	.000184	.000002944
308.15	.7	.000466	.000007456
308.15	.8	.00127	.00002032
308.15	.9	.0031	.0000496
308.15	1	.00789	.00012624
318.15	0	.000000705	.00000001128
318.15	.1	.00000183	.00000002928
318.15	.2	.00000486	.00000007776
318.15	.3	.000012	.000000192
318.15	.4	.0000314	.0000005024
318.15	.5	.0000777	.0000012432
318.15	.6	.000206	.000003296
318.15	.7	.000515	.00000824
318.15	.8	.00137	.00002192
318.15	.9	.00338	.00005408
318.15	1	.00848	.00013568
328.15	0	.000000828	.000000013248
328.15	.1	.00000213	.00000003408
328.15	.2	.00000548	.00000008768
328.15	.3	.0000137	.0000002192
328.15	.4	.0000352	.0000005632
328.15	.5	.0000873	.0000013968
328.15	.6	.000227	.000003632
328.15	.7	.000573	.000009168
328.15	.8	.00151	.00002416
328.15	.9	.00368	.00005888
328.15	1	.00909	.00014544
338.15	0	.000000975	.0000000156
338.15	.1	.00000245	.0000000392
338.15	.2	.0000061	.0000000976
338.15	.3	.0000161	.0000002576
338.15	.4	.0000404	.0000006464
338.15	.5	.0000978	.0000015648
338.15	.6	.000249	.000003984
338.15	.7	.000628	.000010048
338.15	.8	.00161	.00002576
338.15	.9	.00404	.00006464
338.15	1	.00987	.00015792
