Measured thermophysical data. Crystal structure and thermochemical properties of 1-dodecylamine  hydrochloride (C12H28NCl)(s)
Source: Thermochim. Acta, 2009, 10.1016/j.tca.2009.05.015
Compound 1: 1-dodecylamine hydrochloride, C12H28ClN, purity 99.5%
Compound 2: water, H2O

System: 1-dodecylamine hydrochloride; phases: Crystal
Fixed: Pressure, kPa = 101.325
Property: Mass density, kg/m3 (Crystal); method: X-ray diffraction
Temperature, K	Mass density, kg/m3	uncertainty
293	1022	

System: 1-dodecylamine hydrochloride + water; phases: Liquid
Fixed: Temperature, K = 298.15
Fixed: Pressure, kPa = 101.325
Property: Molar enthalpy of solution, kJ/mol (Liquid); method: Isoperibol calorimetry
Molality, mol/kg of 1-dodecylamine hydrochloride	Molar enthalpy of solution, kJ/mol	uncertainty
.0002415	31.234	.093702
.0004816	32.048	.096144
.0006909	32.599	.097797
.0009398	33.255	.099765
.0011447	33.677	.101031
.0013555	33.963	.101889
.001597	34.384	.103152
.0018283	34.704	.104112
.0020289	34.839	.104517
.0022572	35.092	.105276
.0024929	35.226	.105678
.0027125	35.469	.106407
.0029657	35.614	.106842
.0031662	35.67	.10701
