Measured thermophysical data. Studies on liquid liquid interactions of some ternary mixtures by density,  viscosity, ultrasonic speed and refractive index measurements
Source: Thermochim. Acta, 2009, 10.1016/j.tca.2009.07.011
Compound 1: 1,3-dioxolane, C3H6O2
Compound 2: dichloromethane, CH2Cl2
Compound 3: methyl ethanoate, C3H6O2
Compound 4: ethyl ethanoate, C4H8O2
Compound 5: propyl ethanoate, C5H10O2
Compound 6: butyl ethanoate, C6H12O2
Compound 7: isoamyl acetate, C7H14O2

System: 1,3-dioxolane; phases: Liquid
Property: Mass density, kg/m3 (Liquid); method: Pycnometric method
Temperature, K	Pressure, kPa	Mass density, kg/m3	uncertainty
298.15	101	1057	

System: 1,3-dioxolane; phases: Liquid
Property: Viscosity, Pa*s (Liquid); method: Capillary tube (Ostwald; Ubbelohde) method
Temperature, K	Pressure, kPa	Viscosity, Pa*s	uncertainty
298.15	101	.000588	.000003

System: 1,3-dioxolane; phases: Liquid
Property: Speed of sound, m/s (Liquid); method: ultra sonice interferometer
Temperature, K	Pressure, kPa	Speed of sound, m/s	uncertainty
298.15	101	1339	.2

System: 1,3-dioxolane; phases: Liquid
Fixed: Pressure, kPa = 101.325
Property: Refractive index (Na D-line) (Liquid); method: Standard Abbe refractometry
Temperature, K	Refractive index (Na D-line)	uncertainty
298.15	1.398	.0002

System: dichloromethane + methyl ethanoate + 1,3-dioxolane; phases: Liquid
Fixed: Temperature, K = 298.15
Fixed: Pressure, kPa = 101
Property: Mass density, kg/m3 (Liquid); method: Pycnometric method
Mole fraction of 1,3-dioxolane	Mole fraction of dichloromethane	Mass density, kg/m3	uncertainty
0	.4659	1078	
.1061	.4165	1077.7	
.2108	.3677	1077	
.314	.3196	1075.9	
.4159	.2721	1074.4	
.5165	.2253	1072.5	
.6157	.179	1070.1	
.7137	.1334	1067.1	
.8104	.0884	1063.8	
.9058	.0439	1060.3	
1	0	1057	

System: dichloromethane + methyl ethanoate + 1,3-dioxolane; phases: Liquid
Fixed: Temperature, K = 298.15
Fixed: Pressure, kPa = 101
Property: Viscosity, Pa*s (Liquid); method: Capillary tube (Ostwald; Ubbelohde) method
Mole fraction of 1,3-dioxolane	Mole fraction of dichloromethane	Viscosity, Pa*s	uncertainty
0	.4659	.000425	.000003
.1061	.4165	.000439	.000003
.2108	.3677	.000453	.000003
.314	.3196	.000469	.000003
.4159	.2721	.000484	.000003
.5165	.2253	.0005	.000003
.6157	.179	.000518	.000003
.7137	.1334	.000535	.000003
.8104	.0884	.000552	.000003
.9058	.0439	.000571	.000003
1	0	.000588	.000003

System: dichloromethane + methyl ethanoate + 1,3-dioxolane; phases: Liquid
Fixed: Temperature, K = 298.15
Fixed: Pressure, kPa = 101
Property: Speed of sound, m/s (Liquid); method: ultra sonice interferometer
Mole fraction of 1,3-dioxolane	Mole fraction of dichloromethane	Speed of sound, m/s	uncertainty
0	.4659	1056	.2
.1061	.4165	1089	.2
.2108	.3677	1123	.2
.314	.3196	1155	.2
.4159	.2721	1186	.2
.5165	.2253	1215	.2
.6157	.179	1239	.2
.7137	.1334	1263	.2
.8104	.0884	1287	.2
.9058	.0439	1311	.2
1	0	1339	.2

System: dichloromethane + methyl ethanoate + 1,3-dioxolane; phases: Liquid
Fixed: Temperature, K = 298.15
Fixed: Pressure, kPa = 101
Property: Refractive index (Na D-line) (Liquid); method: Standard Abbe refractometry
Mole fraction of 1,3-dioxolane	Mole fraction of dichloromethane	Refractive index (Na D-line)	uncertainty
0	.4659	1.38	.0002
.1061	.4165	1.382	.0002
.2108	.3677	1.384	.0002
.314	.3196	1.386	.0002
.4159	.2721	1.387	.0002
.5165	.2253	1.389	.0002
.6157	.179	1.391	.0002
.7137	.1334	1.392	.0002
.8104	.0884	1.394	.0002
.9058	.0439	1.396	.0002
1	0	1.398	.0002

System: dichloromethane + ethyl ethanoate + 1,3-dioxolane; phases: Liquid
Fixed: Temperature, K = 298.15
Fixed: Pressure, kPa = 101
Property: Mass density, kg/m3 (Liquid); method: Pycnometric method
Mole fraction of 1,3-dioxolane	Mole fraction of dichloromethane	Mass density, kg/m3	uncertainty
0	.5092	1059.2	
.1148	.4507	1059.6	
.2259	.3941	1060.2	
.3335	.3394	1060.7	
.4377	.2863	1061	
.5386	.2349	1061.1	
.6365	.1851	1060.9	
.7315	.1367	1060.2	
.8236	.0898	1059.2	
.9131	.0442	1058	
1	0	1057	

System: dichloromethane + ethyl ethanoate + 1,3-dioxolane; phases: Liquid
Fixed: Temperature, K = 298.15
Fixed: Pressure, kPa = 101
Property: Viscosity, Pa*s (Liquid); method: Capillary tube (Ostwald; Ubbelohde) method
Mole fraction of 1,3-dioxolane	Mole fraction of dichloromethane	Viscosity, Pa*s	uncertainty
0	.5092	.000456	.000003
.1148	.4507	.000467	.000003
.2259	.3941	.00048	.000003
.3335	.3394	.000493	.000003
.4377	.2863	.000507	.000003
.5386	.2349	.00052	.000003
.6365	.1851	.000534	.000003
.7315	.1367	.000547	.000003
.8236	.0898	.000561	.000003
.9131	.0442	.000575	.000003
1	0	.000588	.000003

System: dichloromethane + ethyl ethanoate + 1,3-dioxolane; phases: Liquid
Fixed: Temperature, K = 298.15
Fixed: Pressure, kPa = 101
Property: Speed of sound, m/s (Liquid); method: ultra sonice interferometer
Mole fraction of 1,3-dioxolane	Mole fraction of dichloromethane	Speed of sound, m/s	uncertainty
0	.5092	1059	.2
.1148	.4507	1088	.2
.2259	.3941	1126	.2
.3335	.3394	1162	.2
.4377	.2863	1196	.2
.5386	.2349	1225	.2
.6365	.1851	1250	.2
.7315	.1367	1273	.2
.8236	.0898	1295	.2
.9131	.0442	1316	.2
1	0	1339	.2

System: dichloromethane + ethyl ethanoate + 1,3-dioxolane; phases: Liquid
Fixed: Temperature, K = 298.15
Fixed: Pressure, kPa = 101
Property: Refractive index (Na D-line) (Liquid); method: Standard Abbe refractometry
Mole fraction of 1,3-dioxolane	Mole fraction of dichloromethane	Refractive index (Na D-line)	uncertainty
0	.5092	1.388	.0002
.1148	.4507	1.389	.0002
.2259	.3941	1.39	.0002
.3335	.3394	1.391	.0002
.4377	.2863	1.392	.0002
.5386	.2349	1.393	.0002
.6365	.1851	1.394	.0002
.7315	.1367	1.395	.0002
.8236	.0898	1.396	.0002
.9131	.0442	1.397	.0002
1	0	1.398	.0002

System: dichloromethane + propyl ethanoate + 1,3-dioxolane; phases: Liquid
Fixed: Temperature, K = 298.15
Fixed: Pressure, kPa = 101
Property: Mass density, kg/m3 (Liquid); method: Pycnometric method
Mole fraction of 1,3-dioxolane	Mole fraction of dichloromethane	Mass density, kg/m3	uncertainty
0	.546	1053.5	
.1221	.4793	1054.2	
.2384	.4158	1055.2	
.3492	.3553	1056.2	
.4549	.2976	1057.2	
.5559	.2425	1057.8	
.6525	.1897	1058.2	
.745	.1392	1058.4	
.8335	.0909	1057.9	
.9185	.0445	1057.5	
1	0	1057	

System: dichloromethane + propyl ethanoate + 1,3-dioxolane; phases: Liquid
Fixed: Temperature, K = 298.15
Fixed: Pressure, kPa = 101
Property: Viscosity, Pa*s (Liquid); method: Capillary tube (Ostwald; Ubbelohde) method
Mole fraction of 1,3-dioxolane	Mole fraction of dichloromethane	Viscosity, Pa*s	uncertainty
0	.546	.000518	.000003
.1221	.4793	.000522	.000003
.2384	.4158	.000528	.000003
.3492	.3553	.000536	.000003
.4549	.2976	.000543	.000003
.5559	.2425	.000551	.000003
.6525	.1897	.000558	.000003
.745	.1392	.000567	.000003
.8335	.0909	.000574	.000003
.9185	.0445	.000582	.000003
1	0	.000588	.000003

System: dichloromethane + propyl ethanoate + 1,3-dioxolane; phases: Liquid
Fixed: Temperature, K = 298.15
Fixed: Pressure, kPa = 101
Property: Speed of sound, m/s (Liquid); method: ultra sonice interferometer
Mole fraction of 1,3-dioxolane	Mole fraction of dichloromethane	Speed of sound, m/s	uncertainty
0	.546	1181	.2
.1221	.4793	1114	.2
.2384	.4158	1148	.2
.3492	.3553	1187	.2
.4549	.2976	1218	.2
.5559	.2425	1246	.2
.6525	.1897	1268	.2
.745	.1392	1288	.2
.8335	.0909	1306	.2
.9185	.0445	1320	.2
1	0	1339	.2

System: dichloromethane + propyl ethanoate + 1,3-dioxolane; phases: Liquid
Fixed: Temperature, K = 298.15
Fixed: Pressure, kPa = 101
Property: Refractive index (Na D-line) (Liquid); method: Standard Abbe refractometry
Mole fraction of 1,3-dioxolane	Mole fraction of dichloromethane	Refractive index (Na D-line)	uncertainty
0	.546	1.397	.0002
.1221	.4793	1.397	.0002
.2384	.4158	1.397	.0002
.3492	.3553	1.397	.0002
.4549	.2976	1.397	.0002
.5559	.2425	1.397	.0002
.6525	.1897	1.398	.0002
.745	.1392	1.398	.0002
.8335	.0909	1.398	.0002
.9185	.0445	1.398	.0002
1	0	1.398	.0002

System: dichloromethane + butyl ethanoate + 1,3-dioxolane; phases: Liquid
Fixed: Temperature, K = 298.15
Fixed: Pressure, kPa = 101
Property: Mass density, kg/m3 (Liquid); method: Pycnometric method
Mole fraction of 1,3-dioxolane	Mole fraction of dichloromethane	Mass density, kg/m3	uncertainty
0	.5777	1049.2	
.1283	.5035	1050.5	
.2488	.434	1051.9	
.3621	.3685	1053.4	
.4689	.3068	1054.7	
.5698	.2485	1055.8	
.6652	.1934	1056.6	
.7555	.1412	1056.7	
.8412	.0917	1056.8	
.9226	.0447	1056.9	
1	0	1057	

System: dichloromethane + butyl ethanoate + 1,3-dioxolane; phases: Liquid
Fixed: Temperature, K = 298.15
Fixed: Pressure, kPa = 101
Property: Viscosity, Pa*s (Liquid); method: Capillary tube (Ostwald; Ubbelohde) method
Mole fraction of 1,3-dioxolane	Mole fraction of dichloromethane	Viscosity, Pa*s	uncertainty
0	.5777	.000575	.000003
.1283	.5035	.000576	.000003
.2488	.434	.000578	.000003
.3621	.3685	.00058	.000003
.4689	.3068	.000582	.000003
.5698	.2485	.000583	.000003
.6652	.1934	.000584	.000003
.7555	.1412	.000586	.000003
.8412	.0917	.000586	.000003
.9226	.0447	.000587	.000003
1	0	.000588	.000003

System: dichloromethane + butyl ethanoate + 1,3-dioxolane; phases: Liquid
Fixed: Temperature, K = 298.15
Fixed: Pressure, kPa = 101
Property: Speed of sound, m/s (Liquid); method: ultra sonice interferometer
Mole fraction of 1,3-dioxolane	Mole fraction of dichloromethane	Speed of sound, m/s	uncertainty
0	.5777	1181	.2
.1283	.5035	1114	.2
.2488	.434	1148	.2
.3621	.3685	1187	.2
.4689	.3068	1218	.2
.5698	.2485	1246	.2
.6652	.1934	1268	.2
.7555	.1412	1288	.2
.8412	.0917	1306	.2
.9226	.0447	1320	.2
1	0	1339	.2

System: dichloromethane + butyl ethanoate + 1,3-dioxolane; phases: Liquid
Fixed: Temperature, K = 298.15
Fixed: Pressure, kPa = 101
Property: Refractive index (Na D-line) (Liquid); method: Standard Abbe refractometry
Mole fraction of 1,3-dioxolane	Mole fraction of dichloromethane	Refractive index (Na D-line)	uncertainty
0	.5777	1.403	.0002
.1283	.5035	1.403	.0002
.2488	.434	1.402	.0002
.3621	.3685	1.402	.0002
.4689	.3068	1.401	.0002
.5698	.2485	1.401	.0002
.6652	.1934	1.4	.0002
.7555	.1412	1.4	.0002
.8412	.0917	1.399	.0002
.9226	.0447	1.399	.0002
1	0	1.398	.0002

System: dichloromethane + isoamyl acetate + 1,3-dioxolane; phases: Liquid
Fixed: Temperature, K = 298.15
Fixed: Pressure, kPa = 101
Property: Mass density, kg/m3 (Liquid); method: Pycnometric method
Mole fraction of 1,3-dioxolane	Mole fraction of dichloromethane	Mass density, kg/m3	uncertainty
0	.6052	1043.3	
.1336	.5243	1045.4	
.2576	.4493	1047.4	
.3729	.3795	1049.5	
.4806	.3144	1051.5	
.5812	.2535	1053.4	
.6755	.1964	1054.7	
.764	.1428	1055.4	
.8473	.0924	1056	
.9259	.0449	1056.5	
1	0	1057	

System: dichloromethane + isoamyl acetate + 1,3-dioxolane; phases: Liquid
Fixed: Temperature, K = 298.15
Fixed: Pressure, kPa = 101
Property: Viscosity, Pa*s (Liquid); method: Capillary tube (Ostwald; Ubbelohde) method
Mole fraction of 1,3-dioxolane	Mole fraction of dichloromethane	Viscosity, Pa*s	uncertainty
0	.6052	.000633	.000003
.1336	.5243	.000629	.000003
.2576	.4493	.000624	.000003
.3729	.3795	.00062	.000003
.4806	.3144	.000616	.000003
.5812	.2535	.000613	.000003
.6755	.1964	.000609	.000003
.764	.1428	.000605	.000003
.8473	.0924	.0006	.000003
.9259	.0449	.000593	.000003
1	0	.000588	.000003

System: dichloromethane + isoamyl acetate + 1,3-dioxolane; phases: Liquid
Fixed: Temperature, K = 298.15
Fixed: Pressure, kPa = 101
Property: Speed of sound, m/s (Liquid); method: ultra sonice interferometer
Mole fraction of 1,3-dioxolane	Mole fraction of dichloromethane	Speed of sound, m/s	uncertainty
0	.6052	1115	.2
.1336	.5243	1148	.2
.2576	.4493	1182	.2
.3729	.3795	1217	.2
.4806	.3144	1247	.2
.5812	.2535	1273	.2
.6755	.1964	1296	.2
.764	.1428	1314	.2
.8473	.0924	1327	.2
.9259	.0449	1333	.2
1	0	1339	.2

System: dichloromethane + isoamyl acetate + 1,3-dioxolane; phases: Liquid
Fixed: Temperature, K = 298.15
Fixed: Pressure, kPa = 101
Property: Refractive index (Na D-line) (Liquid); method: Standard Abbe refractometry
Mole fraction of 1,3-dioxolane	Mole fraction of dichloromethane	Refractive index (Na D-line)	uncertainty
0	.6052	1.406	.0002
.1336	.5243	1.406	.0002
.2576	.4493	1.405	.0002
.3729	.3795	1.404	.0002
.4806	.3144	1.404	.0002
.5812	.2535	1.403	.0002
.6755	.1964	1.402	.0002
.764	.1428	1.401	.0002
.8473	.0924	1.4	.0002
.9259	.0449	1.399	.0002
1	0	1.398	.0002

System: dichloromethane + methyl ethanoate; phases: Liquid
Property: Mass density, kg/m3 (Liquid); method: Pycnometric method
Mole fraction of dichloromethane	Temperature, K	Pressure, kPa	Mass density, kg/m3	uncertainty
.4659	298.15	101	1078	

System: dichloromethane + methyl ethanoate; phases: Liquid
Property: Viscosity, Pa*s (Liquid); method: Capillary tube (Ostwald; Ubbelohde) method
Mole fraction of dichloromethane	Temperature, K	Pressure, kPa	Viscosity, Pa*s	uncertainty
.4659	298.15	101	.000425	.000003

System: dichloromethane + methyl ethanoate; phases: Liquid
Property: Speed of sound, m/s (Liquid); method: ultra sonice interferometer
Mole fraction of dichloromethane	Temperature, K	Pressure, kPa	Speed of sound, m/s	uncertainty
.4659	298.15	101	1056	.2

System: dichloromethane + methyl ethanoate; phases: Liquid
Property: Refractive index (Na D-line) (Liquid); method: Standard Abbe refractometry
Mole fraction of dichloromethane	Temperature, K	Pressure, kPa	Refractive index (Na D-line)	uncertainty
.4659	298.15	101	1.38	.0002

System: dichloromethane + ethyl ethanoate; phases: Liquid
Property: Mass density, kg/m3 (Liquid); method: Pycnometric method
Mole fraction of dichloromethane	Temperature, K	Pressure, kPa	Mass density, kg/m3	uncertainty
.5092	298.15	101	1059.2	

System: dichloromethane + ethyl ethanoate; phases: Liquid
Property: Viscosity, Pa*s (Liquid); method: Capillary tube (Ostwald; Ubbelohde) method
Mole fraction of dichloromethane	Temperature, K	Pressure, kPa	Viscosity, Pa*s	uncertainty
.5092	298.15	101	.000456	.000003

System: dichloromethane + ethyl ethanoate; phases: Liquid
Property: Speed of sound, m/s (Liquid); method: ultra sonice interferometer
Mole fraction of dichloromethane	Temperature, K	Pressure, kPa	Speed of sound, m/s	uncertainty
.5092	298.15	101	1059	.2

System: dichloromethane + ethyl ethanoate; phases: Liquid
Property: Refractive index (Na D-line) (Liquid); method: Standard Abbe refractometry
Mole fraction of dichloromethane	Temperature, K	Pressure, kPa	Refractive index (Na D-line)	uncertainty
.5092	298.15	101	1.388	.0002

System: dichloromethane + propyl ethanoate; phases: Liquid
Property: Mass density, kg/m3 (Liquid); method: Pycnometric method
Mole fraction of dichloromethane	Temperature, K	Pressure, kPa	Mass density, kg/m3	uncertainty
.546	298.15	101	1053.5	

System: dichloromethane + propyl ethanoate; phases: Liquid
Property: Viscosity, Pa*s (Liquid); method: Capillary tube (Ostwald; Ubbelohde) method
Mole fraction of dichloromethane	Temperature, K	Pressure, kPa	Viscosity, Pa*s	uncertainty
.546	298.15	101	.000518	.000003

System: dichloromethane + propyl ethanoate; phases: Liquid
Property: Speed of sound, m/s (Liquid); method: ultra sonice interferometer
Mole fraction of dichloromethane	Temperature, K	Pressure, kPa	Speed of sound, m/s	uncertainty
.546	298.15	101	1181	.2

System: dichloromethane + propyl ethanoate; phases: Liquid
Property: Refractive index (Na D-line) (Liquid); method: Standard Abbe refractometry
Mole fraction of dichloromethane	Temperature, K	Pressure, kPa	Refractive index (Na D-line)	uncertainty
.546	298.15	101	1.397	.0002

System: dichloromethane + butyl ethanoate; phases: Liquid
Property: Mass density, kg/m3 (Liquid); method: Pycnometric method
Mole fraction of dichloromethane	Temperature, K	Pressure, kPa	Mass density, kg/m3	uncertainty
.5777	298.15	101	1049.2	

System: dichloromethane + butyl ethanoate; phases: Liquid
Property: Viscosity, Pa*s (Liquid); method: Capillary tube (Ostwald; Ubbelohde) method
Mole fraction of dichloromethane	Temperature, K	Pressure, kPa	Viscosity, Pa*s	uncertainty
.5777	298.15	101	.000575	.000003

System: dichloromethane + butyl ethanoate; phases: Liquid
Property: Speed of sound, m/s (Liquid); method: ultra sonice interferometer
Mole fraction of dichloromethane	Temperature, K	Pressure, kPa	Speed of sound, m/s	uncertainty
.5777	298.15	101	1181	.2

System: dichloromethane + butyl ethanoate; phases: Liquid
Property: Refractive index (Na D-line) (Liquid); method: Standard Abbe refractometry
Mole fraction of dichloromethane	Temperature, K	Pressure, kPa	Refractive index (Na D-line)	uncertainty
.5777	298.15	101	1.403	.0002

System: dichloromethane + isoamyl acetate; phases: Liquid
Property: Mass density, kg/m3 (Liquid); method: Pycnometric method
Mole fraction of dichloromethane	Temperature, K	Pressure, kPa	Mass density, kg/m3	uncertainty
.6052	298.15	101	1043.3	

System: dichloromethane + isoamyl acetate; phases: Liquid
Property: Viscosity, Pa*s (Liquid); method: Capillary tube (Ostwald; Ubbelohde) method
Mole fraction of dichloromethane	Temperature, K	Pressure, kPa	Viscosity, Pa*s	uncertainty
.6052	298.15	101	.000633	.000003

System: dichloromethane + isoamyl acetate; phases: Liquid
Property: Speed of sound, m/s (Liquid); method: ultra sonice interferometer
Mole fraction of dichloromethane	Temperature, K	Pressure, kPa	Speed of sound, m/s	uncertainty
.6052	298.15	101	1115	.2

System: dichloromethane + isoamyl acetate; phases: Liquid
Property: Refractive index (Na D-line) (Liquid); method: Standard Abbe refractometry
Mole fraction of dichloromethane	Temperature, K	Pressure, kPa	Refractive index (Na D-line)	uncertainty
.6052	298.15	101	1.406	.0002
