Measured thermophysical data. Probing solute solvent interactions of some bio-active solutes inaqueous barium nitrate solution on the basis of physicochemicalcontrivances
Source: Thermochim. Acta, 2013, 10.1016/j.tca.2013.06.017
Compound 1: barium nitrate, BaN2O6
Compound 2: water, H2O
Compound 3: glycine, C2H5NO2
Compound 4: L-alanine, C3H7NO2
Compound 5: L-valine, C5H11NO2

System: water + barium nitrate; phases: Liquid
Fixed: Temperature, K = 298.15
Fixed: Pressure, kPa = 101.325
Property: Mass density, kg/m3 (Liquid); method: Vibrating tube method
Mass fraction of barium nitrate	Mass density, kg/m3	uncertainty
.01	997.37	
.03	998.48	
.05	999.56	

System: water + barium nitrate; phases: Liquid
Fixed: Temperature, K = 298.15
Fixed: Pressure, kPa = 101.325
Property: Viscosity, Pa*s (Liquid); method: Capillary tube (Ostwald; Ubbelohde) method
Mass fraction of barium nitrate	Viscosity, Pa*s	uncertainty
.01	.000904	
.03	.00091	
.05	.000916	

System: water + barium nitrate; phases: Liquid
Fixed: Temperature, K = 298.15
Fixed: Pressure, kPa = 101.325
Property: Refractive index (Na D-line) (Liquid); method: Standard Abbe refractometry
Mass fraction of barium nitrate	Refractive index (Na D-line)	uncertainty
.01	1.3327	.0002
.03	1.3334	.0002
.05	1.3342	.0002

System: water + barium nitrate; phases: Liquid
Fixed: Temperature, K = 298.15
Fixed: Pressure, kPa = 101.325
Property: Speed of sound, m/s (Liquid); method: Sing-around technique in a fixed-path interferometer
Mass fraction of barium nitrate	Speed of sound, m/s	uncertainty
.01	1512.7	.5
.03	1516.4	.5
.05	1519.3	.5

System: glycine + water + barium nitrate; phases: Liquid
Fixed: Temperature, K = 298.15
Fixed: Pressure, kPa = 101.325
Property: Mass density, kg/m3 (Liquid); method: Vibrating tube method
Solvent: Mass fraction of barium nitrate	Molality, mol/kg of glycine	Mass density, kg/m3	uncertainty
.01	.1001	997.63	
.01	.1584	998.06	
.01	.2004	998.51	
.01	.2351	998.98	
.01	.2653	999.47	
.01	.2925	999.98	
.05	.1	999.74	
.05	.1582	1000.07	
.05	.2002	1000.45	
.05	.2349	1000.86	
.05	.2651	1001.3	
.05	.2922	1001.76	
.03	.1001	998.67	
.03	.1583	999.02	
.03	.2003	999.41	
.03	.235	999.84	
.03	.2652	1000.28	
.03	.2923	1000.75	

System: glycine + water + barium nitrate; phases: Liquid
Fixed: Temperature, K = 298.15
Fixed: Pressure, kPa = 101.325
Property: Viscosity, Pa*s (Liquid); method: Capillary tube (Ostwald; Ubbelohde) method
Solvent: Mass fraction of barium nitrate	Molality, mol/kg of glycine	Viscosity, Pa*s	uncertainty
.01	.1001	.000907	
.01	.1584	.00091	
.01	.2004	.000913	
.01	.2351	.000915	
.01	.2653	.000918	
.01	.2925	.00092	
.03	.1001	.000914	
.03	.1583	.000917	
.03	.2003	.00092	
.03	.235	.000923	
.03	.2652	.000926	
.03	.2923	.000929	
.05	.1	.00092	
.05	.1582	.000924	
.05	.2002	.000928	
.05	.2349	.000931	
.05	.2651	.000935	
.05	.2922	.000938	

System: glycine + water + barium nitrate; phases: Liquid
Fixed: Temperature, K = 298.15
Fixed: Pressure, kPa = 101.325
Property: Refractive index (Na D-line) (Liquid); method: Standard Abbe refractometry
Solvent: Mass fraction of barium nitrate	Molality, mol/kg of glycine	Refractive index (Na D-line)	uncertainty
.01	.1001	1.3328	.0002
.01	.1584	1.3332	.0002
.01	.2004	1.3335	.0002
.01	.2351	1.3338	.0002
.01	.2653	1.3341	.0002
.01	.2925	1.3344	.0002
.03	.1001	1.3339	.0002
.03	.1583	1.3343	.0002
.03	.2003	1.3346	.0002
.03	.235	1.3349	.0002
.03	.2652	1.3352	.0002
.03	.2923	1.3355	.0002
.05	.1	1.335	.0002
.05	.1582	1.3354	.0002
.05	.2002	1.3357	.0002
.05	.2349	1.3361	.0002
.05	.2651	1.3364	.0002
.05	.2922	1.3367	.0002

System: glycine + water + barium nitrate; phases: Liquid
Fixed: Temperature, K = 298.15
Fixed: Pressure, kPa = 101.325
Property: Speed of sound, m/s (Liquid); method: Sing-around technique in a fixed-path interferometer
Solvent: Mass fraction of barium nitrate	Molality, mol/kg of glycine	Speed of sound, m/s	uncertainty
.01	.1001	1517.3	.5
.01	.1584	1531.8	.5
.01	.2004	1551.9	.5
.01	.2351	1578.6	.5
.01	.2653	1609.4	.5
.01	.2925	1647.6	.5
.03	.1001	1521.8	.5
.03	.1583	1537.8	.5
.03	.2003	1560.9	.5
.03	.235	1589.9	.5
.03	.2652	1625.1	.5
.03	.2923	1668.1	.5
.05	.1	1525.2	.5
.05	.1582	1542.9	.5
.05	.2002	1568.9	.5
.05	.2349	1601.3	.5
.05	.2651	1642	.5
.05	.2922	1690.2	.5

System: L-alanine + water + barium nitrate; phases: Liquid
Fixed: Temperature, K = 298.15
Fixed: Pressure, kPa = 101.325
Property: Mass density, kg/m3 (Liquid); method: Vibrating tube method
Solvent: Mass fraction of barium nitrate	Molality, mol/kg of L-alanine	Mass density, kg/m3	uncertainty
.01	.1002	997.59	
.01	.1584	997.97	
.01	.2005	998.38	
.01	.2352	998.84	
.01	.2655	999.32	
.01	.2927	999.84	
.03	.1001	998.61	
.03	.1584	998.92	
.03	.2004	999.29	
.03	.2351	999.72	
.03	.2654	1000.18	
.03	.2925	1000.68	
.05	.1001	999.67	
.05	.1583	999.94	
.05	.2003	1000.31	
.05	.235	1000.74	
.05	.2652	1001.22	
.05	.2924	1001.73	

System: L-alanine + water + barium nitrate; phases: Liquid
Fixed: Temperature, K = 298.15
Fixed: Pressure, kPa = 101.325
Property: Viscosity, Pa*s (Liquid); method: Capillary tube (Ostwald; Ubbelohde) method
Solvent: Mass fraction of barium nitrate	Molality, mol/kg of L-alanine	Viscosity, Pa*s	uncertainty
.01	.1002	.000909	
.01	.1584	.000917	
.01	.2005	.000923	
.01	.2352	.00093	
.01	.2655	.000937	
.01	.2927	.000944	
.03	.1001	.000918	
.03	.1584	.000926	
.03	.2004	.000933	
.03	.2351	.00094	
.03	.2654	.000948	
.03	.2925	.000955	
.05	.1001	.000925	
.05	.1583	.000933	
.05	.2003	.000941	
.05	.235	.000949	
.05	.2652	.000957	
.05	.2924	.000965	

System: L-alanine + water + barium nitrate; phases: Liquid
Fixed: Temperature, K = 298.15
Fixed: Pressure, kPa = 101.325
Property: Refractive index (Na D-line) (Liquid); method: Standard Abbe refractometry
Solvent: Mass fraction of barium nitrate	Molality, mol/kg of L-alanine	Refractive index (Na D-line)	uncertainty
.01	.1002	1.333	.0002
.01	.1584	1.3334	.0002
.01	.2005	1.3337	.0002
.01	.2352	1.334	.0002
.01	.2655	1.3344	.0002
.01	.2927	1.3346	.0002
.03	.1001	1.334	.0002
.03	.1584	1.3344	.0002
.03	.2004	1.3347	.0002
.03	.2351	1.335	.0002
.03	.2654	1.3354	.0002
.03	.2925	1.3356	.0002
.05	.1001	1.3351	.0002
.05	.1583	1.3355	.0002
.05	.2003	1.3358	.0002
.05	.235	1.3362	.0002
.05	.2652	1.3365	.0002
.05	.2924	1.3368	.0002

System: L-alanine + water + barium nitrate; phases: Liquid
Fixed: Temperature, K = 298.15
Fixed: Pressure, kPa = 101.325
Property: Speed of sound, m/s (Liquid); method: Sing-around technique in a fixed-path interferometer
Solvent: Mass fraction of barium nitrate	Molality, mol/kg of L-alanine	Speed of sound, m/s	uncertainty
.01	.1002	1516.5	.5
.01	.1584	1529.8	.5
.01	.2005	1549.1	.5
.01	.2352	1573.9	.5
.01	.2655	1604.6	.5
.01	.2927	1641.3	.5
.03	.1001	1520.7	.5
.03	.1584	1535.4	.5
.03	.2004	1556.4	.5
.03	.2351	1583.9	.5
.03	.2654	1616.9	.5
.03	.2925	1658.2	.5
.05	.1001	1524.3	.5
.05	.1583	1540.7	.5
.05	.2003	1565.1	.5
.05	.235	1596.3	.5
.05	.2652	1634.9	.5
.05	.2924	1683.2	.5

System: L-valine + water + barium nitrate; phases: Liquid
Fixed: Temperature, K = 298.15
Fixed: Pressure, kPa = 101.325
Property: Mass density, kg/m3 (Liquid); method: Vibrating tube method
Solvent: Mass fraction of barium nitrate	Molality, mol/kg of L-valine	Mass density, kg/m3	uncertainty
.01	.1002	997.5	
.01	.1585	997.79	
.01	.2006	998.14	
.01	.2354	998.52	
.01	.2658	998.99	
.01	.2931	999.47	
.03	.1001	998.54	
.03	.1584	998.78	
.03	.2005	999.11	
.03	.2353	999.52	
.03	.2656	999.95	
.03	.2929	1000.44	
.05	.1001	999.6	
.05	.1583	999.83	
.05	.2004	1000.2	
.05	.2352	1000.64	
.05	.2655	1001.16	
.05	.2927	1001.75	

System: L-valine + water + barium nitrate; phases: Liquid
Fixed: Temperature, K = 298.15
Fixed: Pressure, kPa = 101.325
Property: Viscosity, Pa*s (Liquid); method: Capillary tube (Ostwald; Ubbelohde) method
Solvent: Mass fraction of barium nitrate	Molality, mol/kg of L-valine	Viscosity, Pa*s	uncertainty
.01	.1002	.000913	
.01	.1585	.000926	
.01	.2006	.000939	
.01	.2354	.000951	
.01	.2658	.000963	
.01	.2931	.000976	
.03	.1001	.000925	
.03	.1584	.000939	
.03	.2005	.000953	
.03	.2353	.000967	
.03	.2656	.000982	
.03	.2929	.000996	
.05	.1001	.000932	
.05	.1583	.000948	
.05	.2004	.000963	
.05	.2352	.000978	
.05	.2655	.000995	
.05	.2927	.00101	

System: L-valine + water + barium nitrate; phases: Liquid
Fixed: Temperature, K = 298.15
Fixed: Pressure, kPa = 101.325
Property: Refractive index (Na D-line) (Liquid); method: Standard Abbe refractometry
Solvent: Mass fraction of barium nitrate	Molality, mol/kg of L-valine	Refractive index (Na D-line)	uncertainty
.01	.1002	1.3332	.0002
.01	.1585	1.3337	.0002
.01	.2006	1.3341	.0002
.01	.2354	1.3343	.0002
.01	.2658	1.3348	.0002
.01	.2931	1.3354	.0002
.03	.1001	1.3341	.0002
.03	.1584	1.3347	.0002
.03	.2005	1.3351	.0002
.03	.2353	1.3356	.0002
.03	.2656	1.3361	.0002
.03	.2929	1.3365	.0002
.05	.1001	1.3352	.0002
.05	.1583	1.3358	.0002
.05	.2004	1.3363	.0002
.05	.2352	1.3368	.0002
.05	.2655	1.3372	.0002
.05	.2927	1.3376	.0002

System: L-valine + water + barium nitrate; phases: Liquid
Fixed: Temperature, K = 298.15
Fixed: Pressure, kPa = 101.325
Property: Speed of sound, m/s (Liquid); method: Sing-around technique in a fixed-path interferometer
Solvent: Mass fraction of barium nitrate	Molality, mol/kg of L-valine	Speed of sound, m/s	uncertainty
.01	.1002	1515.5	.5
.01	.1585	1528	.5
.01	.2006	1546.3	.5
.01	.2354	1570.2	.5
.01	.2658	1598.9	.5
.01	.2931	1633.6	.5
.03	.1001	1519.8	.5
.03	.1584	1533.3	.5
.03	.2005	1553.1	.5
.03	.2353	1578.9	.5
.03	.2656	1612.6	.5
.03	.2929	1650.2	.5
.05	.1001	1523.5	.5
.05	.1583	1539.5	.5
.05	.2004	1563.1	.5
.05	.2352	1594.2	.5
.05	.2655	1634.1	.5
.05	.2927	1680.3	.5
