Measured thermophysical data. A combined approach using differential scanning calorimetry with polarized light thermomicroscopy in the investigation of ketoprofen and nicotinamide cocrystal
Source: Thermochim. Acta, 2017, 10.1016/j.tca.2017.02.014
Compound 1: ketoprofen, C16H14O3
Compound 2: nicotinamide, C6H6N2O

System: ketoprofen; phases: Crystal, Liquid, Air at 1 atmosphere
Property: Normal melting temperature, K (Crystal); method: DSC/DTA
Normal melting temperature, K	uncertainty
367.35	.199999999999989

System: ketoprofen; phases: Crystal, Liquid, Air at 1 atmosphere
Property: Molar enthalpy of transition or fusion, kJ/mol (Crystal); method: DSC
Molar enthalpy of transition or fusion, kJ/mol	uncertainty
30.5	.5

System: ketoprofen; phases: Crystal, Liquid, Air at 1 atmosphere
Property: Normal melting temperature, K (Crystal); method: DSC/DTA
Normal melting temperature, K	uncertainty
366.65	.199999999999989

System: nicotinamide; phases: Crystal, Liquid, Air at 1 atmosphere
Property: Normal melting temperature, K (Crystal); method: DSC/DTA
Normal melting temperature, K	uncertainty
401.15	.199999999999989

System: nicotinamide; phases: Crystal, Liquid, Air at 1 atmosphere
Property: Molar enthalpy of transition or fusion, kJ/mol (Crystal); method: DSC
Molar enthalpy of transition or fusion, kJ/mol	uncertainty
24.6	.5

System: nicotinamide; phases: Crystal, Liquid, Air at 1 atmosphere
Property: Normal melting temperature, K (Crystal); method: DSC/DTA
Normal melting temperature, K	uncertainty
400.65	.199999999999989

System: nicotinamide + ketoprofen; phases: Crystal, Crystal, Liquid, Air at 1 atmosphere
Fixed: Pressure, kPa = 101.325
Property: Eutectic temperature, K (Crystal); method: DSC/DTA
Eutectic temperature, K	uncertainty
316.35	

System: nicotinamide + ketoprofen; phases: Liquid, Crystal
Fixed: Pressure, kPa = 100
Property: Solid-liquid equilibrium temperature, K (Liquid); method: DSC/DTA
Mole fraction of ketoprofen	Solid-liquid equilibrium temperature, K	uncertainty
1	366.65	
.8	350.25	
.75	344.25	
.67	335.65	

System: nicotinamide + ketoprofen; phases: Liquid, Crystal
Fixed: Pressure, kPa = 100
Property: Solid-liquid equilibrium temperature, K (Liquid); method: DSC/DTA
Mole fraction of ketoprofen	Solid-liquid equilibrium temperature, K	uncertainty
.5	353.45	
.33	375.85	
.25	381.85	
.2	386.05	
0	400.65	

System: nicotinamide + ketoprofen; phases: Liquid, Crystal of intercomponent compound 1
Fixed: Pressure, kPa = 100
Property: Solid-liquid equilibrium temperature, K (Liquid); method: DSC/DTA
Mole fraction of ketoprofen	Solid-liquid equilibrium temperature, K	uncertainty
.5	418.15	
