Measured thermophysical data. Metastable eutectic melting in the NaCl-H2O system
Source: Thermochim. Acta, 2017, 10.1016/j.tca.2016.12.004
Compound 1: water, H2O
Compound 2: sodium chloride, ClNa, purity 99%
Compound 3: sodium chloride dihydrate, ClH4NaO2, purity 99%

System: sodium chloride + water; phases: Crystal, Crystal, Liquid, Air at 1 atmosphere
Fixed: Pressure, kPa = 101.325
Property: Eutectic temperature, K (Crystal); method: DSC/DTA
Eutectic temperature, K	uncertainty
246.25	

System: sodium chloride + water; phases: Crystal, Crystal of intercomponent compound 1, Liquid, Air at 1 atmosphere
Fixed: Pressure, kPa = 101.325
Property: Eutectic temperature, K (Crystal); method: DSC/DTA
Eutectic temperature, K	uncertainty
252.25	

Reaction: -1 sodium chloride + 1 sodium chloride dihydrate + -2 water
Property: Molar enthalpy of reaction, kJ/mol
-.73
