Measured thermophysical data. Thermodynamic modeling of the Co Hf system supported by key experiments and first-principles calculations
Source: Thermochim. Acta, 2015, 10.1016/j.tca.2015.04.004
Compound 1: cobalt, Co, purity 99.999%
Compound 2: hafnium, Hf, purity 99.99%

System: cobalt + hafnium; phases: Crystal of intercomponent compound 1
Fixed: Pressure, kPa = 100
Fixed: Mole fraction of hafnium = .333
Property: Molar enthalpy, kJ/mol (Crystal of intercomponent compound 1); method: Drop calorimetry
Temperature, K	Molar enthalpy, kJ/mol	uncertainty
587.75	9.9867	
688.91	11.0297	
790.7	13.9756	
891.83	17.2277	
993.43	19.7983	
1094.71	23.6661	
1196.37	26.2749	
1297.96	30.8695	
1400.27	33.4084	
1502.32	36.1185	

System: cobalt + hafnium; phases: Crystal of intercomponent compound 2
Fixed: Pressure, kPa = 100
Fixed: Mole fraction of hafnium = .667
Property: Molar enthalpy, kJ/mol (Crystal of intercomponent compound 2); method: Drop calorimetry
Temperature, K	Molar enthalpy, kJ/mol	uncertainty
586.85	8.0099	
689.08	10.7868	
790.82	13.7901	
892.09	17.3985	
993.54	19.8192	
1094.94	22.2907	
1196.19	25.5361	
1298.01	31.5859	
1399.82	35.7274	
1502.28	36.8657	
