Measured thermophysical data. Excess molar volumes, viscosity deviations and excess thermal expansion  coefficients for binary and ternary mixtures consist of  diethylketone + 2-butanol + ethylchloroacetate at (298.15, 308.15 and 318.15) K
Source: Thermochim. Acta, 2013, 10.1016/j.tca.2013.03.008
Compound 1: diethyl ketone, C5H10O
Compound 2: 2-butanol, C4H10O
Compound 3: ethyl chloroacetate, C4H7ClO2

System: diethyl ketone; phases: Liquid
Property: Mass density, kg/m3 (Liquid); method: Vibrating tube method
Temperature, K	Pressure, kPa	Mass density, kg/m3	uncertainty
298.15	101	809.38	
308.15	101	799.55	
318.15	101	789.63	

System: diethyl ketone; phases: Liquid
Property: Viscosity, Pa*s (Liquid); method: Capillary tube (Ostwald; Ubbelohde) method
Temperature, K	Pressure, kPa	Viscosity, Pa*s	uncertainty
298.15	101	.000442	
308.15	101	.000398	
318.15	101	.000362	

System: 2-butanol; phases: Liquid
Property: Mass density, kg/m3 (Liquid); method: Vibrating tube method
Temperature, K	Pressure, kPa	Mass density, kg/m3	uncertainty
298.15	101	802.62	
308.15	101	794.13	
318.15	101	785.22	

System: 2-butanol; phases: Liquid
Property: Viscosity, Pa*s (Liquid); method: Capillary tube (Ostwald; Ubbelohde) method
Temperature, K	Pressure, kPa	Viscosity, Pa*s	uncertainty
298.15	101	.002998	
308.15	101	.00217	
318.15	101	.001476	

System: ethyl chloroacetate; phases: Liquid
Property: Mass density, kg/m3 (Liquid); method: Vibrating tube method
Temperature, K	Pressure, kPa	Mass density, kg/m3	uncertainty
298.15	101	1144.11	
308.15	101	1131.46	
318.15	101	1118.74	

System: ethyl chloroacetate; phases: Liquid
Property: Viscosity, Pa*s (Liquid); method: Capillary tube (Ostwald; Ubbelohde) method
Temperature, K	Pressure, kPa	Viscosity, Pa*s	uncertainty
298.15	101	.001095	
308.15	101	.000934	
318.15	101	.000816	
308.15	101	.000939	
318.15	101	.000815	

System: 2-butanol + diethyl ketone; phases: Liquid
Fixed: Pressure, kPa = 101
Property: Mass density, kg/m3 (Liquid); method: Vibrating tube method
Temperature, K	Mole fraction of diethyl ketone	Mass density, kg/m3	uncertainty
298.15	0	802.62	
298.15	.0848	803.03	
298.15	.1511	803.42	
298.15	.2353	803.97	
298.15	.3023	804.42	
298.15	.3793	804.94	
298.15	.4676	805.54	
298.15	.4927	805.71	
298.15	.5536	806.12	
298.15	.6269	806.62	
298.15	.7129	807.21	
298.15	.8104	807.89	
298.15	.9043	808.59	
298.15	1	809.38	
308.15	0	794.13	
308.15	.0848	794.48	
308.15	.1511	794.8	
308.15	.2353	795.22	
308.15	.3023	795.58	
308.15	.3793	795.99	
308.15	.4676	796.47	
308.15	.4927	796.61	
308.15	.5536	796.95	
308.15	.6269	797.36	
308.15	.7129	797.84	
308.15	.8104	798.4	
308.15	.9043	798.96	
308.15	1	799.55	
318.15	0	785.22	
318.15	.0848	785.52	
318.15	.1511	785.78	
318.15	.2353	786.14	
318.15	.3023	786.43	
318.15	.3793	786.77	
318.15	.4676	787.16	
318.15	.4927	787.27	
318.15	.5536	787.54	
318.15	.6269	787.87	
318.15	.7129	788.26	
318.15	.8104	788.7	
318.15	.9043	789.15	
318.15	1	789.63	

System: 2-butanol + diethyl ketone; phases: Liquid
Fixed: Pressure, kPa = 101
Property: Viscosity, Pa*s (Liquid); method: Capillary tube (Ostwald; Ubbelohde) method
Temperature, K	Mole fraction of diethyl ketone	Viscosity, Pa*s	uncertainty
298.15	0	.002998	
298.15	.0848	.002069	
298.15	.1511	.001602	
298.15	.2353	.001229	
298.15	.3023	.001039	
298.15	.3793	.000879	
298.15	.4676	.000761	
298.15	.4927	.000731	
298.15	.5536	.000657	
298.15	.6269	.0006	
298.15	.7129	.000536	
298.15	.8104	.000494	
298.15	.9043	.000466	
298.15	1	.000442	
308.15	0	.00217	
308.15	.0848	.001539	
308.15	.1511	.001246	
308.15	.2353	.000986	
308.15	.3023	.000854	
308.15	.3793	.000734	
308.15	.4676	.000637	
308.15	.4927	.000612	
308.15	.5536	.00057	
308.15	.6269	.000524	
308.15	.7129	.000482	
308.15	.8104	.000446	
308.15	.9043	.000419	
308.15	1	.000398	
318.15	0	.001476	
318.15	.0848	.001172	
318.15	.1511	.000976	
318.15	.2353	.000802	
318.15	.3023	.000711	
318.15	.3793	.000622	
318.15	.4676	.00055	
318.15	.4927	.000531	
318.15	.5536	.000499	
318.15	.6269	.000461	
318.15	.7129	.000429	
318.15	.8104	.000403	
318.15	.9043	.000378	
318.15	1	.000362	

System: 2-butanol + ethyl chloroacetate; phases: Liquid
Fixed: Pressure, kPa = 101
Property: Mass density, kg/m3 (Liquid); method: Vibrating tube method
Temperature, K	Mole fraction of 2-butanol	Mass density, kg/m3	uncertainty
298.15	0	1144.11	
298.15	.1008	1111.91	
298.15	.204	1078.95	
298.15	.2885	1051.67	
298.15	.3625	1027.45	
298.15	.45	998.34	
298.15	.5384	968.29	
298.15	.6138	942.27	
298.15	.6906	915.31	
298.15	.7724	886.17	
298.15	.8541	856.59	
298.15	.9197	832.49	
298.15	1	802.62	
308.15	0	1131.46	
308.15	.1008	1099.43	
308.15	.204	1066.72	
308.15	.2885	1039.71	
308.15	.3625	1015.7	
308.15	.45	986.92	
308.15	.5384	957.21	
308.15	.6138	931.52	
308.15	.6906	904.95	
308.15	.7724	876.24	
308.15	.8541	847.12	
308.15	.9197	823.43	
308.15	1	794.13	
318.15	0	1118.74	
318.15	.1008	1086.98	
318.15	.204	1054.42	
318.15	.2885	1027.56	
318.15	.3625	1003.8	
318.15	.45	975.3	
318.15	.5384	945.94	
318.15	.6138	920.57	
318.15	.6906	894.31	
318.15	.7724	865.99	
318.15	.8541	837.33	
318.15	.9197	814.03	
318.15	1	785.22	

System: 2-butanol + ethyl chloroacetate; phases: Liquid
Fixed: Pressure, kPa = 101
Property: Viscosity, Pa*s (Liquid); method: Capillary tube (Ostwald; Ubbelohde) method
Temperature, K	Mole fraction of 2-butanol	Viscosity, Pa*s	uncertainty
298.15	0	.001095	
298.15	.1008	.001055	
298.15	.204	.001041	
298.15	.2885	.001033	
298.15	.3625	.001048	
298.15	.45	.001107	
298.15	.5384	.001183	
298.15	.6138	.001246	
298.15	.6906	.001332	
298.15	.7724	.001489	
298.15	.8541	.001789	
298.15	.9197	.002183	
298.15	1	.002998	
308.15	0	.000934	
308.15	.1008	.000895	
308.15	.204	.000877	
308.15	.2885	.000875	
308.15	.3625	.00088	
308.15	.45	.000895	
308.15	.5384	.000945	
308.15	.6138	.000987	
308.15	.6906	.001063	
308.15	.7724	.001182	
308.15	.8541	.001367	
308.15	.9197	.001611	
308.15	1	.00217	
318.15	0	.000816	
318.15	.1008	.000778	
318.15	.204	.000755	
318.15	.2885	.000756	
318.15	.3625	.000753	
318.15	.45	.000759	
318.15	.5384	.000791	
318.15	.6138	.000817	
318.15	.6906	.000866	
318.15	.7724	.000947	
318.15	.8541	.001089	
318.15	.9197	.001225	
318.15	1	.001476	

System: diethyl ketone + ethyl chloroacetate; phases: Liquid
Fixed: Pressure, kPa = 101
Property: Mass density, kg/m3 (Liquid); method: Vibrating tube method
Temperature, K	Mole fraction of diethyl ketone	Mass density, kg/m3	uncertainty
298.15	0	1144.11	
298.15	.0502	1127.54	
298.15	.0877	1115.18	
298.15	.1207	1104.29	
298.15	.1692	1088.28	
298.15	.2551	1059.87	
298.15	.3266	1036.16	
298.15	.413	1007.44	
298.15	.4998	978.47	
298.15	.574	953.63	
298.15	.6638	923.44	
298.15	.7475	895.2	
298.15	.827	868.26	
298.15	.9114	839.54	
298.15	1	809.38	
308.15	0	1131.46	
308.15	.0502	1115	
308.15	.0877	1102.73	
308.15	.1207	1091.91	
308.15	.1692	1076.05	
308.15	.2551	1047.89	
308.15	.3266	1024.36	
308.15	.413	995.88	
308.15	.4998	967.18	
308.15	.574	942.56	
308.15	.6638	912.62	
308.15	.7475	884.6	
308.15	.827	857.9	
308.15	.9114	829.45	
308.15	1	799.55	
318.15	0	1118.74	
318.15	.0502	1102.39	
318.15	.0877	1090.21	
318.15	.1207	1079.49	
318.15	.1692	1063.74	
318.15	.2551	1035.82	
318.15	.3266	1012.49	
318.15	.413	984.26	
318.15	.4998	955.81	
318.15	.574	931.39	
318.15	.6638	901.71	
318.15	.7475	873.95	
318.15	.827	847.48	
318.15	.9114	819.27	
318.15	1	789.63	

System: diethyl ketone + ethyl chloroacetate; phases: Liquid
Fixed: Pressure, kPa = 101
Property: Viscosity, Pa*s (Liquid); method: Capillary tube (Ostwald; Ubbelohde) method
Temperature, K	Mole fraction of diethyl ketone	Viscosity, Pa*s	uncertainty
298.15	0	.001095	
298.15	.0502	.00105	
298.15	.0877	.001017	
298.15	.1207	.000987	
298.15	.1692	.000944	
298.15	.2551	.00087	
298.15	.3266	.000813	
298.15	.413	.00075	
298.15	.4998	.000695	
298.15	.574	.000653	
298.15	.6638	.000604	
298.15	.7475	.000562	
298.15	.827	.000522	
298.15	.9114	.000481	
298.15	1	.000442	
308.15	0	.000939	
308.15	.0502	.000902	
308.15	.0877	.000874	
308.15	.1207	.00085	
308.15	.1692	.000815	
308.15	.2551	.000756	
308.15	.3266	.00071	
308.15	.413	.000659	
308.15	.4998	.000612	
308.15	.574	.000575	
308.15	.6638	.000533	
308.15	.7475	.000498	
308.15	.827	.000466	
308.15	.9114	.000434	
308.15	1	.000398	
318.15	0	.000815	
318.15	.0502	.000783	
318.15	.0877	.00076	
318.15	.1207	.000741	
318.15	.1692	.000713	
318.15	.2551	.000666	
318.15	.3266	.00063	
318.15	.413	.000587	
318.15	.4998	.000548	
318.15	.574	.000517	
318.15	.6638	.00048	
318.15	.7475	.000449	
318.15	.827	.000421	
318.15	.9114	.000391	
318.15	1	.000362	

System: 2-butanol + diethyl ketone + ethyl chloroacetate; phases: Liquid
Fixed: Pressure, kPa = 101
Fixed: Temperature, K = 298.15
Property: Mass density, kg/m3 (Liquid); method: Vibrating tube method
Mole fraction of diethyl ketone	Mole fraction of 2-butanol	Mass density, kg/m3	uncertainty
.0436	.0595	1110.05	
.0504	.2498	1043.77	
.0499	.6488	907.38	
.0498	.8504	837.13	
.0499	.7	889.33	
.0504	.2989	1027.68	
.0499	.1012	1094.05	
.0999	.0498	1094.66	
.0993	.2501	1025.81	
.0996	.4507	956.15	
.2003	.0497	1062.02	
.1999	.2503	992.43	
.2005	.4501	922.09	
.1997	.6503	851.82	
.2022	.5482	887.37	
.2007	.3501	956.23	
.1992	.1522	1026.63	
.2993	.0504	1029.55	
.3002	.2496	961.52	
.2998	.45	889.73	
.2988	.6512	821.01	
.4002	.0533	995.91	
.4	.2495	931.05	
.4001	.45	858.42	
.4003	.5495	822.99	
.4	.35	894.53	
.4005	.1497	964.82	
.4999	.0502	964.35	
.4993	.2507	898.94	
.5	.4496	824.91	
.5999	.0499	931.99	
.6002	.2493	865.08	
.5992	.3508	825.93	
.5993	.1509	900.55	
.6525	.0579	912.01	
.7001	.2496	827.87	
.8002	.05	863.79	
.7974	.1528	828.39	
.8977	.0524	827.07	

System: 2-butanol + diethyl ketone + ethyl chloroacetate; phases: Liquid
Fixed: Pressure, kPa = 101
Fixed: Temperature, K = 298.15
Property: Viscosity, Pa*s (Liquid); method: Capillary tube (Ostwald; Ubbelohde) method
Mole fraction of diethyl ketone	Mole fraction of 2-butanol	Viscosity, Pa*s	uncertainty
.0436	.0595	.001021	
.0504	.2498	.000977	
.0499	.6488	.001171	
.0498	.8504	.001632	
.0499	.7	.001349	
.0504	.2989	.000981	
.0499	.1012	.000995	
.0999	.0498	.000982	
.0993	.2501	.000943	
.0996	.4507	.000982	
.2003	.0497	.000891	
.1999	.2503	.000863	
.2005	.4501	.000887	
.1997	.6503	.001001	
.2022	.5482	.00094	
.2007	.3501	.001784	
.1992	.1522	.000865	
.2993	.0504	.000812	
.3002	.2496	.000783	
.2998	.45	.000807	
.2988	.6512	.001093	
.4002	.0533	.000748	
.4	.2495	.000729	
.4001	.45	.000764	
.4003	.5495	.00082	
.4	.35	.000745	
.4005	.1497	.00073	
.4999	.0502	.000685	
.4993	.2507	.000671	
.5	.4496	.000696	
.5999	.0499	.000629	
.6002	.2493	.000608	
.5992	.3508	.000659	
.5993	.1509	.000611	
.6525	.0579	.000584	
.7001	.2496	.000554	
.8002	.05	.000528	
.7974	.1528	.000513	
.8977	.0524	.000477	
