Measured thermophysical data. Studying the sublimation thermodynamics of ethionamide and pyridine carbothioamide isomers by transpiration method
Source: Thermochim. Acta, 2015, 10.1016/j.tca.2015.10.009
Compound 1: 2-ethyl-4-pyridinecarbothioamide, C8H10N2S
Compound 2: 4-pyridinecarbothioamide, C6H6N2S
Compound 3: 2-pyridinecarbothioamide, C6H6N2S
Compound 4: benzoic acid, C7H6O2, purity 99%

System: 2-ethyl-4-pyridinecarbothioamide; phases: Crystal, Liquid, Air at 1 atmosphere
Property: Normal melting temperature, K (Crystal); method: DSC/DTA
Normal melting temperature, K	uncertainty
435.9	5

System: 2-ethyl-4-pyridinecarbothioamide; phases: Crystal, Gas
Property: Vapor or sublimation pressure, kPa (Crystal); method: Transpiration method
Temperature, K	Vapor or sublimation pressure, kPa	uncertainty
364.15	.0000908	.00000454
365.15	.0001033	.000005165
366.15	.0001179	.000005895
367.15	.0001323	.000006615
368.15	.0001615	.000008075
369.15	.0001875	.000009375
370.15	.000206	.0000103
371.15	.0002578	.00001289
372.15	.0002775	.000013875
373.15	.0003222	.00001611
375.15	.0004198	.00002099
377.15	.0006018	.00003009
379.15	.0007713	.000038565
381.15	.0009722	.00004861

System: 4-pyridinecarbothioamide; phases: Crystal, Liquid, Air at 1 atmosphere
Property: Normal melting temperature, K (Crystal); method: DSC/DTA
Normal melting temperature, K	uncertainty
475.9	5

System: 4-pyridinecarbothioamide; phases: Crystal, Gas
Property: Vapor or sublimation pressure, kPa (Crystal); method: Transpiration method
Temperature, K	Vapor or sublimation pressure, kPa	uncertainty
373.15	.0002004	.00001002
375.15	.0002339	.000011695
377.15	.0003005	.000015025
378.15	.0003108	.00001554
379.15	.0003661	.000018305
380.15	.0003977	.000019885
382.15	.0004841	.000024205
384.15	.0005887	.000029435
386.15	.0007212	.00003606
387.15	.0007918	.00003959
389.15	.0009632	.00004816
391.15	.0011181	.000055905
393.15	.0013358	.00006679
394.15	.0014087	.000070435

System: 2-pyridinecarbothioamide; phases: Crystal, Liquid, Air at 1 atmosphere
Property: Normal melting temperature, K (Crystal); method: DSC/DTA
Normal melting temperature, K	uncertainty
407	.2

System: 2-pyridinecarbothioamide; phases: Crystal, Liquid, Air at 1 atmosphere
Property: Molar enthalpy of transition or fusion, kJ/mol (Crystal); method: DSC
Molar enthalpy of transition or fusion, kJ/mol	uncertainty
25.3	

System: 2-pyridinecarbothioamide; phases: Crystal, Gas
Property: Vapor or sublimation pressure, kPa (Crystal); method: Transpiration method
Temperature, K	Vapor or sublimation pressure, kPa	uncertainty
333.65	.0007987	.000039935
335.15	.0008999	.000044995
337.15	.0010823	.000054115
339.15	.0012162	.00006081
341.15	.001498	.0000749
343.15	.0018599	.000092995
345.15	.002186	.0001093
347.15	.0026631	.000133155
349.15	.0030492	.00015246
351.15	.0037408	.00018704
353.15	.0042128	.00021064
355.15	.0051887	.000259435

System: benzoic acid; phases: Crystal, Gas
Property: Molar enthalpy of vaporization or sublimation, kJ/mol (Crystal); method: Derived by Second law
Temperature, K	Molar enthalpy of vaporization or sublimation, kJ/mol	uncertainty
331	90.5	.3
