Measured thermophysical data. THERMODYNAMIC INTERACTIONS OF POTASSIUM FLUORIDE IN AQUEOUS  DIMETHYL SULFOXIDE SOLUTIONS AT DIFFERENT TEMPERATURES
Source: Thermochim. Acta, 2011, 10.1016/j.tca.2011.08.013
Compound 1: potassium fluoride (KF), FK, purity 99%
Compound 2: dimexide, C2H6OS, purity 99.5%
Compound 3: water, H2O

System: dimexide; phases: Liquid
Fixed: Pressure, kPa = 101.325
Property: Mass density, kg/m3 (Liquid); method: Pycnometric method
Temperature, K	Mass density, kg/m3	uncertainty
308.15	1085.9	
318.15	1075.6	

System: dimexide; phases: Liquid
Fixed: Pressure, kPa = 101.325
Property: Speed of sound, m/s (Liquid); method: Linear variable-path acoustic interferometer
Temperature, K	Speed of sound, m/s	uncertainty
308.15	1457.9	
318.15	1423.4	

System: dimexide; phases: Liquid
Fixed: Pressure, kPa = 101.325
Property: Viscosity, Pa*s (Liquid); method: Capillary tube (Ostwald; Ubbelohde) method
Temperature, K	Viscosity, Pa*s	uncertainty
308.15	.001655	
318.15	.001392	

System: water; phases: Liquid
Property: Mass density, kg/m3 (Liquid); method: Pycnometric method
Temperature, K	Pressure, kPa	Mass density, kg/m3	uncertainty
303.15	101	995.6	
308.15	101	994	
313.15	101	992.2	
318.15	101	990.2	

System: water; phases: Liquid
Property: Speed of sound, m/s (Liquid); method: Linear variable-path acoustic interferometer
Temperature, K	Pressure, kPa	Speed of sound, m/s	uncertainty
303.15	101	1512	
308.15	101	1520.4	
313.15	101	1528	
318.15	101	1535.2	

System: water; phases: Liquid
Property: Viscosity, Pa*s (Liquid); method: Capillary tube (Ostwald; Ubbelohde) method
Temperature, K	Pressure, kPa	Viscosity, Pa*s	uncertainty
303.15	101	.000797	
308.15	101	.000719	
313.15	101	.000653	
318.15	101	.000597	

System: water + potassium fluoride (KF); phases: Liquid
Property: Mass density, kg/m3 (Liquid); method: Pycnometric method
Molality, mol/kg of potassium fluoride (KF)	Temperature, K	Pressure, kPa	Mass density, kg/m3	uncertainty
.05	303.15	101	998.2	
.1	303.15	101	1000.4	
.15	303.15	101	1002.6	
.2	303.15	101	1004.7	
.05	308.15	101	996.6	
.1	308.15	101	998.8	
.15	308.15	101	1001	
.2	308.15	101	1003.2	
.05	313.15	101	994.7	
.1	313.15	101	997	
.15	313.15	101	999.1	
.2	313.15	101	1001.2	
.05	318.15	101	992.7	
.1	318.15	101	994.8	
.15	318.15	101	997	
.2	318.15	101	999.2	

System: water + potassium fluoride (KF); phases: Liquid
Property: Speed of sound, m/s (Liquid); method: Linear variable-path acoustic interferometer
Molality, mol/kg of potassium fluoride (KF)	Temperature, K	Pressure, kPa	Speed of sound, m/s	uncertainty
.05	303.15	101	1515.5	
.1	303.15	101	1518.9	
.15	303.15	101	1522.1	
.2	303.15	101	1525.8	
.05	308.15	101	1524	
.1	308.15	101	1526.9	
.15	308.15	101	1530.5	
.2	308.15	101	1534	
.05	313.15	101	1531.4	
.1	313.15	101	1536.1	
.15	313.15	101	1538.6	
.2	313.15	101	1542.4	
.05	318.15	101	1538.6	
.1	318.15	101	1543.4	
.15	318.15	101	1546.2	
.2	318.15	101	1549.4	

System: water + potassium fluoride (KF); phases: Liquid
Property: Viscosity, Pa*s (Liquid); method: Capillary tube (Ostwald; Ubbelohde) method
Molality, mol/kg of potassium fluoride (KF)	Temperature, K	Pressure, kPa	Viscosity, Pa*s	uncertainty
.05	303.15	101	.000805	
.1	303.15	101	.000811	
.15	303.15	101	.000819	
.2	303.15	101	.000827	
.05	308.15	101	.000726	
.1	308.15	101	.000734	
.15	308.15	101	.000741	
.2	308.15	101	.000745	
.05	313.15	101	.00066	
.1	313.15	101	.000668	
.15	313.15	101	.000672	
.2	313.15	101	.000679	
.05	318.15	101	.000604	
.1	318.15	101	.000612	
.15	318.15	101	.000615	
.2	318.15	101	.000622	

System: dimexide + water + potassium fluoride (KF); phases: Liquid
Fixed: Pressure, kPa = 101
Property: Mass density, kg/m3 (Liquid); method: Pycnometric method
Molality, mol/kg of potassium fluoride (KF)	Solvent: Mole fraction of dimexide	Temperature, K	Mass density, kg/m3	uncertainty
0	.0121	303.15	1002	
.05	.0121	303.15	1004.6	
.1	.0121	303.15	1006.8	
.15	.0121	303.15	1009.1	
.2	.0121	303.15	1011.2	
0	.0121	308.15	1000.3	
.05	.0121	308.15	1002.8	
.1	.0121	308.15	1005.2	
.15	.0121	308.15	1007.5	
.2	.0121	308.15	1009.5	
0	.0121	313.15	998.5	
.05	.0121	313.15	1001	
.1	.0121	313.15	1003.2	
.15	.0121	313.15	1005.4	
.2	.0121	313.15	1007.5	
0	.0121	318.15	996.2	
.05	.0121	318.15	998.6	
.1	.0121	318.15	1001	
.15	.0121	318.15	1003.1	
.2	.0121	318.15	1005.3	
0	.0255	303.15	1008	
.05	.0255	303.15	1010.6	
.1	.0255	303.15	1012.8	
.15	.0255	303.15	1015.1	
.2	.0255	303.15	1017.4	
0	.0255	308.15	1006.4	
.05	.0255	308.15	1008.9	
.1	.0255	308.15	1011.3	
.15	.0255	308.15	1013.6	
.2	.0255	308.15	1015.7	
0	.0255	313.15	1004.4	
.05	.0255	313.15	1006.9	
.1	.0255	313.15	1009.2	
.15	.0255	313.15	1011.5	
.2	.0255	313.15	1013.6	
0	.0255	318.15	1002.3	
.05	.0255	318.15	1004.7	
.1	.0255	318.15	1007	
.15	.0255	318.15	1009.2	
.2	.0255	318.15	1011.5	
0	.0424	303.15	1015.3	
.05	.0424	303.15	1017.8	
.1	.0424	303.15	1020.2	
.15	.0424	303.15	1022.6	
.2	.0424	303.15	1024.8	
0	.0424	308.15	1013.6	
.05	.0424	308.15	1016.1	
.1	.0424	308.15	1018.5	
.15	.0424	308.15	1020.8	
.2	.0424	308.15	1023.2	
0	.0424	313.15	1011.4	
.05	.0424	313.15	1013.9	
.1	.0424	313.15	1016.2	
.15	.0424	313.15	1018.6	
.2	.0424	313.15	1021	
0	.0424	318.15	1009.3	
.05	.0424	318.15	1011.7	
.1	.0424	318.15	1014	
.15	.0424	318.15	1016.3	
.2	.0424	318.15	1018.6	
0	.0583	303.15	1021.4	
.05	.0583	303.15	1024	
.1	.0583	303.15	1026.6	
.15	.0583	303.15	1029.4	
.2	.0583	303.15	1032.2	
0	.0583	308.15	1019.3	
.05	.0583	308.15	1021.9	
.1	.0583	308.15	1024.5	
.15	.0583	308.15	1027.4	
.2	.0583	308.15	1030.2	
0	.0583	313.15	1017.6	
.05	.0583	313.15	1020.2	
.1	.0583	313.15	1022.8	
.15	.0583	313.15	1025.7	
.2	.0583	313.15	1028.6	
0	.0583	318.15	1015.3	
.05	.0583	318.15	1017.9	
.1	.0583	318.15	1020.5	
.15	.0583	318.15	1023.5	
.2	.0583	318.15	1026.5	
0	0	303.15	995.6	
.05	0	303.15	998.2	
.1	0	303.15	1000.4	
.15	0	303.15	1002.6	
.2	0	303.15	1004.7	
0	0	308.15	994	
.05	0	308.15	996.6	
.1	0	308.15	998.8	
.15	0	308.15	1001	
.2	0	308.15	1003.2	
0	0	313.15	992.2	
.05	0	313.15	994.7	
.1	0	313.15	997	
.15	0	313.15	999.1	
.2	0	313.15	1001.2	
0	0	318.15	990.2	
.05	0	318.15	992.7	
.1	0	318.15	994.8	
.15	0	318.15	997	
.2	0	318.15	999.2	

System: dimexide + water + potassium fluoride (KF); phases: Liquid
Fixed: Pressure, kPa = 101
Property: Speed of sound, m/s (Liquid); method: Linear variable-path acoustic interferometer
Molality, mol/kg of potassium fluoride (KF)	Solvent: Mole fraction of dimexide	Temperature, K	Speed of sound, m/s	uncertainty
0	.0121	303.15	1534.6	
.05	.0121	303.15	1537.9	
.1	.0121	303.15	1541.4	
.15	.0121	303.15	1544.9	
.2	.0121	303.15	1548.6	
0	.0121	308.15	1541.3	
.05	.0121	308.15	1544.6	
.1	.0121	308.15	1548	
.15	.0121	308.15	1551.5	
.2	.0121	308.15	1555	
0	.0121	313.15	1546.2	
.05	.0121	313.15	1549.5	
.1	.0121	313.15	1553.3	
.15	.0121	313.15	1557	
.2	.0121	313.15	1560.6	
0	.0121	318.15	1552.4	
.05	.0121	318.15	1555.9	
.1	.0121	318.15	1559.4	
.15	.0121	318.15	1563.4	
.2	.0121	318.15	1567.1	
0	.0255	303.15	1556.6	
.05	.0255	303.15	1560	
.1	.0255	303.15	1563.9	
.15	.0255	303.15	1567.5	
.2	.0255	303.15	1570.7	
0	.0255	308.15	1561.7	
.05	.0255	308.15	1565.1	
.1	.0255	308.15	1568.5	
.15	.0255	308.15	1572.1	
.2	.0255	308.15	1575.7	
0	.0255	313.15	1566	
.05	.0255	313.15	1569.4	
.1	.0255	313.15	1572.9	
.15	.0255	313.15	1576.5	
.2	.0255	313.15	1580.1	
0	.0255	318.15	1569.7	
.05	.0255	318.15	1573.1	
.1	.0255	318.15	1576.7	
.15	.0255	318.15	1580.2	
.2	.0255	318.15	1583.1	
0	.0424	303.15	1580	
.05	.0424	303.15	1583.8	
.1	.0424	303.15	1586.9	
.15	.0424	303.15	1590.4	
.2	.0424	303.15	1594.1	
0	.0424	308.15	1583.1	
.05	.0424	308.15	1586.7	
.1	.0424	308.15	1590.5	
.15	.0424	308.15	1594.1	
.2	.0424	308.15	1597.1	
0	.0424	313.15	1586.1	
.05	.0424	313.15	1589.6	
.1	.0424	313.15	1592.7	
.15	.0424	313.15	1596	
.2	.0424	313.15	1599.3	
0	.0424	318.15	1587.2	
.05	.0424	318.15	1590.5	
.1	.0424	318.15	1594	
.15	.0424	318.15	1597.4	
.2	.0424	318.15	1600.3	
0	.0583	303.15	1602.7	
.05	.0583	303.15	1606.8	
.1	.0583	303.15	1610.4	
.15	.0583	303.15	1614.5	
.2	.0583	303.15	1618.7	
0	.0583	308.15	1603.5	
.05	.0583	308.15	1607.7	
.1	.0583	308.15	1610.6	
.15	.0583	308.15	1615.7	
.2	.0583	308.15	1619.8	
0	.0583	313.15	1604.9	
.05	.0583	313.15	1608.7	
.1	.0583	313.15	1612.2	
.15	.0583	313.15	1616	
.2	.0583	313.15	1619.9	
0	.0583	318.15	1603.3	
.05	.0583	318.15	1606.7	
.1	.0583	318.15	1610.2	
.15	.0583	318.15	1613.2	
.2	.0583	318.15	1616.5	
0	0	303.15	1512	
.05	0	303.15	1515.5	
.1	0	303.15	1518.9	
.15	0	303.15	1522.1	
.2	0	303.15	1525.8	
0	0	308.15	1520.4	
.05	0	308.15	1524	
.1	0	308.15	1526.9	
.15	0	308.15	1530.5	
.2	0	308.15	1534	
0	0	313.15	1528	
.05	0	313.15	1531.4	
.1	0	313.15	1536.1	
.15	0	313.15	1538.6	
.2	0	313.15	1542.4	
0	0	318.15	1535.2	
.05	0	318.15	1538.6	
.1	0	318.15	1543.4	
.15	0	318.15	1546.2	
.2	0	318.15	1549.4	

System: dimexide + water + potassium fluoride (KF); phases: Liquid
Fixed: Pressure, kPa = 101
Property: Viscosity, Pa*s (Liquid); method: Capillary tube (Ostwald; Ubbelohde) method
Molality, mol/kg of potassium fluoride (KF)	Solvent: Mole fraction of dimexide	Temperature, K	Viscosity, Pa*s	uncertainty
0	.0121	303.15	.0009	
.05	.0121	303.15	.000908	
.1	.0121	303.15	.000916	
.15	.0121	303.15	.000925	
.2	.0121	303.15	.000934	
0	.0121	308.15	.000805	
.05	.0121	308.15	.000814	
.1	.0121	308.15	.000822	
.15	.0121	308.15	.00083	
.2	.0121	308.15	.000838	
0	.0121	313.15	.000729	
.05	.0121	313.15	.000736	
.1	.0121	313.15	.000745	
.15	.0121	313.15	.00075	
.2	.0121	313.15	.000756	
0	.0121	318.15	.000667	
.05	.0121	318.15	.000673	
.1	.0121	318.15	.00068	
.15	.0121	318.15	.000684	
.2	.0121	318.15	.000691	
0	.0255	303.15	.000979	
.05	.0255	303.15	.000986	
.1	.0255	303.15	.000994	
.15	.0255	303.15	.001005	
.2	.0255	303.15	.001016	
0	.0255	308.15	.000888	
.05	.0255	308.15	.000898	
.1	.0255	308.15	.000908	
.15	.0255	308.15	.000918	
.2	.0255	308.15	.000927	
0	.0255	313.15	.000806	
.05	.0255	313.15	.000814	
.1	.0255	313.15	.00082	
.15	.0255	313.15	.000828	
.2	.0255	313.15	.000836	
0	.0255	318.15	.000735	
.05	.0255	318.15	.000742	
.1	.0255	318.15	.000748	
.15	.0255	318.15	.000756	
.2	.0255	318.15	.000761	
0	.0424	303.15	.001089	
.05	.0424	303.15	.0011	
.1	.0424	303.15	.001111	
.15	.0424	303.15	.001128	
.2	.0424	303.15	.001136	
0	.0424	308.15	.000988	
.05	.0424	308.15	.001	
.1	.0424	308.15	.001016	
.15	.0424	308.15	.001026	
.2	.0424	308.15	.001036	
0	.0424	313.15	.000887	
.05	.0424	313.15	.000898	
.1	.0424	313.15	.000912	
.15	.0424	313.15	.00092	
.2	.0424	313.15	.00093	
0	.0424	318.15	.000808	
.05	.0424	318.15	.000818	
.1	.0424	318.15	.000827	
.15	.0424	318.15	.000835	
.2	.0424	318.15	.000845	
0	.0583	303.15	.001224	
.05	.0583	303.15	.001233	
.1	.0583	303.15	.001244	
.15	.0583	303.15	.001259	
.2	.0583	303.15	.00127	
0	.0583	308.15	.001102	
.05	.0583	308.15	.001115	
.1	.0583	308.15	.001126	
.15	.0583	308.15	.001141	
.2	.0583	308.15	.001152	
0	.0583	313.15	.001002	
.05	.0583	313.15	.001008	
.1	.0583	313.15	.001015	
.15	.0583	313.15	.001026	
.2	.0583	313.15	.001035	
0	.0583	318.15	.000903	
.05	.0583	318.15	.000911	
.1	.0583	318.15	.000919	
.15	.0583	318.15	.000927	
.2	.0583	318.15	.000937	
0	0	303.15	.000797	
.05	0	303.15	.000805	
.1	0	303.15	.000811	
.15	0	303.15	.000819	
.2	0	303.15	.000827	
0	0	308.15	.000719	
.05	0	308.15	.000726	
.1	0	308.15	.000734	
.15	0	308.15	.000741	
.2	0	308.15	.000745	
0	0	313.15	.000653	
.05	0	313.15	.00066	
.1	0	313.15	.000668	
.15	0	313.15	.000672	
.2	0	313.15	.000679	
0	0	318.15	.000597	
.05	0	318.15	.000604	
.1	0	318.15	.000612	
.15	0	318.15	.000615	
.2	0	318.15	.000622	

System: dimexide + water; phases: Liquid
Property: Mass density, kg/m3 (Liquid); method: Pycnometric method
Mole fraction of dimexide	Temperature, K	Pressure, kPa	Mass density, kg/m3	uncertainty
.0121	303.15	101	1002	
.0121	308.15	101	1000.3	
.0121	313.15	101	998.5	
.0121	318.15	101	996.2	
.0255	303.15	101	1008	
.0255	308.15	101	1006.4	
.0255	313.15	101	1004.4	
.0255	318.15	101	1002.3	
.0424	303.15	101	1015.3	
.0424	308.15	101	1013.6	
.0424	313.15	101	1011.4	
.0424	318.15	101	1009.3	
.0583	303.15	101	1021.4	
.0583	308.15	101	1019.3	
.0583	313.15	101	1017.6	
.0583	318.15	101	1015.3	

System: dimexide + water; phases: Liquid
Property: Speed of sound, m/s (Liquid); method: Linear variable-path acoustic interferometer
Mole fraction of dimexide	Temperature, K	Pressure, kPa	Speed of sound, m/s	uncertainty
.0121	303.15	101	1534.6	
.0121	308.15	101	1541.3	
.0121	313.15	101	1546.2	
.0121	318.15	101	1552.4	
.0255	303.15	101	1556.6	
.0255	308.15	101	1561.7	
.0255	313.15	101	1566	
.0255	318.15	101	1569.7	
.0424	303.15	101	1580	
.0424	308.15	101	1583.1	
.0424	313.15	101	1586.1	
.0424	318.15	101	1587.2	
.0583	303.15	101	1602.7	
.0583	308.15	101	1603.5	
.0583	313.15	101	1604.9	
.0583	318.15	101	1603.3	

System: dimexide + water; phases: Liquid
Property: Viscosity, Pa*s (Liquid); method: Capillary tube (Ostwald; Ubbelohde) method
Mole fraction of dimexide	Temperature, K	Pressure, kPa	Viscosity, Pa*s	uncertainty
.0121	303.15	101	.0009	
.0121	308.15	101	.000805	
.0121	313.15	101	.000729	
.0121	318.15	101	.000667	
.0255	303.15	101	.000979	
.0255	308.15	101	.000888	
.0255	313.15	101	.000806	
.0255	318.15	101	.000735	
.0424	303.15	101	.001089	
.0424	308.15	101	.000988	
.0424	313.15	101	.000887	
.0424	318.15	101	.000808	
.0583	303.15	101	.001224	
.0583	308.15	101	.001102	
.0583	313.15	101	.001002	
.0583	318.15	101	.000903	
