Measured thermophysical data. Endothermic features on heating of glasses show that the second glass to liquid transition of water was phenomenologically-mistaken
Source: Thermochim. Acta, 2017, 10.1016/j.tca.2016.11.011
Compound 1: acetaminophen, C8H9NO2
Compound 2: Nifedipine, C17H18N2O6
Compound 3: levoglucosan, C6H10O5

System: acetaminophen; phases: Glass, Liquid, Air at 1 atmosphere
Property: Triple point temperature, K (Glass); method: DSC
Triple point temperature, K	uncertainty
297	

System: acetaminophen; phases: Glass, Liquid, Air at 1 atmosphere
Property: Triple point temperature, K (Glass); method: DSC
Triple point temperature, K	uncertainty
294.8	

System: Nifedipine; phases: Glass, Liquid, Air at 1 atmosphere
Property: Triple point temperature, K (Glass); method: DSC
Triple point temperature, K	uncertainty
317.6	

System: Nifedipine; phases: Glass, Liquid, Air at 1 atmosphere
Property: Triple point temperature, K (Glass); method: DSC
Triple point temperature, K	uncertainty
315.4	

System: levoglucosan; phases: Glass, Liquid, Air at 1 atmosphere
Property: Triple point temperature, K (Glass); method: DSC
Triple point temperature, K	uncertainty
248.4	

System: levoglucosan; phases: Glass, Liquid, Air at 1 atmosphere
Property: Triple point temperature, K (Glass); method: DSC
Triple point temperature, K	uncertainty
246.6	
