Measured thermophysical data. Thermodynamic functions of hydrogen bonding of amines in methanol: head space  analysis and solution calorimetry
Source: Thermochim. Acta, 2012, 10.1016/j.tca.2012.02.005
Compound 1: methanol, CH4O, purity 98%
Compound 2: cyclohexane, C6H12, purity 98%
Compound 3: benzene, C6H6, purity 98%
Compound 4: n-butylamine, C4H11N, purity 98%
Compound 5: 2-butanamine, C4H11N, purity 98%
Compound 6: tert-butylamine, C4H11N, purity 98%
Compound 7: 1-aminohexane, C6H15N, purity 98%
Compound 8: cyclohexylamine, C6H13N, purity 98%
Compound 9: N-ethylethanamine, C4H11N, purity 98%
Compound 10: dipropylamine, C6H15N, purity 98%
Compound 11: dibutylamine, C8H19N, purity 98%
Compound 12: 4-methylpyridine, C6H7N, purity 98%
Compound 13: N,N-diethylethanamine, C6H15N, purity 98%
Compound 14: N,N-dipropylpropanamine, C9H21N, purity 98%
Compound 15: azine, C5H5N, purity 98%
Compound 16: 2-picoline, C6H7N, purity 98%
Compound 17: pyridine, 3-methyl-, C6H7N, purity 98%
Compound 18: perhydroazine, C5H11N, purity 98%
Compound 19: pyridine, 2,6-dimethyl-, C7H9N, purity 98%
Compound 20: cetane, C16H34, purity 98%

System: methanol + n-butylamine; phases: Liquid
Fixed: Temperature, K = 298.15
Fixed: Pressure, kPa = 101
Property: Molar enthalpy of solution, kJ/mol (Liquid); method: adiabatic solution calorimeter
Mole fraction of n-butylamine	Molar enthalpy of solution, kJ/mol	uncertainty
0	-15.81	

System: methanol + n-butylamine; phases: Liquid
Fixed: Temperature, K = 298.15
Fixed: Pressure, kPa = 101
Property: Molar enthalpy of solution, kJ/mol (Liquid); method: adiabatic solution calorimeter
Mole fraction of methanol	Molar enthalpy of solution, kJ/mol	uncertainty
0	-11.68	

System: methanol + n-butylamine; phases: Liquid
Fixed: Temperature, K = 298.15
Fixed: Pressure, kPa = 101
Property: Activity coefficient of n-butylamine (Liquid); method: Chromatography
Mole fraction of n-butylamine	Activity coefficient of n-butylamine	uncertainty
0	.46	

System: methanol + n-butylamine; phases: Liquid
Fixed: Temperature, K = 298.15
Fixed: Pressure, kPa = 101
Property: Activity coefficient of methanol (Liquid); method: Chromatography
Mole fraction of methanol	Activity coefficient of methanol	uncertainty
0	.35	

System: n-butylamine + cyclohexane; phases: Liquid
Fixed: Temperature, K = 298.15
Fixed: Pressure, kPa = 101
Property: Molar enthalpy of solution, kJ/mol (Liquid); method: adiabatic solution calorimeter
Mole fraction of n-butylamine	Molar enthalpy of solution, kJ/mol	uncertainty
0	6.48	

System: benzene + n-butylamine; phases: Liquid
Fixed: Temperature, K = 298.15
Fixed: Pressure, kPa = 101
Property: Molar enthalpy of solution, kJ/mol (Liquid); method: adiabatic solution calorimeter
Mole fraction of n-butylamine	Molar enthalpy of solution, kJ/mol	uncertainty
0	2.87	

System: methanol + 2-butanamine; phases: Liquid
Fixed: Temperature, K = 298.15
Fixed: Pressure, kPa = 101
Property: Molar enthalpy of solution, kJ/mol (Liquid); method: adiabatic solution calorimeter
Mole fraction of 2-butanamine	Molar enthalpy of solution, kJ/mol	uncertainty
0	-16.88	

System: methanol + 2-butanamine; phases: Liquid
Fixed: Temperature, K = 298.15
Fixed: Pressure, kPa = 101
Property: Molar enthalpy of solution, kJ/mol (Liquid); method: adiabatic solution calorimeter
Mole fraction of methanol	Molar enthalpy of solution, kJ/mol	uncertainty
0	-11.67	

System: methanol + 2-butanamine; phases: Liquid
Fixed: Temperature, K = 298.15
Fixed: Pressure, kPa = 101
Property: Activity coefficient of 2-butanamine (Liquid); method: Chromatography
Mole fraction of 2-butanamine	Activity coefficient of 2-butanamine	uncertainty
0	.75	

System: methanol + 2-butanamine; phases: Liquid
Fixed: Temperature, K = 298.15
Fixed: Pressure, kPa = 101
Property: Activity coefficient of methanol (Liquid); method: Chromatography
Mole fraction of methanol	Activity coefficient of methanol	uncertainty
0	.38	

System: cyclohexane + 2-butanamine; phases: Liquid
Fixed: Temperature, K = 298.15
Fixed: Pressure, kPa = 101
Property: Molar enthalpy of solution, kJ/mol (Liquid); method: adiabatic solution calorimeter
Mole fraction of 2-butanamine	Molar enthalpy of solution, kJ/mol	uncertainty
0	5.95	

System: benzene + 2-butanamine; phases: Liquid
Fixed: Temperature, K = 298.15
Fixed: Pressure, kPa = 101
Property: Molar enthalpy of solution, kJ/mol (Liquid); method: adiabatic solution calorimeter
Mole fraction of 2-butanamine	Molar enthalpy of solution, kJ/mol	uncertainty
0	1.55	

System: benzene + 2-butanamine; phases: Liquid
Fixed: Temperature, K = 298.15
Fixed: Pressure, kPa = 101
Property: Activity coefficient of 2-butanamine (Liquid); method: Chromatography
Mole fraction of 2-butanamine	Activity coefficient of 2-butanamine	uncertainty
0	1.15	

System: methanol + tert-butylamine; phases: Liquid
Fixed: Temperature, K = 298.15
Fixed: Pressure, kPa = 101
Property: Molar enthalpy of solution, kJ/mol (Liquid); method: adiabatic solution calorimeter
Mole fraction of tert-butylamine	Molar enthalpy of solution, kJ/mol	uncertainty
0	-18.99	

System: methanol + tert-butylamine; phases: Liquid
Fixed: Temperature, K = 298.15
Fixed: Pressure, kPa = 101
Property: Molar enthalpy of solution, kJ/mol (Liquid); method: adiabatic solution calorimeter
Mole fraction of methanol	Molar enthalpy of solution, kJ/mol	uncertainty
0	-12	

System: methanol + tert-butylamine; phases: Liquid
Fixed: Temperature, K = 298.15
Fixed: Pressure, kPa = 101
Property: Activity coefficient of tert-butylamine (Liquid); method: Chromatography
Mole fraction of tert-butylamine	Activity coefficient of tert-butylamine	uncertainty
0	.25	

System: methanol + tert-butylamine; phases: Liquid
Fixed: Temperature, K = 298.15
Fixed: Pressure, kPa = 101
Property: Activity coefficient of methanol (Liquid); method: Chromatography
Mole fraction of methanol	Activity coefficient of methanol	uncertainty
0	.29	

System: tert-butylamine + cyclohexane; phases: Liquid
Fixed: Temperature, K = 298.15
Fixed: Pressure, kPa = 101
Property: Molar enthalpy of solution, kJ/mol (Liquid); method: adiabatic solution calorimeter
Mole fraction of tert-butylamine	Molar enthalpy of solution, kJ/mol	uncertainty
0	5.15	

System: benzene + tert-butylamine; phases: Liquid
Fixed: Temperature, K = 298.15
Fixed: Pressure, kPa = 101
Property: Molar enthalpy of solution, kJ/mol (Liquid); method: adiabatic solution calorimeter
Mole fraction of tert-butylamine	Molar enthalpy of solution, kJ/mol	uncertainty
0	1.27	

System: benzene + tert-butylamine; phases: Liquid
Fixed: Temperature, K = 298.15
Fixed: Pressure, kPa = 101
Property: Activity coefficient of tert-butylamine (Liquid); method: Chromatography
Mole fraction of tert-butylamine	Activity coefficient of tert-butylamine	uncertainty
0	1.32	

System: methanol + 1-aminohexane; phases: Liquid
Fixed: Temperature, K = 298.15
Fixed: Pressure, kPa = 101
Property: Molar enthalpy of solution, kJ/mol (Liquid); method: adiabatic solution calorimeter
Mole fraction of 1-aminohexane	Molar enthalpy of solution, kJ/mol	uncertainty
0	-14.54	

System: methanol + 1-aminohexane; phases: Liquid
Fixed: Temperature, K = 298.15
Fixed: Pressure, kPa = 101
Property: Molar enthalpy of solution, kJ/mol (Liquid); method: adiabatic solution calorimeter
Mole fraction of methanol	Molar enthalpy of solution, kJ/mol	uncertainty
0	-11.12	

System: methanol + 1-aminohexane; phases: Liquid
Fixed: Temperature, K = 298.15
Fixed: Pressure, kPa = 101
Property: Activity coefficient of 1-aminohexane (Liquid); method: Chromatography
Mole fraction of 1-aminohexane	Activity coefficient of 1-aminohexane	uncertainty
0	13.7	

System: methanol + 1-aminohexane; phases: Liquid
Fixed: Temperature, K = 298.15
Fixed: Pressure, kPa = 101
Property: Activity coefficient of methanol (Liquid); method: Chromatography
Mole fraction of methanol	Activity coefficient of methanol	uncertainty
0	.38	

System: cyclohexane + 1-aminohexane; phases: Liquid
Fixed: Temperature, K = 298.15
Fixed: Pressure, kPa = 101
Property: Molar enthalpy of solution, kJ/mol (Liquid); method: adiabatic solution calorimeter
Mole fraction of 1-aminohexane	Molar enthalpy of solution, kJ/mol	uncertainty
0	6.41	

System: benzene + 1-aminohexane; phases: Liquid
Fixed: Temperature, K = 298.15
Fixed: Pressure, kPa = 101
Property: Molar enthalpy of solution, kJ/mol (Liquid); method: adiabatic solution calorimeter
Mole fraction of 1-aminohexane	Molar enthalpy of solution, kJ/mol	uncertainty
0	2.3	

System: benzene + 1-aminohexane; phases: Liquid
Fixed: Temperature, K = 298.15
Fixed: Pressure, kPa = 101
Property: Activity coefficient of 1-aminohexane (Liquid); method: Chromatography
Mole fraction of 1-aminohexane	Activity coefficient of 1-aminohexane	uncertainty
0	16.2	

System: methanol + cyclohexylamine; phases: Liquid
Fixed: Temperature, K = 298.15
Fixed: Pressure, kPa = 101
Property: Molar enthalpy of solution, kJ/mol (Liquid); method: adiabatic solution calorimeter
Mole fraction of cyclohexylamine	Molar enthalpy of solution, kJ/mol	uncertainty
0	-14.9	

System: methanol + cyclohexylamine; phases: Liquid
Fixed: Temperature, K = 298.15
Fixed: Pressure, kPa = 101
Property: Molar enthalpy of solution, kJ/mol (Liquid); method: adiabatic solution calorimeter
Mole fraction of methanol	Molar enthalpy of solution, kJ/mol	uncertainty
0	-11.55	

System: methanol + cyclohexylamine; phases: Liquid
Fixed: Temperature, K = 298.15
Fixed: Pressure, kPa = 101
Property: Activity coefficient of cyclohexylamine (Liquid); method: Chromatography
Mole fraction of cyclohexylamine	Activity coefficient of cyclohexylamine	uncertainty
0	4.81	

System: methanol + cyclohexylamine; phases: Liquid
Fixed: Temperature, K = 298.15
Fixed: Pressure, kPa = 101
Property: Activity coefficient of methanol (Liquid); method: Chromatography
Mole fraction of methanol	Activity coefficient of methanol	uncertainty
0	.33	

System: cyclohexylamine + cyclohexane; phases: Liquid
Fixed: Temperature, K = 298.15
Fixed: Pressure, kPa = 101
Property: Molar enthalpy of solution, kJ/mol (Liquid); method: adiabatic solution calorimeter
Mole fraction of cyclohexylamine	Molar enthalpy of solution, kJ/mol	uncertainty
0	4.98	

System: benzene + cyclohexylamine; phases: Liquid
Fixed: Temperature, K = 298.15
Fixed: Pressure, kPa = 101
Property: Molar enthalpy of solution, kJ/mol (Liquid); method: adiabatic solution calorimeter
Mole fraction of cyclohexylamine	Molar enthalpy of solution, kJ/mol	uncertainty
0	2.05	

System: benzene + cyclohexylamine; phases: Liquid
Fixed: Temperature, K = 298.15
Fixed: Pressure, kPa = 101
Property: Activity coefficient of cyclohexylamine (Liquid); method: Chromatography
Mole fraction of cyclohexylamine	Activity coefficient of cyclohexylamine	uncertainty
0	6.43	

System: methanol + N-ethylethanamine; phases: Liquid
Fixed: Temperature, K = 298.15
Fixed: Pressure, kPa = 101
Property: Molar enthalpy of solution, kJ/mol (Liquid); method: adiabatic solution calorimeter
Mole fraction of N-ethylethanamine	Molar enthalpy of solution, kJ/mol	uncertainty
0	-16.3	

System: methanol + N-ethylethanamine; phases: Liquid
Fixed: Temperature, K = 298.15
Fixed: Pressure, kPa = 101
Property: Molar enthalpy of solution, kJ/mol (Liquid); method: adiabatic solution calorimeter
Mole fraction of methanol	Molar enthalpy of solution, kJ/mol	uncertainty
0	-11.2	

System: methanol + N-ethylethanamine; phases: Liquid
Fixed: Temperature, K = 298.15
Fixed: Pressure, kPa = 101
Property: Activity coefficient of N-ethylethanamine (Liquid); method: Chromatography
Mole fraction of N-ethylethanamine	Activity coefficient of N-ethylethanamine	uncertainty
0	.33	

System: methanol + N-ethylethanamine; phases: Liquid
Fixed: Temperature, K = 298.15
Fixed: Pressure, kPa = 101
Property: Activity coefficient of methanol (Liquid); method: Chromatography
Mole fraction of methanol	Activity coefficient of methanol	uncertainty
0	.51	

System: N-ethylethanamine + cyclohexane; phases: Liquid
Fixed: Temperature, K = 298.15
Fixed: Pressure, kPa = 101
Property: Molar enthalpy of solution, kJ/mol (Liquid); method: adiabatic solution calorimeter
Mole fraction of N-ethylethanamine	Molar enthalpy of solution, kJ/mol	uncertainty
0	3.5	

System: benzene + N-ethylethanamine; phases: Liquid
Fixed: Temperature, K = 298.15
Fixed: Pressure, kPa = 101
Property: Molar enthalpy of solution, kJ/mol (Liquid); method: adiabatic solution calorimeter
Mole fraction of N-ethylethanamine	Molar enthalpy of solution, kJ/mol	uncertainty
0	.87	

System: methanol + dipropylamine; phases: Liquid
Fixed: Temperature, K = 298.15
Fixed: Pressure, kPa = 101
Property: Molar enthalpy of solution, kJ/mol (Liquid); method: adiabatic solution calorimeter
Mole fraction of dipropylamine	Molar enthalpy of solution, kJ/mol	uncertainty
0	-15.2	

System: methanol + dipropylamine; phases: Liquid
Fixed: Temperature, K = 298.15
Fixed: Pressure, kPa = 101
Property: Molar enthalpy of solution, kJ/mol (Liquid); method: adiabatic solution calorimeter
Mole fraction of methanol	Molar enthalpy of solution, kJ/mol	uncertainty
0	-8.44	

System: methanol + dipropylamine; phases: Liquid
Fixed: Temperature, K = 298.15
Fixed: Pressure, kPa = 101
Property: Activity coefficient of dipropylamine (Liquid); method: Chromatography
Mole fraction of dipropylamine	Activity coefficient of dipropylamine	uncertainty
0	.91	

System: methanol + dipropylamine; phases: Liquid
Fixed: Temperature, K = 298.15
Fixed: Pressure, kPa = 101
Property: Activity coefficient of methanol (Liquid); method: Chromatography
Mole fraction of methanol	Activity coefficient of methanol	uncertainty
0	.69	

System: cyclohexane + dipropylamine; phases: Liquid
Fixed: Temperature, K = 298.15
Fixed: Pressure, kPa = 101
Property: Molar enthalpy of solution, kJ/mol (Liquid); method: adiabatic solution calorimeter
Mole fraction of dipropylamine	Molar enthalpy of solution, kJ/mol	uncertainty
0	3.43	

System: benzene + dipropylamine; phases: Liquid
Fixed: Temperature, K = 298.15
Fixed: Pressure, kPa = 101
Property: Molar enthalpy of solution, kJ/mol (Liquid); method: adiabatic solution calorimeter
Mole fraction of dipropylamine	Molar enthalpy of solution, kJ/mol	uncertainty
0	1.83	

System: benzene + dipropylamine; phases: Liquid
Fixed: Temperature, K = 298.15
Fixed: Pressure, kPa = 101
Property: Activity coefficient of dipropylamine (Liquid); method: Chromatography
Mole fraction of dipropylamine	Activity coefficient of dipropylamine	uncertainty
0	1.48	

System: methanol + dibutylamine; phases: Liquid
Fixed: Temperature, K = 298.15
Fixed: Pressure, kPa = 101
Property: Molar enthalpy of solution, kJ/mol (Liquid); method: adiabatic solution calorimeter
Mole fraction of dibutylamine	Molar enthalpy of solution, kJ/mol	uncertainty
0	-13.8	

System: cyclohexane + dibutylamine; phases: Liquid
Fixed: Temperature, K = 298.15
Fixed: Pressure, kPa = 101
Property: Molar enthalpy of solution, kJ/mol (Liquid); method: adiabatic solution calorimeter
Mole fraction of dibutylamine	Molar enthalpy of solution, kJ/mol	uncertainty
0	2.99	

System: benzene + dibutylamine; phases: Liquid
Fixed: Temperature, K = 298.15
Fixed: Pressure, kPa = 101
Property: Molar enthalpy of solution, kJ/mol (Liquid); method: adiabatic solution calorimeter
Mole fraction of dibutylamine	Molar enthalpy of solution, kJ/mol	uncertainty
0	2.5	

System: 4-methylpyridine + cyclohexane; phases: Liquid
Fixed: Temperature, K = 298.15
Fixed: Pressure, kPa = 101
Property: Molar enthalpy of solution, kJ/mol (Liquid); method: adiabatic solution calorimeter
Mole fraction of 4-methylpyridine	Molar enthalpy of solution, kJ/mol	uncertainty
0	7.82	

System: benzene + 4-methylpyridine; phases: Liquid
Fixed: Temperature, K = 298.15
Fixed: Pressure, kPa = 101
Property: Molar enthalpy of solution, kJ/mol (Liquid); method: adiabatic solution calorimeter
Mole fraction of 4-methylpyridine	Molar enthalpy of solution, kJ/mol	uncertainty
0	-.09	

System: benzene + N,N-diethylethanamine; phases: Liquid
Fixed: Temperature, K = 298.15
Fixed: Pressure, kPa = 101
Property: Activity coefficient of N,N-diethylethanamine (Liquid); method: Chromatography
Mole fraction of N,N-diethylethanamine	Activity coefficient of N,N-diethylethanamine	uncertainty
0	1.28	

System: methanol + N,N-dipropylpropanamine; phases: Liquid
Fixed: Temperature, K = 298.15
Fixed: Pressure, kPa = 101
Property: Activity coefficient of N,N-dipropylpropanamine (Liquid); method: Chromatography
Mole fraction of N,N-dipropylpropanamine	Activity coefficient of N,N-dipropylpropanamine	uncertainty
0	8.79	

System: benzene + N,N-dipropylpropanamine; phases: Liquid
Fixed: Temperature, K = 298.15
Fixed: Pressure, kPa = 101
Property: Activity coefficient of N,N-dipropylpropanamine (Liquid); method: Chromatography
Mole fraction of N,N-dipropylpropanamine	Activity coefficient of N,N-dipropylpropanamine	uncertainty
0	2.79	

System: N,N-dipropylpropanamine + cetane; phases: Liquid
Fixed: Temperature, K = 298.15
Fixed: Pressure, kPa = 101
Property: Activity coefficient of N,N-dipropylpropanamine (Liquid); method: Chromatography
Mole fraction of N,N-dipropylpropanamine	Activity coefficient of N,N-dipropylpropanamine	uncertainty
0	1.01	

System: methanol + azine; phases: Liquid
Fixed: Temperature, K = 298.15
Fixed: Pressure, kPa = 101
Property: Activity coefficient of azine (Liquid); method: Chromatography
Mole fraction of azine	Activity coefficient of azine	uncertainty
0	1.2	

System: methanol + 2-picoline; phases: Liquid
Fixed: Temperature, K = 298.15
Fixed: Pressure, kPa = 101
Property: Activity coefficient of 2-picoline (Liquid); method: Chromatography
Mole fraction of 2-picoline	Activity coefficient of 2-picoline	uncertainty
0	.75	

System: methanol + 2-picoline; phases: Liquid
Fixed: Temperature, K = 298.15
Fixed: Pressure, kPa = 101
Property: Activity coefficient of methanol (Liquid); method: Chromatography
Mole fraction of methanol	Activity coefficient of methanol	uncertainty
0	.79	

System: methanol + pyridine, 3-methyl-; phases: Liquid
Fixed: Temperature, K = 298.15
Fixed: Pressure, kPa = 101
Property: Activity coefficient of pyridine, 3-methyl- (Liquid); method: Chromatography
Mole fraction of pyridine, 3-methyl-	Activity coefficient of pyridine, 3-methyl-	uncertainty
0	.82	

System: methanol + pyridine, 3-methyl-; phases: Liquid
Fixed: Temperature, K = 298.15
Fixed: Pressure, kPa = 101
Property: Activity coefficient of methanol (Liquid); method: Chromatography
Mole fraction of methanol	Activity coefficient of methanol	uncertainty
0	.94	

System: benzene + pyridine, 3-methyl-; phases: Liquid
Fixed: Temperature, K = 298.15
Fixed: Pressure, kPa = 101
Property: Activity coefficient of pyridine, 3-methyl- (Liquid); method: Chromatography
Mole fraction of pyridine, 3-methyl-	Activity coefficient of pyridine, 3-methyl-	uncertainty
0	.96	

System: methanol + 4-methylpyridine; phases: Liquid
Fixed: Temperature, K = 298.15
Fixed: Pressure, kPa = 101
Property: Activity coefficient of 4-methylpyridine (Liquid); method: Chromatography
Mole fraction of 4-methylpyridine	Activity coefficient of 4-methylpyridine	uncertainty
0	1	

System: methanol + 4-methylpyridine; phases: Liquid
Fixed: Temperature, K = 298.15
Fixed: Pressure, kPa = 101
Property: Activity coefficient of methanol (Liquid); method: Chromatography
Mole fraction of methanol	Activity coefficient of methanol	uncertainty
0	.68	

System: methanol + pyridine, 2,6-dimethyl-; phases: Liquid
Fixed: Temperature, K = 298.15
Fixed: Pressure, kPa = 101
Property: Activity coefficient of pyridine, 2,6-dimethyl- (Liquid); method: Chromatography
Mole fraction of pyridine, 2,6-dimethyl-	Activity coefficient of pyridine, 2,6-dimethyl-	uncertainty
0	.94	

System: methanol + pyridine, 2,6-dimethyl-; phases: Liquid
Fixed: Temperature, K = 298.15
Fixed: Pressure, kPa = 101
Property: Activity coefficient of methanol (Liquid); method: Chromatography
Mole fraction of methanol	Activity coefficient of methanol	uncertainty
0	.61	

System: methanol + perhydroazine; phases: Liquid
Fixed: Temperature, K = 298.15
Fixed: Pressure, kPa = 101
Property: Activity coefficient of methanol (Liquid); method: Chromatography
Mole fraction of methanol	Activity coefficient of methanol	uncertainty
0	.43	
