Measured thermophysical data. Enthalpies of solution of l-threonine in a (water + alcohol) mixture at 298.15K
Source: Thermochim. Acta, 2009, 10.1016/j.tca.2009.06.005
Compound 1: L-threonine, C4H9NO3
Compound 2: methanol, CH4O
Compound 3: ethanol, C2H6O, purity 99.5%
Compound 4: 1-propanol, C3H8O
Compound 5: 2-propanol, C3H8O
Compound 6: water, H2O

System: methanol + L-threonine + water; phases: Liquid
Fixed: Temperature, K = 298.15
Fixed: Pressure, kPa = 101
Fixed: Molality, mol/kg of L-threonine = .01
Property: Molar enthalpy of solution, kJ/mol (Liquid); method: Isoperibol calorimetry
Solvent: Molality, mol/kg of methanol	Molar enthalpy of solution, kJ/mol	uncertainty
.712	11.15	.05575
1.357	11.78	.0589
2.034	12.56	.0628
2.837	13.11	.06555
4.117	14.93	.07465
5.529	15.99	.07995
7.371	16.98	.0849
10.302	18.18	.0909
10.882	18.2	.091
16.067	19.55	.09775
24.303	20.16	.1008
35.716	20.92	.1046

System: ethanol + L-threonine + water; phases: Liquid
Fixed: Temperature, K = 298.15
Fixed: Pressure, kPa = 101
Fixed: Molality, mol/kg of L-threonine = .01
Property: Molar enthalpy of solution, kJ/mol (Liquid); method: Isoperibol calorimetry
Solvent: Molality, mol/kg of ethanol	Molar enthalpy of solution, kJ/mol	uncertainty
.721	11.51	.05755
1.452	12.78	.0639
2.368	13.65	.06825
3.437	14.59	.07295
4.512	15.99	.07995
5.435	17.23	.08615
7.616	18.79	.09395
9.011	19.96	.0998
12.268	20.91	.10455
17.247	21.51	.10755
24.089	20.69	.10345
34.344	19.19	.09595

System: 1-propanol + L-threonine + water; phases: Liquid
Fixed: Temperature, K = 298.15
Fixed: Pressure, kPa = 101
Fixed: Molality, mol/kg of L-threonine = .01
Property: Molar enthalpy of solution, kJ/mol (Liquid); method: Isoperibol calorimetry
Solvent: Molality, mol/kg of 1-propanol	Molar enthalpy of solution, kJ/mol	uncertainty
.733	11.68	.0584
1.215	12.25	.06125
1.982	13.57	.06785
2.726	14.71	.07355
3.375	15.54	.0777
4.028	16.02	.0801
4.815	16.96	.0848
6.021	17.89	.08945
8.878	18.82	.0941
13.417	18.89	.09445
18.749	17.81	.08905
26.796	16.56	.0828

System: 2-propanol + L-threonine + water; phases: Liquid
Fixed: Temperature, K = 298.15
Fixed: Pressure, kPa = 101
Fixed: Molality, mol/kg of L-threonine = .01
Property: Molar enthalpy of solution, kJ/mol (Liquid); method: Isoperibol calorimetry
Solvent: Molality, mol/kg of 2-propanol	Molar enthalpy of solution, kJ/mol	uncertainty
.715	11.93	.05965
1.181	12.74	.0637
1.742	13.85	.06925
2.581	15.04	.0752
3.356	16.19	.08095
4.285	18.16	.0908
5.387	18.83	.09415
6.417	18.98	.0949
9.149	19.83	.09915
12.838	20.78	.1039
17.966	20.22	.1011
25.659	19.06	.0953
