Measured thermophysical data. Thermal, solid liquid equilibrium, crystallization, and microstructural studies  of organic monotectic alloy: 4,4 -Dibromobiphenyl succinonitrile
Source: Thermochim. Acta, 2009, 10.1016/j.tca.2009.06.012
Compound 1: butanedinitrile, C4H4N2
Compound 2: 4,4'-dibromobiphenyl, C12H8Br2

System: butanedinitrile; phases: Crystal, Liquid, Air at 1 atmosphere
Property: Normal melting temperature, K (Crystal); method: DSC/DTA
Normal melting temperature, K	uncertainty
329.65	

System: butanedinitrile; phases: Crystal, Liquid, Air at 1 atmosphere
Property: Molar enthalpy of transition or fusion, kJ/mol (Crystal); method: DSC/DTA
Molar enthalpy of transition or fusion, kJ/mol	uncertainty
3.7	

System: 4,4'-dibromobiphenyl; phases: Crystal, Liquid, Air at 1 atmosphere
Property: Normal melting temperature, K (Crystal); method: Visual observation
Normal melting temperature, K	uncertainty
440.65	

System: 4,4'-dibromobiphenyl; phases: Crystal, Liquid, Air at 1 atmosphere
Property: Molar enthalpy of transition or fusion, kJ/mol (Crystal); method: DSC/DTA
Molar enthalpy of transition or fusion, kJ/mol	uncertainty
28.38	

System: 4,4'-dibromobiphenyl + butanedinitrile; phases: Liquid, Crystal
Fixed: Pressure, kPa = 101
Property: Solid-liquid equilibrium temperature, K (Liquid); method: DSC/DTA
Mole fraction of butanedinitrile	Solid-liquid equilibrium temperature, K	uncertainty
.05	439.15	
.1	439.15	
.15	438.15	

System: 4,4'-dibromobiphenyl + butanedinitrile; phases: Liquid mixture 1, Liquid mixture 2
Fixed: Pressure, kPa = 101
Property: Liquid-liquid equilibrium temperature, K (Liquid mixture 1); method: DSC
Mole fraction of 4,4'-dibromobiphenyl	Liquid-liquid equilibrium temperature, K	uncertainty
.2	453.15	
.25	461.15	
.3	471.15	
.35	483.15	
.4	493.15	
.45	497.15	
.5	503.15	
.55	505.15	
.575	505.15	
.65	505.15	
.675	504.15	
.775	497.15	
.85	491.15	
.9	475.15	
.92	466.15	
.93	459.15	
.94	453.15	
.95	448.15	

System: 4,4'-dibromobiphenyl + butanedinitrile; phases: Liquid, Crystal
Fixed: Pressure, kPa = 101
Property: Solid-liquid equilibrium temperature, K (Liquid); method: DSC/DTA
Mole fraction of butanedinitrile	Solid-liquid equilibrium temperature, K	uncertainty
.96	423.15	
.97	414.15	
.98	398.15	
.99	383.15	
.995	357.15	
.996	355.15	
.997	348.15	
.999	331.15	
.9996	329.15	
.9997	327.65	
.9999	328.65	
