Measured thermophysical data. Thermodynamic properties and low-temperature X-ray diffraction of vitamin B3
Source: Thermochim. Acta, 2015, 10.1016/j.tca.2015.01.012
Compound 1: nicotinic acid, C6H5NO2, purity 99.9%

System: nicotinic acid; phases: Crystal
Fixed: Pressure, kPa = 101.325
Property: Mass density, kg/m3 (Crystal); method: X-ray diffraction
Temperature, K	Mass density, kg/m3	uncertainty
150	1481	3
175	1477	3
200	1471	3
225	1465	3
250	1460	3
275	1454	3
300	1444	3
325	1436	3
350	1430	3
375	1422	3
400	1413	3
425	1406	3

System: nicotinic acid; phases: Crystal
Fixed: Pressure, kPa = 101.325
Property: Molar heat capacity at constant pressure, J/K/mol (Crystal); method: Small (less than 1 g) adiabatic calorimetry
Temperature, K	Molar heat capacity at constant pressure, J/K/mol	uncertainty
1	.0015	2
2	.0121	2
3	.0409	2
4	.0968	2
5	.1891	2
6	.3359	2
7	.5397	2
8	.7924	2
9	1.099	2
10	1.48	2
15	4.221	2
20	7.998	2
25	12.34	.5
30	17.11	.5
35	21.76	.5
40	26.08	.5
45	30.14	.2
50	33.99	.2
60	40.99	.2
70	47	.2
80	52.23	.2
90	56.95	.2
100	61.37	.2
110	65.59	.2
120	69.67	.2
130	73.64	.2
140	77.53	.2
150	81.39	.2
160	85.26	.2
170	89.19	.2
180	93.23	.2
190	97.4	.2
200	101.7	.2
210	106.3	.2
220	110.9	.2
230	115.8	.2
240	120.8	.2
250	125.8	.2
260	131	.2
270	136.3	.2
273.15	137.9	.2
280	141.6	.2
290	146.9	.2
298.15	151.3	.2
300	152.3	.2
310	157.7	.2
320	163.1	.2
330	168.5	.2
340	174	.2
346	177.3	.2

System: nicotinic acid; phases: Crystal
Fixed: Pressure, kPa = 101.325
Property: Molar enthalpy, kJ/mol (Crystal); method: Small (less than 1 g) adiabatic calorimetry
Temperature, K	Molar enthalpy, kJ/mol	uncertainty
1	.0000004	1
2	.0000061	1
3	.000031	1
4	.000097	1
5	.00024	1
6	.00049	1
7	.00098	1
8	.0016	1
9	.0026	1
10	.0038	1
15	.0177	1
20	.0477	1
25	.0985	1
30	.172	1
35	.2693	1
40	.389	1
45	.5297	.5
50	.6901	.5
60	1.066	.5
70	1.507	.5
80	2.003	.5
90	2.549	.2
100	3.141	.2
110	3.776	.2
120	4.453	.2
130	5.169	.2
140	5.925	.2
150	6.72	.2
160	7.553	.2
170	8.425	.2
180	9.337	.2
190	10.29	.2
200	11.29	.2
210	12.33	.2
220	13.41	.2
230	14.54	.2
240	15.73	.2
250	16.96	.2
260	18.24	.2
270	19.58	.2
273.15	20.01	.2
280	20.97	.2
290	22.41	.2
298.15	23.63	.2
300	23.91	.2
310	25.46	.2
320	27.06	.2
330	28.72	.2
340	30.43	.2
346	31.49	.2

System: nicotinic acid; phases: Crystal
Fixed: Pressure, kPa = 101.325
Property: Molar entropy, J/K/mol (Crystal); method: Small (less than 1 g) adiabatic calorimetry
Temperature, K	Molar entropy, J/K/mol	uncertainty
1	.0005	1
2	.004	1
3	.0136	1
4	.0323	1
5	.063	1
6	.1089	1
7	.1788	1
8	.2634	1
9	.3747	1
10	.5086	1
15	1.592	1
20	3.297	1
25	5.543	1
30	8.212	1
35	11.2	1
40	14.39	1
45	17.7	.5
50	21.08	.5
60	27.91	.5
70	34.69	.5
80	41.32	.5
90	47.75	.2
100	53.98	.2
110	60.02	.2
120	65.91	.2
130	71.64	.2
140	77.24	.2
150	82.72	.2
160	88.1	.2
170	93.38	.2
180	98.6	.2
190	103.7	.2
200	108.9	.2
210	113.9	.2
220	119	.2
230	124	.2
240	129	.2
250	134.1	.2
260	139.1	.2
270	144.2	.2
273.15	145.7	.2
280	149.2	.2
290	154.3	.2
298.15	158.4	.2
300	159.3	.2
310	164.4	.2
320	169.5	.2
330	174.6	.2
340	179.7	.2
346	182.8	.2

System: nicotinic acid; phases: Crystal
Fixed: Pressure, kPa = 101.325
Property: Molar heat capacity at constant pressure, J/K/mol (Crystal); method: Small (less than 1 g) adiabatic calorimetry
Temperature, K	Molar heat capacity at constant pressure, J/K/mol	uncertainty
5.3	.2521	2
5.53	.2833	2
5.71	.3119	2
5.9	.3323	2
6.07	.3625	2
6.23	.3927	2
6.39	.3921	2
6.55	.4232	2
6.7	.4579	2
6.86	.5025	2
7.03	.5557	2
7.19	.5983	2
7.36	.6211	2
7.52	.6706	2
7.69	.6993	2
7.84	.7188	2
8	.8151	2
8.17	.8389	2
8.34	.8744	2
8.51	.9394	2
8.68	1.001	2
8.86	1.063	2
9.03	1.093	2
9.21	1.135	2
9.38	1.246	2
9.56	1.315	2
9.73	1.428	2
9.92	1.479	2
10.17	1.542	2
10.5	1.674	2
10.82	1.86	2
11.15	2.012	2
11.48	2.15	2
11.83	2.356	2
12.19	2.553	2
12.55	2.742	2
12.92	2.969	2
13.29	3.19	2
13.67	3.425	2
14.06	3.628	2
14.45	3.87	2
14.84	4.121	2
15.23	4.365	2
15.63	4.629	2
16.04	4.894	2
16.44	5.19	2
16.85	5.494	2
17.27	5.794	2
17.67	6.094	2
18.09	6.421	2
18.52	6.77	2
18.95	7.125	2
19.38	7.466	2
19.82	7.809	2
20.68	8.601	.5
22	9.701	.5
23.36	10.88	.5
24.74	12.09	.5
26.14	13.4	.5
27.57	14.79	.5
29.02	16.15	.5
30.49	17.6	.5
31.97	18.99	.5
33.48	20.37	.5
34.99	21.77	.5
36.53	23.11	.5
38.07	24.44	.5
39.63	25.75	.5
41.2	27.05	.2
42.78	28.38	.2
44.36	29.6	.2
45.95	30.92	.2
47.56	32.14	.2
49.17	33.43	.2
50.79	34.59	.2
52.41	35.8	.2
54.04	36.96	.2
55.68	38.11	.2
57.33	39.19	.2
58.97	40.29	.2
60.63	41.38	.2
62.28	42.42	.2
63.94	43.46	.2
65.61	44.41	.2
67.28	45.36	.2
68.95	46.38	.2
70.62	47.37	.2
72.71	48.52	.2
75.22	49.8	.2
77.73	51.14	.2
80.25	52.35	.2
82.78	53.53	.2
85.31	54.74	.2
87.85	55.91	.2
90.39	57.08	.2
80.98	52.79	.2
84.21	54.31	.2
86.73	55.5	.2
89.25	56.68	.2
91.78	57.81	.2
94.31	59	.2
96.84	60.11	.2
99.38	61.16	.2
101.92	62.18	.2
104.47	63.23	.2
107.02	64.34	.2
109.57	65.35	.2
112.12	66.36	.2
114.68	67.47	.2
117.24	68.52	.2
119.81	69.55	.2
122.39	70.55	.2
124.96	71.54	.2
127.53	72.56	.2
130.1	73.62	.2
132.68	74.7	.2
135.26	75.71	.2
137.83	76.72	.2
140.41	77.7	.2
142.99	78.8	.2
145.58	79.79	.2
148.16	80.74	.2
150.75	81.72	.2
153.33	82.67	.2
155.92	83.7	.2
158.51	84.71	.2
161.1	85.73	.2
163.71	86.79	.2
166.31	87.79	.2
168.9	88.81	.2
171.49	89.87	.2
174.09	90.88	.2
176.68	91.97	.2
179.28	92.85	.2
181.87	93.96	.2
184.47	95.03	.2
187.07	96.11	.2
189.66	97.14	.2
192.26	98.33	.2
194.86	99.43	.2
197.45	100.6	.2
200.05	101.7	.2
202.65	102.8	.2
205.28	104.1	.2
207.88	105.2	.2
210.48	106.4	.2
213.09	107.6	.2
215.69	109	.2
218.3	110	.2
220.91	111.3	.2
223.52	112.6	.2
226.13	113.8	.2
228.74	115.2	.2
231.36	116.7	.2
233.98	117.7	.2
236.59	119.1	.2
239.21	120.4	.2
241.83	121.8	.2
244.45	123.1	.2
247.11	124.5	.2
249.74	125.8	.2
252.36	127.1	.2
254.98	128.5	.2
257.61	129.8	.2
260.24	131.1	.2
262.86	132.5	.2
265.49	134	.2
268.12	135.3	.2
270.75	136.7	.2
273.38	138.2	.2
276.01	139.3	.2
278.63	140.8	.2
281.26	142.3	.2
283.88	143.5	.2
286.5	144.8	.2
289.15	146.5	.2
291.77	147.8	.2
294.38	149.3	.2
296.99	150.7	.2
299.59	152.1	.2
302.64	153.7	.2
306.07	155.5	.2
309.49	157.1	.2
312.9	159	.2
316.3	161.2	.2
319.71	162.9	.2
323.11	164.8	.2
326.5	166.8	.2
329.88	168.6	.2
333.26	170.6	.2
336.64	172.4	.2
340	174	.2
343.36	175.7	.2
346.71	177.4	.2
