Measured thermophysical data. Thermodynamic and spectral investigations of binary liquid mixturesof 2-butoxy ethanol with alcohols at temperature range of 293.15-313.15 K
Source: Fluid Phase Equilib., 2013, 10.1016/j.fluid.2013.06.021
Compound 1: 2-butoxyethanol, C6H14O2
Compound 2: 1-propanol, C3H8O
Compound 3: 2-propanol, C3H8O
Compound 4: 1-butanol, C4H10O
Compound 5: 2-butanol, C4H10O

System: 2-butoxyethanol; phases: Liquid
Fixed: Pressure, kPa = 101.325
Property: Mass density, kg/m3 (Liquid); method: Vibrating tube method
Temperature, K	Mass density, kg/m3	uncertainty
298.15	896.312	.002

System: 2-butoxyethanol; phases: Liquid
Fixed: Pressure, kPa = 101.325
Property: Viscosity, Pa*s (Liquid); method: Capillary tube (Ostwald; Ubbelohde) method
Temperature, K	Viscosity, Pa*s	uncertainty
298.15	.002885	.00006

System: 2-butoxyethanol; phases: Liquid
Fixed: Pressure, kPa = 101.325
Property: Speed of sound, m/s (Liquid); method: Sing-around technique in a fixed-path interferometer
Temperature, K	Speed of sound, m/s	uncertainty
298.15	1306.04	.1

System: 1-propanol; phases: Liquid
Fixed: Pressure, kPa = 101.325
Property: Mass density, kg/m3 (Liquid); method: Vibrating tube method
Temperature, K	Mass density, kg/m3	uncertainty
298.15	800.13	.002

System: 1-propanol; phases: Liquid
Fixed: Pressure, kPa = 101.325
Property: Viscosity, Pa*s (Liquid); method: Capillary tube (Ostwald; Ubbelohde) method
Temperature, K	Viscosity, Pa*s	uncertainty
298.15	.001984	.00006

System: 1-propanol; phases: Liquid
Fixed: Pressure, kPa = 101.325
Property: Speed of sound, m/s (Liquid); method: Sing-around technique in a fixed-path interferometer
Temperature, K	Speed of sound, m/s	uncertainty
298.15	1207.03	.1

System: 2-propanol; phases: Liquid
Fixed: Pressure, kPa = 101.325
Property: Mass density, kg/m3 (Liquid); method: Vibrating tube method
Temperature, K	Mass density, kg/m3	uncertainty
298.15	781.588	.002

System: 2-propanol; phases: Liquid
Fixed: Pressure, kPa = 101.325
Property: Viscosity, Pa*s (Liquid); method: Capillary tube (Ostwald; Ubbelohde) method
Temperature, K	Viscosity, Pa*s	uncertainty
298.15	.002111	.00006

System: 2-propanol; phases: Liquid
Fixed: Pressure, kPa = 101.325
Property: Speed of sound, m/s (Liquid); method: Sing-around technique in a fixed-path interferometer
Temperature, K	Speed of sound, m/s	uncertainty
298.15	1140.63	.1

System: 1-butanol; phases: Liquid
Fixed: Pressure, kPa = 101.325
Property: Mass density, kg/m3 (Liquid); method: Vibrating tube method
Temperature, K	Mass density, kg/m3	uncertainty
298.15	805.986	.002

System: 1-butanol; phases: Liquid
Fixed: Pressure, kPa = 101.325
Property: Viscosity, Pa*s (Liquid); method: Capillary tube (Ostwald; Ubbelohde) method
Temperature, K	Viscosity, Pa*s	uncertainty
298.15	.002625	.00006

System: 1-butanol; phases: Liquid
Fixed: Pressure, kPa = 101.325
Property: Speed of sound, m/s (Liquid); method: Sing-around technique in a fixed-path interferometer
Temperature, K	Speed of sound, m/s	uncertainty
298.15	1240.56	.1

System: 2-butanol; phases: Liquid
Fixed: Pressure, kPa = 101.325
Property: Mass density, kg/m3 (Liquid); method: Vibrating tube method
Temperature, K	Mass density, kg/m3	uncertainty
298.15	802.563	.002

System: 2-butanol; phases: Liquid
Fixed: Pressure, kPa = 101.325
Property: Viscosity, Pa*s (Liquid); method: Capillary tube (Ostwald; Ubbelohde) method
Temperature, K	Viscosity, Pa*s	uncertainty
298.15	.003075	.00006

System: 2-butanol; phases: Liquid
Fixed: Pressure, kPa = 101.325
Property: Speed of sound, m/s (Liquid); method: Sing-around technique in a fixed-path interferometer
Temperature, K	Speed of sound, m/s	uncertainty
298.15	1213.26	.1

System: 1-propanol + 2-butoxyethanol; phases: Liquid
Fixed: Pressure, kPa = 101
Property: Mass density, kg/m3 (Liquid); method: Vibrating tube method
Temperature, K	Mole fraction of 2-butoxyethanol	Mass density, kg/m3	uncertainty
293.15	.052	812.72	.002
293.15	.1024	820.5	.002
293.15	.1524	827.69	.002
293.15	.1986	833.97	.002
293.15	.2528	840.79	.002
293.15	.3032	846.73	.002
293.15	.4064	857.67	.002
293.15	.5015	866.6	.002
293.15	.6031	875.08	.002
293.15	.7006	882.33	.002
293.15	.8022	889.07	.002
293.15	.8553	892.31	.002
293.15	.9066	895.25	.002
293.15	.9516	897.7	.002
298.15	.052	808.78	.002
298.15	.1024	816.6	.002
298.15	.1524	823.84	.002
298.15	.1986	830.06	.002
298.15	.2528	836.87	.002
298.15	.3032	842.76	.002
298.15	.4064	853.64	.002
298.15	.5015	862.56	.002
298.15	.6031	871.01	.002
298.15	.7006	878.24	.002
298.15	.8022	884.94	.002
298.15	.8553	888.19	.002
298.15	.9066	891.15	.002
298.15	.9516	893.62	.002
303.15	.052	804.75	.002
303.15	.1024	812.56	.002
303.15	.1524	819.76	.002
303.15	.1986	825.96	.002
303.15	.2528	832.81	.002
303.15	.3032	838.66	.002
303.15	.4064	849.51	.002
303.15	.5015	858.44	.002
303.15	.6031	866.86	.002
303.15	.7006	874.08	.002
303.15	.8022	880.81	.002
303.15	.8553	884.07	.002
303.15	.9066	887.02	.002
303.15	.9516	889.53	.002
308.15	.052	800.67	.002
308.15	.1024	808.47	.002
308.15	.1524	815.69	.002
308.15	.1986	821.89	.002
308.15	.2528	828.69	.002
308.15	.3032	834.55	.002
308.15	.4064	845.38	.002
308.15	.5015	854.29	.002
308.15	.6031	862.71	.002
308.15	.7006	869.93	.002
308.15	.8022	876.64	.002
308.15	.8553	879.9	.002
308.15	.9066	882.86	.002
308.15	.9516	885.32	.002
313.15	.052	796.66	.002
313.15	.1024	804.45	.002
313.15	.1524	811.62	.002
313.15	.1986	817.8	.002
313.15	.2528	824.54	.002
313.15	.3032	830.4	.002
313.15	.4064	841.23	.002
313.15	.5015	850.1	.002
313.15	.6031	858.52	.002
313.15	.7006	865.71	.002
313.15	.8022	872.48	.002
313.15	.8553	875.69	.002
313.15	.9066	878.69	.002
313.15	.9516	881.14	.002

System: 1-propanol + 2-butoxyethanol; phases: Liquid
Fixed: Pressure, kPa = 101
Property: Speed of sound, m/s (Liquid); method: Sing-around technique in a fixed-path interferometer
Temperature, K	Mole fraction of 2-butoxyethanol	Speed of sound, m/s	uncertainty
293.15	.052	1233.51	.1
293.15	.1024	1241.79	.1
293.15	.1524	1249.37	.1
293.15	.1986	1255.93	.1
293.15	.2528	1263.01	.1
293.15	.3032	1269.13	.1
293.15	.4064	1280.41	.1
293.15	.5015	1289.49	.1
293.15	.6031	1298.08	.1
293.15	.7006	1305.36	.1
293.15	.8022	1312.17	.1
293.15	.8553	1315.38	.1
293.15	.9066	1318.34	.1
293.15	.9516	1320.8	.1
298.15	.052	1216.45	.1
298.15	.1024	1224.76	.1
298.15	.1524	1232.33	.1
298.15	.1986	1238.86	.1
298.15	.2528	1245.93	.1
298.15	.3032	1252.03	.1
298.15	.4064	1263.27	.1
298.15	.5015	1272.35	.1
298.15	.6031	1280.94	.1
298.15	.7006	1288.26	.1
298.15	.8022	1295.1	.1
298.15	.8553	1298.31	.1
298.15	.9066	1301.26	.1
298.15	.9516	1303.72	.1
303.15	.052	1199.36	.1
303.15	.1024	1207.79	.1
303.15	.1524	1215.4	.1
303.15	.1986	1221.91	.1
303.15	.2528	1228.98	.1
303.15	.3032	1235.07	.1
303.15	.4064	1246.31	.1
303.15	.5015	1255.41	.1
303.15	.6031	1264.03	.1
303.15	.7006	1271.32	.1
303.15	.8022	1278.04	.1
303.15	.8553	1281.28	.1
303.15	.9066	1284.17	.1
303.15	.9516	1286.62	.1
308.15	.052	1182.36	.1
308.15	.1024	1190.8	.1
308.15	.1524	1198.43	.1
308.15	.1986	1205.03	.1
308.15	.2528	1212.12	.1
308.15	.3032	1218.26	.1
308.15	.4064	1229.54	.1
308.15	.5015	1238.63	.1
308.15	.6031	1247.19	.1
308.15	.7006	1254.39	.1
308.15	.8022	1261.11	.1
308.15	.8553	1264.29	.1
308.15	.9066	1267.22	.1
308.15	.9516	1269.71	.1
313.15	.052	1165.4	.1
313.15	.1024	1173.72	.1
313.15	.1524	1181.39	.1
313.15	.1986	1188.01	.1
313.15	.2528	1195.24	.1
313.15	.3032	1201.45	.1
313.15	.4064	1212.88	.1
313.15	.5015	1222.05	.1
313.15	.6031	1230.58	.1
313.15	.7006	1237.79	.1
313.15	.8022	1244.39	.1
313.15	.8553	1247.57	.1
313.15	.9066	1250.48	.1
313.15	.9516	1252.93	.1

System: 1-propanol + 2-butoxyethanol; phases: Liquid
Fixed: Pressure, kPa = 101
Property: Viscosity, Pa*s (Liquid); method: Capillary tube (Ostwald; Ubbelohde) method
Temperature, K	Mole fraction of 2-butoxyethanol	Viscosity, Pa*s	uncertainty
298.15	.052	.0019905	.00006
298.15	.1024	.0020135	.00006
298.15	.1524	.0020485	.00006
298.15	.1986	.0020785	.00006
298.15	.2528	.002122	.00006
298.15	.3032	.0021626	.00006
298.15	.4064	.0022565	.00006
298.15	.5015	.0023511	.00006
298.15	.6031	.0024572	.00006
298.15	.7006	.0025583	.00006
298.15	.8022	.0026662	.00006
298.15	.8553	.0027251	.00006
298.15	.9066	.0027789	.00006
298.15	.9516	.0028299	.00006
303.15	.052	.0017509	.00006
303.15	.1024	.0017756	.00006
303.15	.1524	.0018109	.00006
303.15	.1986	.0018444	.00006
303.15	.2528	.0018833	.00006
303.15	.3032	.0019249	.00006
303.15	.4064	.0020268	.00006
303.15	.5015	.0021288	.00006
303.15	.6031	.0022335	.00006
303.15	.7006	.0023382	.00006
303.15	.8022	.0024433	.00006
303.15	.8553	.0025049	.00006
303.15	.9066	.0025591	.00006
303.15	.9516	.0026148	.00006
308.15	.052	.0015784	.00006
308.15	.1024	.0015974	.00006
308.15	.1524	.0016268	.00006
308.15	.1986	.0016568	.00006
308.15	.2528	.00169	.00006
308.15	.3032	.0017259	.00006
308.15	.4064	.0018039	.00006
308.15	.5015	.0018741	.00006
308.15	.6031	.0019526	.00006
308.15	.7006	.002026	.00006
308.15	.8022	.0021096	.00006
308.15	.8553	.0021559	.00006
308.15	.9066	.0021876	.00006
308.15	.9516	.0022182	.00006

System: 2-propanol + 2-butoxyethanol; phases: Liquid
Fixed: Pressure, kPa = 101
Property: Mass density, kg/m3 (Liquid); method: Vibrating tube method
Temperature, K	Mole fraction of 2-butoxyethanol	Mass density, kg/m3	uncertainty
293.15	.0539	796.164	.002
293.15	.1088	805.962	.002
293.15	.1607	814.567	.002
293.15	.2041	821.305	.002
293.15	.2567	828.971	.002
293.15	.3095	836.163	.002
293.15	.4041	847.973	.002
293.15	.5041	859.135	.002
293.15	.6113	869.832	.002
293.15	.7078	878.523	.002
293.15	.8095	886.841	.002
293.15	.857	890.465	.002
293.15	.9069	894.11	.002
293.15	.9527	897.317	.002
298.15	.0539	791.98	.002
298.15	.1088	801.77	.002
298.15	.1607	810.37	.002
298.15	.2041	817.11	.002
298.15	.2567	824.79	.002
298.15	.3095	831.99	.002
298.15	.4041	843.83	.002
298.15	.5041	855	.002
298.15	.6113	865.69	.002
298.15	.7078	874.37	.002
298.15	.8095	882.67	.002
298.15	.857	886.29	.002
298.15	.9069	889.93	.002
298.15	.9527	893.12	.002
303.15	.0539	787.87	.002
303.15	.1088	797.64	.002
303.15	.1607	806.24	.002
303.15	.2041	812.99	.002
303.15	.2567	820.65	.002
303.15	.3095	827.86	.002
303.15	.4041	839.68	.002
303.15	.5041	850.85	.002
303.15	.6113	861.54	.002
303.15	.7078	870.2	.002
303.15	.8095	878.49	.002
303.15	.857	882.1	.002
303.15	.9069	885.74	.002
303.15	.9527	888.94	.002
308.15	.0539	783.58	.002
308.15	.1088	793.36	.002
308.15	.1607	801.96	.002
308.15	.2041	808.71	.002
308.15	.2567	816.4	.002
308.15	.3095	823.61	.002
308.15	.4041	835.44	.002
308.15	.5041	846.62	.002
308.15	.6113	857.32	.002
308.15	.7078	865.98	.002
308.15	.8095	874.28	.002
308.15	.857	877.88	.002
308.15	.9069	881.52	.002
308.15	.9527	884.72	.002
313.15	.0539	778.94	.002
313.15	.1088	788.77	.002
313.15	.1607	797.4	.002
313.15	.2041	804.16	.002
313.15	.2567	811.87	.002
313.15	.3095	819.11	.002
313.15	.4041	830.99	.002
313.15	.5041	842.22	.002
313.15	.6113	852.97	.002
313.15	.7078	861.66	.002
313.15	.8095	870.01	.002
313.15	.857	873.63	.002
313.15	.9069	877.27	.002
313.15	.9527	880.47	.002

System: 2-propanol + 2-butoxyethanol; phases: Liquid
Fixed: Pressure, kPa = 101
Property: Speed of sound, m/s (Liquid); method: Sing-around technique in a fixed-path interferometer
Temperature, K	Mole fraction of 2-butoxyethanol	Speed of sound, m/s	uncertainty
293.15	.0539	1178.85	.1
293.15	.1088	1190.18	.1
293.15	.1607	1200.93	.1
293.15	.2041	1210	.1
293.15	.2567	1220.39	.1
293.15	.3095	1230.67	.1
293.15	.4041	1247.7	.1
293.15	.5041	1263.92	.1
293.15	.6113	1279.58	.1
293.15	.7078	1292.19	.1
293.15	.8095	1304.05	.1
293.15	.857	1309.15	.1
293.15	.9069	1314.2	.1
293.15	.9527	1318.8	.1
298.15	.0539	1160.86	.1
298.15	.1088	1172.51	.1
298.15	.1607	1183.5	.1
298.15	.2041	1192.58	.1
298.15	.2567	1203.01	.1
298.15	.3095	1213.24	.1
298.15	.4041	1230.38	.1
298.15	.5041	1246.57	.1
298.15	.6113	1262.19	.1
298.15	.7078	1274.74	.1
298.15	.8095	1286.67	.1
298.15	.857	1291.81	.1
298.15	.9069	1296.85	.1
298.15	.9527	1301.48	.1
303.15	.0539	1143.4	.1
303.15	.1088	1155.17	.1
303.15	.1607	1166.17	.1
303.15	.2041	1175.28	.1
303.15	.2567	1185.71	.1
303.15	.3095	1195.89	.1
303.15	.4041	1212.96	.1
303.15	.5041	1229.22	.1
303.15	.6113	1244.92	.1
303.15	.7078	1257.7	.1
303.15	.8095	1269.68	.1
303.15	.857	1274.81	.1
303.15	.9069	1279.96	.1
303.15	.9527	1284.66	.1
308.15	.0539	1125.54	.1
308.15	.1088	1137.7	.1
308.15	.1607	1148.86	.1
308.15	.2041	1157.94	.1
308.15	.2567	1168.55	.1
308.15	.3095	1178.77	.1
308.15	.4041	1195.89	.1
308.15	.5041	1212.12	.1
308.15	.6113	1227.99	.1
308.15	.7078	1240.6	.1
308.15	.8095	1252.64	.1
308.15	.857	1257.84	.1
308.15	.9069	1263.04	.1
308.15	.9527	1267.68	.1
313.15	.0539	1108.02	.1
313.15	.1088	1120.15	.1
313.15	.1607	1131.38	.1
313.15	.2041	1140.51	.1
313.15	.2567	1151.26	.1
313.15	.3095	1161.51	.1
313.15	.4041	1178.65	.1
313.15	.5041	1195.12	.1
313.15	.6113	1211.08	.1
313.15	.7078	1223.67	.1
313.15	.8095	1235.81	.1
313.15	.857	1240.99	.1
313.15	.9069	1246.19	.1
313.15	.9527	1250.78	.1

System: 2-propanol + 2-butoxyethanol; phases: Liquid
Fixed: Pressure, kPa = 101
Property: Viscosity, Pa*s (Liquid); method: Capillary tube (Ostwald; Ubbelohde) method
Temperature, K	Mole fraction of 2-butoxyethanol	Viscosity, Pa*s	uncertainty
298.15	.054	.0021047	.00006
298.15	.1088	.0021144	.00006
298.15	.1607	.0021321	.00006
298.15	.2041	.0021452	.00006
298.15	.2567	.0021658	.00006
298.15	.3095	.0021843	.00006
298.15	.4041	.0022472	.00006
298.15	.5041	.0023267	.00006
298.15	.6113	.002427	.00006
298.15	.7079	.0025382	.00006
298.15	.8095	.0026479	.00006
298.15	.857	.0027142	.00006
298.15	.9069	.0027776	.00006
298.15	.9527	.0028379	.00006
303.15	.054	.0018035	.00006
303.15	.1088	.0018188	.00006
303.15	.1607	.0018469	.00006
303.15	.2041	.0018656	.00006
303.15	.2567	.0018886	.00006
303.15	.3095	.0019227	.00006
303.15	.4041	.0019875	.00006
303.15	.5041	.0020792	.00006
303.15	.6113	.002194	.00006
303.15	.7079	.0023075	.00006
303.15	.8095	.0024266	.00006
303.15	.857	.0024871	.00006
303.15	.9069	.0025486	.00006
303.15	.9527	.0026037	.00006
308.15	.054	.0015757	.00006
308.15	.1088	.0015868	.00006
308.15	.1607	.0016063	.00006
308.15	.2041	.0016239	.00006
308.15	.2567	.0016537	.00006
308.15	.3095	.0016776	.00006
308.15	.4041	.0017342	.00006
308.15	.5041	.0018086	.00006
308.15	.6113	.0018862	.00006
308.15	.7079	.0019678	.00006
308.15	.8095	.0020558	.00006
308.15	.857	.0021014	.00006
308.15	.9069	.002145	.00006
308.15	.9527	.0021882	.00006

System: 1-butanol + 2-butoxyethanol; phases: Liquid
Fixed: Pressure, kPa = 101
Property: Mass density, kg/m3 (Liquid); method: Vibrating tube method
Temperature, K	Mole fraction of 2-butoxyethanol	Mass density, kg/m3	uncertainty
293.15	.0516	816.39	.002
293.15	.1011	822.44	.002
293.15	.1535	828.64	.002
293.15	.2027	834.27	.002
293.15	.2537	839.84	.002
293.15	.3027	844.99	.002
293.15	.4	854.57	.002
293.15	.5055	864.12	.002
293.15	.6054	872.48	.002
293.15	.7025	880.07	.002
293.15	.8042	887.49	.002
293.15	.8552	891.03	.002
293.15	.906	894.44	.002
293.15	.9526	897.48	.002
298.15	.0516	812.543	.002
298.15	.1011	818.58	.002
298.15	.1535	824.722	.002
298.15	.2027	830.281	.002
298.15	.2537	835.832	.002
298.15	.3027	840.96	.002
298.15	.4	850.503	.002
298.15	.5055	860.043	.002
298.15	.6054	868.393	.002
298.15	.7025	875.94	.002
298.15	.8042	883.317	.002
298.15	.8552	886.83	.002
298.15	.906	890.248	.002
298.15	.9526	893.29	.002
303.15	.0516	808.67	.002
303.15	.1011	814.69	.002
303.15	.1535	820.82	.002
303.15	.2027	826.35	.002
303.15	.2537	831.87	.002
303.15	.3027	836.98	.002
303.15	.4	846.49	.002
303.15	.5055	855.99	.002
303.15	.6054	864.3	.002
303.15	.7025	871.83	.002
303.15	.8042	879.17	.002
303.15	.8552	882.67	.002
303.15	.906	886.07	.002
303.15	.9526	889.1	.002
308.15	.0516	804.78	.002
308.15	.1011	810.77	.002
308.15	.1535	816.87	.002
308.15	.2027	822.39	.002
308.15	.2537	827.9	.002
308.15	.3027	832.98	.002
308.15	.4	842.45	.002
308.15	.5055	851.91	.002
308.15	.6054	860.19	.002
308.15	.7025	867.68	.002
308.15	.8042	875.01	.002
308.15	.8552	878.5	.002
308.15	.906	881.88	.002
308.15	.9526	884.89	.002
313.15	.0516	800.853	.002
313.15	.1011	806.824	.002
313.15	.1535	812.87	.002
313.15	.2027	818.34	.002
313.15	.2537	823.81	.002
313.15	.3027	828.88	.002
313.15	.4	838.34	.002
313.15	.5055	847.79	.002
313.15	.6054	856.04	.002
313.15	.7025	863.5	.002
313.15	.8042	870.78	.002
313.15	.8552	874.26	.002
313.15	.906	877.63	.002
313.15	.9526	880.64	.002

System: 1-butanol + 2-butoxyethanol; phases: Liquid
Fixed: Pressure, kPa = 101
Property: Speed of sound, m/s (Liquid); method: Sing-around technique in a fixed-path interferometer
Temperature, K	Mole fraction of 2-butoxyethanol	Speed of sound, m/s	uncertainty
293.15	.0516	1262.21	.1
293.15	.1011	1266.6	.1
293.15	.1535	1271.09	.1
293.15	.2027	1275.17	.1
293.15	.2537	1279.2	.1
293.15	.3027	1282.92	.1
293.15	.4	1289.82	.1
293.15	.5055	1296.66	.1
293.15	.6054	1302.53	.1
293.15	.7025	1307.9	.1
293.15	.8042	1313.24	.1
293.15	.8552	1315.86	.1
293.15	.906	1318.45	.1
293.15	.9526	1320.87	.1
298.15	.0516	1245.25	.1
298.15	.1011	1249.69	.1
298.15	.1535	1254.23	.1
298.15	.2027	1258.29	.1
298.15	.2537	1262.34	.1
298.15	.3027	1266.08	.1
298.15	.4	1272.94	.1
298.15	.5055	1279.7	.1
298.15	.6054	1285.56	.1
298.15	.7025	1290.93	.1
298.15	.8042	1296.25	.1
298.15	.8552	1298.85	.1
298.15	.906	1301.4	.1
298.15	.9526	1303.79	.1
303.15	.0516	1228.51	.1
303.15	.1011	1233.04	.1
303.15	.1535	1237.53	.1
303.15	.2027	1241.54	.1
303.15	.2537	1245.48	.1
303.15	.3027	1249.12	.1
303.15	.4	1255.88	.1
303.15	.5055	1262.62	.1
303.15	.6054	1268.57	.1
303.15	.7025	1274.01	.1
303.15	.8042	1279.38	.1
303.15	.8552	1281.96	.1
303.15	.906	1284.47	.1
303.15	.9526	1286.73	.1
308.15	.0516	1211.84	.1
308.15	.1011	1216.27	.1
308.15	.1535	1220.72	.1
308.15	.2027	1224.71	.1
308.15	.2537	1228.66	.1
308.15	.3027	1232.31	.1
308.15	.4	1239.1	.1
308.15	.5055	1245.93	.1
308.15	.6054	1251.91	.1
308.15	.7025	1257.37	.1
308.15	.8042	1262.75	.1
308.15	.8552	1265.33	.1
308.15	.906	1267.82	.1
308.15	.9526	1270.04	.1
313.15	.0516	1195.25	.1
313.15	.1011	1199.67	.1
313.15	.1535	1204.14	.1
313.15	.2027	1208.19	.1
313.15	.2537	1212.18	.1
313.15	.3027	1215.87	.1
313.15	.4	1222.69	.1
313.15	.5055	1229.48	.1
313.15	.6054	1235.4	.1
313.15	.7025	1240.72	.1
313.15	.8042	1245.98	.1
313.15	.8552	1248.51	.1
313.15	.906	1250.98	.1
313.15	.9526	1253.21	.1

System: 1-butanol + 2-butoxyethanol; phases: Liquid
Fixed: Pressure, kPa = 101
Property: Viscosity, Pa*s (Liquid); method: Capillary tube (Ostwald; Ubbelohde) method
Temperature, K	Mole fraction of 2-butoxyethanol	Viscosity, Pa*s	uncertainty
298.15	.0516	.002586	.00006
298.15	.1011	.002553	.00006
298.15	.1535	.0025364	.00006
298.15	.2027	.002524	.00006
298.15	.2537	.0025159	.00006
298.15	.3028	.0025156	.00006
298.15	.4	.0025269	.00006
298.15	.5055	.0025553	.00006
298.15	.6054	.0025923	.00006
298.15	.7025	.0026445	.00006
298.15	.8042	.0027026	.00006
298.15	.8552	.0027425	.00006
298.15	.906	.0027854	.00006
298.15	.9526	.0028348	.00006
303.15	.0516	.0022688	.00006
303.15	.1011	.0022427	.00006
303.15	.1535	.0022349	.00006
303.15	.2027	.0022344	.00006
303.15	.2537	.0022294	.00006
303.15	.3028	.0022352	.00006
303.15	.4	.0022549	.00006
303.15	.5055	.0023026	.00006
303.15	.6054	.0023451	.00006
303.15	.7025	.002401	.00006
303.15	.8042	.0024749	.00006
303.15	.8552	.0025181	.00006
303.15	.906	.0025643	.00006
303.15	.9526	.0026067	.00006
308.15	.0516	.0020286	.00006
308.15	.1011	.0020085	.00006
308.15	.1535	.0019937	.00006
308.15	.2027	.0019797	.00006
308.15	.2537	.0019664	.00006
308.15	.3028	.0019653	.00006
308.15	.4	.0019681	.00006
308.15	.5055	.0019806	.00006
308.15	.6054	.0020057	.00006
308.15	.7025	.0020452	.00006
308.15	.8042	.0021059	.00006
308.15	.8552	.0021376	.00006
308.15	.906	.0021747	.00006
308.15	.9526	.0022041	.00006

System: 2-butanol + 2-butoxyethanol; phases: Liquid
Fixed: Pressure, kPa = 101
Property: Mass density, kg/m3 (Liquid); method: Vibrating tube method
Temperature, K	Mole fraction of 2-butoxyethanol	Mass density, kg/m3	uncertainty
293.15	.0517	813.24	.002
293.15	.1011	819.25	.002
293.15	.152	825.25	.002
293.15	.2027	831.03	.002
293.15	.2541	836.67	.002
293.15	.3092	842.49	.002
293.15	.4012	851.78	.002
293.15	.5011	861.21	.002
293.15	.6065	870.53	.002
293.15	.7054	878.73	.002
293.15	.806	886.59	.002
293.15	.8558	890.31	.002
293.15	.8999	893.54	.002
293.15	.9516	897.19	.002
298.15	.0517	809.099	.002
298.15	.1011	815.491	.002
298.15	.152	821.091	.002
298.15	.2027	826.863	.002
298.15	.2541	832.498	.002
298.15	.3092	838.314	.002
298.15	.4012	847.585	.002
298.15	.5011	857.012	.002
298.15	.6065	866.34	.002
298.15	.7054	874.537	.002
298.15	.806	882.398	.002
298.15	.8558	886.109	.002
298.15	.8999	889.334	.002
298.15	.9516	892.99	.002
303.15	.0517	804.88	.002
303.15	.1011	810.88	.002
303.15	.152	816.86	.002
303.15	.2027	822.62	.002
303.15	.2541	828.26	.002
303.15	.3092	834.08	.002
303.15	.4012	843.34	.002
303.15	.5011	852.78	.002
303.15	.6065	862.11	.002
303.15	.7054	870.3	.002
303.15	.806	878.16	.002
303.15	.8558	881.88	.002
303.15	.8999	885.1	.002
303.15	.9516	888.76	.002
308.15	.0517	800.58	.002
308.15	.1011	806.58	.002
308.15	.152	812.55	.002
308.15	.2027	818.33	.002
308.15	.2541	823.96	.002
308.15	.3092	829.79	.002
308.15	.4012	839.07	.002
308.15	.5011	848.49	.002
308.15	.6065	857.81	.002
308.15	.7054	866.02	.002
308.15	.806	873.9	.002
308.15	.8558	877.63	.002
308.15	.8999	880.86	.002
308.15	.9516	884.53	.002
313.15	.0517	796.19	.002
313.15	.1011	802.19	.002
313.15	.152	808.15	.002
313.15	.2027	813.93	.002
313.15	.2541	819.59	.002
313.15	.3092	825.43	.002
313.15	.4012	834.71	.002
313.15	.5011	844.14	.002
313.15	.6065	853.46	.002
313.15	.7054	861.68	.002
313.15	.806	869.59	.002
313.15	.8558	873.33	.002
313.15	.8999	876.56	.002
313.15	.9516	880.24	.002

System: 2-butanol + 2-butoxyethanol; phases: Liquid
Fixed: Pressure, kPa = 101
Property: Speed of sound, m/s (Liquid); method: Sing-around technique in a fixed-path interferometer
Temperature, K	Mole fraction of 2-butoxyethanol	Speed of sound, m/s	uncertainty
293.15	.0517	1236.45	.1
293.15	.1011	1242.03	.1
293.15	.152	1247.66	.1
293.15	.2027	1253.1	.1
293.15	.2541	1258.42	.1
293.15	.3092	1263.98	.1
293.15	.4012	1272.91	.1
293.15	.5011	1282.15	.1
293.15	.6065	1291.4	.1
293.15	.7054	1299.75	.1
293.15	.806	1307.89	.1
293.15	.8558	1311.83	.1
293.15	.8999	1315.35	.1
293.15	.9516	1319.31	.1
298.15	.0517	1218.86	.1
298.15	.1011	1224.33	.1
298.15	.152	1229.91	.1
298.15	.2027	1235.33	.1
298.15	.2541	1240.73	.1
298.15	.3092	1246.36	.1
298.15	.4012	1255.44	.1
298.15	.5011	1264.81	.1
298.15	.6065	1274.16	.1
298.15	.7054	1282.55	.1
298.15	.806	1290.68	.1
298.15	.8558	1294.58	.1
298.15	.8999	1298.09	.1
298.15	.9516	1302.16	.1
303.15	.0517	1202.04	.1
303.15	.1011	1206.97	.1
303.15	.152	1212.29	.1
303.15	.2027	1217.66	.1
303.15	.2541	1222.99	.1
303.15	.3092	1228.58	.1
303.15	.4012	1237.72	.1
303.15	.5011	1247.38	.1
303.15	.6065	1257.09	.1
303.15	.7054	1265.55	.1
303.15	.806	1273.8	.1
303.15	.8558	1277.7	.1
303.15	.8999	1281.25	.1
303.15	.9516	1285.09	.1
308.15	.0517	1182.97	.1
308.15	.1011	1188.73	.1
308.15	.152	1194.52	.1
308.15	.2027	1200.02	.1
308.15	.2541	1205.56	.1
308.15	.3092	1211.38	.1
308.15	.4012	1220.64	.1
308.15	.5011	1230.28	.1
308.15	.6065	1239.95	.1
308.15	.7054	1248.57	.1
308.15	.806	1256.74	.1
308.15	.8558	1260.78	.1
308.15	.8999	1264.22	.1
308.15	.9516	1268.24	.1
313.15	.0517	1164.94	.1
313.15	.1011	1170.63	.1
313.15	.152	1176.59	.1
313.15	.2027	1182.29	.1
313.15	.2541	1188.02	.1
313.15	.3092	1193.91	.1
313.15	.4012	1203.45	.1
313.15	.5011	1213.3	.1
313.15	.6065	1223.12	.1
313.15	.7054	1231.82	.1
313.15	.806	1240.17	.1
313.15	.8558	1244.14	.1
313.15	.8999	1247.59	.1
313.15	.9516	1251.56	.1

System: 2-butanol + 2-butoxyethanol; phases: Liquid
Fixed: Pressure, kPa = 101
Property: Viscosity, Pa*s (Liquid); method: Capillary tube (Ostwald; Ubbelohde) method
Temperature, K	Mole fraction of 2-butoxyethanol	Viscosity, Pa*s	uncertainty
298.15	.0517	.0029322	.00006
298.15	.1011	.0028094	.00006
298.15	.152	.002713	.00006
298.15	.2027	.0026604	.00006
298.15	.2541	.0026074	.00006
298.15	.3092	.002586	.00006
298.15	.4012	.0025634	.00006
298.15	.5011	.0025827	.00006
298.15	.6066	.0025979	.00006
298.15	.7054	.0026529	.00006
298.15	.806	.0027106	.00006
298.15	.8558	.0027469	.00006
298.15	.8999	.002796	.00006
298.15	.9516	.0028242	.00006
303.15	.0517	.0024407	.00006
303.15	.1011	.0023566	.00006
303.15	.152	.0023191	.00006
303.15	.2027	.0022828	.00006
303.15	.2541	.0022487	.00006
303.15	.3092	.0022196	.00006
303.15	.4012	.0022241	.00006
303.15	.5011	.0022831	.00006
303.15	.6066	.0023421	.00006
303.15	.7054	.0024186	.00006
303.15	.806	.0024882	.00006
303.15	.8558	.0025297	.00006
303.15	.8999	.0025625	.00006
303.15	.9516	.0026062	.00006
308.15	.0517	.0020809	.00006
308.15	.1011	.0020312	.00006
308.15	.152	.0019938	.00006
308.15	.2027	.0019702	.00006
308.15	.2541	.0019438	.00006
308.15	.3092	.0019352	.00006
308.15	.4012	.0019345	.00006
308.15	.5011	.0019636	.00006
308.15	.6066	.0019981	.00006
308.15	.7054	.0020642	.00006
308.15	.806	.0021125	.00006
308.15	.8558	.0021436	.00006
308.15	.8999	.0021722	.00006
308.15	.9516	.0021963	.00006
