Measured thermophysical data. Solubility of CO2 in aqueous mixtures of monoethanolamine and dicyanamide-based ionic liquids
Source: Fluid Phase Equilib., 2014, 10.1016/j.fluid.2013.12.020
Compound 1: 3-(2-hydroxyethyl)-1-methyl-1H-imidazol-3-ium dicyanoazanide, C8H11N5O
Compound 2: 1-butyl-3-methylimidazolium dicyanamide, C10H15N5
Compound 3: monoethanolamine, C2H7NO
Compound 4: water, H2O

System: 3-(2-hydroxyethyl)-1-methyl-1H-imidazol-3-ium dicyanoazanide; phases: Liquid
Fixed: Pressure, kPa = 101.325
Property: Mass density, kg/m3 (Liquid); method: Vibrating tube method
Temperature, K	Mass density, kg/m3	uncertainty
293.15	1192.85	.1
303.15	1186.37	.1
313.15	1179.92	.1
323.15	1173.52	.1
333.15	1167.18	.1

System: 3-(2-hydroxyethyl)-1-methyl-1H-imidazol-3-ium dicyanoazanide; phases: Liquid
Fixed: Pressure, kPa = 101.325
Property: Viscosity, Pa*s (Liquid); method: Falling or rolling sphere viscometry
Temperature, K	Viscosity, Pa*s	uncertainty
293.15	.1215	.00243
303.15	.06867	.0013734
313.15	.04293	.0008586
323.15	.02896	.0005792
333.15	.02067	.0004134

System: 1-butyl-3-methylimidazolium dicyanamide; phases: Liquid
Fixed: Pressure, kPa = 101.325
Property: Mass density, kg/m3 (Liquid); method: Vibrating tube method
Temperature, K	Mass density, kg/m3	uncertainty
293.15	1065.4	.1
303.15	1059.09	.1
313.15	1052.83	.1
323.15	1046.62	.1
333.15	1040.48	.1

System: 1-butyl-3-methylimidazolium dicyanamide; phases: Liquid
Fixed: Pressure, kPa = 101.325
Property: Viscosity, Pa*s (Liquid); method: Falling or rolling sphere viscometry
Temperature, K	Viscosity, Pa*s	uncertainty
293.15	.04853	.0009706
303.15	.03173	.0006346
313.15	.02209	.0004418
323.15	.01617	.0003234
333.15	.01235	.000247

System: monoethanolamine; phases: Liquid
Fixed: Pressure, kPa = 101.325
Property: Mass density, kg/m3 (Liquid); method: Vibrating tube method
Temperature, K	Mass density, kg/m3	uncertainty
293.15	1015.96	.1
303.15	1008.05	.1
313.15	1000.09	.1
323.15	992.07	.1
333.15	983.98	.1

System: monoethanolamine; phases: Liquid
Fixed: Pressure, kPa = 101.325
Property: Viscosity, Pa*s (Liquid); method: Falling or rolling sphere viscometry
Temperature, K	Viscosity, Pa*s	uncertainty
293.15	.02376	.0004752
303.15	.01485	.000297
313.15	.009943	.00019886
323.15	.006984	.00013968
333.15	.005108	.00010216

System: monoethanolamine + water + 3-(2-hydroxyethyl)-1-methyl-1H-imidazol-3-ium dicyanoazanide; phases: Liquid
Fixed: Pressure, kPa = 101
Property: Mass density, kg/m3 (Liquid); method: Vibrating tube method
Temperature, K	Mass fraction of monoethanolamine	Mass fraction of 3-(2-hydroxyethyl)-1-methyl-1H-imidazol-3-ium dicyanoazanide	Mass density, kg/m3	uncertainty
293.15	.2999	.1	1030.1	.1
303.15	.2999	.1	1025.01	.1
313.15	.2999	.1	1019.55	.1
323.15	.2999	.1	1013.79	.1
333.15	.2999	.1	1007.76	.1
293.15	.2994	.2007	1047.57	.1
303.15	.2994	.2007	1041.88	.1
313.15	.2994	.2007	1035.95	.1
323.15	.2994	.2007	1029.8	.1
333.15	.2994	.2007	1023.41	.1
293.15	.2999	.2999	1065.62	.1
303.15	.2999	.2999	1059.44	.1
313.15	.2999	.2999	1053.11	.1
323.15	.2999	.2999	1046.67	.1
333.15	.2999	.2999	1040.06	.1
293.15	.3006	.4001	1082.41	.1
303.15	.3006	.4001	1075.88	.1
313.15	.3006	.4001	1069.278	.1
323.15	.3006	.4001	1062.59	.1
333.15	.3006	.4001	1055.84	.1
293.15	.3006	.5002	1099.92	.1
303.15	.3006	.5002	1093.15	.1
313.15	.3006	.5002	1086.36	.1
323.15	.3006	.5002	1079.53	.1
333.15	.3006	.5002	1072.68	.1

System: monoethanolamine + water + 3-(2-hydroxyethyl)-1-methyl-1H-imidazol-3-ium dicyanoazanide; phases: Liquid
Fixed: Pressure, kPa = 101
Property: Viscosity, Pa*s (Liquid); method: Falling or rolling sphere viscometry
Temperature, K	Mass fraction of monoethanolamine	Mass fraction of 3-(2-hydroxyethyl)-1-methyl-1H-imidazol-3-ium dicyanoazanide	Viscosity, Pa*s	uncertainty
293.15	.2999	.1	.00353	.0000706
303.15	.2999	.1	.00261	.0000522
313.15	.2999	.1	.002	.00004
323.15	.2999	.1	.00159	.0000318
333.15	.2999	.1	.00129	.0000258
293.15	.2994	.2007	.00449	.0000898
303.15	.2994	.2007	.00328	.0000656
313.15	.2994	.2007	.0025	.00005
323.15	.2994	.2007	.00196	.0000392
333.15	.2994	.2007	.00158	.0000316
293.15	.2999	.2999	.00602	.0001204
303.15	.2999	.2999	.00434	.0000868
313.15	.2999	.2999	.00327	.0000654
323.15	.2999	.2999	.00254	.0000508
333.15	.2999	.2999	.00203	.0000406
293.15	.3006	.4001	.00852	.0001704
303.15	.3006	.4001	.00603	.0001206
313.15	.3006	.4001	.00446	.0000892
323.15	.3006	.4001	.00341	.0000682
333.15	.3006	.4001	.00268	.0000536
293.15	.3006	.5002	.01355	.000271
303.15	.3006	.5002	.00944	.0001888
313.15	.3006	.5002	.00688	.0001376
323.15	.3006	.5002	.00518	.0001036
333.15	.3006	.5002	.00398	.0000796

System: monoethanolamine + water + 1-butyl-3-methylimidazolium dicyanamide; phases: Liquid
Fixed: Pressure, kPa = 101
Property: Mass density, kg/m3 (Liquid); method: Vibrating tube method
Temperature, K	Mass fraction of monoethanolamine	Mass fraction of 1-butyl-3-methylimidazolium dicyanamide	Mass density, kg/m3	uncertainty
293.15	.3003	.0499	1016.45	.1
303.15	.3003	.0499	1011.6	.1
313.15	.3003	.0499	1006.33	.1
323.15	.3003	.0499	1000.64	.1
333.15	.3003	.0499	994.57	.1
293.15	.3005	.1008	1020.39	.1
303.15	.3005	.1008	1015.12	.1
313.15	.3005	.1008	1009.5	.1
323.15	.3005	.1008	1003.52	.1
333.15	.3005	.1008	997.21	.1
293.15	.2998	.2001	1026.33	.1
303.15	.2998	.2001	1020.4	.1
313.15	.2998	.2001	1014.22	.1
323.15	.2998	.2001	1007.79	.1
333.15	.2998	.2001	1001.11	.1
293.15	.2998	.3002	1032.34	.1
303.15	.2998	.3002	1025.91	.1
313.15	.2998	.3002	1019.3	.1
323.15	.2998	.3002	1012.53	.1
333.15	.2998	.3002	1005.58	.1
293.15	.3009	.4996	1042.04	.1
303.15	.3009	.4996	1035.11	.1
313.15	.3009	.4996	1028.12	.1
323.15	.3009	.4996	1021.06	.1
333.15	.3009	.4996	1013.95	.1

System: monoethanolamine + water + 1-butyl-3-methylimidazolium dicyanamide; phases: Liquid
Fixed: Pressure, kPa = 101
Property: Viscosity, Pa*s (Liquid); method: Falling or rolling sphere viscometry
Temperature, K	Mass fraction of monoethanolamine	Mass fraction of 1-butyl-3-methylimidazolium dicyanamide	Viscosity, Pa*s	uncertainty
293.15	.3003	.0499	.00325	.000065
303.15	.3003	.0499	.00238	.0000476
313.15	.3003	.0499	.00182	.0000364
323.15	.3003	.0499	.00143	.0000286
333.15	.3003	.0499	.00116	.0000232
293.15	.3005	.1008	.00367	.0000734
303.15	.3005	.1008	.00266	.0000532
313.15	.3005	.1008	.00202	.0000404
323.15	.3005	.1008	.00158	.0000316
333.15	.3005	.1008	.00127	.0000254
293.15	.2998	.2001	.00475	.000095
303.15	.2998	.2001	.0034	.000068
313.15	.2998	.2001	.00254	.0000508
323.15	.2998	.2001	.00197	.0000394
333.15	.2998	.2001	.00157	.0000314
293.15	.2998	.3002	.00635	.000127
303.15	.2998	.3002	.00448	.0000896
313.15	.2998	.3002	.0033	.000066
323.15	.2998	.3002	.00252	.0000504
333.15	.2998	.3002	.00199	.0000398
293.15	.3009	.4996	.01198	.0002396
303.15	.3009	.4996	.00827	.0001654
313.15	.3009	.4996	.00599	.0001198
323.15	.3009	.4996	.00451	.0000902
333.15	.3009	.4996	.00352	.0000704
