Measured thermophysical data. Phase equilibria of binary mixtures (ionic liquid + aromatic hydrocarbon): Effect of the structure of the components on the solubility
Source: Fluid Phase Equilib., 2013, 10.1016/j.fluid.2013.09.044
Compound 1: benzene, C6H6, purity 99.9%
Compound 2: toluene, C7H8, purity 99.8%
Compound 3: ethylbenzene, C8H10, purity 99.8%
Compound 4: o-xylene, C8H10, purity 99%
Compound 5: m-xylene, C8H10, purity 99%
Compound 6: p-xylene, C8H10, purity 99%
Compound 7: 1-ethyl-3-methylpyridinium ethylsulfate, C10H17NO4S, purity 98%
Compound 8: 1-ethyl-3-methylpyridinium bis((trifluoromethyl)sulfonyl)amide, C10H12F6N2O4S2, purity 99%
Compound 9: 1-hexyl-3-methylimidazolium dicyanamide, C12H19N5, purity 98%
Compound 10: 3-methyl-1-propylpyridinium bis(trifluoromethylsulfonyl)imide, C11H14F6N2O4S2, purity 99%

System: benzene + 1-ethyl-3-methylpyridinium ethylsulfate; phases: Liquid mixture 1, Liquid mixture 2
Fixed: Pressure, kPa = 101
Property: Mole fraction of benzene (Liquid mixture 1); method: Density calibration data
Temperature, K	Mole fraction of benzene	uncertainty
293.15	.408	.005
298.15	.412	.005
303.15	.412	.005
308.15	.418	.005
313.15	.423	.005
318.15	.424	.005
323.15	.432	.005
328.15	.439	.005
333.15	.437	.005

System: toluene + 1-ethyl-3-methylpyridinium ethylsulfate; phases: Liquid mixture 1, Liquid mixture 2
Fixed: Pressure, kPa = 101
Property: Mole fraction of toluene (Liquid mixture 1); method: Density calibration data
Temperature, K	Mole fraction of toluene	uncertainty
293.15	.645	.005
298.15	.649	.005
303.15	.649	.005
308.15	.652	.005
313.15	.652	.005
318.15	.656	.005
323.15	.66	.005
328.15	.66	.005
333.15	.657	.005

System: ethylbenzene + 1-ethyl-3-methylpyridinium ethylsulfate; phases: Liquid mixture 1, Liquid mixture 2
Fixed: Pressure, kPa = 101
Property: Mole fraction of ethylbenzene (Liquid mixture 1); method: Density calibration data
Temperature, K	Mole fraction of ethylbenzene	uncertainty
293.15	.806	.005
298.15	.804	.005
303.15	.805	.005
308.15	.807	.005
313.15	.805	.005
318.15	.807	.005
323.15	.808	.005
328.15	.808	.005
333.15	.806	.005

System: o-xylene + 1-ethyl-3-methylpyridinium ethylsulfate; phases: Liquid mixture 1, Liquid mixture 2
Fixed: Pressure, kPa = 101
Property: Mole fraction of o-xylene (Liquid mixture 1); method: Density calibration data
Temperature, K	Mole fraction of o-xylene	uncertainty
293.15	.755	.005
298.15	.755	.005
303.15	.761	.005
308.15	.763	.005
313.15	.763	.005
318.15	.762	.005
323.15	.766	.005
328.15	.768	.005
333.15	.766	.005

System: m-xylene + 1-ethyl-3-methylpyridinium ethylsulfate; phases: Liquid mixture 1, Liquid mixture 2
Fixed: Pressure, kPa = 101
Property: Mole fraction of m-xylene (Liquid mixture 1); method: Density calibration data
Temperature, K	Mole fraction of m-xylene	uncertainty
293.15	.812	.005
303.15	.811	.005
308.15	.813	.005
313.15	.812	.005
318.15	.816	.005
323.15	.821	.005
328.15	.821	.005

System: p-xylene + 1-ethyl-3-methylpyridinium ethylsulfate; phases: Liquid mixture 1, Liquid mixture 2
Fixed: Pressure, kPa = 101
Property: Mole fraction of p-xylene (Liquid mixture 1); method: Density calibration data
Temperature, K	Mole fraction of p-xylene	uncertainty
293.15	.811	.005
298.15	.81	.005
303.15	.813	.005
308.15	.811	.005
313.15	.815	.005
318.15	.814	.005
323.15	.815	.005
328.15	.816	.005
333.15	.815	.005

System: benzene + 1-ethyl-3-methylpyridinium bis((trifluoromethyl)sulfonyl)amide; phases: Liquid mixture 1, Liquid mixture 2
Fixed: Pressure, kPa = 101
Property: Mole fraction of benzene (Liquid mixture 1); method: Density calibration data
Temperature, K	Mole fraction of benzene	uncertainty
293.15	.204	.005
298.15	.205	.005
303.15	.207	.005
308.15	.205	.005
313.15	.207	.005
318.15	.208	.005
323.15	.211	.005
328.15	.209	.005
333.15	.21	.005

System: toluene + 1-ethyl-3-methylpyridinium bis((trifluoromethyl)sulfonyl)amide; phases: Liquid mixture 1, Liquid mixture 2
Fixed: Pressure, kPa = 101
Property: Mole fraction of toluene (Liquid mixture 1); method: Density calibration data
Temperature, K	Mole fraction of toluene	uncertainty
293.15	.295	.005
298.15	.296	.005
303.15	.298	.005
308.15	.297	.005
313.15	.3	.005
318.15	.302	.005
323.15	.295	.005
328.15	.301	.005
333.15	.3	.005

System: ethylbenzene + 1-ethyl-3-methylpyridinium bis((trifluoromethyl)sulfonyl)amide; phases: Liquid mixture 1, Liquid mixture 2
Fixed: Pressure, kPa = 101
Property: Mole fraction of ethylbenzene (Liquid mixture 1); method: Density calibration data
Temperature, K	Mole fraction of ethylbenzene	uncertainty
293.15	.409	.005
298.15	.41	.005
303.15	.414	.005
308.15	.413	.005
313.15	.417	.005
318.15	.419	.005
323.15	.421	.005
328.15	.416	.005
333.15	.425	.005

System: o-xylene + 1-ethyl-3-methylpyridinium bis((trifluoromethyl)sulfonyl)amide; phases: Liquid mixture 1, Liquid mixture 2
Fixed: Pressure, kPa = 101
Property: Mole fraction of o-xylene (Liquid mixture 1); method: Density calibration data
Temperature, K	Mole fraction of o-xylene	uncertainty
293.15	.366	.005
298.15	.366	.005
303.15	.366	.005
308.15	.368	.005
313.15	.372	.005
318.15	.368	.005
323.15	.376	.005
328.15	.37	.005
333.15	.377	.005

System: m-xylene + 1-ethyl-3-methylpyridinium bis((trifluoromethyl)sulfonyl)amide; phases: Liquid mixture 1, Liquid mixture 2
Fixed: Pressure, kPa = 101
Property: Mole fraction of m-xylene (Liquid mixture 1); method: Density calibration data
Temperature, K	Mole fraction of m-xylene	uncertainty
293.15	.41	.005
298.15	.409	.005
303.15	.413	.005
308.15	.409	.005
313.15	.416	.005
318.15	.417	.005
323.15	.42	.005
328.15	.417	.005

System: p-xylene + 1-ethyl-3-methylpyridinium bis((trifluoromethyl)sulfonyl)amide; phases: Liquid mixture 1, Liquid mixture 2
Fixed: Pressure, kPa = 101
Property: Mole fraction of p-xylene (Liquid mixture 1); method: Density calibration data
Temperature, K	Mole fraction of p-xylene	uncertainty
293.15	.411	.005
298.15	.416	.005
303.15	.418	.005
308.15	.417	.005
313.15	.422	.005
318.15	.424	.005
323.15	.427	.005
328.15	.421	.005
333.15	.429	.005

System: benzene + 1-hexyl-3-methylimidazolium dicyanamide; phases: Liquid mixture 1, Liquid mixture 2
Fixed: Pressure, kPa = 101
Property: Mole fraction of benzene (Liquid mixture 1); method: Density calibration data
Temperature, K	Mole fraction of benzene	uncertainty
293.15	.23	.005
298.15	.231	.005
303.15	.228	.005
308.15	.23	.005
313.15	.233	.005
318.15	.24	.005
323.15	.243	.005
328.15	.245	.005
333.15	.242	.005

System: toluene + 1-hexyl-3-methylimidazolium dicyanamide; phases: Liquid mixture 1, Liquid mixture 2
Fixed: Pressure, kPa = 101
Property: Mole fraction of toluene (Liquid mixture 1); method: Density calibration data
Temperature, K	Mole fraction of toluene	uncertainty
293.15	.354	.005
298.15	.358	.005
303.15	.366	.005
308.15	.356	.005
313.15	.363	.005
318.15	.374	.005
323.15	.378	.005
328.15	.374	.005
333.15	.37	.005

System: ethylbenzene + 1-hexyl-3-methylimidazolium dicyanamide; phases: Liquid mixture 1, Liquid mixture 2
Fixed: Pressure, kPa = 101
Property: Mole fraction of ethylbenzene (Liquid mixture 1); method: Density calibration data
Temperature, K	Mole fraction of ethylbenzene	uncertainty
293.15	.494	.005
298.15	.496	.005
303.15	.494	.005
308.15	.502	.005
313.15	.503	.005
318.15	.511	.005
323.15	.511	.005
333.15	.507	.005

System: o-xylene + 1-hexyl-3-methylimidazolium dicyanamide; phases: Liquid mixture 1, Liquid mixture 2
Fixed: Pressure, kPa = 101
Property: Mole fraction of o-xylene (Liquid mixture 1); method: Density calibration data
Temperature, K	Mole fraction of o-xylene	uncertainty
293.15	.453	.005
298.15	.458	.005
303.15	.451	.005
308.15	.46	.005
313.15	.467	.005
318.15	.472	.005
323.15	.469	.005
328.15	.471	.005

System: m-xylene + 1-hexyl-3-methylimidazolium dicyanamide; phases: Liquid mixture 1, Liquid mixture 2
Fixed: Pressure, kPa = 101
Property: Mole fraction of m-xylene (Liquid mixture 1); method: Density calibration data
Temperature, K	Mole fraction of m-xylene	uncertainty
293.15	.5	.005
298.15	.507	.005
303.15	.503	.005
308.15	.512	.005
313.15	.509	.005
318.15	.502	.005
323.15	.503	.005
328.15	.511	.005
333.15	.515	.005

System: p-xylene + 1-hexyl-3-methylimidazolium dicyanamide; phases: Liquid mixture 1, Liquid mixture 2
Fixed: Pressure, kPa = 101
Property: Mole fraction of p-xylene (Liquid mixture 1); method: Density calibration data
Temperature, K	Mole fraction of p-xylene	uncertainty
293.15	.508	.005
298.15	.513	.005
303.15	.517	.005
308.15	.515	.005
313.15	.516	.005
318.15	.523	.005
323.15	.524	.005
328.15	.52	.005

System: benzene + 3-methyl-1-propylpyridinium bis(trifluoromethylsulfonyl)imide; phases: Liquid mixture 1, Liquid mixture 2
Fixed: Pressure, kPa = 101
Property: Mole fraction of benzene (Liquid mixture 1); method: Density calibration data
Temperature, K	Mole fraction of benzene	uncertainty
293.15	.194	.005
298.15	.196	.005
303.15	.193	.005
308.15	.194	.005
313.15	.193	.005
318.15	.196	.005
323.15	.195	.005
328.15	.194	.005
333.15	.195	.005

System: toluene + 3-methyl-1-propylpyridinium bis(trifluoromethylsulfonyl)imide; phases: Liquid mixture 1, Liquid mixture 2
Fixed: Pressure, kPa = 101
Property: Mole fraction of toluene (Liquid mixture 1); method: Density calibration data
Temperature, K	Mole fraction of toluene	uncertainty
293.15	.268	.005
298.15	.27	.005
303.15	.269	.005
308.15	.271	.005
313.15	.27	.005
318.15	.272	.005
323.15	.274	.005
328.15	.271	.005
333.15	.272	.005

System: ethylbenzene + 3-methyl-1-propylpyridinium bis(trifluoromethylsulfonyl)imide; phases: Liquid mixture 1, Liquid mixture 2
Fixed: Pressure, kPa = 101
Property: Mole fraction of ethylbenzene (Liquid mixture 1); method: Density calibration data
Temperature, K	Mole fraction of ethylbenzene	uncertainty
293.15	.367	.005
298.15	.371	.005
303.15	.369	.005
308.15	.371	.005
313.15	.374	.005
318.15	.377	.005
323.15	.375	.005
328.15	.376	.005
333.15	.372	.005

System: o-xylene + 3-methyl-1-propylpyridinium bis(trifluoromethylsulfonyl)imide; phases: Liquid mixture 1, Liquid mixture 2
Fixed: Pressure, kPa = 101
Property: Mole fraction of o-xylene (Liquid mixture 1); method: Density calibration data
Temperature, K	Mole fraction of o-xylene	uncertainty
293.15	.331	.005
298.15	.333	.005
303.15	.328	.005
308.15	.333	.005
318.15	.343	.005
323.15	.343	.005
328.15	.339	.005
333.15	.339	.005

System: m-xylene + 3-methyl-1-propylpyridinium bis(trifluoromethylsulfonyl)imide; phases: Liquid mixture 1, Liquid mixture 2
Fixed: Pressure, kPa = 101
Property: Mole fraction of m-xylene (Liquid mixture 1); method: Density calibration data
Temperature, K	Mole fraction of m-xylene	uncertainty
293.15	.367	.005
298.15	.371	.005
303.15	.368	.005
308.15	.374	.005
313.15	.363	.005
318.15	.364	.005
323.15	.377	.005
328.15	.372	.005
333.15	.377	.005

System: p-xylene + 3-methyl-1-propylpyridinium bis(trifluoromethylsulfonyl)imide; phases: Liquid mixture 1, Liquid mixture 2
Fixed: Pressure, kPa = 101
Property: Mole fraction of p-xylene (Liquid mixture 1); method: Density calibration data
Temperature, K	Mole fraction of p-xylene	uncertainty
293.15	.371	.005
298.15	.373	.005
303.15	.37	.005
308.15	.378	.005
313.15	.374	.005
318.15	.381	.005
323.15	.373	.005
328.15	.379	.005
333.15	.379	.005
