Measured thermophysical data. Vapor-liquid equilibrium measurement and thermodynamic modeling of binary  systems (methane + n-tetradecane)
Source: Fluid Phase Equilib., 2012, 10.1016/j.fluid.2012.01.023
Compound 1: methane, CH4, purity 99.97%
Compound 2: tetradecane, C14H30, purity 99%

System: tetradecane; phases: Liquid
Property: Mass density, kg/m3 (Liquid); method: Vibrating tube method
Temperature, K	Pressure, kPa	Mass density, kg/m3	uncertainty
294.8	2050	760	1
294.8	3540	762	1
294.4	5030	764	1
294.8	6500	765	1
294.6	8000	766	1
294.6	9490	767	1
324.1	2070	742	1
324	3540	743	1
324	5050	744	1
324	6560	746	1
324.1	8070	747	1
324.1	9540	748	1
373.5	2100	708	1
373.5	3560	709	1
373.3	5060	711	1
373.3	6560	712	1
373.5	8030	713	1
373.5	9500	715	1
447.6	1990	655	1
447.6	3590	658	1
447.5	4920	660	1
447.5	6450	662	1
447.6	7960	665	1
447.6	9470	667	1

System: methane + tetradecane; phases: Liquid
Property: Mass density, kg/m3 (Liquid); method: Vibrating tube method
Temperature, K	Pressure, kPa	Mole fraction of methane	Mass density, kg/m3	uncertainty
294.8	2050	.112	752	1
294.8	3540	.176	746	1
294.4	5030	.232	740	1
294.8	6500	.282	734	1
294.6	8000	.331	728	1
294.6	9490	.364	723	1
324.1	2070	.1	732	1
324	3540	.159	726	1
324	5050	.213	722	1
324	6560	.264	716	1
324.1	8070	.306	711	1
324.1	9540	.342	706	1
373.5	2100	.09	699	1
373.5	3560	.143	694	1
373.3	5060	.193	689	1
373.3	6560	.239	683	1
373.5	8030	.279	678	1
373.5	9500	.317	674	1
447.6	1990	.078	646	1
447.6	3590	.137	640	1
447.5	4920	.176	636	1
447.5	6450	.223	631	1
447.6	7960	.266	625	1
447.6	9470	.303	620	1

System: methane + tetradecane; phases: Liquid
Property: Viscosity, Pa*s (Liquid); method: Moving piston method
Temperature, K	Pressure, kPa	Mole fraction of methane	Viscosity, Pa*s	uncertainty
294.8	2050	.112	.00174	.000087
294.8	3540	.176	.00164	.000082
294.4	5030	.232	.00148	.000074
294.8	6500	.282	.00133	.0000665
294.6	8000	.331	.00116	.000058
294.6	9490	.364	.00105	.0000525
324.1	2070	.1	.00107	.0000535
324	3540	.159	.00097	.0000485
324	5050	.213	.00091	.0000455
324	6560	.264	.00082	.000041
324.1	8070	.306	.00075	.0000375
324.1	9540	.342	.0007	.000035
373.5	2100	.09	.00057	.0000285
373.5	3560	.143	.00054	.000027
373.3	5060	.193	.00051	.0000255
373.3	6560	.239	.00049	.0000245
373.5	8030	.279	.00046	.000023
373.5	9500	.317	.00044	.000022
447.6	1990	.078	.00031	.0000155
447.6	3590	.137	.00029	.0000145
447.5	4920	.176	.00028	.000014
447.5	6450	.223	.00027	.0000135
447.6	7960	.266	.00025	.0000125
447.6	9470	.303	.00024	.000012
