Measured thermophysical data. Experimental vapor pressures of 1,2-bis(dimethylamino)ethane,  1-methylmorpholine, 1,2-bis(2-aminoethoxy)ethane and N-benzylethanolamine  between 273.18 and 364.97K
Source: Fluid Phase Equilib., 2009, 10.1016/j.fluid.2009.04.006
Compound 1: N,N,N',N'-tetramethyl-1,2-diaminoethane, C6H16N2, purity 99.5%
Compound 2: N-methylmorpholine, C5H11NO, purity 99.5%
Compound 3: 1,2-bis(2-aminoethoxy)ethane, C6H16N2O2, purity 98.5%
Compound 4: 2-benzylaminoethanol, C9H13NO, purity 97.7%

System: N,N,N',N'-tetramethyl-1,2-diaminoethane; phases: Liquid, Gas
Property: Vapor or sublimation pressure, kPa (Liquid); method: Closed cell (Static) method
Temperature, K	Vapor or sublimation pressure, kPa	uncertainty
294.75	1.766	.0003
304.74	3.055	.0003
314.76	5.055	.0003
324.95	8.115	.0003
334.99	12.527	.0003
344.96	19.337	.0003
354.98	28.123	.0003
364.97	40.042	.0003

System: N-methylmorpholine; phases: Liquid, Gas
Property: Vapor or sublimation pressure, kPa (Liquid); method: Closed cell (Static) method
Temperature, K	Vapor or sublimation pressure, kPa	uncertainty
273.18	6.9	.0003
283.12	12.941	.0003
283.12	12.93	.0003
293.06	23.061	.0003
303.04	39.344	.0003
313.05	64.457	.0003
323.08	101.727	.0003
333.07	155.317	.0003
343.08	230.306	.0003
353.08	332.759	.0003

System: 1,2-bis(2-aminoethoxy)ethane; phases: Liquid, Gas
Property: Vapor or sublimation pressure, kPa (Liquid); method: Closed cell (Static) method
Temperature, K	Vapor or sublimation pressure, kPa	uncertainty
292.92	.00358	.003
302.88	.00757	.003
312.87	.0156	.003
322.91	.0297	.003
332.89	.0545	.003
342.89	.104	.003
353.02	.184	.003

System: 2-benzylaminoethanol; phases: Liquid, Gas
Property: Vapor or sublimation pressure, kPa (Liquid); method: Closed cell (Static) method
Temperature, K	Vapor or sublimation pressure, kPa	uncertainty
292.82	.000782	.003
312.85	.0052	.003
332.88	.0271	.003
332.89	.027	.003
352.92	.114	.003
362.91	.239	.003
362.91	.231	.003
