Measured thermophysical data. Isobaric vapor liquid liquid equilibrium and vapor liquid equilibrium for the  system water ethanol-1,4-dimethylbenzene at 101.3 kPa
Source: Fluid Phase Equilib., 2009, 10.1016/j.fluid.2009.03.024
Compound 1: water, H2O
Compound 2: ethanol, C2H6O, purity 99.8%
Compound 3: 1,4-dimethylbenzene, C8H10, purity 99.8%

System: ethanol + 1,4-dimethylbenzene + water; phases: Liquid, Gas
Property: Mole fraction of ethanol (Liquid); method: Chromatography
Property: Mole fraction of water (Gas); method: Chromatography
Property: Mole fraction of ethanol (Gas); method: Chromatography
Temperature, K	Pressure, kPa	Mole fraction of water	Mole fraction of ethanol	uncertainty	Mole fraction of water	uncertainty	Mole fraction of ethanol	uncertainty
351.51	101.3	.346	.503	.002	.332		.548	.002
351.56	101.3	.229	.499	.002	.312		.57	.002
351.53	101.3	.157	.655	.002	.208		.696	.002
351.27	101.3	.243	.626	.002	.258		.642	.002
351.59	101.3	.467	.472	.002	.339		.547	.002
351.83	101.3	.459	.514	.002	.318		.609	.002
351.23	101.3	.287	.634	.002	.264		.652	.002
351.19	101.3	.224	.734	.002	.204		.747	.002
351.16	101.3	.196	.735	.002	.194		.739	.002
351.27	101.3	.177	.704	.002	.198		.716	.002
351.26	101.3	.102	.83	.002	.115		.831	.002
351.65	101.3	.119	.701	.002	.163		.741	.002
352.19	101.3	.097	.581	.002	.185		.707	.002
352.59	101.3	.082	.495	.002	.199		.688	.002
351.41	101.3	.314	.66	.002	.258		.698	.002

System: ethanol + 1,4-dimethylbenzene + water; phases: Liquid mixture 1, Liquid mixture 2, Gas
Property: Mole fraction of ethanol (Liquid mixture 1); method: Chromatography
Property: Mole fraction of water (Liquid mixture 1); method: Chromatography
Property: Mole fraction of water (Liquid mixture 2); method: Chromatography
Property: Mole fraction of ethanol (Liquid mixture 2); method: Chromatography
Property: Mole fraction of water (Gas); method: Chromatography
Property: Mole fraction of ethanol (Gas); method: Chromatography
Temperature, K	Pressure, kPa	Mole fraction of ethanol	uncertainty	Mole fraction of water	uncertainty	Mole fraction of water	uncertainty	Mole fraction of ethanol	uncertainty	Mole fraction of water	uncertainty	Mole fraction of ethanol	uncertainty
365.4	101.3	0	.002	.007	.005	1	.005	0	.002	.759	.005	0	.002
351.75	101.3	.369	.002	.208	.005	.515	.005	.425	.002	.36	.005	.511	.002
351.72	101.3	.395	.002	.263	.005	.46	.005	.442	.002	.358	.005	.513	.002
358.14	101.3	.03	.002	.009	.005	.959	.005	.041	.002	.541	.005	.278	.002
355.33	101.3	.062	.002	.02	.005	.921	.005	.079	.002	.48	.005	.369	.002
353.89	101.3	.104	.002	.04	.005	.856	.005	.143	.002	.419	.005	.443	.002
352.7	101.3	.155	.002	.055	.005	.786	.005	.21	.002	.392	.005	.472	.002
352.26	101.3	.208	.002	.071	.005	.722	.005	.268	.002	.379	.005	.486	.002
351.98	101.3	.248	.002	.095	.005	.659	.005	.329	.002	.368	.005	.5	.002
351.88	101.3	.3	.002	.146	.005	.605	.005	.37	.002	.361	.005	.509	.002
351.83	101.3	.339	.002	.176	.005	.557	.005	.398	.002	.362	.005	.509	.002
