Measured thermophysical data. Essential oil deterpenation by solvent extraction using 1-ethyl-3-methylimidazolium 2-(2-methoxyethoxy) ethylsulfate ionic liquid
Source: Fluid Phase Equilib., 2010, 10.1016/j.fluid.2010.03.019
Compound 1: 1-methyl-4-(1-methylethenyl)cyclohexaene, C10H16, purity 97%
Compound 2: (.+-.)-linalool, C10H18O, purity 97%
Compound 3: 1-ethyl-3-methylimidazolium 2-(2-methoxyethoxy) ethylsulfate, C11H22N2O6S

System: (.+-.)-linalool + 1-methyl-4-(1-methylethenyl)cyclohexaene + 1-ethyl-3-methylimidazolium 2-(2-methoxyethoxy) ethylsulfate; phases: Liquid mixture 1, Liquid mixture 2
Fixed: Pressure, kPa = 101.3
Property: Mole fraction of 1-methyl-4-(1-methylethenyl)cyclohexaene (Liquid mixture 1); method: Chromatography
Property: Mole fraction of (.+-.)-linalool (Liquid mixture 2); method: Chromatography
Property: Mole fraction of 1-methyl-4-(1-methylethenyl)cyclohexaene (Liquid mixture 2); method: Chromatography
Temperature, K	Mole fraction of (.+-.)-linalool	Mole fraction of 1-methyl-4-(1-methylethenyl)cyclohexaene	uncertainty	Mole fraction of (.+-.)-linalool	uncertainty	Mole fraction of 1-methyl-4-(1-methylethenyl)cyclohexaene	uncertainty
298.15	0	.018	.007	0	.005	1	.005
298.15	.505	.23	.007	.497	.005	.503	.005
308.15	0	.017	.007	0	.005	1	.005
308.15	.036	.026	.007	.075	.005	.925	.005
308.15	.113	.039	.007	.154	.005	.846	.005
308.15	.162	.045	.007	.199	.005	.801	.005
308.15	.256	.086	.007	.284	.005	.716	.005
308.15	.343	.113	.007	.353	.005	.647	.005
308.15	.382	.157	.007	.401	.005	.599	.005
308.15	.442	.194	.007	.434	.005	.566	.005
308.15	.502	.238	.007	.484	.005	.516	.005
298.15	.039	.023	.007	.064	.005	.936	.005
308.15	.546	.288	.007	.55	.005	.45	.005
318.15	0	.02	.007	0	.005	1	.005
318.15	.022	.025	.007	.07	.005	.925	.005
318.15	.115	.039	.007	.176	.005	.815	.005
318.15	.162	.042	.007	.205	.005	.795	.005
318.15	.251	.077	.007	.304	.005	.696	.005
318.15	.37	.132	.007	.413	.005	.587	.005
318.15	.425	.166	.007	.454	.005	.546	.005
318.15	.496	.21	.007	.501	.005	.499	.005
318.15	.556	.261	.007	.572	.005	.428	.005
298.15	.109	.036	.007	.162	.005	.838	.005
298.15	.163	.042	.007	.196	.005	.804	.005
298.15	.283	.109	.007	.288	.005	.712	.005
298.15	.329	.12	.007	.328	.005	.672	.005
298.15	.392	.156	.007	.387	.005	.613	.005
298.15	.419	.183	.007	.413	.005	.587	.005
298.15	.481	.22	.007	.46	.005	.54	.005
