Measured thermophysical data. Solubility of beta-diketonate complexes for cobalt(III) and chromium(III) in supercritical carbon dioxide
Source: Fluid Phase Equilib., 2010, 10.1016/j.fluid.2010.02.028
Compound 1: tris(2,2,6,6-tetramethyl-3,5-heptanedionate) cobalt (III), C33H57CoO6
Compound 2: tris(2,2,6,6-tetramethyl-3,5-heptandionato)chromiumtris(2,2,6,6-tetramethyl-3,5-heptandionato)chromium, C33H57CrO6
Compound 3: carbon dioxide, CO2, purity 99.995%

System: carbon dioxide + tris(2,2,6,6-tetramethyl-3,5-heptanedionate) cobalt (III); phases: Fluid (supercritical or subcritical phases), Crystal
Property: Mole fraction of tris(2,2,6,6-tetramethyl-3,5-heptanedionate) cobalt (III) (Fluid (supercritical or subcritical phases)); method: UV-vis spectrometer - calibration curve
Pressure, kPa	Temperature, K	Mole fraction of tris(2,2,6,6-tetramethyl-3,5-heptanedionate) cobalt (III)	uncertainty
10000	313	.000552	.00002484
11100	313	.000764	.00003438
12100	313	.000911	.000040995
13000	313	.00104	.0000468
14000	313	.00113	.00005085
15200	313	.00128	.0000576
16100	313	.00135	.00006075
17000	313	.00149	.00006705
17900	313	.00153	.00006885
11200	323	.000368	.00001656
12000	323	.000562	.00002529
13000	323	.0009	.0000405
14000	323	.00119	.00005355
15000	323	.00133	.00005985
15900	323	.00169	.00007605
16900	323	.0018	.000081
18100	323	.002	.00009
19800	323	.00232	.0001044
12100	333	.000191	.000008595
13100	333	.000483	.000021735
13900	333	.000759	.000034155
14900	333	.00116	.0000522
15900	333	.00148	.0000666
17000	333	.00202	.0000909
18200	333	.00231	.00010395
12300	343	.0001	.0000045
13000	343	.00018	.0000081
14000	343	.000413	.000018585
14900	343	.00067	.00003015
15900	343	.00109	.00004905
17000	343	.00171	.00007695
18000	343	.00217	.00009765
19000	343	.00283	.00012735

System: carbon dioxide + tris(2,2,6,6-tetramethyl-3,5-heptandionato)chromiumtris(2,2,6,6-tetramethyl-3,5-heptandionato)chromium; phases: Fluid (supercritical or subcritical phases), Crystal
Property: Mole fraction of tris(2,2,6,6-tetramethyl-3,5-heptandionato)chromiumtris(2,2,6,6-tetramethyl-3,5-heptandionato)chromium (Fluid (supercritical or subcritical phases)); method: UV-vis spectrometer - calibration curve
Pressure, kPa	Temperature, K	Mole fraction of tris(2,2,6,6-tetramethyl-3,5-heptandionato)chromiumtris(2,2,6,6-tetramethyl-3,5-heptandionato)chromium	uncertainty
10300	313	.00259	.00021497
11000	313	.00323	.00026809
12100	313	.00409	.00033947
14000	313	.00543	.00045069
18000	313	.00705	.00058515
10100	323	.000233	.000019339
11000	323	.000902	.000074866
11900	323	.0022	.0001826
13000	323	.00344	.00028552
13900	323	.00581	.00048223
11000	333	.000186	.000015438
12000	333	.00058	.00004814
13000	333	.00175	.00014525
14000	333	.00407	.00033781
12000	343	.000171	.000014193
13500	343	.000712	.000059096
14000	343	.00114	.00009462
15000	343	.00218	.00018094
16300	343	.00524	.00043492
